MODEL 1
REMARK VINA RESULT:    -3.239      0.000      0.000
REMARK INTER + INTRA:          -5.205
REMARK INTER:                  -4.660
REMARK INTRA:                  -0.545
REMARK UNBOUND:                -0.545
REMARK SMILES O=C(CO)[C@@H](O)[C@@H](O)[C@H](O)CO
REMARK SMILES IDX 7 1 9 2 11 3 12 4 10 6 5 8 2 9 1 10 3 11 4 12 6 14 8 16
REMARK H PARENT 12 5 10 7 4 13 6 15 8 17
REMARK Flexibility Score: inf
ROOT
ATOM      1  C   UNL     1      17.401   8.013  14.121  1.00  0.00     0.181 C 
ENDROOT
BRANCH   1   2
ATOM      2  C   UNL     1      17.251   8.284  15.644  1.00  0.00     0.171 C 
BRANCH   2   3
ATOM      3  C   UNL     1      16.265   7.334  16.352  1.00  0.00     0.190 C 
BRANCH   3   4
ATOM      4  O   UNL     1      14.933   7.686  16.089  1.00  0.00    -0.394 OA
ATOM      5  H   UNL     1      14.788   8.581  16.494  1.00  0.00     0.210 HD
ENDBRANCH   3   4
ENDBRANCH   2   3
BRANCH   2   6
ATOM      6  O   UNL     1      18.515   8.169  16.248  1.00  0.00    -0.388 OA
ATOM      7  H   UNL     1      19.178   8.534  15.606  1.00  0.00     0.211 HD
ENDBRANCH   2   6
ENDBRANCH   1   2
BRANCH   1   8
ATOM      8  C   UNL     1      16.633   9.035  13.230  1.00  0.00     0.214 C 
BRANCH   8   9
ATOM      9  C   UNL     1      16.805   8.751  11.750  1.00  0.00     0.189 C 
ATOM     10  O   UNL     1      17.933   8.686  11.283  1.00  0.00    -0.294 OA
BRANCH   9  11
ATOM     11  C   UNL     1      15.627   8.564  10.831  1.00  0.00     0.234 C 
BRANCH  11  12
ATOM     12  O   UNL     1      16.029   7.918   9.654  1.00  0.00    -0.388 OA
ATOM     13  H   UNL     1      16.324   8.628   9.026  1.00  0.00     0.211 HD
ENDBRANCH  11  12
ENDBRANCH   9  11
ENDBRANCH   8   9
BRANCH   8  14
ATOM     14  O   UNL     1      15.262   9.088  13.542  1.00  0.00    -0.382 OA
ATOM     15  H   UNL     1      14.888   9.918  13.150  1.00  0.00     0.211 HD
ENDBRANCH   8  14
ENDBRANCH   1   8
BRANCH   1  16
ATOM     16  O   UNL     1      18.768   8.012  13.785  1.00  0.00    -0.387 OA
ATOM     17  H   UNL     1      19.241   7.458  14.460  1.00  0.00     0.211 HD
ENDBRANCH   1  16
TORSDOF 10
ENDMDL
MODEL 2
REMARK VINA RESULT:    -3.219      1.284      4.817
REMARK INTER + INTRA:          -5.176
REMARK INTER:                  -5.011
REMARK INTRA:                  -0.166
REMARK UNBOUND:                -0.545
REMARK SMILES O=C(CO)[C@@H](O)[C@@H](O)[C@H](O)CO
REMARK SMILES IDX 7 1 9 2 11 3 12 4 10 6 5 8 2 9 1 10 3 11 4 12 6 14 8 16
REMARK H PARENT 12 5 10 7 4 13 6 15 8 17
REMARK Flexibility Score: inf
ROOT
ATOM      1  C   UNL     1      15.833   8.542  13.127  1.00  0.00     0.181 C 
ENDROOT
BRANCH   1   2
ATOM      2  C   UNL     1      15.679   8.973  11.642  1.00  0.00     0.171 C 
BRANCH   2   3
ATOM      3  C   UNL     1      16.425   8.061  10.648  1.00  0.00     0.190 C 
BRANCH   3   4
ATOM      4  O   UNL     1      15.620   7.734   9.547  1.00  0.00    -0.394 OA
ATOM      5  H   UNL     1      16.212   7.732   8.750  1.00  0.00     0.210 HD
ENDBRANCH   3   4
ENDBRANCH   2   3
BRANCH   2   6
ATOM      6  O   UNL     1      14.312   8.988  11.317  1.00  0.00    -0.388 OA
ATOM      7  H   UNL     1      13.851   8.406  11.977  1.00  0.00     0.211 HD
ENDBRANCH   2   6
ENDBRANCH   1   2
BRANCH   1   8
ATOM      8  C   UNL     1      17.219   8.908  13.740  1.00  0.00     0.214 C 
BRANCH   8   9
ATOM      9  C   UNL     1      17.372   8.395  15.159  1.00  0.00     0.189 C 
ATOM     10  O   UNL     1      16.411   8.431  15.914  1.00  0.00    -0.294 OA
BRANCH   9  11
ATOM     11  C   UNL     1      18.682   7.859  15.676  1.00  0.00     0.234 C 
BRANCH  11  12
ATOM     12  O   UNL     1      18.951   6.607  15.105  1.00  0.00    -0.388 OA
ATOM     13  H   UNL     1      18.294   6.483  14.371  1.00  0.00     0.211 HD
ENDBRANCH  11  12
ENDBRANCH   9  11
ENDBRANCH   8   9
BRANCH   8  14
ATOM     14  O   UNL     1      18.287   8.442  12.954  1.00  0.00    -0.382 OA
ATOM     15  H   UNL     1      17.947   8.276  12.037  1.00  0.00     0.211 HD
ENDBRANCH   8  14
ENDBRANCH   1   8
BRANCH   1  16
ATOM     16  O   UNL     1      14.801   9.125  13.886  1.00  0.00    -0.387 OA
ATOM     17  H   UNL     1      14.959   8.888  14.837  1.00  0.00     0.211 HD
ENDBRANCH   1  16
TORSDOF 10
ENDMDL
MODEL 3
REMARK VINA RESULT:    -2.987     17.800     18.856
REMARK INTER + INTRA:          -4.842
REMARK INTER:                  -4.262
REMARK INTRA:                  -0.581
REMARK UNBOUND:                -0.545
REMARK SMILES O=C(CO)[C@@H](O)[C@@H](O)[C@H](O)CO
REMARK SMILES IDX 7 1 9 2 11 3 12 4 10 6 5 8 2 9 1 10 3 11 4 12 6 14 8 16
REMARK H PARENT 12 5 10 7 4 13 6 15 8 17
REMARK Flexibility Score: inf
ROOT
ATOM      1  C   UNL     1      25.396  -7.202  16.507  1.00  0.00     0.181 C 
ENDROOT
BRANCH   1   2
ATOM      2  C   UNL     1      24.113  -8.015  16.178  1.00  0.00     0.171 C 
BRANCH   2   3
ATOM      3  C   UNL     1      22.893  -7.629  17.037  1.00  0.00     0.190 C 
BRANCH   3   4
ATOM      4  O   UNL     1      22.400  -6.362  16.690  1.00  0.00    -0.394 OA
ATOM      5  H   UNL     1      21.411  -6.442  16.648  1.00  0.00     0.210 HD
ENDBRANCH   3   4
ENDBRANCH   2   3
BRANCH   2   6
ATOM      6  O   UNL     1      23.798  -7.828  14.821  1.00  0.00    -0.388 OA
ATOM      7  H   UNL     1      23.274  -8.622  14.533  1.00  0.00     0.211 HD
ENDBRANCH   2   6
ENDBRANCH   1   2
BRANCH   1   8
ATOM      8  C   UNL     1      26.713  -7.924  16.092  1.00  0.00     0.214 C 
BRANCH   8   9
ATOM      9  C   UNL     1      26.514  -9.416  15.900  1.00  0.00     0.189 C 
ATOM     10  O   UNL     1      26.275 -10.116  16.874  1.00  0.00    -0.294 OA
BRANCH   9  11
ATOM     11  C   UNL     1      26.623 -10.067  14.546  1.00  0.00     0.234 C 
BRANCH  11  12
ATOM     12  O   UNL     1      25.946  -9.303  13.586  1.00  0.00    -0.388 OA
ATOM     13  H   UNL     1      26.625  -9.015  12.922  1.00  0.00     0.211 HD
ENDBRANCH  11  12
ENDBRANCH   9  11
ENDBRANCH   8   9
BRANCH   8  14
ATOM     14  O   UNL     1      27.278  -7.372  14.928  1.00  0.00    -0.382 OA
ATOM     15  H   UNL     1      26.923  -7.869  14.147  1.00  0.00     0.211 HD
ENDBRANCH   8  14
ENDBRANCH   1   8
BRANCH   1  16
ATOM     16  O   UNL     1      25.318  -5.944  15.881  1.00  0.00    -0.387 OA
ATOM     17  H   UNL     1      24.379  -5.631  15.955  1.00  0.00     0.211 HD
ENDBRANCH   1  16
TORSDOF 10
ENDMDL
MODEL 4
REMARK VINA RESULT:    -2.936     18.783     19.693
REMARK INTER + INTRA:          -4.769
REMARK INTER:                  -3.490
REMARK INTRA:                  -1.279
REMARK UNBOUND:                -0.545
REMARK SMILES O=C(CO)[C@@H](O)[C@@H](O)[C@H](O)CO
REMARK SMILES IDX 7 1 9 2 11 3 12 4 10 6 5 8 2 9 1 10 3 11 4 12 6 14 8 16
REMARK H PARENT 12 5 10 7 4 13 6 15 8 17
REMARK Flexibility Score: inf
ROOT
ATOM      1  C   UNL     1      26.339  -8.991  16.024  1.00  0.00     0.181 C 
ENDROOT
BRANCH   1   2
ATOM      2  C   UNL     1      25.085  -8.746  16.909  1.00  0.00     0.171 C 
BRANCH   2   3
ATOM      3  C   UNL     1      24.530  -7.310  16.819  1.00  0.00     0.190 C 
BRANCH   3   4
ATOM      4  O   UNL     1      23.871  -7.089  15.600  1.00  0.00    -0.394 OA
ATOM      5  H   UNL     1      23.566  -7.976  15.275  1.00  0.00     0.210 HD
ENDBRANCH   3   4
ENDBRANCH   2   3
BRANCH   2   6
ATOM      6  O   UNL     1      24.080  -9.652  16.528  1.00  0.00    -0.388 OA
ATOM      7  H   UNL     1      24.073  -9.677  15.535  1.00  0.00     0.211 HD
ENDBRANCH   2   6
ENDBRANCH   1   2
BRANCH   1   8
ATOM      8  C   UNL     1      26.251 -10.292  15.169  1.00  0.00     0.214 C 
BRANCH   8   9
ATOM      9  C   UNL     1      26.048  -9.997  13.695  1.00  0.00     0.189 C 
ATOM     10  O   UNL     1      27.023  -9.773  12.991  1.00  0.00    -0.294 OA
BRANCH   9  11
ATOM     11  C   UNL     1      24.677  -9.952  13.072  1.00  0.00     0.234 C 
BRANCH  11  12
ATOM     12  O   UNL     1      23.975  -8.829  13.530  1.00  0.00    -0.388 OA
ATOM     13  H   UNL     1      24.549  -8.393  14.213  1.00  0.00     0.211 HD
ENDBRANCH  11  12
ENDBRANCH   9  11
ENDBRANCH   8   9
BRANCH   8  14
ATOM     14  O   UNL     1      27.381 -11.112  15.333  1.00  0.00    -0.382 OA
ATOM     15  H   UNL     1      28.054 -10.852  14.652  1.00  0.00     0.211 HD
ENDBRANCH   8  14
ENDBRANCH   1   8
BRANCH   1  16
ATOM     16  O   UNL     1      26.538  -7.877  15.187  1.00  0.00    -0.387 OA
ATOM     17  H   UNL     1      25.669  -7.404  15.106  1.00  0.00     0.211 HD
ENDBRANCH   1  16
TORSDOF 10
ENDMDL
MODEL 5
REMARK VINA RESULT:    -2.904     18.206     19.353
REMARK INTER + INTRA:          -4.723
REMARK INTER:                  -3.295
REMARK INTRA:                  -1.428
REMARK UNBOUND:                -0.545
REMARK SMILES O=C(CO)[C@@H](O)[C@@H](O)[C@H](O)CO
REMARK SMILES IDX 7 1 9 2 11 3 12 4 10 6 5 8 2 9 1 10 3 11 4 12 6 14 8 16
REMARK H PARENT 12 5 10 7 4 13 6 15 8 17
REMARK Flexibility Score: inf
ROOT
ATOM      1  C   UNL     1      24.034  -9.643  14.940  1.00  0.00     0.181 C 
ENDROOT
BRANCH   1   2
ATOM      2  C   UNL     1      25.180 -10.578  14.463  1.00  0.00     0.171 C 
BRANCH   2   3
ATOM      3  C   UNL     1      26.031  -9.988  13.320  1.00  0.00     0.190 C 
BRANCH   3   4
ATOM      4  O   UNL     1      26.768  -8.875  13.750  1.00  0.00    -0.394 OA
ATOM      5  H   UNL     1      27.655  -8.932  13.309  1.00  0.00     0.210 HD
ENDBRANCH   3   4
ENDBRANCH   2   3
BRANCH   2   6
ATOM      6  O   UNL     1      26.014 -10.864  15.558  1.00  0.00    -0.388 OA
ATOM      7  H   UNL     1      25.719 -11.737  15.927  1.00  0.00     0.211 HD
ENDBRANCH   2   6
ENDBRANCH   1   2
BRANCH   1   8
ATOM      8  C   UNL     1      24.158  -9.222  16.436  1.00  0.00     0.214 C 
BRANCH   8   9
ATOM      9  C   UNL     1      24.825  -7.870  16.599  1.00  0.00     0.189 C 
ATOM     10  O   UNL     1      26.014  -7.755  16.338  1.00  0.00    -0.294 OA
BRANCH   9  11
ATOM     11  C   UNL     1      24.070  -6.663  17.092  1.00  0.00     0.234 C 
BRANCH  11  12
ATOM     12  O   UNL     1      22.875  -6.513  16.375  1.00  0.00    -0.388 OA
ATOM     13  H   UNL     1      23.019  -5.767  15.736  1.00  0.00     0.211 HD
ENDBRANCH  11  12
ENDBRANCH   9  11
ENDBRANCH   8   9
BRANCH   8  14
ATOM     14  O   UNL     1      22.913  -9.215  17.090  1.00  0.00    -0.382 OA
ATOM     15  H   UNL     1      22.206  -9.365  16.411  1.00  0.00     0.211 HD
ENDBRANCH   8  14
ENDBRANCH   1   8
BRANCH   1  16
ATOM     16  O   UNL     1      24.000  -8.500  14.119  1.00  0.00    -0.387 OA
ATOM     17  H   UNL     1      24.224  -7.717  14.687  1.00  0.00     0.211 HD
ENDBRANCH   1  16
TORSDOF 10
ENDMDL
MODEL 6
REMARK VINA RESULT:    -2.847     21.083     22.383
REMARK INTER + INTRA:          -4.640
REMARK INTER:                  -3.922
REMARK INTRA:                  -0.718
REMARK UNBOUND:                -0.545
REMARK SMILES O=C(CO)[C@@H](O)[C@@H](O)[C@H](O)CO
REMARK SMILES IDX 7 1 9 2 11 3 12 4 10 6 5 8 2 9 1 10 3 11 4 12 6 14 8 16
REMARK H PARENT 12 5 10 7 4 13 6 15 8 17
REMARK Flexibility Score: inf
ROOT
ATOM      1  C   UNL     1      10.644 -10.201   3.457  1.00  0.00     0.181 C 
ENDROOT
BRANCH   1   2
ATOM      2  C   UNL     1      10.222  -9.810   2.013  1.00  0.00     0.171 C 
BRANCH   2   3
ATOM      3  C   UNL     1      11.408  -9.478   1.086  1.00  0.00     0.190 C 
BRANCH   3   4
ATOM      4  O   UNL     1      12.250  -8.511   1.654  1.00  0.00    -0.394 OA
ATOM      5  H   UNL     1      12.057  -7.656   1.189  1.00  0.00     0.210 HD
ENDBRANCH   3   4
ENDBRANCH   2   3
BRANCH   2   6
ATOM      6  O   UNL     1       9.485 -10.869   1.456  1.00  0.00    -0.388 OA
ATOM      7  H   UNL     1      10.070 -11.309   0.785  1.00  0.00     0.211 HD
ENDBRANCH   2   6
ENDBRANCH   1   2
BRANCH   1   8
ATOM      8  C   UNL     1       9.481 -10.806   4.301  1.00  0.00     0.214 C 
BRANCH   8   9
ATOM      9  C   UNL     1       9.812 -10.855   5.780  1.00  0.00     0.189 C 
ATOM     10  O   UNL     1      10.953 -11.124   6.128  1.00  0.00    -0.294 OA
BRANCH   9  11
ATOM     11  C   UNL     1       8.770 -10.603   6.839  1.00  0.00     0.234 C 
BRANCH  11  12
ATOM     12  O   UNL     1       9.194  -9.582   7.701  1.00  0.00    -0.388 OA
ATOM     13  H   UNL     1       8.446  -8.931   7.759  1.00  0.00     0.211 HD
ENDBRANCH  11  12
ENDBRANCH   9  11
ENDBRANCH   8   9
BRANCH   8  14
ATOM     14  O   UNL     1       8.272 -10.114   4.112  1.00  0.00    -0.382 OA
ATOM     15  H   UNL     1       7.548 -10.630   4.553  1.00  0.00     0.211 HD
ENDBRANCH   8  14
ENDBRANCH   1   8
BRANCH   1  16
ATOM     16  O   UNL     1      11.717 -11.109   3.394  1.00  0.00    -0.387 OA
ATOM     17  H   UNL     1      11.425 -11.948   3.836  1.00  0.00     0.211 HD
ENDBRANCH   1  16
TORSDOF 10
ENDMDL
MODEL 7
REMARK VINA RESULT:    -2.819      1.249      4.681
REMARK INTER + INTRA:          -4.600
REMARK INTER:                  -3.694
REMARK INTRA:                  -0.906
REMARK UNBOUND:                -0.545
REMARK SMILES O=C(CO)[C@@H](O)[C@@H](O)[C@H](O)CO
REMARK SMILES IDX 7 1 9 2 11 3 12 4 10 6 5 8 2 9 1 10 3 11 4 12 6 14 8 16
REMARK H PARENT 12 5 10 7 4 13 6 15 8 17
REMARK Flexibility Score: inf
ROOT
ATOM      1  C   UNL     1      18.017   8.298  13.753  1.00  0.00     0.181 C 
ENDROOT
BRANCH   1   2
ATOM      2  C   UNL     1      16.936   9.124  13.001  1.00  0.00     0.171 C 
BRANCH   2   3
ATOM      3  C   UNL     1      16.751   8.712  11.527  1.00  0.00     0.190 C 
BRANCH   3   4
ATOM      4  O   UNL     1      17.977   8.393  10.925  1.00  0.00    -0.394 OA
ATOM      5  H   UNL     1      18.618   8.208  11.660  1.00  0.00     0.210 HD
ENDBRANCH   3   4
ENDBRANCH   2   3
BRANCH   2   6
ATOM      6  O   UNL     1      15.711   8.983  13.676  1.00  0.00    -0.388 OA
ATOM      7  H   UNL     1      15.020   9.427  13.118  1.00  0.00     0.211 HD
ENDBRANCH   2   6
ENDBRANCH   1   2
BRANCH   1   8
ATOM      8  C   UNL     1      18.655   9.058  14.955  1.00  0.00     0.214 C 
BRANCH   8   9
ATOM      9  C   UNL     1      18.243   8.471  16.291  1.00  0.00     0.189 C 
ATOM     10  O   UNL     1      18.913   7.573  16.781  1.00  0.00    -0.294 OA
BRANCH   9  11
ATOM     11  C   UNL     1      17.017   8.945  17.027  1.00  0.00     0.234 C 
BRANCH  11  12
ATOM     12  O   UNL     1      15.872   8.318  16.515  1.00  0.00    -0.388 OA
ATOM     13  H   UNL     1      15.459   8.957  15.877  1.00  0.00     0.211 HD
ENDBRANCH  11  12
ENDBRANCH   9  11
ENDBRANCH   8   9
BRANCH   8  14
ATOM     14  O   UNL     1      20.059   9.098  14.873  1.00  0.00    -0.382 OA
ATOM     15  H   UNL     1      20.359   8.320  14.336  1.00  0.00     0.211 HD
ENDBRANCH   8  14
ENDBRANCH   1   8
BRANCH   1  16
ATOM     16  O   UNL     1      17.448   7.088  14.195  1.00  0.00    -0.387 OA
ATOM     17  H   UNL     1      17.237   7.192  15.160  1.00  0.00     0.211 HD
ENDBRANCH   1  16
TORSDOF 10
ENDMDL
MODEL 8
REMARK VINA RESULT:    -2.815      6.397      8.141
REMARK INTER + INTRA:          -4.595
REMARK INTER:                  -4.160
REMARK INTRA:                  -0.436
REMARK UNBOUND:                -0.545
REMARK SMILES O=C(CO)[C@@H](O)[C@@H](O)[C@H](O)CO
REMARK SMILES IDX 7 1 9 2 11 3 12 4 10 6 5 8 2 9 1 10 3 11 4 12 6 14 8 16
REMARK H PARENT 12 5 10 7 4 13 6 15 8 17
REMARK Flexibility Score: inf
ROOT
ATOM      1  C   UNL     1      10.336   8.103  15.767  1.00  0.00     0.181 C 
ENDROOT
BRANCH   1   2
ATOM      2  C   UNL     1       9.415   8.904  14.804  1.00  0.00     0.171 C 
BRANCH   2   3
ATOM      3  C   UNL     1      10.020   9.122  13.402  1.00  0.00     0.190 C 
BRANCH   3   4
ATOM      4  O   UNL     1      10.175   7.909  12.715  1.00  0.00    -0.394 OA
ATOM      5  H   UNL     1       9.306   7.434  12.773  1.00  0.00     0.210 HD
ENDBRANCH   3   4
ENDBRANCH   2   3
BRANCH   2   6
ATOM      6  O   UNL     1       8.193   8.221  14.677  1.00  0.00    -0.388 OA
ATOM      7  H   UNL     1       7.621   8.507  15.437  1.00  0.00     0.211 HD
ENDBRANCH   2   6
ENDBRANCH   1   2
BRANCH   1   8
ATOM      8  C   UNL     1       9.865   6.636  16.000  1.00  0.00     0.214 C 
BRANCH   8   9
ATOM      9  C   UNL     1      10.889   5.819  16.764  1.00  0.00     0.189 C 
ATOM     10  O   UNL     1      11.929   6.351  17.124  1.00  0.00    -0.294 OA
BRANCH   9  11
ATOM     11  C   UNL     1      10.674   4.361  17.077  1.00  0.00     0.234 C 
BRANCH  11  12
ATOM     12  O   UNL     1      11.876   3.654  16.938  1.00  0.00    -0.388 OA
ATOM     13  H   UNL     1      11.769   2.808  17.446  1.00  0.00     0.211 HD
ENDBRANCH  11  12
ENDBRANCH   9  11
ENDBRANCH   8   9
BRANCH   8  14
ATOM     14  O   UNL     1       8.626   6.575  16.662  1.00  0.00    -0.382 OA
ATOM     15  H   UNL     1       8.217   7.478  16.637  1.00  0.00     0.211 HD
ENDBRANCH   8  14
ENDBRANCH   1   8
BRANCH   1  16
ATOM     16  O   UNL     1      11.650   8.114  15.263  1.00  0.00    -0.387 OA
ATOM     17  H   UNL     1      11.834   9.030  14.927  1.00  0.00     0.211 HD
ENDBRANCH   1  16
TORSDOF 10
ENDMDL
MODEL 9
REMARK VINA RESULT:    -2.730     20.178     21.441
REMARK INTER + INTRA:          -4.472
REMARK INTER:                  -4.231
REMARK INTRA:                  -0.241
REMARK UNBOUND:                -0.545
REMARK SMILES O=C(CO)[C@@H](O)[C@@H](O)[C@H](O)CO
REMARK SMILES IDX 7 1 9 2 11 3 12 4 10 6 5 8 2 9 1 10 3 11 4 12 6 14 8 16
REMARK H PARENT 12 5 10 7 4 13 6 15 8 17
REMARK Flexibility Score: inf
ROOT
ATOM      1  C   UNL     1       9.171 -10.427   6.501  1.00  0.00     0.181 C 
ENDROOT
BRANCH   1   2
ATOM      2  C   UNL     1       9.534 -10.581   8.005  1.00  0.00     0.171 C 
BRANCH   2   3
ATOM      3  C   UNL     1      10.346  -9.400   8.573  1.00  0.00     0.190 C 
BRANCH   3   4
ATOM      4  O   UNL     1       9.565  -8.240   8.675  1.00  0.00    -0.394 OA
ATOM      5  H   UNL     1       8.708  -8.508   9.097  1.00  0.00     0.210 HD
ENDBRANCH   3   4
ENDBRANCH   2   3
BRANCH   2   6
ATOM      6  O   UNL     1       8.346 -10.720   8.743  1.00  0.00    -0.388 OA
ATOM      7  H   UNL     1       7.675 -10.118   8.328  1.00  0.00     0.211 HD
ENDBRANCH   2   6
ENDBRANCH   1   2
BRANCH   1   8
ATOM      8  C   UNL     1      10.183 -11.125   5.543  1.00  0.00     0.214 C 
BRANCH   8   9
ATOM      9  C   UNL     1      10.086 -10.600   4.124  1.00  0.00     0.189 C 
ATOM     10  O   UNL     1       9.006 -10.206   3.706  1.00  0.00    -0.294 OA
BRANCH   9  11
ATOM     11  C   UNL     1      11.277 -10.566   3.202  1.00  0.00     0.234 C 
BRANCH  11  12
ATOM     12  O   UNL     1      10.870 -10.251   1.898  1.00  0.00    -0.388 OA
ATOM     13  H   UNL     1       9.887 -10.118   1.931  1.00  0.00     0.211 HD
ENDBRANCH  11  12
ENDBRANCH   9  11
ENDBRANCH   8   9
BRANCH   8  14
ATOM     14  O   UNL     1      11.509 -11.011   5.997  1.00  0.00    -0.382 OA
ATOM     15  H   UNL     1      11.560 -11.406   6.905  1.00  0.00     0.211 HD
ENDBRANCH   8  14
ENDBRANCH   1   8
BRANCH   1  16
ATOM     16  O   UNL     1       7.875 -10.933   6.286  1.00  0.00    -0.387 OA
ATOM     17  H   UNL     1       7.853 -11.859   6.643  1.00  0.00     0.211 HD
ENDBRANCH   1  16
TORSDOF 10
ENDMDL
