MODEL 1
REMARK VINA RESULT:    -3.445      0.000      0.000
REMARK INTER + INTRA:          -5.008
REMARK INTER:                  -4.653
REMARK INTRA:                  -0.356
REMARK UNBOUND:                -0.356
REMARK SMILES CCCCCCCC(=O)[O-]
REMARK SMILES IDX 5 1 6 2 7 3 8 4 9 5 10 6 4 7 3 8 2 9 1 10
REMARK H PARENT
REMARK Flexibility Score: inf
ROOT
ATOM      1  C   UNL     1     154.289 171.217 164.692  1.00  0.00     0.000 C 
ENDROOT
BRANCH   1   2
ATOM      2  C   UNL     1     154.991 172.071 163.627  1.00  0.00     0.006 C 
BRANCH   2   3
ATOM      3  C   UNL     1     156.068 172.982 164.231  1.00  0.00     0.053 C 
BRANCH   3   4
ATOM      4  C   UNL     1     157.021 173.479 163.187  1.00  0.00     0.041 C 
ATOM      5  O   UNL     1     156.788 174.556 162.578  1.00  0.00    -0.550 OA
ATOM      6  O   UNL     1     158.150 172.738 162.866  1.00  0.00    -0.550 OA
ENDBRANCH   3   4
ENDBRANCH   2   3
ENDBRANCH   1   2
BRANCH   1   7
ATOM      7  C   UNL     1     154.582 171.745 166.104  1.00  0.00     0.000 C 
BRANCH   7   8
ATOM      8  C   UNL     1     154.706 170.608 167.140  1.00  0.00    -0.000 C 
BRANCH   8   9
ATOM      9  C   UNL     1     155.878 170.792 168.120  1.00  0.00    -0.003 C 
ATOM     10  C   UNL     1     156.629 172.105 167.915  1.00  0.00     0.004 C 
ENDBRANCH   8   9
ENDBRANCH   7   8
ENDBRANCH   1   7
TORSDOF 6
ENDMDL
MODEL 2
REMARK VINA RESULT:    -3.442      3.007      4.523
REMARK INTER + INTRA:          -5.004
REMARK INTER:                  -4.409
REMARK INTRA:                  -0.596
REMARK UNBOUND:                -0.356
REMARK SMILES CCCCCCCC(=O)[O-]
REMARK SMILES IDX 5 1 6 2 7 3 8 4 9 5 10 6 4 7 3 8 2 9 1 10
REMARK H PARENT
REMARK Flexibility Score: inf
ROOT
ATOM      1  C   UNL     1     157.223 173.978 165.937  1.00  0.00     0.000 C 
ENDROOT
BRANCH   1   2
ATOM      2  C   UNL     1     155.721 174.244 165.759  1.00  0.00     0.006 C 
BRANCH   2   3
ATOM      3  C   UNL     1     155.436 175.206 164.599  1.00  0.00     0.053 C 
BRANCH   3   4
ATOM      4  C   UNL     1     154.668 174.536 163.500  1.00  0.00     0.041 C 
ATOM      5  O   UNL     1     153.840 175.191 162.814  1.00  0.00    -0.550 OA
ATOM      6  O   UNL     1     154.844 173.181 163.256  1.00  0.00    -0.550 OA
ENDBRANCH   3   4
ENDBRANCH   2   3
ENDBRANCH   1   2
BRANCH   1   7
ATOM      7  C   UNL     1     158.046 174.750 164.895  1.00  0.00     0.000 C 
BRANCH   7   8
ATOM      8  C   UNL     1     159.017 173.832 164.121  1.00  0.00    -0.000 C 
BRANCH   8   9
ATOM      9  C   UNL     1     158.407 173.225 162.846  1.00  0.00    -0.003 C 
ATOM     10  C   UNL     1     157.983 174.278 161.825  1.00  0.00     0.004 C 
ENDBRANCH   8   9
ENDBRANCH   7   8
ENDBRANCH   1   7
TORSDOF 6
ENDMDL
MODEL 3
REMARK VINA RESULT:    -3.434      1.441      2.410
REMARK INTER + INTRA:          -4.994
REMARK INTER:                  -4.492
REMARK INTRA:                  -0.502
REMARK UNBOUND:                -0.356
REMARK SMILES CCCCCCCC(=O)[O-]
REMARK SMILES IDX 5 1 6 2 7 3 8 4 9 5 10 6 4 7 3 8 2 9 1 10
REMARK H PARENT
REMARK Flexibility Score: inf
ROOT
ATOM      1  C   UNL     1     156.062 174.345 165.510  1.00  0.00     0.000 C 
ENDROOT
BRANCH   1   2
ATOM      2  C   UNL     1     156.991 173.482 164.644  1.00  0.00     0.006 C 
BRANCH   2   3
ATOM      3  C   UNL     1     156.216 172.635 163.626  1.00  0.00     0.053 C 
BRANCH   3   4
ATOM      4  C   UNL     1     155.669 173.473 162.511  1.00  0.00     0.041 C 
ATOM      5  O   UNL     1     156.449 174.100 161.747  1.00  0.00    -0.550 OA
ATOM      6  O   UNL     1     154.296 173.586 162.335  1.00  0.00    -0.550 OA
ENDBRANCH   3   4
ENDBRANCH   2   3
ENDBRANCH   1   2
BRANCH   1   7
ATOM      7  C   UNL     1     155.364 173.496 166.583  1.00  0.00     0.000 C 
BRANCH   7   8
ATOM      8  C   UNL     1     156.366 172.670 167.418  1.00  0.00    -0.000 C 
BRANCH   8   9
ATOM      9  C   UNL     1     155.868 171.254 167.754  1.00  0.00    -0.003 C 
ATOM     10  C   UNL     1     154.690 170.812 166.889  1.00  0.00     0.004 C 
ENDBRANCH   8   9
ENDBRANCH   7   8
ENDBRANCH   1   7
TORSDOF 6
ENDMDL
MODEL 4
REMARK VINA RESULT:    -3.392      1.528      2.849
REMARK INTER + INTRA:          -4.937
REMARK INTER:                  -4.372
REMARK INTRA:                  -0.566
REMARK UNBOUND:                -0.356
REMARK SMILES CCCCCCCC(=O)[O-]
REMARK SMILES IDX 5 1 6 2 7 3 8 4 9 5 10 6 4 7 3 8 2 9 1 10
REMARK H PARENT
REMARK Flexibility Score: inf
ROOT
ATOM      1  C   UNL     1     156.258 174.134 165.408  1.00  0.00     0.000 C 
ENDROOT
BRANCH   1   2
ATOM      2  C   UNL     1     157.605 174.141 164.670  1.00  0.00     0.006 C 
BRANCH   2   3
ATOM      3  C   UNL     1     157.636 173.137 163.510  1.00  0.00     0.053 C 
BRANCH   3   4
ATOM      4  C   UNL     1     157.172 173.759 162.228  1.00  0.00     0.041 C 
ATOM      5  O   UNL     1     157.995 174.333 161.467  1.00  0.00    -0.550 OA
ATOM      6  O   UNL     1     155.825 173.732 161.889  1.00  0.00    -0.550 OA
ENDBRANCH   3   4
ENDBRANCH   2   3
ENDBRANCH   1   2
BRANCH   1   7
ATOM      7  C   UNL     1     156.257 173.100 166.544  1.00  0.00     0.000 C 
BRANCH   7   8
ATOM      8  C   UNL     1     155.246 171.960 166.295  1.00  0.00    -0.000 C 
BRANCH   8   9
ATOM      9  C   UNL     1     154.387 172.162 165.035  1.00  0.00    -0.003 C 
ATOM     10  C   UNL     1     154.560 171.048 164.006  1.00  0.00     0.004 C 
ENDBRANCH   8   9
ENDBRANCH   7   8
ENDBRANCH   1   7
TORSDOF 6
ENDMDL
MODEL 5
REMARK VINA RESULT:    -3.359      2.773      4.828
REMARK INTER + INTRA:          -4.893
REMARK INTER:                  -4.447
REMARK INTRA:                  -0.446
REMARK UNBOUND:                -0.356
REMARK SMILES CCCCCCCC(=O)[O-]
REMARK SMILES IDX 5 1 6 2 7 3 8 4 9 5 10 6 4 7 3 8 2 9 1 10
REMARK H PARENT
REMARK Flexibility Score: inf
ROOT
ATOM      1  C   UNL     1     156.561 174.461 165.318  1.00  0.00     0.000 C 
ENDROOT
BRANCH   1   2
ATOM      2  C   UNL     1     156.669 173.333 166.354  1.00  0.00     0.006 C 
BRANCH   2   3
ATOM      3  C   UNL     1     155.301 172.939 166.927  1.00  0.00     0.053 C 
BRANCH   3   4
ATOM      4  C   UNL     1     154.987 171.498 166.666  1.00  0.00     0.041 C 
ATOM      5  O   UNL     1     154.376 171.162 165.617  1.00  0.00    -0.550 OA
ATOM      6  O   UNL     1     155.339 170.529 167.597  1.00  0.00    -0.550 OA
ENDBRANCH   3   4
ENDBRANCH   2   3
ENDBRANCH   1   2
BRANCH   1   7
ATOM      7  C   UNL     1     155.979 173.941 163.995  1.00  0.00     0.000 C 
BRANCH   7   8
ATOM      8  C   UNL     1     156.778 172.745 163.434  1.00  0.00    -0.000 C 
BRANCH   8   9
ATOM      9  C   UNL     1     158.164 173.132 162.889  1.00  0.00    -0.003 C 
ATOM     10  C   UNL     1     158.109 174.250 161.852  1.00  0.00     0.004 C 
ENDBRANCH   8   9
ENDBRANCH   7   8
ENDBRANCH   1   7
TORSDOF 6
ENDMDL
MODEL 6
REMARK VINA RESULT:    -3.358      1.708      2.672
REMARK INTER + INTRA:          -4.891
REMARK INTER:                  -4.377
REMARK INTRA:                  -0.514
REMARK UNBOUND:                -0.356
REMARK SMILES CCCCCCCC(=O)[O-]
REMARK SMILES IDX 5 1 6 2 7 3 8 4 9 5 10 6 4 7 3 8 2 9 1 10
REMARK H PARENT
REMARK Flexibility Score: inf
ROOT
ATOM      1  C   UNL     1     155.504 173.398 162.882  1.00  0.00     0.000 C 
ENDROOT
BRANCH   1   2
ATOM      2  C   UNL     1     156.878 173.663 162.251  1.00  0.00     0.006 C 
BRANCH   2   3
ATOM      3  C   UNL     1     158.009 172.944 162.999  1.00  0.00     0.053 C 
BRANCH   3   4
ATOM      4  C   UNL     1     158.897 173.912 163.721  1.00  0.00     0.041 C 
ATOM      5  O   UNL     1     159.951 173.508 164.282  1.00  0.00    -0.550 OA
ATOM      6  O   UNL     1     158.546 175.253 163.800  1.00  0.00    -0.550 OA
ENDBRANCH   3   4
ENDBRANCH   2   3
ENDBRANCH   1   2
BRANCH   1   7
ATOM      7  C   UNL     1     155.523 172.115 163.726  1.00  0.00     0.000 C 
BRANCH   7   8
ATOM      8  C   UNL     1     154.690 172.252 165.018  1.00  0.00    -0.000 C 
BRANCH   8   9
ATOM      9  C   UNL     1     155.535 172.217 166.303  1.00  0.00    -0.003 C 
ATOM     10  C   UNL     1     156.429 173.443 166.465  1.00  0.00     0.004 C 
ENDBRANCH   8   9
ENDBRANCH   7   8
ENDBRANCH   1   7
TORSDOF 6
ENDMDL
MODEL 7
REMARK VINA RESULT:    -3.348      1.929      3.153
REMARK INTER + INTRA:          -4.878
REMARK INTER:                  -4.272
REMARK INTRA:                  -0.606
REMARK UNBOUND:                -0.356
REMARK SMILES CCCCCCCC(=O)[O-]
REMARK SMILES IDX 5 1 6 2 7 3 8 4 9 5 10 6 4 7 3 8 2 9 1 10
REMARK H PARENT
REMARK Flexibility Score: inf
ROOT
ATOM      1  C   UNL     1     156.624 173.427 166.314  1.00  0.00     0.000 C 
ENDROOT
BRANCH   1   2
ATOM      2  C   UNL     1     156.541 174.518 165.238  1.00  0.00     0.006 C 
BRANCH   2   3
ATOM      3  C   UNL     1     155.106 175.021 165.030  1.00  0.00     0.053 C 
BRANCH   3   4
ATOM      4  C   UNL     1     154.742 175.071 163.578  1.00  0.00     0.041 C 
ATOM      5  O   UNL     1     153.623 174.642 163.189  1.00  0.00    -0.550 OA
ATOM      6  O   UNL     1     155.649 175.563 162.649  1.00  0.00    -0.550 OA
ENDBRANCH   3   4
ENDBRANCH   2   3
ENDBRANCH   1   2
BRANCH   1   7
ATOM      7  C   UNL     1     155.223 173.009 166.784  1.00  0.00     0.000 C 
BRANCH   7   8
ATOM      8  C   UNL     1     154.891 171.549 166.407  1.00  0.00    -0.000 C 
BRANCH   8   9
ATOM      9  C   UNL     1     153.988 171.422 165.168  1.00  0.00    -0.003 C 
ATOM     10  C   UNL     1     154.770 171.181 163.879  1.00  0.00     0.004 C 
ENDBRANCH   8   9
ENDBRANCH   7   8
ENDBRANCH   1   7
TORSDOF 6
ENDMDL
MODEL 8
REMARK VINA RESULT:    -3.348      3.215      5.524
REMARK INTER + INTRA:          -4.878
REMARK INTER:                  -4.331
REMARK INTRA:                  -0.546
REMARK UNBOUND:                -0.356
REMARK SMILES CCCCCCCC(=O)[O-]
REMARK SMILES IDX 5 1 6 2 7 3 8 4 9 5 10 6 4 7 3 8 2 9 1 10
REMARK H PARENT
REMARK Flexibility Score: inf
ROOT
ATOM      1  C   UNL     1     157.787 172.783 163.165  1.00  0.00     0.000 C 
ENDROOT
BRANCH   1   2
ATOM      2  C   UNL     1     156.509 173.384 163.767  1.00  0.00     0.006 C 
BRANCH   2   3
ATOM      3  C   UNL     1     155.268 172.535 163.459  1.00  0.00     0.053 C 
BRANCH   3   4
ATOM      4  C   UNL     1     154.127 173.378 162.977  1.00  0.00     0.041 C 
ATOM      5  O   UNL     1     153.187 172.858 162.320  1.00  0.00    -0.550 OA
ATOM      6  O   UNL     1     154.117 174.744 163.227  1.00  0.00    -0.550 OA
ENDBRANCH   3   4
ENDBRANCH   2   3
ENDBRANCH   1   2
BRANCH   1   7
ATOM      7  C   UNL     1     158.570 173.839 162.371  1.00  0.00     0.000 C 
BRANCH   7   8
ATOM      8  C   UNL     1     157.643 174.884 161.715  1.00  0.00    -0.000 C 
BRANCH   8   9
ATOM      9  C   UNL     1     157.259 174.544 160.265  1.00  0.00    -0.003 C 
ATOM     10  C   UNL     1     155.756 174.619 160.010  1.00  0.00     0.004 C 
ENDBRANCH   8   9
ENDBRANCH   7   8
ENDBRANCH   1   7
TORSDOF 6
ENDMDL
MODEL 9
REMARK VINA RESULT:    -3.335      3.010      4.354
REMARK INTER + INTRA:          -4.861
REMARK INTER:                  -4.345
REMARK INTRA:                  -0.516
REMARK UNBOUND:                -0.356
REMARK SMILES CCCCCCCC(=O)[O-]
REMARK SMILES IDX 5 1 6 2 7 3 8 4 9 5 10 6 4 7 3 8 2 9 1 10
REMARK H PARENT
REMARK Flexibility Score: inf
ROOT
ATOM      1  C   UNL     1     156.673 173.692 162.181  1.00  0.00     0.000 C 
ENDROOT
BRANCH   1   2
ATOM      2  C   UNL     1     156.305 172.732 163.321  1.00  0.00     0.006 C 
BRANCH   2   3
ATOM      3  C   UNL     1     155.058 173.192 164.088  1.00  0.00     0.053 C 
BRANCH   3   4
ATOM      4  C   UNL     1     155.392 174.230 165.115  1.00  0.00     0.041 C 
ATOM      5  O   UNL     1     155.445 173.922 166.335  1.00  0.00    -0.550 OA
ATOM      6  O   UNL     1     155.614 175.546 164.729  1.00  0.00    -0.550 OA
ENDBRANCH   3   4
ENDBRANCH   2   3
ENDBRANCH   1   2
BRANCH   1   7
ATOM      7  C   UNL     1     158.185 173.956 162.148  1.00  0.00     0.000 C 
BRANCH   7   8
ATOM      8  C   UNL     1     158.909 173.361 163.375  1.00  0.00    -0.000 C 
BRANCH   8   9
ATOM      9  C   UNL     1     159.421 174.423 164.363  1.00  0.00    -0.003 C 
ATOM     10  C   UNL     1     159.004 174.150 165.806  1.00  0.00     0.004 C 
ENDBRANCH   8   9
ENDBRANCH   7   8
ENDBRANCH   1   7
TORSDOF 6
ENDMDL
