MODEL 1
REMARK VINA RESULT:    -5.101      0.000      0.000
REMARK INTER + INTRA:          -5.399
REMARK INTER:                  -5.399
REMARK INTRA:                   0.000
REMARK UNBOUND:                 0.000
REMARK SMILES Cc1cc(O)c(C)c(C)c1O
REMARK SMILES IDX 1 1 2 2 3 3 4 4 6 5 8 6 10 7 9 8 7 9 11 10 5 12
REMARK H PARENT 11 11 5 13
REMARK Flexibility Score: inf
ROOT
ATOM      1  C   UNL     1      -9.642  -3.623  -9.470  1.00  0.00     0.048 C 
ATOM      2  C   UNL     1     -10.593  -4.505  -8.705  1.00  0.00    -0.005 A 
ATOM      3  C   UNL     1     -11.690  -5.065  -9.369  1.00  0.00     0.053 A 
ATOM      4  C   UNL     1     -12.604  -5.876  -8.688  1.00  0.00     0.119 A 
ATOM      5  C   UNL     1     -12.432  -6.138  -7.316  1.00  0.00    -0.003 A 
ATOM      6  C   UNL     1     -11.296  -5.620  -6.642  1.00  0.00    -0.002 A 
ATOM      7  C   UNL     1     -10.395  -4.778  -7.334  1.00  0.00     0.121 A 
ATOM      8  C   UNL     1     -11.071  -5.911  -5.176  1.00  0.00     0.049 C 
ATOM      9  C   UNL     1     -13.432  -7.010  -6.591  1.00  0.00     0.049 C 
ENDROOT
BRANCH   7  10
ATOM     10  O   UNL     1      -9.312  -4.225  -6.641  1.00  0.00    -0.507 OA
ATOM     11  H   UNL     1      -8.582  -4.780  -6.214  1.00  0.00     0.293 HD
ENDBRANCH   7  10
BRANCH   4  12
ATOM     12  O   UNL     1     -13.686  -6.421  -9.382  1.00  0.00    -0.508 OA
ATOM     13  H   UNL     1     -14.276  -5.856  -9.981  1.00  0.00     0.293 HD
ENDBRANCH   4  12
TORSDOF 2
ENDMDL
MODEL 2
REMARK VINA RESULT:    -5.056      1.800      2.856
REMARK INTER + INTRA:          -5.352
REMARK INTER:                  -5.352
REMARK INTRA:                   0.000
REMARK UNBOUND:                 0.000
REMARK SMILES Cc1cc(O)c(C)c(C)c1O
REMARK SMILES IDX 1 1 2 2 3 3 4 4 6 5 8 6 10 7 9 8 7 9 11 10 5 12
REMARK H PARENT 11 11 5 13
REMARK Flexibility Score: inf
ROOT
ATOM      1  C   UNL     1      -9.060  -3.441  -7.783  1.00  0.00     0.048 C 
ATOM      2  C   UNL     1     -10.171  -4.451  -7.666  1.00  0.00    -0.005 A 
ATOM      3  C   UNL     1     -10.578  -4.876  -6.396  1.00  0.00     0.053 A 
ATOM      4  C   UNL     1     -11.594  -5.825  -6.248  1.00  0.00     0.119 A 
ATOM      5  C   UNL     1     -12.224  -6.370  -7.383  1.00  0.00    -0.003 A 
ATOM      6  C   UNL     1     -11.859  -5.910  -8.674  1.00  0.00    -0.002 A 
ATOM      7  C   UNL     1     -10.810  -4.972  -8.812  1.00  0.00     0.121 A 
ATOM      8  C   UNL     1     -12.541  -6.456  -9.908  1.00  0.00     0.049 C 
ATOM      9  C   UNL     1     -13.318  -7.399  -7.207  1.00  0.00     0.049 C 
ENDROOT
BRANCH   7  10
ATOM     10  O   UNL     1     -10.419  -4.573 -10.096  1.00  0.00    -0.507 OA
ATOM     11  H   UNL     1     -10.028  -5.206 -10.781  1.00  0.00     0.293 HD
ENDBRANCH   7  10
BRANCH   4  12
ATOM     12  O   UNL     1     -11.977  -6.224  -4.967  1.00  0.00    -0.508 OA
ATOM     13  H   UNL     1     -11.393  -6.826  -4.398  1.00  0.00     0.293 HD
ENDBRANCH   4  12
TORSDOF 2
ENDMDL
MODEL 3
REMARK VINA RESULT:    -4.870      1.283      4.315
REMARK INTER + INTRA:          -5.155
REMARK INTER:                  -5.155
REMARK INTRA:                   0.000
REMARK UNBOUND:                 0.000
REMARK SMILES Cc1cc(O)c(C)c(C)c1O
REMARK SMILES IDX 1 1 2 2 3 3 4 4 6 5 8 6 10 7 9 8 7 9 11 10 5 12
REMARK H PARENT 11 11 5 13
REMARK Flexibility Score: inf
ROOT
ATOM      1  C   UNL     1     -12.129  -7.726  -4.900  1.00  0.00     0.048 C 
ATOM      2  C   UNL     1     -11.747  -6.847  -6.061  1.00  0.00    -0.005 A 
ATOM      3  C   UNL     1     -10.832  -5.807  -5.860  1.00  0.00     0.053 A 
ATOM      4  C   UNL     1     -10.465  -4.960  -6.910  1.00  0.00     0.119 A 
ATOM      5  C   UNL     1     -11.018  -5.142  -8.192  1.00  0.00    -0.003 A 
ATOM      6  C   UNL     1     -11.906  -6.224  -8.423  1.00  0.00    -0.002 A 
ATOM      7  C   UNL     1     -12.291  -7.056  -7.347  1.00  0.00     0.121 A 
ATOM      8  C   UNL     1     -12.490  -6.461  -9.798  1.00  0.00     0.049 C 
ATOM      9  C   UNL     1     -10.617  -4.215  -9.316  1.00  0.00     0.049 C 
ENDROOT
BRANCH   7  10
ATOM     10  O   UNL     1     -13.215  -8.082  -7.578  1.00  0.00    -0.507 OA
ATOM     11  H   UNL     1     -13.025  -9.057  -7.386  1.00  0.00     0.293 HD
ENDBRANCH   7  10
BRANCH   4  12
ATOM     12  O   UNL     1      -9.548  -3.935  -6.675  1.00  0.00    -0.508 OA
ATOM     13  H   UNL     1      -9.434  -3.520  -5.757  1.00  0.00     0.293 HD
ENDBRANCH   4  12
TORSDOF 2
ENDMDL
MODEL 4
REMARK VINA RESULT:    -4.750     17.336     18.915
REMARK INTER + INTRA:          -5.028
REMARK INTER:                  -5.028
REMARK INTRA:                   0.000
REMARK UNBOUND:                 0.000
REMARK SMILES Cc1cc(O)c(C)c(C)c1O
REMARK SMILES IDX 1 1 2 2 3 3 4 4 6 5 8 6 10 7 9 8 7 9 11 10 5 12
REMARK H PARENT 11 11 5 13
REMARK Flexibility Score: inf
ROOT
ATOM      1  C   UNL     1     -15.090   6.538   7.625  1.00  0.00     0.048 C 
ATOM      2  C   UNL     1     -13.640   6.266   7.325  1.00  0.00    -0.005 A 
ATOM      3  C   UNL     1     -12.768   7.343   7.129  1.00  0.00     0.053 A 
ATOM      4  C   UNL     1     -11.418   7.131   6.832  1.00  0.00     0.119 A 
ATOM      5  C   UNL     1     -10.916   5.820   6.723  1.00  0.00    -0.003 A 
ATOM      6  C   UNL     1     -11.776   4.719   6.971  1.00  0.00    -0.002 A 
ATOM      7  C   UNL     1     -13.145   4.947   7.242  1.00  0.00     0.121 A 
ATOM      8  C   UNL     1     -11.254   3.302   6.891  1.00  0.00     0.049 C 
ATOM      9  C   UNL     1      -9.456   5.605   6.395  1.00  0.00     0.049 C 
ENDROOT
BRANCH   7  10
ATOM     10  O   UNL     1     -13.993   3.848   7.424  1.00  0.00    -0.507 OA
ATOM     11  H   UNL     1     -13.820   2.937   7.019  1.00  0.00     0.293 HD
ENDBRANCH   7  10
BRANCH   4  12
ATOM     12  O   UNL     1     -10.577   8.228   6.645  1.00  0.00    -0.508 OA
ATOM     13  H   UNL     1     -10.939   9.149   6.428  1.00  0.00     0.293 HD
ENDBRANCH   4  12
TORSDOF 2
ENDMDL
MODEL 5
REMARK VINA RESULT:    -4.706      1.842      3.021
REMARK INTER + INTRA:          -4.981
REMARK INTER:                  -4.981
REMARK INTRA:                   0.000
REMARK UNBOUND:                 0.000
REMARK SMILES Cc1cc(O)c(C)c(C)c1O
REMARK SMILES IDX 1 1 2 2 3 3 4 4 6 5 8 6 10 7 9 8 7 9 11 10 5 12
REMARK H PARENT 11 11 5 13
REMARK Flexibility Score: inf
ROOT
ATOM      1  C   UNL     1     -12.901  -7.140 -10.377  1.00  0.00     0.048 C 
ATOM      2  C   UNL     1     -12.484  -6.791  -8.973  1.00  0.00    -0.005 A 
ATOM      3  C   UNL     1     -13.080  -7.459  -7.897  1.00  0.00     0.053 A 
ATOM      4  C   UNL     1     -12.732  -7.151  -6.578  1.00  0.00     0.119 A 
ATOM      5  C   UNL     1     -11.771  -6.157  -6.314  1.00  0.00    -0.003 A 
ATOM      6  C   UNL     1     -11.120  -5.509  -7.396  1.00  0.00    -0.002 A 
ATOM      7  C   UNL     1     -11.502  -5.808  -8.723  1.00  0.00     0.121 A 
ATOM      8  C   UNL     1     -10.062  -4.459  -7.140  1.00  0.00     0.049 C 
ATOM      9  C   UNL     1     -11.408  -5.830  -4.883  1.00  0.00     0.049 C 
ENDROOT
BRANCH   7  10
ATOM     10  O   UNL     1     -10.894  -5.117  -9.778  1.00  0.00    -0.507 OA
ATOM     11  H   UNL     1     -10.679  -5.540 -10.672  1.00  0.00     0.293 HD
ENDBRANCH   7  10
BRANCH   4  12
ATOM     12  O   UNL     1     -13.344  -7.838  -5.529  1.00  0.00    -0.508 OA
ATOM     13  H   UNL     1     -13.954  -8.631  -5.694  1.00  0.00     0.293 HD
ENDBRANCH   4  12
TORSDOF 2
ENDMDL
MODEL 6
REMARK VINA RESULT:    -4.700     17.453     18.838
REMARK INTER + INTRA:          -4.975
REMARK INTER:                  -4.975
REMARK INTRA:                   0.000
REMARK UNBOUND:                 0.000
REMARK SMILES Cc1cc(O)c(C)c(C)c1O
REMARK SMILES IDX 1 1 2 2 3 3 4 4 6 5 8 6 10 7 9 8 7 9 11 10 5 12
REMARK H PARENT 11 11 5 13
REMARK Flexibility Score: inf
ROOT
ATOM      1  C   UNL     1     -11.097   2.827   7.328  1.00  0.00     0.048 C 
ATOM      2  C   UNL     1     -11.424   4.283   7.129  1.00  0.00    -0.005 A 
ATOM      3  C   UNL     1     -10.386   5.189   6.882  1.00  0.00     0.053 A 
ATOM      4  C   UNL     1     -10.648   6.551   6.708  1.00  0.00     0.119 A 
ATOM      5  C   UNL     1     -11.969   7.033   6.782  1.00  0.00    -0.003 A 
ATOM      6  C   UNL     1     -13.036   6.119   6.980  1.00  0.00    -0.002 A 
ATOM      7  C   UNL     1     -12.755   4.748   7.183  1.00  0.00     0.121 A 
ATOM      8  C   UNL     1     -14.467   6.605   7.033  1.00  0.00     0.049 C 
ATOM      9  C   UNL     1     -12.238   8.509   6.599  1.00  0.00     0.049 C 
ENDROOT
BRANCH   7  10
ATOM     10  O   UNL     1     -13.814   3.868   7.437  1.00  0.00    -0.507 OA
ATOM     11  H   UNL     1     -14.750   4.002   7.076  1.00  0.00     0.293 HD
ENDBRANCH   7  10
BRANCH   4  12
ATOM     12  O   UNL     1      -9.590   7.427   6.460  1.00  0.00    -0.508 OA
ATOM     13  H   UNL     1      -9.746   8.375   6.139  1.00  0.00     0.293 HD
ENDBRANCH   4  12
TORSDOF 2
ENDMDL
MODEL 7
REMARK VINA RESULT:    -4.642     17.719     18.745
REMARK INTER + INTRA:          -4.913
REMARK INTER:                  -4.913
REMARK INTRA:                   0.000
REMARK UNBOUND:                 0.000
REMARK SMILES Cc1cc(O)c(C)c(C)c1O
REMARK SMILES IDX 1 1 2 2 3 3 4 4 6 5 8 6 10 7 9 8 7 9 11 10 5 12
REMARK H PARENT 11 11 5 13
REMARK Flexibility Score: inf
ROOT
ATOM      1  C   UNL     1     -13.507   8.683   6.459  1.00  0.00     0.048 C 
ATOM      2  C   UNL     1     -12.843   7.349   6.678  1.00  0.00    -0.005 A 
ATOM      3  C   UNL     1     -13.637   6.213   6.872  1.00  0.00     0.053 A 
ATOM      4  C   UNL     1     -13.058   4.961   7.095  1.00  0.00     0.119 A 
ATOM      5  C   UNL     1     -11.656   4.826   7.130  1.00  0.00    -0.003 A 
ATOM      6  C   UNL     1     -10.839   5.959   6.883  1.00  0.00    -0.002 A 
ATOM      7  C   UNL     1     -11.437   7.225   6.688  1.00  0.00     0.121 A 
ATOM      8  C   UNL     1      -9.332   5.836   6.885  1.00  0.00     0.049 C 
ATOM      9  C   UNL     1     -11.043   3.467   7.379  1.00  0.00     0.049 C 
ENDROOT
BRANCH   7  10
ATOM     10  O   UNL     1     -10.615   8.344   6.506  1.00  0.00    -0.507 OA
ATOM     11  H   UNL     1     -10.871   9.277   6.802  1.00  0.00     0.293 HD
ENDBRANCH   7  10
BRANCH   4  12
ATOM     12  O   UNL     1     -13.879   3.849   7.281  1.00  0.00    -0.508 OA
ATOM     13  H   UNL     1     -14.521   3.532   6.563  1.00  0.00     0.293 HD
ENDBRANCH   4  12
TORSDOF 2
ENDMDL
MODEL 8
REMARK VINA RESULT:    -4.611     16.330     18.034
REMARK INTER + INTRA:          -4.880
REMARK INTER:                  -4.880
REMARK INTRA:                   0.000
REMARK UNBOUND:                 0.000
REMARK SMILES Cc1cc(O)c(C)c(C)c1O
REMARK SMILES IDX 1 1 2 2 3 3 4 4 6 5 8 6 10 7 9 8 7 9 11 10 5 12
REMARK H PARENT 11 11 5 13
REMARK Flexibility Score: inf
ROOT
ATOM      1  C   UNL     1     -10.267   4.647   9.109  1.00  0.00     0.048 C 
ATOM      2  C   UNL     1     -11.130   4.734   7.878  1.00  0.00    -0.005 A 
ATOM      3  C   UNL     1     -10.730   4.069   6.713  1.00  0.00     0.053 A 
ATOM      4  C   UNL     1     -11.496   4.140   5.546  1.00  0.00     0.119 A 
ATOM      5  C   UNL     1     -12.688   4.889   5.527  1.00  0.00    -0.003 A 
ATOM      6  C   UNL     1     -13.133   5.525   6.714  1.00  0.00    -0.002 A 
ATOM      7  C   UNL     1     -12.335   5.470   7.880  1.00  0.00     0.121 A 
ATOM      8  C   UNL     1     -14.425   6.311   6.729  1.00  0.00     0.049 C 
ATOM      9  C   UNL     1     -13.503   4.962   4.256  1.00  0.00     0.049 C 
ENDROOT
BRANCH   7  10
ATOM     10  O   UNL     1     -12.757   6.153   9.026  1.00  0.00    -0.507 OA
ATOM     11  H   UNL     1     -13.694   6.517   9.145  1.00  0.00     0.293 HD
ENDBRANCH   7  10
BRANCH   4  12
ATOM     12  O   UNL     1     -11.069   3.462   4.404  1.00  0.00    -0.508 OA
ATOM     13  H   UNL     1     -11.589   3.500   3.534  1.00  0.00     0.293 HD
ENDBRANCH   4  12
TORSDOF 2
ENDMDL
MODEL 9
REMARK VINA RESULT:    -4.591     16.140     17.709
REMARK INTER + INTRA:          -4.860
REMARK INTER:                  -4.860
REMARK INTRA:                   0.000
REMARK UNBOUND:                 0.000
REMARK SMILES Cc1cc(O)c(C)c(C)c1O
REMARK SMILES IDX 1 1 2 2 3 3 4 4 6 5 8 6 10 7 9 8 7 9 11 10 5 12
REMARK H PARENT 11 11 5 13
REMARK Flexibility Score: inf
ROOT
ATOM      1  C   UNL     1     -14.465   6.398   4.072  1.00  0.00     0.048 C 
ATOM      2  C   UNL     1     -13.711   5.620   5.118  1.00  0.00    -0.005 A 
ATOM      3  C   UNL     1     -12.846   4.595   4.717  1.00  0.00     0.053 A 
ATOM      4  C   UNL     1     -12.141   3.840   5.659  1.00  0.00     0.119 A 
ATOM      5  C   UNL     1     -12.296   4.101   7.034  1.00  0.00    -0.003 A 
ATOM      6  C   UNL     1     -13.128   5.171   7.453  1.00  0.00    -0.002 A 
ATOM      7  C   UNL     1     -13.858   5.909   6.492  1.00  0.00     0.121 A 
ATOM      8  C   UNL     1     -13.288   5.493   8.922  1.00  0.00     0.049 C 
ATOM      9  C   UNL     1     -11.533   3.273   8.042  1.00  0.00     0.049 C 
ENDROOT
BRANCH   7  10
ATOM     10  O   UNL     1     -14.722   6.921   6.925  1.00  0.00    -0.507 OA
ATOM     11  H   UNL     1     -15.569   6.745   7.450  1.00  0.00     0.293 HD
ENDBRANCH   7  10
BRANCH   4  12
ATOM     12  O   UNL     1     -11.286   2.828   5.224  1.00  0.00    -0.508 OA
ATOM     13  H   UNL     1     -11.623   2.037   4.687  1.00  0.00     0.293 HD
ENDBRANCH   4  12
TORSDOF 2
ENDMDL
