MODEL 1
REMARK VINA RESULT:    -7.175      0.000      0.000
REMARK INTER + INTRA:          -9.317
REMARK INTER:                  -8.853
REMARK INTRA:                  -0.464
REMARK UNBOUND:                -0.464
REMARK SMILES CC(C)=CCC[C@@H](C)[C@H]1C=CC(C)=CC1
REMARK SMILES IDX 6 1 7 2 8 3 9 4 13 5 12 6 14 7 11 8 15 9 10 10 5 11 4 12
REMARK SMILES IDX 2 13 1 14 3 15
REMARK H PARENT
REMARK Flexibility Score: inf
ROOT
ATOM      1  C   UNL     1      15.790  29.390  24.136  1.00  0.00     0.008 C 
ENDROOT
BRANCH   1   2
ATOM      2  C   UNL     1      17.269  29.868  24.243  1.00  0.00    -0.007 C 
ATOM      3  C   UNL     1      17.363  31.343  23.800  1.00  0.00     0.008 C 
BRANCH   2   4
ATOM      4  C   UNL     1      17.819  29.650  25.688  1.00  0.00     0.018 C 
ATOM      5  C   UNL     1      20.495  28.920  29.031  1.00  0.00     0.044 C 
ATOM      6  C   UNL     1      19.782  29.239  27.751  1.00  0.00    -0.055 C 
ATOM      7  C   UNL     1      19.351  30.485  27.508  1.00  0.00    -0.023 C 
ATOM      8  C   UNL     1      19.490  28.164  26.779  1.00  0.00    -0.001 C 
ATOM      9  C   UNL     1      18.689  30.827  26.199  1.00  0.00     0.035 C 
ATOM     10  C   UNL     1      18.626  28.364  25.777  1.00  0.00    -0.023 C 
ENDBRANCH   2   4
ENDBRANCH   1   2
BRANCH   1  11
ATOM     11  C   UNL     1      15.026  30.029  22.962  1.00  0.00     0.027 C 
BRANCH  11  12
ATOM     12  C   UNL     1      14.423  28.992  22.043  1.00  0.00    -0.028 C 
ATOM     13  C   UNL     1      14.340  29.152  20.705  1.00  0.00    -0.080 C 
ATOM     14  C   UNL     1      14.854  30.399  20.024  1.00  0.00     0.039 C 
ATOM     15  C   UNL     1      13.717  28.054  19.882  1.00  0.00     0.039 C 
ENDBRANCH  11  12
ENDBRANCH   1  11
TORSDOF 4
ENDMDL
MODEL 2
REMARK VINA RESULT:    -6.995      1.132      7.233
REMARK INTER + INTRA:          -9.094
REMARK INTER:                  -8.534
REMARK INTRA:                  -0.560
REMARK UNBOUND:                -0.464
REMARK SMILES CC(C)=CCC[C@@H](C)[C@H]1C=CC(C)=CC1
REMARK SMILES IDX 6 1 7 2 8 3 9 4 13 5 12 6 14 7 11 8 15 9 10 10 5 11 4 12
REMARK SMILES IDX 2 13 1 14 3 15
REMARK H PARENT
REMARK Flexibility Score: inf
ROOT
ATOM      1  C   UNL     1      15.695  29.626  23.877  1.00  0.00     0.008 C 
ENDROOT
BRANCH   1   2
ATOM      2  C   UNL     1      14.982  30.718  23.024  1.00  0.00    -0.007 C 
ATOM      3  C   UNL     1      15.988  31.837  22.681  1.00  0.00     0.008 C 
BRANCH   2   4
ATOM      4  C   UNL     1      14.340  30.092  21.745  1.00  0.00     0.018 C 
ATOM      5  C   UNL     1      13.841  28.183  17.875  1.00  0.00     0.044 C 
ATOM      6  C   UNL     1      14.246  28.739  19.208  1.00  0.00    -0.055 C 
ATOM      7  C   UNL     1      14.051  28.027  20.327  1.00  0.00    -0.023 C 
ATOM      8  C   UNL     1      14.801  30.107  19.301  1.00  0.00    -0.001 C 
ATOM      9  C   UNL     1      14.512  28.554  21.662  1.00  0.00     0.035 C 
ATOM     10  C   UNL     1      14.908  30.723  20.483  1.00  0.00    -0.023 C 
ENDBRANCH   2   4
ENDBRANCH   1   2
BRANCH   1  11
ATOM     11  C   UNL     1      17.012  30.110  24.508  1.00  0.00     0.027 C 
BRANCH  11  12
ATOM     12  C   UNL     1      17.817  28.971  25.091  1.00  0.00    -0.028 C 
ATOM     13  C   UNL     1      18.713  29.136  26.087  1.00  0.00    -0.080 C 
ATOM     14  C   UNL     1      18.975  30.492  26.699  1.00  0.00     0.039 C 
ATOM     15  C   UNL     1      19.463  27.930  26.593  1.00  0.00     0.039 C 
ENDBRANCH  11  12
ENDBRANCH   1  11
TORSDOF 4
ENDMDL
MODEL 3
REMARK VINA RESULT:    -6.682      2.059      7.446
REMARK INTER + INTRA:          -8.709
REMARK INTER:                  -8.208
REMARK INTRA:                  -0.501
REMARK UNBOUND:                -0.464
REMARK SMILES CC(C)=CCC[C@@H](C)[C@H]1C=CC(C)=CC1
REMARK SMILES IDX 6 1 7 2 8 3 9 4 13 5 12 6 14 7 11 8 15 9 10 10 5 11 4 12
REMARK SMILES IDX 2 13 1 14 3 15
REMARK H PARENT
REMARK Flexibility Score: inf
ROOT
ATOM      1  C   UNL     1      17.029  31.281  24.159  1.00  0.00     0.008 C 
ENDROOT
BRANCH   1   2
ATOM      2  C   UNL     1      16.077  30.589  23.137  1.00  0.00    -0.007 C 
ATOM      3  C   UNL     1      15.453  29.336  23.786  1.00  0.00     0.008 C 
BRANCH   2   4
ATOM      4  C   UNL     1      14.992  31.589  22.625  1.00  0.00     0.018 C 
ATOM      5  C   UNL     1      12.390  33.897  20.022  1.00  0.00     0.044 C 
ATOM      6  C   UNL     1      13.312  32.943  20.722  1.00  0.00    -0.055 C 
ATOM      7  C   UNL     1      12.818  31.886  21.383  1.00  0.00    -0.023 C 
ATOM      8  C   UNL     1      14.767  33.201  20.744  1.00  0.00    -0.001 C 
ATOM      9  C   UNL     1      13.740  30.890  22.036  1.00  0.00     0.035 C 
ATOM     10  C   UNL     1      15.569  32.533  21.580  1.00  0.00    -0.023 C 
ENDBRANCH   2   4
ENDBRANCH   1   2
BRANCH   1  11
ATOM     11  C   UNL     1      18.295  30.461  24.464  1.00  0.00     0.027 C 
BRANCH  11  12
ATOM     12  C   UNL     1      18.661  30.501  25.930  1.00  0.00    -0.028 C 
ATOM     13  C   UNL     1      18.998  29.402  26.636  1.00  0.00    -0.080 C 
ATOM     14  C   UNL     1      19.035  28.033  25.998  1.00  0.00     0.039 C 
ATOM     15  C   UNL     1      19.344  29.556  28.094  1.00  0.00     0.039 C 
ENDBRANCH  11  12
ENDBRANCH   1  11
TORSDOF 4
ENDMDL
MODEL 4
REMARK VINA RESULT:    -6.653      6.790      9.714
REMARK INTER + INTRA:          -8.672
REMARK INTER:                  -7.901
REMARK INTRA:                  -0.771
REMARK UNBOUND:                -0.464
REMARK SMILES CC(C)=CCC[C@@H](C)[C@H]1C=CC(C)=CC1
REMARK SMILES IDX 6 1 7 2 8 3 9 4 13 5 12 6 14 7 11 8 15 9 10 10 5 11 4 12
REMARK SMILES IDX 2 13 1 14 3 15
REMARK H PARENT
REMARK Flexibility Score: inf
ROOT
ATOM      1  C   UNL     1      10.574  33.487  23.310  1.00  0.00     0.008 C 
ENDROOT
BRANCH   1   2
ATOM      2  C   UNL     1       9.134  34.020  23.044  1.00  0.00    -0.007 C 
ATOM      3  C   UNL     1       8.972  34.327  21.540  1.00  0.00     0.008 C 
BRANCH   2   4
ATOM      4  C   UNL     1       8.064  33.006  23.557  1.00  0.00     0.018 C 
ATOM      5  C   UNL     1       6.009  29.314  24.567  1.00  0.00     0.044 C 
ATOM      6  C   UNL     1       6.929  30.446  24.220  1.00  0.00    -0.055 C 
ATOM      7  C   UNL     1       7.519  31.161  25.188  1.00  0.00    -0.023 C 
ATOM      8  C   UNL     1       7.137  30.823  22.805  1.00  0.00    -0.001 C 
ATOM      9  C   UNL     1       8.492  32.260  24.847  1.00  0.00     0.035 C 
ATOM     10  C   UNL     1       7.721  31.983  22.485  1.00  0.00    -0.023 C 
ENDBRANCH   2   4
ENDBRANCH   1   2
BRANCH   1  11
ATOM     11  C   UNL     1      11.150  32.674  22.137  1.00  0.00     0.027 C 
BRANCH  11  12
ATOM     12  C   UNL     1      12.650  32.820  22.024  1.00  0.00    -0.028 C 
ATOM     13  C   UNL     1      13.257  33.380  20.957  1.00  0.00    -0.080 C 
ATOM     14  C   UNL     1      12.466  33.911  19.784  1.00  0.00     0.039 C 
ATOM     15  C   UNL     1      14.761  33.474  20.947  1.00  0.00     0.039 C 
ENDBRANCH  11  12
ENDBRANCH   1  11
TORSDOF 4
ENDMDL
MODEL 5
REMARK VINA RESULT:    -6.617      6.582      8.743
REMARK INTER + INTRA:          -8.628
REMARK INTER:                  -7.810
REMARK INTRA:                  -0.819
REMARK UNBOUND:                -0.464
REMARK SMILES CC(C)=CCC[C@@H](C)[C@H]1C=CC(C)=CC1
REMARK SMILES IDX 6 1 7 2 8 3 9 4 13 5 12 6 14 7 11 8 15 9 10 10 5 11 4 12
REMARK SMILES IDX 2 13 1 14 3 15
REMARK H PARENT
REMARK Flexibility Score: inf
ROOT
ATOM      1  C   UNL     1       9.755  33.640  21.932  1.00  0.00     0.008 C 
ENDROOT
BRANCH   1   2
ATOM      2  C   UNL     1      11.094  32.864  22.121  1.00  0.00    -0.007 C 
ATOM      3  C   UNL     1      10.924  31.420  21.607  1.00  0.00     0.008 C 
BRANCH   2   4
ATOM      4  C   UNL     1      12.271  33.608  21.412  1.00  0.00     0.018 C 
ATOM      5  C   UNL     1      15.880  34.419  19.135  1.00  0.00     0.044 C 
ATOM      6  C   UNL     1      14.633  33.916  19.800  1.00  0.00    -0.055 C 
ATOM      7  C   UNL     1      13.434  34.119  19.235  1.00  0.00    -0.023 C 
ATOM      8  C   UNL     1      14.715  33.251  21.118  1.00  0.00    -0.001 C 
ATOM      9  C   UNL     1      12.184  33.562  19.865  1.00  0.00     0.035 C 
ATOM     10  C   UNL     1      13.614  33.045  21.850  1.00  0.00    -0.023 C 
ENDBRANCH   2   4
ENDBRANCH   1   2
BRANCH   1  11
ATOM     11  C   UNL     1       9.300  34.387  23.198  1.00  0.00     0.027 C 
BRANCH  11  12
ATOM     12  C   UNL     1       9.997  33.881  24.440  1.00  0.00    -0.028 C 
ATOM     13  C   UNL     1       9.431  33.008  25.299  1.00  0.00    -0.080 C 
ATOM     14  C   UNL     1       8.039  32.466  25.073  1.00  0.00     0.039 C 
ATOM     15  C   UNL     1      10.215  32.571  26.509  1.00  0.00     0.039 C 
ENDBRANCH  11  12
ENDBRANCH   1  11
TORSDOF 4
ENDMDL
MODEL 6
REMARK VINA RESULT:    -6.491      6.918      9.196
REMARK INTER + INTRA:          -8.472
REMARK INTER:                  -7.386
REMARK INTRA:                  -1.087
REMARK UNBOUND:                -0.464
REMARK SMILES CC(C)=CCC[C@@H](C)[C@H]1C=CC(C)=CC1
REMARK SMILES IDX 6 1 7 2 8 3 9 4 13 5 12 6 14 7 11 8 15 9 10 10 5 11 4 12
REMARK SMILES IDX 2 13 1 14 3 15
REMARK H PARENT
REMARK Flexibility Score: inf
ROOT
ATOM      1  C   UNL     1       8.526  31.973  21.937  1.00  0.00     0.008 C 
ENDROOT
BRANCH   1   2
ATOM      2  C   UNL     1       9.171  32.983  20.940  1.00  0.00    -0.007 C 
ATOM      3  C   UNL     1       8.788  34.420  21.350  1.00  0.00     0.008 C 
BRANCH   2   4
ATOM      4  C   UNL     1      10.718  32.783  20.870  1.00  0.00     0.018 C 
ATOM      5  C   UNL     1      14.987  33.561  20.660  1.00  0.00     0.044 C 
ATOM      6  C   UNL     1      13.495  33.530  20.819  1.00  0.00    -0.055 C 
ATOM      7  C   UNL     1      12.946  33.167  21.986  1.00  0.00    -0.023 C 
ATOM      8  C   UNL     1      12.622  33.837  19.666  1.00  0.00    -0.001 C 
ATOM      9  C   UNL     1      11.451  33.194  22.172  1.00  0.00     0.035 C 
ATOM     10  C   UNL     1      11.316  33.551  19.702  1.00  0.00    -0.023 C 
ENDBRANCH   2   4
ENDBRANCH   1   2
BRANCH   1  11
ATOM     11  C   UNL     1       7.929  32.645  23.185  1.00  0.00     0.027 C 
BRANCH  11  12
ATOM     12  C   UNL     1       8.644  32.234  24.451  1.00  0.00    -0.028 C 
ATOM     13  C   UNL     1       9.310  33.105  25.238  1.00  0.00    -0.080 C 
ATOM     14  C   UNL     1       9.386  34.576  24.902  1.00  0.00     0.039 C 
ATOM     15  C   UNL     1       9.990  32.586  26.478  1.00  0.00     0.039 C 
ENDBRANCH  11  12
ENDBRANCH   1  11
TORSDOF 4
ENDMDL
MODEL 7
REMARK VINA RESULT:    -6.405      6.502      8.645
REMARK INTER + INTRA:          -8.367
REMARK INTER:                  -7.469
REMARK INTRA:                  -0.897
REMARK UNBOUND:                -0.464
REMARK SMILES CC(C)=CCC[C@@H](C)[C@H]1C=CC(C)=CC1
REMARK SMILES IDX 6 1 7 2 8 3 9 4 13 5 12 6 14 7 11 8 15 9 10 10 5 11 4 12
REMARK SMILES IDX 2 13 1 14 3 15
REMARK H PARENT
REMARK Flexibility Score: inf
ROOT
ATOM      1  C   UNL     1      10.751  33.106  23.548  1.00  0.00     0.008 C 
ENDROOT
BRANCH   1   2
ATOM      2  C   UNL     1      11.684  32.329  22.571  1.00  0.00    -0.007 C 
ATOM      3  C   UNL     1      10.840  31.347  21.731  1.00  0.00     0.008 C 
BRANCH   2   4
ATOM      4  C   UNL     1      12.499  33.317  21.679  1.00  0.00     0.018 C 
ATOM      5  C   UNL     1      15.298  34.919  18.768  1.00  0.00     0.044 C 
ATOM      6  C   UNL     1      14.354  34.149  19.643  1.00  0.00    -0.055 C 
ATOM      7  C   UNL     1      13.050  34.082  19.340  1.00  0.00    -0.023 C 
ATOM      8  C   UNL     1      14.848  33.514  20.884  1.00  0.00    -0.001 C 
ATOM      9  C   UNL     1      12.108  33.259  20.180  1.00  0.00     0.035 C 
ATOM     10  C   UNL     1      13.994  33.066  21.810  1.00  0.00    -0.023 C 
ENDBRANCH   2   4
ENDBRANCH   1   2
BRANCH   1  11
ATOM     11  C   UNL     1       9.879  34.162  22.848  1.00  0.00     0.027 C 
BRANCH  11  12
ATOM     12  C   UNL     1       8.470  33.670  22.607  1.00  0.00    -0.028 C 
ATOM     13  C   UNL     1       7.868  33.720  21.401  1.00  0.00    -0.080 C 
ATOM     14  C   UNL     1       8.573  34.279  20.187  1.00  0.00     0.039 C 
ATOM     15  C   UNL     1       6.458  33.202  21.273  1.00  0.00     0.039 C 
ENDBRANCH  11  12
ENDBRANCH   1  11
TORSDOF 4
ENDMDL
MODEL 8
REMARK VINA RESULT:    -6.397      5.710      8.375
REMARK INTER + INTRA:          -8.356
REMARK INTER:                  -7.423
REMARK INTRA:                  -0.933
REMARK UNBOUND:                -0.464
REMARK SMILES CC(C)=CCC[C@@H](C)[C@H]1C=CC(C)=CC1
REMARK SMILES IDX 6 1 7 2 8 3 9 4 13 5 12 6 14 7 11 8 15 9 10 10 5 11 4 12
REMARK SMILES IDX 2 13 1 14 3 15
REMARK H PARENT
REMARK Flexibility Score: inf
ROOT
ATOM      1  C   UNL     1      11.502  31.747  21.175  1.00  0.00     0.008 C 
ENDROOT
BRANCH   1   2
ATOM      2  C   UNL     1      12.695  32.356  21.972  1.00  0.00    -0.007 C 
ATOM      3  C   UNL     1      13.671  31.230  22.372  1.00  0.00     0.008 C 
BRANCH   2   4
ATOM      4  C   UNL     1      13.399  33.478  21.144  1.00  0.00     0.018 C 
ATOM      5  C   UNL     1      15.800  35.537  18.166  1.00  0.00     0.044 C 
ATOM      6  C   UNL     1      14.971  34.633  19.030  1.00  0.00    -0.055 C 
ATOM      7  C   UNL     1      13.637  34.612  18.905  1.00  0.00    -0.023 C 
ATOM      8  C   UNL     1      15.619  33.808  20.071  1.00  0.00    -0.001 C 
ATOM      9  C   UNL     1      12.804  33.662  19.725  1.00  0.00     0.035 C 
ATOM     10  C   UNL     1      14.892  33.214  21.024  1.00  0.00    -0.023 C 
ENDBRANCH   2   4
ENDBRANCH   1   2
BRANCH   1  11
ATOM     11  C   UNL     1      10.210  31.637  22.003  1.00  0.00     0.027 C 
BRANCH  11  12
ATOM     12  C   UNL     1      10.195  32.600  23.168  1.00  0.00    -0.028 C 
ATOM     13  C   UNL     1       9.576  33.798  23.126  1.00  0.00    -0.080 C 
ATOM     14  C   UNL     1       8.840  34.265  21.892  1.00  0.00     0.039 C 
ATOM     15  C   UNL     1       9.625  34.681  24.346  1.00  0.00     0.039 C 
ENDBRANCH  11  12
ENDBRANCH   1  11
TORSDOF 4
ENDMDL
MODEL 9
REMARK VINA RESULT:    -6.369      4.706      8.345
REMARK INTER + INTRA:          -8.323
REMARK INTER:                  -7.407
REMARK INTRA:                  -0.916
REMARK UNBOUND:                -0.464
REMARK SMILES CC(C)=CCC[C@@H](C)[C@H]1C=CC(C)=CC1
REMARK SMILES IDX 6 1 7 2 8 3 9 4 13 5 12 6 14 7 11 8 15 9 10 10 5 11 4 12
REMARK SMILES IDX 2 13 1 14 3 15
REMARK H PARENT
REMARK Flexibility Score: inf
ROOT
ATOM      1  C   UNL     1      13.641  33.485  21.638  1.00  0.00     0.008 C 
ENDROOT
BRANCH   1   2
ATOM      2  C   UNL     1      12.360  33.377  20.756  1.00  0.00    -0.007 C 
ATOM      3  C   UNL     1      12.585  32.319  19.656  1.00  0.00     0.008 C 
BRANCH   2   4
ATOM      4  C   UNL     1      11.108  33.057  21.634  1.00  0.00     0.018 C 
ATOM      5  C   UNL     1       7.951  33.350  24.603  1.00  0.00     0.044 C 
ATOM      6  C   UNL     1       9.058  33.501  23.603  1.00  0.00    -0.055 C 
ATOM      7  C   UNL     1       8.780  33.744  22.314  1.00  0.00    -0.023 C 
ATOM      8  C   UNL     1      10.464  33.315  24.023  1.00  0.00    -0.001 C 
ATOM      9  C   UNL     1       9.888  33.959  21.316  1.00  0.00     0.035 C 
ATOM     10  C   UNL     1      11.435  33.170  23.115  1.00  0.00    -0.023 C 
ENDBRANCH   2   4
ENDBRANCH   1   2
BRANCH   1  11
ATOM     11  C   UNL     1      14.763  32.527  21.202  1.00  0.00     0.027 C 
BRANCH  11  12
ATOM     12  C   UNL     1      15.321  31.737  22.363  1.00  0.00    -0.028 C 
ATOM     13  C   UNL     1      14.990  30.452  22.607  1.00  0.00    -0.080 C 
ATOM     14  C   UNL     1      14.024  29.702  21.720  1.00  0.00     0.039 C 
ATOM     15  C   UNL     1      15.605  29.759  23.796  1.00  0.00     0.039 C 
ENDBRANCH  11  12
ENDBRANCH   1  11
TORSDOF 4
ENDMDL
