MODEL 1
REMARK VINA RESULT:    -2.795      0.000      0.000
REMARK INTER + INTRA:          -4.633
REMARK INTER:                  -4.266
REMARK INTRA:                  -0.367
REMARK UNBOUND:                -0.367
REMARK SMILES CC1=CCC[C@H](C)C(=O)C[C@H](C(C)C)C(=O)C1
REMARK SMILES IDX 8 1 9 2 6 3 7 4 5 5 4 6 3 7 2 8 1 9 10 11 11 12 15 13 16 14
REMARK SMILES IDX 17 15 12 17 13 18 14 19
REMARK H PARENT
REMARK Flexibility Score: 70.00
ROOT
ATOM      1  C   UNL     1    -114.738 -92.042   4.548  1.00  0.00     0.136 C 
ATOM      2  O   UNL     1    -115.274 -90.943   4.596  1.00  0.00    -0.299 OA
ENDROOT
BRANCH   1   3
ATOM      3  C   UNL     1    -113.234 -92.147   4.368  1.00  0.00     0.053 C 
ATOM      4  C   UNL     1    -112.773 -91.674   2.980  1.00  0.00     0.016 C 
BRANCH   3   5
ATOM      5  C   UNL     1    -112.440 -91.472   5.512  1.00  0.00     0.015 C 
BRANCH   5   6
ATOM      6  C   UNL     1    -112.457 -92.142   6.904  1.00  0.00     0.028 C 
BRANCH   6   7
ATOM      7  C   UNL     1    -111.983 -93.576   6.989  1.00  0.00    -0.028 C 
ATOM      8  C   UNL     1    -112.761 -94.680   7.075  1.00  0.00    -0.070 CG0
ATOM      9  C   UNL     1    -112.084 -96.024   6.966  1.00  0.00     0.039 C 
ATOM     10  G   UNL     1    -114.250 -94.646   7.352  1.00  0.00     0.000 G0
ENDBRANCH   6   7
ENDBRANCH   5   6
ENDBRANCH   3   5
ENDBRANCH   1   3
BRANCH   1  11
ATOM     11  C   UNL     1    -115.607 -93.280   4.660  1.00  0.00     0.087 C 
BRANCH  11  12
ATOM     12  C   UNL     1    -114.806 -94.607   4.768  1.00  0.00     0.066 C 
BRANCH  12  13
ATOM     13  C   UNL     1    -114.985 -95.218   6.147  1.00  0.00     0.140 C 
ATOM     14  O   UNL     1    -115.760 -96.153   6.290  1.00  0.00    -0.299 OA
BRANCH  13  15
ATOM     15  C   UNL     1    -114.250 -94.675   7.351  1.00  0.00     0.106 CG0
ATOM     16  G   UNL     1    -112.758 -94.673   7.088  1.00  0.00     0.000 G0
ENDBRANCH  13  15
ENDBRANCH  12  13
BRANCH  12  17
ATOM     17  C   UNL     1    -115.200 -95.625   3.652  1.00  0.00    -0.006 C 
ATOM     18  C   UNL     1    -116.533 -95.256   2.976  1.00  0.00     0.008 C 
ATOM     19  C   UNL     1    -114.105 -95.721   2.573  1.00  0.00     0.008 C 
ENDBRANCH  12  17
ENDBRANCH  11  12
ENDBRANCH   1  11
TORSDOF 1
ENDMDL
MODEL 2
REMARK VINA RESULT:    -2.794     10.126     12.350
REMARK INTER + INTRA:          -4.631
REMARK INTER:                  -4.748
REMARK INTRA:                   0.117
REMARK UNBOUND:                -0.367
REMARK SMILES CC1=CCC[C@H](C)C(=O)C[C@H](C(C)C)C(=O)C1
REMARK SMILES IDX 8 1 9 2 6 3 7 4 5 5 4 6 3 7 2 8 1 9 10 11 11 12 15 13 16 14
REMARK SMILES IDX 17 15 12 17 13 18 14 19
REMARK H PARENT
REMARK Flexibility Score: 70.00
ROOT
ATOM      1  C   UNL     1    -121.793-100.609   4.269  1.00  0.00     0.136 C 
ATOM      2  O   UNL     1    -121.210-101.656   4.520  1.00  0.00    -0.299 OA
ENDROOT
BRANCH   1   3
ATOM      3  C   UNL     1    -122.507 -99.853   5.375  1.00  0.00     0.053 C 
ATOM      4  C   UNL     1    -122.145 -98.359   5.395  1.00  0.00     0.016 C 
BRANCH   3   5
ATOM      5  C   UNL     1    -124.037-100.086   5.375  1.00  0.00     0.015 C 
BRANCH   5   6
ATOM      6  C   UNL     1    -124.896 -99.282   4.374  1.00  0.00     0.028 C 
BRANCH   6   7
ATOM      7  C   UNL     1    -125.784-100.067   3.434  1.00  0.00    -0.028 C 
ATOM      8  C   UNL     1    -125.475-100.470   2.179  1.00  0.00    -0.070 CG0
ATOM      9  C   UNL     1    -126.439-101.399   1.485  1.00  0.00     0.039 C 
ATOM     10  G   UNL     1    -124.267 -99.980   1.407  1.00  0.00     0.000 G0
ENDBRANCH   6   7
ENDBRANCH   5   6
ENDBRANCH   3   5
ENDBRANCH   1   3
BRANCH   1  11
ATOM     11  C   UNL     1    -121.793-100.102   2.840  1.00  0.00     0.087 C 
BRANCH  11  12
ATOM     12  C   UNL     1    -121.942-101.221   1.772  1.00  0.00     0.066 C 
BRANCH  12  13
ATOM     13  C   UNL     1    -123.313-101.147   1.122  1.00  0.00     0.140 C 
ATOM     14  O   UNL     1    -123.652-102.026   0.341  1.00  0.00    -0.299 OA
BRANCH  13  15
ATOM     15  C   UNL     1    -124.253 -99.996   1.394  1.00  0.00     0.106 CG0
ATOM     16  G   UNL     1    -125.455-100.485   2.178  1.00  0.00     0.000 G0
ENDBRANCH  13  15
ENDBRANCH  12  13
BRANCH  12  17
ATOM     17  C   UNL     1    -120.811-101.165   0.697  1.00  0.00    -0.006 C 
ATOM     18  C   UNL     1    -120.012 -99.851   0.767  1.00  0.00     0.008 C 
ATOM     19  C   UNL     1    -119.837-102.349   0.850  1.00  0.00     0.008 C 
ENDBRANCH  12  17
ENDBRANCH  11  12
ENDBRANCH   1  11
TORSDOF 1
ENDMDL
MODEL 3
REMARK VINA RESULT:    -2.549      9.440     11.942
REMARK INTER + INTRA:          -4.257
REMARK INTER:                  -4.793
REMARK INTRA:                   0.536
REMARK UNBOUND:                -0.367
REMARK SMILES CC1=CCC[C@H](C)C(=O)C[C@H](C(C)C)C(=O)C1
REMARK SMILES IDX 8 1 9 2 6 3 7 4 5 5 4 6 3 7 2 8 1 9 10 11 11 12 15 13 16 14
REMARK SMILES IDX 17 15 12 17 13 18 14 19
REMARK H PARENT
REMARK Flexibility Score: 70.00
ROOT
ATOM      1  C   UNL     1    -121.864 -99.037   3.800  1.00  0.00     0.136 C 
ATOM      2  O   UNL     1    -121.681 -98.269   4.735  1.00  0.00    -0.299 OA
ENDROOT
BRANCH   1   3
ATOM      3  C   UNL     1    -122.928-100.116   3.899  1.00  0.00     0.053 C 
ATOM      4  C   UNL     1    -123.121-100.623   5.337  1.00  0.00     0.016 C 
BRANCH   3   5
ATOM      5  C   UNL     1    -124.265 -99.707   3.236  1.00  0.00     0.015 C 
BRANCH   5   6
ATOM      6  C   UNL     1    -125.145-100.820   2.625  1.00  0.00     0.028 C 
BRANCH   6   7
ATOM      7  C   UNL     1    -124.527-101.678   1.543  1.00  0.00    -0.028 C 
ATOM      8  C   UNL     1    -123.740-101.253   0.527  1.00  0.00    -0.070 CG0
ATOM      9  C   UNL     1    -123.082-102.302  -0.334  1.00  0.00     0.039 C 
ATOM     10  G   UNL     1    -123.546 -99.796   0.159  1.00  0.00     0.000 G0
ENDBRANCH   6   7
ENDBRANCH   5   6
ENDBRANCH   3   5
ENDBRANCH   1   3
BRANCH   1  11
ATOM     11  C   UNL     1    -121.001 -98.892   2.561  1.00  0.00     0.087 C 
BRANCH  11  12
ATOM     12  C   UNL     1    -121.272 -99.967   1.473  1.00  0.00     0.066 C 
BRANCH  12  13
ATOM     13  C   UNL     1    -122.113 -99.381   0.352  1.00  0.00     0.140 C 
ATOM     14  O   UNL     1    -121.627 -98.527  -0.376  1.00  0.00    -0.299 OA
BRANCH  13  15
ATOM     15  C   UNL     1    -123.547 -99.806   0.137  1.00  0.00     0.106 CG0
ATOM     16  G   UNL     1    -123.715-101.265   0.512  1.00  0.00     0.000 G0
ENDBRANCH  13  15
ENDBRANCH  12  13
BRANCH  12  17
ATOM     17  C   UNL     1    -119.951-100.584   0.914  1.00  0.00    -0.006 C 
ATOM     18  C   UNL     1    -118.721 -99.724   1.255  1.00  0.00     0.008 C 
ATOM     19  C   UNL     1    -119.729-102.009   1.455  1.00  0.00     0.008 C 
ENDBRANCH  12  17
ENDBRANCH  11  12
ENDBRANCH   1  11
TORSDOF 1
ENDMDL
MODEL 4
REMARK VINA RESULT:    -2.455      7.308      9.973
REMARK INTER + INTRA:          -4.114
REMARK INTER:                  -4.276
REMARK INTRA:                   0.162
REMARK UNBOUND:                -0.367
REMARK SMILES CC1=CCC[C@H](C)C(=O)C[C@H](C(C)C)C(=O)C1
REMARK SMILES IDX 8 1 9 2 6 3 7 4 5 5 4 6 3 7 2 8 1 9 10 11 11 12 15 13 16 14
REMARK SMILES IDX 17 15 12 17 13 18 14 19
REMARK H PARENT
REMARK Flexibility Score: 70.00
ROOT
ATOM      1  C   UNL     1    -117.213-100.130   0.452  1.00  0.00     0.136 C 
ATOM      2  O   UNL     1    -115.996-100.235   0.540  1.00  0.00    -0.299 OA
ENDROOT
BRANCH   1   3
ATOM      3  C   UNL     1    -117.997-101.094  -0.420  1.00  0.00     0.053 C 
ATOM      4  C   UNL     1    -117.198-101.562  -1.647  1.00  0.00     0.016 C 
BRANCH   3   5
ATOM      5  C   UNL     1    -118.598-102.277   0.377  1.00  0.00     0.015 C 
BRANCH   5   6
ATOM      6  C   UNL     1    -119.427-101.958   1.640  1.00  0.00     0.028 C 
BRANCH   6   7
ATOM      7  C   UNL     1    -120.883-101.599   1.441  1.00  0.00    -0.028 C 
ATOM      8  C   UNL     1    -121.416-100.355   1.443  1.00  0.00    -0.070 CG0
ATOM      9  C   UNL     1    -122.864-100.212   1.044  1.00  0.00     0.039 C 
ATOM     10  G   UNL     1    -120.671 -99.116   1.896  1.00  0.00     0.000 G0
ENDBRANCH   6   7
ENDBRANCH   5   6
ENDBRANCH   3   5
ENDBRANCH   1   3
BRANCH   1  11
ATOM     11  C   UNL     1    -117.904 -99.019   1.219  1.00  0.00     0.087 C 
BRANCH  11  12
ATOM     12  C   UNL     1    -118.790 -98.099   0.335  1.00  0.00     0.066 C 
BRANCH  12  13
ATOM     13  C   UNL     1    -120.256 -98.290   0.683  1.00  0.00     0.140 C 
ATOM     14  O   UNL     1    -121.110 -97.757  -0.012  1.00  0.00    -0.299 OA
BRANCH  13  15
ATOM     15  C   UNL     1    -120.682 -99.099   1.886  1.00  0.00     0.106 CG0
ATOM     16  G   UNL     1    -121.400-100.356   1.436  1.00  0.00     0.000 G0
ENDBRANCH  13  15
ENDBRANCH  12  13
BRANCH  12  17
ATOM     17  C   UNL     1    -118.381 -96.596   0.455  1.00  0.00    -0.006 C 
ATOM     18  C   UNL     1    -118.955 -95.939   1.723  1.00  0.00     0.008 C 
ATOM     19  C   UNL     1    -116.849 -96.436   0.461  1.00  0.00     0.008 C 
ENDBRANCH  12  17
ENDBRANCH  11  12
ENDBRANCH   1  11
TORSDOF 1
ENDMDL
MODEL 5
REMARK VINA RESULT:    -2.422      6.543      8.706
REMARK INTER + INTRA:          -4.064
REMARK INTER:                  -3.674
REMARK INTRA:                  -0.390
REMARK UNBOUND:                -0.367
REMARK SMILES CC1=CCC[C@H](C)C(=O)C[C@H](C(C)C)C(=O)C1
REMARK SMILES IDX 8 1 9 2 6 3 7 4 5 5 4 6 3 7 2 8 1 9 10 11 11 12 15 13 16 14
REMARK SMILES IDX 17 15 12 17 13 18 14 19
REMARK H PARENT
REMARK Flexibility Score: 70.00
ROOT
ATOM      1  C   UNL     1    -117.875 -96.641  -0.543  1.00  0.00     0.136 C 
ATOM      2  O   UNL     1    -117.915 -95.678  -1.297  1.00  0.00    -0.299 OA
ENDROOT
BRANCH   1   3
ATOM      3  C   UNL     1    -118.546 -96.570   0.817  1.00  0.00     0.053 C 
ATOM      4  C   UNL     1    -118.815 -95.125   1.267  1.00  0.00     0.016 C 
BRANCH   3   5
ATOM      5  C   UNL     1    -119.810 -97.459   0.913  1.00  0.00     0.015 C 
BRANCH   5   6
ATOM      6  C   UNL     1    -119.687 -98.823   1.629  1.00  0.00     0.028 C 
BRANCH   6   7
ATOM      7  C   UNL     1    -119.753-100.066   0.770  1.00  0.00    -0.028 C 
ATOM      8  C   UNL     1    -118.778-100.992   0.615  1.00  0.00    -0.070 CG0
ATOM      9  C   UNL     1    -119.121-102.249  -0.146  1.00  0.00     0.039 C 
ATOM     10  G   UNL     1    -117.351-100.806   1.087  1.00  0.00     0.000 G0
ENDBRANCH   6   7
ENDBRANCH   5   6
ENDBRANCH   3   5
ENDBRANCH   1   3
BRANCH   1  11
ATOM     11  C   UNL     1    -117.135 -97.886  -0.994  1.00  0.00     0.087 C 
BRANCH  11  12
ATOM     12  C   UNL     1    -116.323 -98.581   0.134  1.00  0.00     0.066 C 
BRANCH  12  13
ATOM     13  C   UNL     1    -116.513-100.086   0.066  1.00  0.00     0.140 C 
ATOM     14  O   UNL     1    -116.010-100.711  -0.857  1.00  0.00    -0.299 OA
BRANCH  13  15
ATOM     15  C   UNL     1    -117.334-100.825   1.098  1.00  0.00     0.106 CG0
ATOM     16  G   UNL     1    -118.759-100.982   0.608  1.00  0.00     0.000 G0
ENDBRANCH  13  15
ENDBRANCH  12  13
BRANCH  12  17
ATOM     17  C   UNL     1    -114.808 -98.207   0.084  1.00  0.00    -0.006 C 
ATOM     18  C   UNL     1    -114.391 -97.665  -1.295  1.00  0.00     0.008 C 
ATOM     19  C   UNL     1    -114.456 -97.161   1.158  1.00  0.00     0.008 C 
ENDBRANCH  12  17
ENDBRANCH  11  12
ENDBRANCH   1  11
TORSDOF 1
ENDMDL
MODEL 6
REMARK VINA RESULT:    -2.398      3.521      5.590
REMARK INTER + INTRA:          -4.026
REMARK INTER:                  -3.879
REMARK INTRA:                  -0.147
REMARK UNBOUND:                -0.367
REMARK SMILES CC1=CCC[C@H](C)C(=O)C[C@H](C(C)C)C(=O)C1
REMARK SMILES IDX 8 1 9 2 6 3 7 4 5 5 4 6 3 7 2 8 1 9 10 11 11 12 15 13 16 14
REMARK SMILES IDX 17 15 12 17 13 18 14 19
REMARK H PARENT
REMARK Flexibility Score: 70.00
ROOT
ATOM      1  C   UNL     1    -114.806 -95.851   3.518  1.00  0.00     0.136 C 
ATOM      2  O   UNL     1    -113.620 -95.565   3.419  1.00  0.00    -0.299 OA
ENDROOT
BRANCH   1   3
ATOM      3  C   UNL     1    -115.658 -95.198   4.591  1.00  0.00     0.053 C 
ATOM      4  C   UNL     1    -115.524 -95.894   5.955  1.00  0.00     0.016 C 
BRANCH   3   5
ATOM      5  C   UNL     1    -115.438 -93.669   4.689  1.00  0.00     0.015 C 
BRANCH   5   6
ATOM      6  C   UNL     1    -116.219 -92.757   3.716  1.00  0.00     0.028 C 
BRANCH   6   7
ATOM      7  C   UNL     1    -115.537 -92.381   2.420  1.00  0.00    -0.028 C 
ATOM      8  C   UNL     1    -115.887 -92.784   1.176  1.00  0.00    -0.070 CG0
ATOM      9  C   UNL     1    -115.182 -92.143   0.007  1.00  0.00     0.039 C 
ATOM     10  G   UNL     1    -116.883 -93.891   0.894  1.00  0.00     0.000 G0
ENDBRANCH   6   7
ENDBRANCH   5   6
ENDBRANCH   3   5
ENDBRANCH   1   3
BRANCH   1  11
ATOM     11  C   UNL     1    -115.390 -96.871   2.560  1.00  0.00     0.087 C 
BRANCH  11  12
ATOM     12  C   UNL     1    -116.618 -96.355   1.760  1.00  0.00     0.066 C 
BRANCH  12  13
ATOM     13  C   UNL     1    -116.204 -95.229   0.829  1.00  0.00     0.140 C 
ATOM     14  O   UNL     1    -115.278 -95.408   0.050  1.00  0.00    -0.299 OA
BRANCH  13  15
ATOM     15  C   UNL     1    -116.890 -93.883   0.866  1.00  0.00     0.106 CG0
ATOM     16  G   UNL     1    -115.882 -92.798   1.188  1.00  0.00     0.000 G0
ENDBRANCH  13  15
ENDBRANCH  12  13
BRANCH  12  17
ATOM     17  C   UNL     1    -117.328 -97.500   0.969  1.00  0.00    -0.006 C 
ATOM     18  C   UNL     1    -116.824 -98.892   1.389  1.00  0.00     0.008 C 
ATOM     19  C   UNL     1    -118.855 -97.444   1.158  1.00  0.00     0.008 C 
ENDBRANCH  12  17
ENDBRANCH  11  12
ENDBRANCH   1  11
TORSDOF 1
ENDMDL
MODEL 7
REMARK VINA RESULT:    -2.391      2.868      4.200
REMARK INTER + INTRA:          -4.016
REMARK INTER:                  -3.951
REMARK INTRA:                  -0.065
REMARK UNBOUND:                -0.367
REMARK SMILES CC1=CCC[C@H](C)C(=O)C[C@H](C(C)C)C(=O)C1
REMARK SMILES IDX 8 1 9 2 6 3 7 4 5 5 4 6 3 7 2 8 1 9 10 11 11 12 15 13 16 14
REMARK SMILES IDX 17 15 12 17 13 18 14 19
REMARK H PARENT
REMARK Flexibility Score: 70.00
ROOT
ATOM      1  C   UNL     1    -116.552 -94.945   3.173  1.00  0.00     0.136 C 
ATOM      2  O   UNL     1    -117.279 -94.616   2.246  1.00  0.00    -0.299 OA
ENDROOT
BRANCH   1   3
ATOM      3  C   UNL     1    -116.456 -94.072   4.411  1.00  0.00     0.053 C 
ATOM      4  C   UNL     1    -116.455 -94.890   5.712  1.00  0.00     0.016 C 
BRANCH   3   5
ATOM      5  C   UNL     1    -115.281 -93.065   4.350  1.00  0.00     0.015 C 
BRANCH   5   6
ATOM      6  C   UNL     1    -113.908 -93.516   4.895  1.00  0.00     0.028 C 
BRANCH   6   7
ATOM      7  C   UNL     1    -112.743 -93.512   3.930  1.00  0.00    -0.028 C 
ATOM      8  C   UNL     1    -112.371 -94.521   3.108  1.00  0.00    -0.070 CG0
ATOM      9  C   UNL     1    -111.289 -94.237   2.096  1.00  0.00     0.039 C 
ATOM     10  G   UNL     1    -112.919 -95.930   3.197  1.00  0.00     0.000 G0
ENDBRANCH   6   7
ENDBRANCH   5   6
ENDBRANCH   3   5
ENDBRANCH   1   3
BRANCH   1  11
ATOM     11  C   UNL     1    -115.750 -96.227   3.048  1.00  0.00     0.087 C 
BRANCH  11  12
ATOM     12  C   UNL     1    -115.019 -96.384   1.687  1.00  0.00     0.066 C 
BRANCH  12  13
ATOM     13  C   UNL     1    -113.514 -96.380   1.895  1.00  0.00     0.140 C 
ATOM     14  O   UNL     1    -112.785 -96.761   0.990  1.00  0.00    -0.299 OA
BRANCH  13  15
ATOM     15  C   UNL     1    -112.900 -95.944   3.205  1.00  0.00     0.106 CG0
ATOM     16  G   UNL     1    -112.394 -94.520   3.090  1.00  0.00     0.000 G0
ENDBRANCH  13  15
ENDBRANCH  12  13
BRANCH  12  17
ATOM     17  C   UNL     1    -115.472 -97.667   0.920  1.00  0.00    -0.006 C 
ATOM     18  C   UNL     1    -116.502 -98.484   1.719  1.00  0.00     0.008 C 
ATOM     19  C   UNL     1    -116.073 -97.312  -0.453  1.00  0.00     0.008 C 
ENDBRANCH  12  17
ENDBRANCH  11  12
ENDBRANCH   1  11
TORSDOF 1
ENDMDL
MODEL 8
REMARK VINA RESULT:    -2.319      7.214      9.178
REMARK INTER + INTRA:          -3.906
REMARK INTER:                  -3.702
REMARK INTRA:                  -0.204
REMARK UNBOUND:                -0.367
REMARK SMILES CC1=CCC[C@H](C)C(=O)C[C@H](C(C)C)C(=O)C1
REMARK SMILES IDX 8 1 9 2 6 3 7 4 5 5 4 6 3 7 2 8 1 9 10 11 11 12 15 13 16 14
REMARK SMILES IDX 17 15 12 17 13 18 14 19
REMARK H PARENT
REMARK Flexibility Score: 70.00
ROOT
ATOM      1  C   UNL     1    -116.367 -98.127   1.199  1.00  0.00     0.136 C 
ATOM      2  O   UNL     1    -115.360 -97.628   1.684  1.00  0.00    -0.299 OA
ENDROOT
BRANCH   1   3
ATOM      3  C   UNL     1    -116.245 -99.249   0.184  1.00  0.00     0.053 C 
ATOM      4  C   UNL     1    -114.832 -99.354  -0.412  1.00  0.00     0.016 C 
BRANCH   3   5
ATOM      5  C   UNL     1    -116.758-100.607   0.721  1.00  0.00     0.015 C 
BRANCH   5   6
ATOM      6  C   UNL     1    -117.965-101.261   0.012  1.00  0.00     0.028 C 
BRANCH   6   7
ATOM      7  C   UNL     1    -119.187-101.556   0.853  1.00  0.00    -0.028 C 
ATOM      8  C   UNL     1    -120.361-100.882   0.837  1.00  0.00    -0.070 CG0
ATOM      9  C   UNL     1    -121.510-101.458   1.626  1.00  0.00     0.039 C 
ATOM     10  G   UNL     1    -120.562 -99.550   0.144  1.00  0.00     0.000 G0
ENDBRANCH   6   7
ENDBRANCH   5   6
ENDBRANCH   3   5
ENDBRANCH   1   3
BRANCH   1  11
ATOM     11  C   UNL     1    -117.720 -97.592   1.625  1.00  0.00     0.087 C 
BRANCH  11  12
ATOM     12  C   UNL     1    -118.798 -97.639   0.507  1.00  0.00     0.066 C 
BRANCH  12  13
ATOM     13  C   UNL     1    -120.010 -98.424   0.979  1.00  0.00     0.140 C 
ATOM     14  O   UNL     1    -120.511 -98.157   2.062  1.00  0.00    -0.299 OA
BRANCH  13  15
ATOM     15  C   UNL     1    -120.592 -99.548   0.152  1.00  0.00     0.106 CG0
ATOM     16  G   UNL     1    -120.363-100.874   0.849  1.00  0.00     0.000 G0
ENDBRANCH  13  15
ENDBRANCH  12  13
BRANCH  12  17
ATOM     17  C   UNL     1    -119.211 -96.212   0.027  1.00  0.00    -0.006 C 
ATOM     18  C   UNL     1    -118.792 -95.121   1.028  1.00  0.00     0.008 C 
ATOM     19  C   UNL     1    -118.599 -95.888  -1.348  1.00  0.00     0.008 C 
ENDBRANCH  12  17
ENDBRANCH  11  12
ENDBRANCH   1  11
TORSDOF 1
ENDMDL
MODEL 9
REMARK VINA RESULT:    -2.278      2.484      3.827
REMARK INTER + INTRA:          -3.843
REMARK INTER:                  -3.565
REMARK INTRA:                  -0.278
REMARK UNBOUND:                -0.367
REMARK SMILES CC1=CCC[C@H](C)C(=O)C[C@H](C(C)C)C(=O)C1
REMARK SMILES IDX 8 1 9 2 6 3 7 4 5 5 4 6 3 7 2 8 1 9 10 11 11 12 15 13 16 14
REMARK SMILES IDX 17 15 12 17 13 18 14 19
REMARK H PARENT
REMARK Flexibility Score: 70.00
ROOT
ATOM      1  C   UNL     1    -112.737 -95.342   1.275  1.00  0.00     0.136 C 
ATOM      2  O   UNL     1    -112.075 -94.611   0.551  1.00  0.00    -0.299 OA
ENDROOT
BRANCH   1   3
ATOM      3  C   UNL     1    -112.248 -96.744   1.591  1.00  0.00     0.053 C 
ATOM      4  C   UNL     1    -112.029 -97.590   0.328  1.00  0.00     0.016 C 
BRANCH   3   5
ATOM      5  C   UNL     1    -111.015 -96.756   2.527  1.00  0.00     0.015 C 
BRANCH   5   6
ATOM      6  C   UNL     1    -111.258 -96.734   4.052  1.00  0.00     0.028 C 
BRANCH   6   7
ATOM      7  C   UNL     1    -111.175 -95.394   4.749  1.00  0.00    -0.028 C 
ATOM      8  C   UNL     1    -112.147 -94.804   5.484  1.00  0.00    -0.070 CG0
ATOM      9  C   UNL     1    -111.788 -93.550   6.242  1.00  0.00     0.039 C 
ATOM     10  G   UNL     1    -113.584 -95.282   5.526  1.00  0.00     0.000 G0
ENDBRANCH   6   7
ENDBRANCH   5   6
ENDBRANCH   3   5
ENDBRANCH   1   3
BRANCH   1  11
ATOM     11  C   UNL     1    -114.048 -94.820   1.831  1.00  0.00     0.087 C 
BRANCH  11  12
ATOM     12  C   UNL     1    -114.557 -95.593   3.080  1.00  0.00     0.066 C 
BRANCH  12  13
ATOM     13  C   UNL     1    -114.360 -94.755   4.332  1.00  0.00     0.140 C 
ATOM     14  O   UNL     1    -114.804 -93.616   4.364  1.00  0.00    -0.299 OA
BRANCH  13  15
ATOM     15  C   UNL     1    -113.603 -95.288   5.526  1.00  0.00     0.106 CG0
ATOM     16  G   UNL     1    -112.169 -94.799   5.489  1.00  0.00     0.000 G0
ENDBRANCH  13  15
ENDBRANCH  12  13
BRANCH  12  17
ATOM     17  C   UNL     1    -116.048 -96.033   2.932  1.00  0.00    -0.006 C 
ATOM     18  C   UNL     1    -116.903 -94.957   2.241  1.00  0.00     0.008 C 
ATOM     19  C   UNL     1    -116.164 -97.348   2.138  1.00  0.00     0.008 C 
ENDBRANCH  12  17
ENDBRANCH  11  12
ENDBRANCH   1  11
TORSDOF 1
ENDMDL
