MODEL 1
REMARK VINA RESULT:    -5.192      0.000      0.000
REMARK INTER + INTRA:          -5.192
REMARK INTER:                  -5.192
REMARK INTRA:                   0.000
REMARK UNBOUND:                 0.000
REMARK SMILES c1ccc2nc3ccccc3cc2c1
REMARK SMILES IDX 1 1 2 2 3 3 4 4 13 5 14 6 12 7 11 8 10 9 9 10 8 11 7 12 6 13
REMARK SMILES IDX 5 14
REMARK H PARENT
REMARK Flexibility Score: inf
ROOT
ATOM      1  C   UNL     1       0.741  -4.362   8.413  1.00  0.00     0.001 A 
ATOM      2  C   UNL     1       1.982  -4.282   9.053  1.00  0.00     0.002 A 
ATOM      3  C   UNL     1       2.545  -3.035   9.342  1.00  0.00     0.029 A 
ATOM      4  C   UNL     1       1.869  -1.862   8.990  1.00  0.00     0.071 A 
ATOM      5  C   UNL     1       0.614  -1.939   8.344  1.00  0.00     0.001 A 
ATOM      6  C   UNL     1       0.056  -3.195   8.058  1.00  0.00     0.010 A 
ATOM      7  C   UNL     1      -0.051  -0.755   7.998  1.00  0.00     0.020 A 
ATOM      8  C   UNL     1       0.533   0.483   8.297  1.00  0.00     0.001 A 
ATOM      9  C   UNL     1      -0.107   1.687   7.965  1.00  0.00     0.010 A 
ATOM     10  C   UNL     1       0.499   2.909   8.276  1.00  0.00     0.001 A 
ATOM     11  C   UNL     1       1.741   2.936   8.916  1.00  0.00     0.002 A 
ATOM     12  C   UNL     1       2.387   1.742   9.252  1.00  0.00     0.029 A 
ATOM     13  C   UNL     1       1.789   0.514   8.945  1.00  0.00     0.071 A 
ATOM     14  N   UNL     1       2.416  -0.649   9.271  1.00  0.00    -0.248 NA
ENDROOT
TORSDOF 0
ENDMDL
MODEL 2
REMARK VINA RESULT:    -5.184      0.159      4.831
REMARK INTER + INTRA:          -5.184
REMARK INTER:                  -5.184
REMARK INTRA:                   0.000
REMARK UNBOUND:                 0.000
REMARK SMILES c1ccc2nc3ccccc3cc2c1
REMARK SMILES IDX 1 1 2 2 3 3 4 4 13 5 14 6 12 7 11 8 10 9 9 10 8 11 7 12 6 13
REMARK SMILES IDX 5 14
REMARK H PARENT
REMARK Flexibility Score: inf
ROOT
ATOM      1  C   UNL     1       0.754   2.965   8.318  1.00  0.00     0.001 A 
ATOM      2  C   UNL     1       2.007   2.937   8.939  1.00  0.00     0.002 A 
ATOM      3  C   UNL     1       2.606   1.715   9.260  1.00  0.00     0.029 A 
ATOM      4  C   UNL     1       1.952   0.514   8.962  1.00  0.00     0.071 A 
ATOM      5  C   UNL     1       0.686   0.539   8.333  1.00  0.00     0.001 A 
ATOM      6  C   UNL     1       0.093   1.771   8.015  1.00  0.00     0.010 A 
ATOM      7  C   UNL     1       0.045  -0.673   8.041  1.00  0.00     0.020 A 
ATOM      8  C   UNL     1       0.663  -1.885   8.373  1.00  0.00     0.001 A 
ATOM      9  C   UNL     1       0.048  -3.114   8.093  1.00  0.00     0.010 A 
ATOM     10  C   UNL     1       0.689  -4.310   8.434  1.00  0.00     0.001 A 
ATOM     11  C   UNL     1       1.942  -4.285   9.055  1.00  0.00     0.002 A 
ATOM     12  C   UNL     1       2.563  -3.065   9.337  1.00  0.00     0.029 A 
ATOM     13  C   UNL     1       1.931  -1.863   9.000  1.00  0.00     0.071 A 
ATOM     14  N   UNL     1       2.534  -0.675   9.274  1.00  0.00    -0.248 NA
ENDROOT
TORSDOF 0
ENDMDL
MODEL 3
REMARK VINA RESULT:    -5.092      0.825      2.126
REMARK INTER + INTRA:          -5.092
REMARK INTER:                  -5.092
REMARK INTRA:                   0.000
REMARK UNBOUND:                 0.000
REMARK SMILES c1ccc2nc3ccccc3cc2c1
REMARK SMILES IDX 1 1 2 2 3 3 4 4 13 5 14 6 12 7 11 8 10 9 9 10 8 11 7 12 6 13
REMARK SMILES IDX 5 14
REMARK H PARENT
REMARK Flexibility Score: inf
ROOT
ATOM      1  C   UNL     1       2.041  -4.455   9.123  1.00  0.00     0.001 A 
ATOM      2  C   UNL     1       0.791  -4.530   8.499  1.00  0.00     0.002 A 
ATOM      3  C   UNL     1       0.112  -3.362   8.139  1.00  0.00     0.029 A 
ATOM      4  C   UNL     1       0.682  -2.111   8.403  1.00  0.00     0.071 A 
ATOM      5  C   UNL     1       1.946  -2.031   9.032  1.00  0.00     0.001 A 
ATOM      6  C   UNL     1       2.619  -3.210   9.390  1.00  0.00     0.010 A 
ATOM      7  C   UNL     1       2.502  -0.771   9.289  1.00  0.00     0.020 A 
ATOM      8  C   UNL     1       1.804   0.386   8.920  1.00  0.00     0.001 A 
ATOM      9  C   UNL     1       2.335   1.662   9.162  1.00  0.00     0.010 A 
ATOM     10  C   UNL     1       1.616   2.801   8.783  1.00  0.00     0.001 A 
ATOM     11  C   UNL     1       0.369   2.673   8.162  1.00  0.00     0.002 A 
ATOM     12  C   UNL     1      -0.167   1.405   7.916  1.00  0.00     0.029 A 
ATOM     13  C   UNL     1       0.544   0.259   8.292  1.00  0.00     0.071 A 
ATOM     14  N   UNL     1       0.023  -0.974   8.053  1.00  0.00    -0.248 NA
ENDROOT
TORSDOF 0
ENDMDL
MODEL 4
REMARK VINA RESULT:    -5.049      0.854      5.277
REMARK INTER + INTRA:          -5.049
REMARK INTER:                  -5.049
REMARK INTRA:                   0.000
REMARK UNBOUND:                 0.000
REMARK SMILES c1ccc2nc3ccccc3cc2c1
REMARK SMILES IDX 1 1 2 2 3 3 4 4 13 5 14 6 12 7 11 8 10 9 9 10 8 11 7 12 6 13
REMARK SMILES IDX 5 14
REMARK H PARENT
REMARK Flexibility Score: inf
ROOT
ATOM      1  C   UNL     1       1.419   2.748   8.927  1.00  0.00     0.001 A 
ATOM      2  C   UNL     1       0.207   2.597   8.247  1.00  0.00     0.002 A 
ATOM      3  C   UNL     1      -0.271   1.321   7.934  1.00  0.00     0.029 A 
ATOM      4  C   UNL     1       0.465   0.188   8.300  1.00  0.00     0.071 A 
ATOM      5  C   UNL     1       1.691   0.337   8.989  1.00  0.00     0.001 A 
ATOM      6  C   UNL     1       2.162   1.623   9.298  1.00  0.00     0.010 A 
ATOM      7  C   UNL     1       2.416  -0.807   9.349  1.00  0.00     0.020 A 
ATOM      8  C   UNL     1       1.919  -2.075   9.024  1.00  0.00     0.001 A 
ATOM      9  C   UNL     1       2.620  -3.240   9.371  1.00  0.00     0.010 A 
ATOM     10  C   UNL     1       2.100  -4.495   9.035  1.00  0.00     0.001 A 
ATOM     11  C   UNL     1       0.883  -4.593   8.354  1.00  0.00     0.002 A 
ATOM     12  C   UNL     1       0.177  -3.438   8.004  1.00  0.00     0.029 A 
ATOM     13  C   UNL     1       0.688  -2.178   8.335  1.00  0.00     0.071 A 
ATOM     14  N   UNL     1       0.002  -1.054   7.996  1.00  0.00    -0.248 NA
ENDROOT
TORSDOF 0
ENDMDL
MODEL 5
REMARK VINA RESULT:    -4.994      0.860      4.954
REMARK INTER + INTRA:          -4.994
REMARK INTER:                  -4.994
REMARK INTRA:                   0.000
REMARK UNBOUND:                 0.000
REMARK SMILES c1ccc2nc3ccccc3cc2c1
REMARK SMILES IDX 1 1 2 2 3 3 4 4 13 5 14 6 12 7 11 8 10 9 9 10 8 11 7 12 6 13
REMARK SMILES IDX 5 14
REMARK H PARENT
REMARK Flexibility Score: inf
ROOT
ATOM      1  C   UNL     1       0.984   4.074   8.324  1.00  0.00     0.001 A 
ATOM      2  C   UNL     1       2.207   3.978   8.996  1.00  0.00     0.002 A 
ATOM      3  C   UNL     1       2.729   2.725   9.331  1.00  0.00     0.029 A 
ATOM      4  C   UNL     1       2.028   1.561   8.996  1.00  0.00     0.071 A 
ATOM      5  C   UNL     1       0.791   1.655   8.317  1.00  0.00     0.001 A 
ATOM      6  C   UNL     1       0.276   2.918   7.984  1.00  0.00     0.010 A 
ATOM      7  C   UNL     1       0.101   0.480   7.989  1.00  0.00     0.020 A 
ATOM      8  C   UNL     1       0.643  -0.764   8.335  1.00  0.00     0.001 A 
ATOM      9  C   UNL     1      -0.022  -1.959   8.020  1.00  0.00     0.010 A 
ATOM     10  C   UNL     1       0.542  -3.188   8.378  1.00  0.00     0.001 A 
ATOM     11  C   UNL     1       1.768  -3.232   9.049  1.00  0.00     0.002 A 
ATOM     12  C   UNL     1       2.439  -2.046   9.367  1.00  0.00     0.029 A 
ATOM     13  C   UNL     1       1.883  -0.812   9.014  1.00  0.00     0.071 A 
ATOM     14  N   UNL     1       2.535   0.342   9.322  1.00  0.00    -0.248 NA
ENDROOT
TORSDOF 0
ENDMDL
MODEL 6
REMARK VINA RESULT:    -4.983      1.812      2.829
REMARK INTER + INTRA:          -4.983
REMARK INTER:                  -4.983
REMARK INTRA:                   0.000
REMARK UNBOUND:                 0.000
REMARK SMILES c1ccc2nc3ccccc3cc2c1
REMARK SMILES IDX 1 1 2 2 3 3 4 4 13 5 14 6 12 7 11 8 10 9 9 10 8 11 7 12 6 13
REMARK SMILES IDX 5 14
REMARK H PARENT
REMARK Flexibility Score: inf
ROOT
ATOM      1  C   UNL     1       4.934  -3.042  10.282  1.00  0.00     0.001 A 
ATOM      2  C   UNL     1       5.601  -1.828  10.474  1.00  0.00     0.002 A 
ATOM      3  C   UNL     1       4.968  -0.620  10.166  1.00  0.00     0.029 A 
ATOM      4  C   UNL     1       3.662  -0.622   9.663  1.00  0.00     0.071 A 
ATOM      5  C   UNL     1       2.984  -1.848   9.468  1.00  0.00     0.001 A 
ATOM      6  C   UNL     1       3.629  -3.055   9.780  1.00  0.00     0.010 A 
ATOM      7  C   UNL     1       1.677  -1.832   8.964  1.00  0.00     0.020 A 
ATOM      8  C   UNL     1       1.062  -0.611   8.662  1.00  0.00     0.001 A 
ATOM      9  C   UNL     1      -0.246  -0.561   8.156  1.00  0.00     0.010 A 
ATOM     10  C   UNL     1      -0.836   0.673   7.864  1.00  0.00     0.001 A 
ATOM     11  C   UNL     1      -0.127   1.860   8.073  1.00  0.00     0.002 A 
ATOM     12  C   UNL     1       1.177   1.821   8.577  1.00  0.00     0.029 A 
ATOM     13  C   UNL     1       1.777   0.591   8.873  1.00  0.00     0.071 A 
ATOM     14  N   UNL     1       3.044   0.552   9.363  1.00  0.00    -0.248 NA
ENDROOT
TORSDOF 0
ENDMDL
MODEL 7
REMARK VINA RESULT:    -4.953      1.512      4.615
REMARK INTER + INTRA:          -4.953
REMARK INTER:                  -4.953
REMARK INTRA:                   0.000
REMARK UNBOUND:                 0.000
REMARK SMILES c1ccc2nc3ccccc3cc2c1
REMARK SMILES IDX 1 1 2 2 3 3 4 4 13 5 14 6 12 7 11 8 10 9 9 10 8 11 7 12 6 13
REMARK SMILES IDX 5 14
REMARK H PARENT
REMARK Flexibility Score: inf
ROOT
ATOM      1  C   UNL     1      -0.848   0.517   7.863  1.00  0.00     0.001 A 
ATOM      2  C   UNL     1      -0.055   1.616   8.209  1.00  0.00     0.002 A 
ATOM      3  C   UNL     1       1.213   1.422   8.764  1.00  0.00     0.029 A 
ATOM      4  C   UNL     1       1.694   0.124   8.977  1.00  0.00     0.071 A 
ATOM      5  C   UNL     1       0.894  -0.989   8.628  1.00  0.00     0.001 A 
ATOM      6  C   UNL     1      -0.378  -0.783   8.071  1.00  0.00     0.010 A 
ATOM      7  C   UNL     1       1.390  -2.281   8.848  1.00  0.00     0.020 A 
ATOM      8  C   UNL     1       2.663  -2.452   9.406  1.00  0.00     0.001 A 
ATOM      9  C   UNL     1       3.189  -3.732   9.637  1.00  0.00     0.010 A 
ATOM     10  C   UNL     1       4.463  -3.874  10.195  1.00  0.00     0.001 A 
ATOM     11  C   UNL     1       5.218  -2.744  10.524  1.00  0.00     0.002 A 
ATOM     12  C   UNL     1       4.703  -1.464  10.297  1.00  0.00     0.029 A 
ATOM     13  C   UNL     1       3.429  -1.311   9.739  1.00  0.00     0.071 A 
ATOM     14  N   UNL     1       2.927  -0.066   9.517  1.00  0.00    -0.248 NA
ENDROOT
TORSDOF 0
ENDMDL
MODEL 8
REMARK VINA RESULT:    -4.881      1.275      5.482
REMARK INTER + INTRA:          -4.881
REMARK INTER:                  -4.881
REMARK INTRA:                   0.000
REMARK UNBOUND:                 0.000
REMARK SMILES c1ccc2nc3ccccc3cc2c1
REMARK SMILES IDX 1 1 2 2 3 3 4 4 13 5 14 6 12 7 11 8 10 9 9 10 8 11 7 12 6 13
REMARK SMILES IDX 5 14
REMARK H PARENT
REMARK Flexibility Score: inf
ROOT
ATOM      1  C   UNL     1       2.469   4.380   8.598  1.00  0.00     0.001 A 
ATOM      2  C   UNL     1       1.200   4.458   8.015  1.00  0.00     0.002 A 
ATOM      3  C   UNL     1       0.446   3.298   7.815  1.00  0.00     0.029 A 
ATOM      4  C   UNL     1       0.959   2.053   8.198  1.00  0.00     0.071 A 
ATOM      5  C   UNL     1       2.241   1.972   8.788  1.00  0.00     0.001 A 
ATOM      6  C   UNL     1       2.991   3.142   8.985  1.00  0.00     0.010 A 
ATOM      7  C   UNL     1       2.741   0.718   9.166  1.00  0.00     0.020 A 
ATOM      8  C   UNL     1       1.968  -0.431   8.956  1.00  0.00     0.001 A 
ATOM      9  C   UNL     1       2.439  -1.700   9.324  1.00  0.00     0.010 A 
ATOM     10  C   UNL     1       1.645  -2.831   9.103  1.00  0.00     0.001 A 
ATOM     11  C   UNL     1       0.383  -2.702   8.515  1.00  0.00     0.002 A 
ATOM     12  C   UNL     1      -0.095  -1.441   8.146  1.00  0.00     0.029 A 
ATOM     13  C   UNL     1       0.690  -0.303   8.362  1.00  0.00     0.071 A 
ATOM     14  N   UNL     1       0.226   0.924   8.004  1.00  0.00    -0.248 NA
ENDROOT
TORSDOF 0
ENDMDL
