MODEL 1
REMARK VINA RESULT:    -4.203      0.000      0.000
REMARK INTER + INTRA:          -6.526
REMARK INTER:                  -6.169
REMARK INTRA:                  -0.357
REMARK UNBOUND:                -0.357
REMARK SMILES O=C([O-])CCCCCCCC(=O)[O-]
REMARK SMILES IDX 7 1 6 2 5 3 4 4 2 5 1 6 3 7 8 8 9 9 10 10 11 11 12 12 13 13
REMARK H PARENT
REMARK Flexibility Score: inf
ROOT
ATOM      1  C   UNL     1      13.756 -32.179  21.067  1.00  0.00     0.000 C 
ENDROOT
BRANCH   1   2
ATOM      2  C   UNL     1      14.192 -33.453  20.326  1.00  0.00     0.000 C 
BRANCH   2   3
ATOM      3  C   UNL     1      15.390 -34.146  20.993  1.00  0.00     0.006 C 
BRANCH   3   4
ATOM      4  C   UNL     1      15.645 -35.552  20.435  1.00  0.00     0.053 C 
BRANCH   4   5
ATOM      5  C   UNL     1      16.829 -35.544  19.520  1.00  0.00     0.041 C 
ATOM      6  O   UNL     1      17.356 -36.628  19.155  1.00  0.00    -0.550 OA
ATOM      7  O   UNL     1      17.320 -34.340  19.030  1.00  0.00    -0.550 OA
ENDBRANCH   4   5
ENDBRANCH   3   4
ENDBRANCH   2   3
ENDBRANCH   1   2
BRANCH   1   8
ATOM      8  C   UNL     1      14.416 -32.096  22.449  1.00  0.00     0.000 C 
BRANCH   8   9
ATOM      9  C   UNL     1      13.397 -31.697  23.522  1.00  0.00     0.006 C 
BRANCH   9  10
ATOM     10  C   UNL     1      13.614 -30.250  23.976  1.00  0.00     0.053 C 
BRANCH  10  11
ATOM     11  C   UNL     1      12.368 -29.446  23.780  1.00  0.00     0.041 C 
ATOM     12  O   UNL     1      11.602 -29.693  22.811  1.00  0.00    -0.550 OA
ATOM     13  O   UNL     1      12.028 -28.458  24.693  1.00  0.00    -0.550 OA
ENDBRANCH  10  11
ENDBRANCH   9  10
ENDBRANCH   8   9
ENDBRANCH   1   8
TORSDOF 8
ENDMDL
MODEL 2
REMARK VINA RESULT:    -4.168      1.681      7.392
REMARK INTER + INTRA:          -6.474
REMARK INTER:                  -6.103
REMARK INTRA:                  -0.371
REMARK UNBOUND:                -0.357
REMARK SMILES O=C([O-])CCCCCCCC(=O)[O-]
REMARK SMILES IDX 7 1 6 2 5 3 4 4 2 5 1 6 3 7 8 8 9 9 10 10 11 11 12 12 13 13
REMARK H PARENT
REMARK Flexibility Score: inf
ROOT
ATOM      1  C   UNL     1      15.295 -34.137  21.918  1.00  0.00     0.000 C 
ENDROOT
BRANCH   1   2
ATOM      2  C   UNL     1      14.556 -33.649  20.662  1.00  0.00     0.000 C 
BRANCH   2   3
ATOM      3  C   UNL     1      13.803 -32.329  20.893  1.00  0.00     0.006 C 
BRANCH   3   4
ATOM      4  C   UNL     1      14.401 -31.500  22.036  1.00  0.00     0.053 C 
BRANCH   4   5
ATOM      5  C   UNL     1      13.317 -30.990  22.933  1.00  0.00     0.041 C 
ATOM      6  O   UNL     1      12.151 -30.827  22.487  1.00  0.00    -0.550 OA
ATOM      7  O   UNL     1      13.584 -30.742  24.274  1.00  0.00    -0.550 OA
ENDBRANCH   4   5
ENDBRANCH   3   4
ENDBRANCH   2   3
ENDBRANCH   1   2
BRANCH   1   8
ATOM      8  C   UNL     1      16.286 -35.255  21.572  1.00  0.00     0.000 C 
BRANCH   8   9
ATOM      9  C   UNL     1      16.158 -35.668  20.101  1.00  0.00     0.006 C 
BRANCH   9  10
ATOM     10  C   UNL     1      17.521 -36.056  19.519  1.00  0.00     0.053 C 
BRANCH  10  11
ATOM     11  C   UNL     1      17.643 -37.543  19.415  1.00  0.00     0.041 C 
ATOM     12  O   UNL     1      17.614 -38.104  18.288  1.00  0.00    -0.550 OA
ATOM     13  O   UNL     1      17.838 -38.306  20.559  1.00  0.00    -0.550 OA
ENDBRANCH  10  11
ENDBRANCH   9  10
ENDBRANCH   8   9
ENDBRANCH   1   8
TORSDOF 8
ENDMDL
MODEL 3
REMARK VINA RESULT:    -4.119      1.672      2.411
REMARK INTER + INTRA:          -6.402
REMARK INTER:                  -6.034
REMARK INTRA:                  -0.369
REMARK UNBOUND:                -0.357
REMARK SMILES O=C([O-])CCCCCCCC(=O)[O-]
REMARK SMILES IDX 7 1 6 2 5 3 4 4 2 5 1 6 3 7 8 8 9 9 10 10 11 11 12 12 13 13
REMARK H PARENT
REMARK Flexibility Score: inf
ROOT
ATOM      1  C   UNL     1      15.009 -33.950  21.724  1.00  0.00     0.000 C 
ENDROOT
BRANCH   1   2
ATOM      2  C   UNL     1      16.194 -34.878  21.413  1.00  0.00     0.000 C 
BRANCH   2   3
ATOM      3  C   UNL     1      16.242 -35.303  19.937  1.00  0.00     0.006 C 
BRANCH   3   4
ATOM      4  C   UNL     1      17.619 -35.834  19.518  1.00  0.00     0.053 C 
BRANCH   4   5
ATOM      5  C   UNL     1      17.603 -37.329  19.451  1.00  0.00     0.041 C 
ATOM      6  O   UNL     1      17.577 -38.010  20.509  1.00  0.00    -0.550 OA
ATOM      7  O   UNL     1      17.567 -37.968  18.218  1.00  0.00    -0.550 OA
ENDBRANCH   4   5
ENDBRANCH   3   4
ENDBRANCH   2   3
ENDBRANCH   1   2
BRANCH   1   8
ATOM      8  C   UNL     1      14.353 -33.446  20.433  1.00  0.00     0.000 C 
BRANCH   8   9
ATOM      9  C   UNL     1      13.552 -32.164  20.686  1.00  0.00     0.006 C 
BRANCH   9  10
ATOM     10  C   UNL     1      14.217 -31.305  21.767  1.00  0.00     0.053 C 
BRANCH  10  11
ATOM     11  C   UNL     1      13.211 -30.876  22.787  1.00  0.00     0.041 C 
ATOM     12  O   UNL     1      12.037 -30.584  22.435  1.00  0.00    -0.550 OA
ATOM     13  O   UNL     1      13.555 -30.846  24.132  1.00  0.00    -0.550 OA
ENDBRANCH  10  11
ENDBRANCH   9  10
ENDBRANCH   8   9
ENDBRANCH   1   8
TORSDOF 8
ENDMDL
MODEL 4
REMARK VINA RESULT:    -4.104     11.263     11.934
REMARK INTER + INTRA:          -6.380
REMARK INTER:                  -5.937
REMARK INTRA:                  -0.443
REMARK UNBOUND:                -0.357
REMARK SMILES O=C([O-])CCCCCCCC(=O)[O-]
REMARK SMILES IDX 7 1 6 2 5 3 4 4 2 5 1 6 3 7 8 8 9 9 10 10 11 11 12 12 13 13
REMARK H PARENT
REMARK Flexibility Score: inf
ROOT
ATOM      1  C   UNL     1      23.618 -23.783  21.631  1.00  0.00     0.000 C 
ENDROOT
BRANCH   1   2
ATOM      2  C   UNL     1      24.076 -23.797  20.164  1.00  0.00     0.000 C 
BRANCH   2   3
ATOM      3  C   UNL     1      23.440 -24.939  19.356  1.00  0.00     0.006 C 
BRANCH   3   4
ATOM      4  C   UNL     1      22.262 -25.596  20.087  1.00  0.00     0.053 C 
BRANCH   4   5
ATOM      5  C   UNL     1      22.590 -27.014  20.435  1.00  0.00     0.041 C 
ATOM      6  O   UNL     1      21.677 -27.806  20.788  1.00  0.00    -0.550 OA
ATOM      7  O   UNL     1      23.896 -27.473  20.320  1.00  0.00    -0.550 OA
ENDBRANCH   4   5
ENDBRANCH   3   4
ENDBRANCH   2   3
ENDBRANCH   1   2
BRANCH   1   8
ATOM      8  C   UNL     1      24.200 -22.576  22.376  1.00  0.00     0.000 C 
BRANCH   8   9
ATOM      9  C   UNL     1      23.138 -21.909  23.257  1.00  0.00     0.006 C 
BRANCH   9  10
ATOM     10  C   UNL     1      21.797 -22.642  23.154  1.00  0.00     0.053 C 
BRANCH  10  11
ATOM     11  C   UNL     1      20.669 -21.664  23.076  1.00  0.00     0.041 C 
ATOM     12  O   UNL     1      19.533 -22.039  22.681  1.00  0.00    -0.550 OA
ATOM     13  O   UNL     1      20.857 -20.351  23.486  1.00  0.00    -0.550 OA
ENDBRANCH  10  11
ENDBRANCH   9  10
ENDBRANCH   8   9
ENDBRANCH   1   8
TORSDOF 8
ENDMDL
MODEL 5
REMARK VINA RESULT:    -4.095      1.731      6.326
REMARK INTER + INTRA:          -6.367
REMARK INTER:                  -5.713
REMARK INTRA:                  -0.653
REMARK UNBOUND:                -0.357
REMARK SMILES O=C([O-])CCCCCCCC(=O)[O-]
REMARK SMILES IDX 7 1 6 2 5 3 4 4 2 5 1 6 3 7 8 8 9 9 10 10 11 11 12 12 13 13
REMARK H PARENT
REMARK Flexibility Score: inf
ROOT
ATOM      1  C   UNL     1      16.317 -32.799  23.752  1.00  0.00     0.000 C 
ENDROOT
BRANCH   1   2
ATOM      2  C   UNL     1      15.059 -33.474  24.318  1.00  0.00     0.000 C 
BRANCH   2   3
ATOM      3  C   UNL     1      13.864 -32.512  24.418  1.00  0.00     0.006 C 
BRANCH   3   4
ATOM      4  C   UNL     1      14.042 -31.257  23.553  1.00  0.00     0.053 C 
BRANCH   4   5
ATOM      5  C   UNL     1      13.197 -31.349  22.321  1.00  0.00     0.041 C 
ATOM      6  O   UNL     1      12.009 -30.934  22.336  1.00  0.00    -0.550 OA
ATOM      7  O   UNL     1      13.739 -31.846  21.143  1.00  0.00    -0.550 OA
ENDBRANCH   4   5
ENDBRANCH   3   4
ENDBRANCH   2   3
ENDBRANCH   1   2
BRANCH   1   8
ATOM      8  C   UNL     1      16.757 -33.467  22.443  1.00  0.00     0.000 C 
BRANCH   8   9
ATOM      9  C   UNL     1      16.107 -34.846  22.284  1.00  0.00     0.006 C 
BRANCH   9  10
ATOM     10  C   UNL     1      15.381 -34.960  20.940  1.00  0.00     0.053 C 
BRANCH  10  11
ATOM     11  C   UNL     1      16.309 -35.469  19.884  1.00  0.00     0.041 C 
ATOM     12  O   UNL     1      16.858 -34.667  19.083  1.00  0.00    -0.550 OA
ATOM     13  O   UNL     1      16.606 -36.824  19.814  1.00  0.00    -0.550 OA
ENDBRANCH  10  11
ENDBRANCH   9  10
ENDBRANCH   8   9
ENDBRANCH   1   8
TORSDOF 8
ENDMDL
MODEL 6
REMARK VINA RESULT:    -4.087      8.157      9.225
REMARK INTER + INTRA:          -6.355
REMARK INTER:                  -5.949
REMARK INTRA:                  -0.407
REMARK UNBOUND:                -0.357
REMARK SMILES O=C([O-])CCCCCCCC(=O)[O-]
REMARK SMILES IDX 7 1 6 2 5 3 4 4 2 5 1 6 3 7 8 8 9 9 10 10 11 11 12 12 13 13
REMARK H PARENT
REMARK Flexibility Score: inf
ROOT
ATOM      1  C   UNL     1      21.276 -28.317  20.992  1.00  0.00     0.000 C 
ENDROOT
BRANCH   1   2
ATOM      2  C   UNL     1      20.403 -27.055  21.073  1.00  0.00     0.000 C 
BRANCH   2   3
ATOM      3  C   UNL     1      20.930 -25.914  20.189  1.00  0.00     0.006 C 
BRANCH   3   4
ATOM      4  C   UNL     1      22.434 -26.028  19.910  1.00  0.00     0.053 C 
BRANCH   4   5
ATOM      5  C   UNL     1      23.164 -24.861  20.497  1.00  0.00     0.041 C 
ATOM      6  O   UNL     1      23.976 -24.203  19.795  1.00  0.00    -0.550 OA
ATOM      7  O   UNL     1      22.909 -24.469  21.805  1.00  0.00    -0.550 OA
ENDBRANCH   4   5
ENDBRANCH   3   4
ENDBRANCH   2   3
ENDBRANCH   1   2
BRANCH   1   8
ATOM      8  C   UNL     1      20.430 -29.582  21.185  1.00  0.00     0.000 C 
BRANCH   8   9
ATOM      9  C   UNL     1      18.945 -29.294  20.939  1.00  0.00     0.006 C 
BRANCH   9  10
ATOM     10  C   UNL     1      18.066 -30.047  21.942  1.00  0.00     0.053 C 
BRANCH  10  11
ATOM     11  C   UNL     1      17.299 -31.132  21.256  1.00  0.00     0.041 C 
ATOM     12  O   UNL     1      17.883 -31.912  20.457  1.00  0.00    -0.550 OA
ATOM     13  O   UNL     1      15.951 -31.315  21.536  1.00  0.00    -0.550 OA
ENDBRANCH  10  11
ENDBRANCH   9  10
ENDBRANCH   8   9
ENDBRANCH   1   8
TORSDOF 8
ENDMDL
MODEL 7
REMARK VINA RESULT:    -4.087      1.609      2.240
REMARK INTER + INTRA:          -6.355
REMARK INTER:                  -5.769
REMARK INTRA:                  -0.586
REMARK UNBOUND:                -0.357
REMARK SMILES O=C([O-])CCCCCCCC(=O)[O-]
REMARK SMILES IDX 7 1 6 2 5 3 4 4 2 5 1 6 3 7 8 8 9 9 10 10 11 11 12 12 13 13
REMARK H PARENT
REMARK Flexibility Score: inf
ROOT
ATOM      1  C   UNL     1      15.607 -33.413  24.223  1.00  0.00     0.000 C 
ENDROOT
BRANCH   1   2
ATOM      2  C   UNL     1      15.746 -34.543  23.190  1.00  0.00     0.000 C 
BRANCH   2   3
ATOM      3  C   UNL     1      15.819 -34.020  21.747  1.00  0.00     0.006 C 
BRANCH   3   4
ATOM      4  C   UNL     1      15.309 -35.041  20.721  1.00  0.00     0.053 C 
BRANCH   4   5
ATOM      5  C   UNL     1      16.434 -35.520  19.859  1.00  0.00     0.041 C 
ATOM      6  O   UNL     1      16.637 -36.754  19.710  1.00  0.00    -0.550 OA
ATOM      7  O   UNL     1      17.228 -34.605  19.179  1.00  0.00    -0.550 OA
ENDBRANCH   4   5
ENDBRANCH   3   4
ENDBRANCH   2   3
ENDBRANCH   1   2
BRANCH   1   8
ATOM      8  C   UNL     1      14.167 -32.887  24.270  1.00  0.00     0.000 C 
BRANCH   8   9
ATOM      9  C   UNL     1      14.137 -31.357  24.186  1.00  0.00     0.006 C 
BRANCH   9  10
ATOM     10  C   UNL     1      14.255 -30.884  22.734  1.00  0.00     0.053 C 
BRANCH  10  11
ATOM     11  C   UNL     1      13.021 -31.236  21.965  1.00  0.00     0.041 C 
ATOM     12  O   UNL     1      13.097 -31.978  20.950  1.00  0.00    -0.550 OA
ATOM     13  O   UNL     1      11.781 -30.785  22.398  1.00  0.00    -0.550 OA
ENDBRANCH  10  11
ENDBRANCH   9  10
ENDBRANCH   8   9
ENDBRANCH   1   8
TORSDOF 8
ENDMDL
MODEL 8
REMARK VINA RESULT:    -4.066      3.120      6.907
REMARK INTER + INTRA:          -6.324
REMARK INTER:                  -5.560
REMARK INTRA:                  -0.764
REMARK UNBOUND:                -0.357
REMARK SMILES O=C([O-])CCCCCCCC(=O)[O-]
REMARK SMILES IDX 7 1 6 2 5 3 4 4 2 5 1 6 3 7 8 8 9 9 10 10 11 11 12 12 13 13
REMARK H PARENT
REMARK Flexibility Score: inf
ROOT
ATOM      1  C   UNL     1      18.469 -33.755  20.644  1.00  0.00     0.000 C 
ENDROOT
BRANCH   1   2
ATOM      2  C   UNL     1      18.059 -32.283  20.810  1.00  0.00     0.000 C 
BRANCH   2   3
ATOM      3  C   UNL     1      17.026 -32.079  21.929  1.00  0.00     0.006 C 
BRANCH   3   4
ATOM      4  C   UNL     1      15.639 -31.705  21.391  1.00  0.00     0.053 C 
BRANCH   4   5
ATOM      5  C   UNL     1      14.718 -32.882  21.459  1.00  0.00     0.041 C 
ATOM      6  O   UNL     1      13.829 -33.043  20.583  1.00  0.00    -0.550 OA
ATOM      7  O   UNL     1      14.875 -33.830  22.463  1.00  0.00    -0.550 OA
ENDBRANCH   4   5
ENDBRANCH   3   4
ENDBRANCH   2   3
ENDBRANCH   1   2
BRANCH   1   8
ATOM      8  C   UNL     1      18.065 -34.285  19.263  1.00  0.00     0.000 C 
BRANCH   8   9
ATOM      9  C   UNL     1      16.752 -35.072  19.338  1.00  0.00     0.006 C 
BRANCH   9  10
ATOM     10  C   UNL     1      16.788 -36.097  20.476  1.00  0.00     0.053 C 
BRANCH  10  11
ATOM     11  C   UNL     1      17.481 -37.347  20.033  1.00  0.00     0.041 C 
ATOM     12  O   UNL     1      18.084 -38.067  20.872  1.00  0.00    -0.550 OA
ATOM     13  O   UNL     1      17.419 -37.742  18.704  1.00  0.00    -0.550 OA
ENDBRANCH  10  11
ENDBRANCH   9  10
ENDBRANCH   8   9
ENDBRANCH   1   8
TORSDOF 8
ENDMDL
MODEL 9
REMARK VINA RESULT:    -4.065      1.953      2.372
REMARK INTER + INTRA:          -6.324
REMARK INTER:                  -5.685
REMARK INTRA:                  -0.638
REMARK UNBOUND:                -0.357
REMARK SMILES O=C([O-])CCCCCCCC(=O)[O-]
REMARK SMILES IDX 7 1 6 2 5 3 4 4 2 5 1 6 3 7 8 8 9 9 10 10 11 11 12 12 13 13
REMARK H PARENT
REMARK Flexibility Score: inf
ROOT
ATOM      1  C   UNL     1      13.602 -31.962  21.660  1.00  0.00     0.000 C 
ENDROOT
BRANCH   1   2
ATOM      2  C   UNL     1      14.206 -33.077  20.792  1.00  0.00     0.000 C 
BRANCH   2   3
ATOM      3  C   UNL     1      15.310 -33.861  21.519  1.00  0.00     0.006 C 
BRANCH   3   4
ATOM      4  C   UNL     1      16.665 -33.774  20.805  1.00  0.00     0.053 C 
BRANCH   4   5
ATOM      5  C   UNL     1      17.521 -32.723  21.438  1.00  0.00     0.041 C 
ATOM      6  O   UNL     1      17.539 -32.589  22.690  1.00  0.00    -0.550 OA
ATOM      7  O   UNL     1      18.340 -31.924  20.648  1.00  0.00    -0.550 OA
ENDBRANCH   4   5
ENDBRANCH   3   4
ENDBRANCH   2   3
ENDBRANCH   1   2
BRANCH   1   8
ATOM      8  C   UNL     1      14.541 -30.751  21.728  1.00  0.00     0.000 C 
BRANCH   8   9
ATOM      9  C   UNL     1      14.736 -30.286  23.176  1.00  0.00     0.006 C 
BRANCH   9  10
ATOM     10  C   UNL     1      13.492 -30.580  24.020  1.00  0.00     0.053 C 
BRANCH  10  11
ATOM     11  C   UNL     1      12.645 -29.354  24.149  1.00  0.00     0.041 C 
ATOM     12  O   UNL     1      12.980 -28.433  24.942  1.00  0.00    -0.550 OA
ATOM     13  O   UNL     1      11.512 -29.204  23.360  1.00  0.00    -0.550 OA
ENDBRANCH  10  11
ENDBRANCH   9  10
ENDBRANCH   8   9
ENDBRANCH   1   8
TORSDOF 8
ENDMDL
