MODEL 1
REMARK VINA RESULT:    -4.731      0.000      0.000
REMARK INTER + INTRA:         -10.368
REMARK INTER:                  -8.050
REMARK INTRA:                  -2.318
REMARK UNBOUND:                -2.318
REMARK SMILES CC(=O)CCC[C@H](C)CCC[C@@H](C)CCCC(C)C
REMARK SMILES IDX 10 1 11 2 12 3 13 4 14 5 15 6 16 7 17 8 18 9 19 10 9 11 7 12
REMARK SMILES IDX 8 13 6 14 5 15 4 16 2 17 3 18 1 19
REMARK H PARENT
REMARK Flexibility Score: inf
ROOT
ATOM      1  C   UNL     1     117.147 114.321 118.478  1.00  0.00     0.001 C 
ENDROOT
BRANCH   1   2
ATOM      2  C   UNL     1     115.821 114.706 119.164  1.00  0.00     0.003 C 
BRANCH   2   3
ATOM      3  C   UNL     1     114.573 114.197 118.404  1.00  0.00    -0.014 C 
ATOM      4  C   UNL     1     113.859 113.083 119.192  1.00  0.00     0.007 C 
BRANCH   3   5
ATOM      5  C   UNL     1     113.624 115.392 118.125  1.00  0.00     0.003 C 
BRANCH   5   6
ATOM      6  C   UNL     1     113.663 116.530 119.163  1.00  0.00     0.001 C 
BRANCH   6   7
ATOM      7  C   UNL     1     113.636 117.931 118.518  1.00  0.00     0.003 C 
BRANCH   7   8
ATOM      8  C   UNL     1     114.571 118.964 119.190  1.00  0.00    -0.017 C 
ATOM      9  C   UNL     1     115.543 118.316 120.185  1.00  0.00     0.007 C 
ATOM     10  C   UNL     1     115.327 119.827 118.169  1.00  0.00     0.007 C 
ENDBRANCH   7   8
ENDBRANCH   6   7
ENDBRANCH   5   6
ENDBRANCH   3   5
ENDBRANCH   2   3
ENDBRANCH   1   2
BRANCH   1  11
ATOM     11  C   UNL     1     117.375 115.106 117.166  1.00  0.00     0.003 C 
BRANCH  11  12
ATOM     12  C   UNL     1     117.018 116.610 117.266  1.00  0.00    -0.014 C 
ATOM     13  C   UNL     1     118.269 117.468 117.531  1.00  0.00     0.007 C 
BRANCH  12  14
ATOM     14  C   UNL     1     116.299 117.058 115.969  1.00  0.00     0.004 C 
BRANCH  14  15
ATOM     15  C   UNL     1     116.689 116.218 114.742  1.00  0.00     0.008 C 
BRANCH  15  16
ATOM     16  C   UNL     1     116.236 116.899 113.445  1.00  0.00     0.075 C 
BRANCH  16  17
ATOM     17  C   UNL     1     116.418 115.981 112.267  1.00  0.00     0.129 C 
ATOM     18  O   UNL     1     115.464 115.354 111.832  1.00  0.00    -0.300 OA
ATOM     19  C   UNL     1     117.767 115.812 111.636  1.00  0.00     0.087 C 
ENDBRANCH  16  17
ENDBRANCH  15  16
ENDBRANCH  14  15
ENDBRANCH  12  14
ENDBRANCH  11  12
ENDBRANCH   1  11
TORSDOF 12
ENDMDL
MODEL 2
REMARK VINA RESULT:    -4.721      1.467      3.668
REMARK INTER + INTRA:         -10.351
REMARK INTER:                  -8.648
REMARK INTRA:                  -1.703
REMARK UNBOUND:                -2.318
REMARK SMILES CC(=O)CCC[C@H](C)CCC[C@@H](C)CCCC(C)C
REMARK SMILES IDX 10 1 11 2 12 3 13 4 14 5 15 6 16 7 17 8 18 9 19 10 9 11 7 12
REMARK SMILES IDX 8 13 6 14 5 15 4 16 2 17 3 18 1 19
REMARK H PARENT
REMARK Flexibility Score: inf
ROOT
ATOM      1  C   UNL     1     118.844 116.644 118.139  1.00  0.00     0.001 C 
ENDROOT
BRANCH   1   2
ATOM      2  C   UNL     1     118.049 115.531 118.851  1.00  0.00     0.003 C 
BRANCH   2   3
ATOM      3  C   UNL     1     118.223 114.142 118.191  1.00  0.00    -0.014 C 
ATOM      4  C   UNL     1     119.443 113.401 118.771  1.00  0.00     0.007 C 
BRANCH   3   5
ATOM      5  C   UNL     1     116.920 113.322 118.377  1.00  0.00     0.003 C 
BRANCH   5   6
ATOM      6  C   UNL     1     115.778 114.044 119.119  1.00  0.00     0.001 C 
BRANCH   6   7
ATOM      7  C   UNL     1     114.587 113.117 119.435  1.00  0.00     0.003 C 
BRANCH   7   8
ATOM      8  C   UNL     1     113.301 113.429 118.632  1.00  0.00    -0.017 C 
ATOM      9  C   UNL     1     113.433 114.702 117.786  1.00  0.00     0.007 C 
ATOM     10  C   UNL     1     112.840 112.244 117.773  1.00  0.00     0.007 C 
ENDBRANCH   7   8
ENDBRANCH   6   7
ENDBRANCH   5   6
ENDBRANCH   3   5
ENDBRANCH   2   3
ENDBRANCH   1   2
BRANCH   1  11
ATOM     11  C   UNL     1     117.947 117.506 117.222  1.00  0.00     0.003 C 
BRANCH  11  12
ATOM     12  C   UNL     1     116.440 117.158 117.312  1.00  0.00    -0.014 C 
ATOM     13  C   UNL     1     115.584 118.421 117.520  1.00  0.00     0.007 C 
BRANCH  12  14
ATOM     14  C   UNL     1     116.009 116.395 116.035  1.00  0.00     0.004 C 
BRANCH  14  15
ATOM     15  C   UNL     1     117.012 116.538 114.878  1.00  0.00     0.008 C 
BRANCH  15  16
ATOM     16  C   UNL     1     116.284 116.694 113.537  1.00  0.00     0.075 C 
BRANCH  16  17
ATOM     17  C   UNL     1     117.253 116.607 112.390  1.00  0.00     0.129 C 
ATOM     18  O   UNL     1     117.746 115.529 112.091  1.00  0.00    -0.300 OA
ATOM     19  C   UNL     1     117.636 117.836 111.624  1.00  0.00     0.087 C 
ENDBRANCH  16  17
ENDBRANCH  15  16
ENDBRANCH  14  15
ENDBRANCH  12  14
ENDBRANCH  11  12
ENDBRANCH   1  11
TORSDOF 12
ENDMDL
MODEL 3
REMARK VINA RESULT:    -4.708      1.563      3.233
REMARK INTER + INTRA:         -10.329
REMARK INTER:                  -8.483
REMARK INTRA:                  -1.846
REMARK UNBOUND:                -2.318
REMARK SMILES CC(=O)CCC[C@H](C)CCC[C@@H](C)CCCC(C)C
REMARK SMILES IDX 10 1 11 2 12 3 13 4 14 5 15 6 16 7 17 8 18 9 19 10 9 11 7 12
REMARK SMILES IDX 8 13 6 14 5 15 4 16 2 17 3 18 1 19
REMARK H PARENT
REMARK Flexibility Score: inf
ROOT
ATOM      1  C   UNL     1     118.406 117.581 117.427  1.00  0.00     0.001 C 
ENDROOT
BRANCH   1   2
ATOM      2  C   UNL     1     118.272 118.642 118.539  1.00  0.00     0.003 C 
BRANCH   2   3
ATOM      3  C   UNL     1     116.843 118.731 119.125  1.00  0.00    -0.014 C 
ATOM      4  C   UNL     1     116.881 118.920 120.653  1.00  0.00     0.007 C 
BRANCH   3   5
ATOM      5  C   UNL     1     116.077 119.886 118.430  1.00  0.00     0.003 C 
BRANCH   5   6
ATOM      6  C   UNL     1     114.782 119.482 117.698  1.00  0.00     0.001 C 
BRANCH   6   7
ATOM      7  C   UNL     1     113.732 118.855 118.639  1.00  0.00     0.003 C 
BRANCH   7   8
ATOM      8  C   UNL     1     112.554 119.792 118.999  1.00  0.00    -0.017 C 
ATOM      9  C   UNL     1     112.887 120.732 120.165  1.00  0.00     0.007 C 
ATOM     10  C   UNL     1     112.038 120.582 117.788  1.00  0.00     0.007 C 
ENDBRANCH   7   8
ENDBRANCH   6   7
ENDBRANCH   5   6
ENDBRANCH   3   5
ENDBRANCH   2   3
ENDBRANCH   1   2
BRANCH   1  11
ATOM     11  C   UNL     1     117.729 116.246 117.811  1.00  0.00     0.003 C 
BRANCH  11  12
ATOM     12  C   UNL     1     116.589 115.823 116.850  1.00  0.00    -0.014 C 
ATOM     13  C   UNL     1     115.256 115.651 117.602  1.00  0.00     0.007 C 
BRANCH  12  14
ATOM     14  C   UNL     1     116.458 116.865 115.712  1.00  0.00     0.004 C 
BRANCH  14  15
ATOM     15  C   UNL     1     117.022 116.370 114.371  1.00  0.00     0.008 C 
BRANCH  15  16
ATOM     16  C   UNL     1     116.195 116.905 113.196  1.00  0.00     0.075 C 
BRANCH  16  17
ATOM     17  C   UNL     1     116.912 116.685 111.892  1.00  0.00     0.129 C 
ATOM     18  O   UNL     1     116.721 117.448 110.957  1.00  0.00    -0.300 OA
ATOM     19  C   UNL     1     117.845 115.524 111.725  1.00  0.00     0.087 C 
ENDBRANCH  16  17
ENDBRANCH  15  16
ENDBRANCH  14  15
ENDBRANCH  12  14
ENDBRANCH  11  12
ENDBRANCH   1  11
TORSDOF 12
ENDMDL
MODEL 4
REMARK VINA RESULT:    -4.687      2.289      6.120
REMARK INTER + INTRA:         -10.294
REMARK INTER:                  -8.495
REMARK INTRA:                  -1.799
REMARK UNBOUND:                -2.318
REMARK SMILES CC(=O)CCC[C@H](C)CCC[C@@H](C)CCCC(C)C
REMARK SMILES IDX 10 1 11 2 12 3 13 4 14 5 15 6 16 7 17 8 18 9 19 10 9 11 7 12
REMARK SMILES IDX 8 13 6 14 5 15 4 16 2 17 3 18 1 19
REMARK H PARENT
REMARK Flexibility Score: inf
ROOT
ATOM      1  C   UNL     1     115.311 119.083 117.750  1.00  0.00     0.001 C 
ENDROOT
BRANCH   1   2
ATOM      2  C   UNL     1     116.552 118.328 118.268  1.00  0.00     0.003 C 
BRANCH   2   3
ATOM      3  C   UNL     1     117.218 117.441 117.189  1.00  0.00    -0.014 C 
ATOM      4  C   UNL     1     117.643 116.081 117.774  1.00  0.00     0.007 C 
BRANCH   3   5
ATOM      5  C   UNL     1     116.241 117.267 115.998  1.00  0.00     0.003 C 
BRANCH   5   6
ATOM      6  C   UNL     1     116.617 116.172 114.981  1.00  0.00     0.001 C 
BRANCH   6   7
ATOM      7  C   UNL     1     116.944 116.737 113.584  1.00  0.00     0.003 C 
BRANCH   7   8
ATOM      8  C   UNL     1     115.926 116.355 112.484  1.00  0.00    -0.017 C 
ATOM      9  C   UNL     1     115.360 117.582 111.756  1.00  0.00     0.007 C 
ATOM     10  C   UNL     1     116.491 115.337 111.483  1.00  0.00     0.007 C 
ENDBRANCH   7   8
ENDBRANCH   6   7
ENDBRANCH   5   6
ENDBRANCH   3   5
ENDBRANCH   2   3
ENDBRANCH   1   2
BRANCH   1  11
ATOM     11  C   UNL     1     114.025 118.682 118.509  1.00  0.00     0.003 C 
BRANCH  11  12
ATOM     12  C   UNL     1     114.142 117.340 119.274  1.00  0.00    -0.014 C 
ATOM     13  C   UNL     1     113.773 117.507 120.760  1.00  0.00     0.007 C 
BRANCH  12  14
ATOM     14  C   UNL     1     113.245 116.277 118.592  1.00  0.00     0.004 C 
BRANCH  14  15
ATOM     15  C   UNL     1     114.047 115.140 117.937  1.00  0.00     0.008 C 
BRANCH  15  16
ATOM     16  C   UNL     1     114.482 114.105 118.981  1.00  0.00     0.075 C 
BRANCH  16  17
ATOM     17  C   UNL     1     113.636 112.864 118.888  1.00  0.00     0.129 C 
ATOM     18  O   UNL     1     113.706 112.013 119.763  1.00  0.00    -0.300 OA
ATOM     19  C   UNL     1     112.723 112.653 117.719  1.00  0.00     0.087 C 
ENDBRANCH  16  17
ENDBRANCH  15  16
ENDBRANCH  14  15
ENDBRANCH  12  14
ENDBRANCH  11  12
ENDBRANCH   1  11
TORSDOF 12
ENDMDL
MODEL 5
REMARK VINA RESULT:    -4.658      1.350      3.293
REMARK INTER + INTRA:         -10.244
REMARK INTER:                  -7.981
REMARK INTRA:                  -2.263
REMARK UNBOUND:                -2.318
REMARK SMILES CC(=O)CCC[C@H](C)CCC[C@@H](C)CCCC(C)C
REMARK SMILES IDX 10 1 11 2 12 3 13 4 14 5 15 6 16 7 17 8 18 9 19 10 9 11 7 12
REMARK SMILES IDX 8 13 6 14 5 15 4 16 2 17 3 18 1 19
REMARK H PARENT
REMARK Flexibility Score: inf
ROOT
ATOM      1  C   UNL     1     114.478 116.054 118.550  1.00  0.00     0.001 C 
ENDROOT
BRANCH   1   2
ATOM      2  C   UNL     1     114.760 117.437 119.169  1.00  0.00     0.003 C 
BRANCH   2   3
ATOM      3  C   UNL     1     114.293 118.610 118.274  1.00  0.00    -0.014 C 
ATOM      4  C   UNL     1     113.047 119.297 118.864  1.00  0.00     0.007 C 
BRANCH   3   5
ATOM      5  C   UNL     1     115.463 119.613 118.095  1.00  0.00     0.003 C 
BRANCH   5   6
ATOM      6  C   UNL     1     116.591 119.513 119.140  1.00  0.00     0.001 C 
BRANCH   6   7
ATOM      7  C   UNL     1     117.997 119.647 118.520  1.00  0.00     0.003 C 
BRANCH   7   8
ATOM      8  C   UNL     1     119.036 118.638 119.064  1.00  0.00    -0.017 C 
ATOM      9  C   UNL     1     118.415 117.617 120.027  1.00  0.00     0.007 C 
ATOM     10  C   UNL     1     119.814 117.932 117.945  1.00  0.00     0.007 C 
ENDBRANCH   7   8
ENDBRANCH   6   7
ENDBRANCH   5   6
ENDBRANCH   3   5
ENDBRANCH   2   3
ENDBRANCH   1   2
BRANCH   1  11
ATOM     11  C   UNL     1     115.141 115.888 117.164  1.00  0.00     0.003 C 
BRANCH  11  12
ATOM     12  C   UNL     1     116.654 116.218 117.150  1.00  0.00    -0.014 C 
ATOM     13  C   UNL     1     117.506 114.961 117.408  1.00  0.00     0.007 C 
BRANCH  12  14
ATOM     14  C   UNL     1     117.027 116.877 115.798  1.00  0.00     0.004 C 
BRANCH  14  15
ATOM     15  C   UNL     1     116.298 116.250 114.599  1.00  0.00     0.008 C 
BRANCH  15  16
ATOM     16  C   UNL     1     116.389 117.156 113.366  1.00  0.00     0.075 C 
BRANCH  16  17
ATOM     17  C   UNL     1     116.483 116.338 112.107  1.00  0.00     0.129 C 
ATOM     18  O   UNL     1     115.555 116.336 111.312  1.00  0.00    -0.300 OA
ATOM     19  C   UNL     1     117.700 115.508 111.830  1.00  0.00     0.087 C 
ENDBRANCH  16  17
ENDBRANCH  15  16
ENDBRANCH  14  15
ENDBRANCH  12  14
ENDBRANCH  11  12
ENDBRANCH   1  11
TORSDOF 12
ENDMDL
MODEL 6
REMARK VINA RESULT:    -4.636      3.239      6.000
REMARK INTER + INTRA:         -10.207
REMARK INTER:                  -8.361
REMARK INTRA:                  -1.846
REMARK UNBOUND:                -2.318
REMARK SMILES CC(=O)CCC[C@H](C)CCC[C@@H](C)CCCC(C)C
REMARK SMILES IDX 10 1 11 2 12 3 13 4 14 5 15 6 16 7 17 8 18 9 19 10 9 11 7 12
REMARK SMILES IDX 8 13 6 14 5 15 4 16 2 17 3 18 1 19
REMARK H PARENT
REMARK Flexibility Score: inf
ROOT
ATOM      1  C   UNL     1     117.733 114.506 117.858  1.00  0.00     0.001 C 
ENDROOT
BRANCH   1   2
ATOM      2  C   UNL     1     116.467 115.345 118.123  1.00  0.00     0.003 C 
BRANCH   2   3
ATOM      3  C   UNL     1     116.034 116.194 116.903  1.00  0.00    -0.014 C 
ATOM      4  C   UNL     1     115.684 117.633 117.325  1.00  0.00     0.007 C 
BRANCH   3   5
ATOM      5  C   UNL     1     117.164 116.173 115.841  1.00  0.00     0.003 C 
BRANCH   5   6
ATOM      6  C   UNL     1     116.874 116.954 114.544  1.00  0.00     0.001 C 
BRANCH   6   7
ATOM      7  C   UNL     1     116.127 116.111 113.490  1.00  0.00     0.003 C 
BRANCH   7   8
ATOM      8  C   UNL     1     116.307 116.600 112.034  1.00  0.00    -0.017 C 
ATOM      9  C   UNL     1     114.975 116.986 111.376  1.00  0.00     0.007 C 
ATOM     10  C   UNL     1     117.327 117.740 111.916  1.00  0.00     0.007 C 
ENDBRANCH   7   8
ENDBRANCH   6   7
ENDBRANCH   5   6
ENDBRANCH   3   5
ENDBRANCH   2   3
ENDBRANCH   1   2
BRANCH   1  11
ATOM     11  C   UNL     1     118.878 114.854 118.836  1.00  0.00     0.003 C 
BRANCH  11  12
ATOM     12  C   UNL     1     118.842 116.315 119.349  1.00  0.00    -0.014 C 
ATOM     13  C   UNL     1     118.996 116.376 120.880  1.00  0.00     0.007 C 
BRANCH  12  14
ATOM     14  C   UNL     1     119.948 117.139 118.643  1.00  0.00     0.004 C 
BRANCH  14  15
ATOM     15  C   UNL     1     119.389 118.260 117.751  1.00  0.00     0.008 C 
BRANCH  15  16
ATOM     16  C   UNL     1     118.779 119.382 118.598  1.00  0.00     0.075 C 
BRANCH  16  17
ATOM     17  C   UNL     1     119.808 120.434 118.914  1.00  0.00     0.129 C 
ATOM     18  O   UNL     1     120.050 120.718 120.077  1.00  0.00    -0.300 OA
ATOM     19  C   UNL     1     120.523 121.152 117.810  1.00  0.00     0.087 C 
ENDBRANCH  16  17
ENDBRANCH  15  16
ENDBRANCH  14  15
ENDBRANCH  12  14
ENDBRANCH  11  12
ENDBRANCH   1  11
TORSDOF 12
ENDMDL
MODEL 7
REMARK VINA RESULT:    -4.594      1.579      3.683
REMARK INTER + INTRA:         -10.134
REMARK INTER:                  -8.550
REMARK INTRA:                  -1.585
REMARK UNBOUND:                -2.318
REMARK SMILES CC(=O)CCC[C@H](C)CCC[C@@H](C)CCCC(C)C
REMARK SMILES IDX 10 1 11 2 12 3 13 4 14 5 15 6 16 7 17 8 18 9 19 10 9 11 7 12
REMARK SMILES IDX 8 13 6 14 5 15 4 16 2 17 3 18 1 19
REMARK H PARENT
REMARK Flexibility Score: inf
ROOT
ATOM      1  C   UNL     1     114.604 115.908 117.545  1.00  0.00     0.001 C 
ENDROOT
BRANCH   1   2
ATOM      2  C   UNL     1     113.847 115.519 118.831  1.00  0.00     0.003 C 
BRANCH   2   3
ATOM      3  C   UNL     1     114.316 114.170 119.427  1.00  0.00    -0.014 C 
ATOM      4  C   UNL     1     113.899 112.991 118.529  1.00  0.00     0.007 C 
BRANCH   3   5
ATOM      5  C   UNL     1     115.853 114.210 119.633  1.00  0.00     0.003 C 
BRANCH   5   6
ATOM      6  C   UNL     1     116.660 113.171 118.832  1.00  0.00     0.001 C 
BRANCH   6   7
ATOM      7  C   UNL     1     117.799 113.803 118.006  1.00  0.00     0.003 C 
BRANCH   7   8
ATOM      8  C   UNL     1     119.217 113.551 118.572  1.00  0.00    -0.017 C 
ATOM      9  C   UNL     1     120.109 112.775 117.594  1.00  0.00     0.007 C 
ATOM     10  C   UNL     1     119.905 114.843 119.035  1.00  0.00     0.007 C 
ENDBRANCH   7   8
ENDBRANCH   6   7
ENDBRANCH   5   6
ENDBRANCH   3   5
ENDBRANCH   2   3
ENDBRANCH   1   2
BRANCH   1  11
ATOM     11  C   UNL     1     115.392 117.228 117.708  1.00  0.00     0.003 C 
BRANCH  11  12
ATOM     12  C   UNL     1     116.541 117.403 116.684  1.00  0.00    -0.014 C 
ATOM     13  C   UNL     1     117.912 117.462 117.383  1.00  0.00     0.007 C 
BRANCH  12  14
ATOM     14  C   UNL     1     116.492 116.251 115.649  1.00  0.00     0.004 C 
BRANCH  14  15
ATOM     15  C   UNL     1     116.973 116.674 114.252  1.00  0.00     0.008 C 
BRANCH  15  16
ATOM     16  C   UNL     1     116.084 116.070 113.159  1.00  0.00     0.075 C 
BRANCH  16  17
ATOM     17  C   UNL     1     115.933 117.023 112.005  1.00  0.00     0.129 C 
ATOM     18  O   UNL     1     114.882 117.062 111.382  1.00  0.00    -0.300 OA
ATOM     19  C   UNL     1     117.071 117.910 111.598  1.00  0.00     0.087 C 
ENDBRANCH  16  17
ENDBRANCH  15  16
ENDBRANCH  14  15
ENDBRANCH  12  14
ENDBRANCH  11  12
ENDBRANCH   1  11
TORSDOF 12
ENDMDL
MODEL 8
REMARK VINA RESULT:    -4.584      2.365      6.084
REMARK INTER + INTRA:         -10.118
REMARK INTER:                  -8.447
REMARK INTRA:                  -1.671
REMARK UNBOUND:                -2.318
REMARK SMILES CC(=O)CCC[C@H](C)CCC[C@@H](C)CCCC(C)C
REMARK SMILES IDX 10 1 11 2 12 3 13 4 14 5 15 6 16 7 17 8 18 9 19 10 9 11 7 12
REMARK SMILES IDX 8 13 6 14 5 15 4 16 2 17 3 18 1 19
REMARK H PARENT
REMARK Flexibility Score: inf
ROOT
ATOM      1  C   UNL     1     118.448 117.434 117.604  1.00  0.00     0.001 C 
ENDROOT
BRANCH   1   2
ATOM      2  C   UNL     1     117.458 116.363 118.105  1.00  0.00     0.003 C 
BRANCH   2   3
ATOM      3  C   UNL     1     116.475 115.883 117.010  1.00  0.00    -0.014 C 
ATOM      4  C   UNL     1     115.054 115.706 117.578  1.00  0.00     0.007 C 
BRANCH   3   5
ATOM      5  C   UNL     1     116.494 116.890 115.831  1.00  0.00     0.003 C 
BRANCH   5   6
ATOM      6  C   UNL     1     116.333 116.275 114.427  1.00  0.00     0.001 C 
BRANCH   6   7
ATOM      7  C   UNL     1     116.977 117.134 113.318  1.00  0.00     0.003 C 
BRANCH   7   8
ATOM      8  C   UNL     1     116.880 116.525 111.899  1.00  0.00    -0.017 C 
ATOM      9  C   UNL     1     118.236 116.030 111.379  1.00  0.00     0.007 C 
ATOM     10  C   UNL     1     115.819 115.420 111.802  1.00  0.00     0.007 C 
ENDBRANCH   7   8
ENDBRANCH   6   7
ENDBRANCH   5   6
ENDBRANCH   3   5
ENDBRANCH   2   3
ENDBRANCH   1   2
BRANCH   1  11
ATOM     11  C   UNL     1     118.295 118.771 118.363  1.00  0.00     0.003 C 
BRANCH  11  12
ATOM     12  C   UNL     1     117.079 118.812 119.322  1.00  0.00    -0.014 C 
ATOM     13  C   UNL     1     117.525 118.982 120.786  1.00  0.00     0.007 C 
BRANCH  12  14
ATOM     14  C   UNL     1     116.121 119.952 118.894  1.00  0.00     0.004 C 
BRANCH  14  15
ATOM     15  C   UNL     1     115.085 119.509 117.848  1.00  0.00     0.008 C 
BRANCH  15  16
ATOM     16  C   UNL     1     113.805 119.004 118.525  1.00  0.00     0.075 C 
BRANCH  16  17
ATOM     17  C   UNL     1     112.693 120.008 118.383  1.00  0.00     0.129 C 
ATOM     18  O   UNL     1     112.516 120.573 117.314  1.00  0.00    -0.300 OA
ATOM     19  C   UNL     1     111.814 120.337 119.551  1.00  0.00     0.087 C 
ENDBRANCH  16  17
ENDBRANCH  15  16
ENDBRANCH  14  15
ENDBRANCH  12  14
ENDBRANCH  11  12
ENDBRANCH   1  11
TORSDOF 12
ENDMDL
MODEL 9
REMARK VINA RESULT:    -4.577      2.154      5.799
REMARK INTER + INTRA:         -10.107
REMARK INTER:                  -7.899
REMARK INTRA:                  -2.207
REMARK UNBOUND:                -2.318
REMARK SMILES CC(=O)CCC[C@H](C)CCC[C@@H](C)CCCC(C)C
REMARK SMILES IDX 10 1 11 2 12 3 13 4 14 5 15 6 16 7 17 8 18 9 19 10 9 11 7 12
REMARK SMILES IDX 8 13 6 14 5 15 4 16 2 17 3 18 1 19
REMARK H PARENT
REMARK Flexibility Score: inf
ROOT
ATOM      1  C   UNL     1     117.969 117.951 118.750  1.00  0.00     0.001 C 
ENDROOT
BRANCH   1   2
ATOM      2  C   UNL     1     118.267 117.302 117.384  1.00  0.00     0.003 C 
BRANCH   2   3
ATOM      3  C   UNL     1     117.555 115.941 117.190  1.00  0.00    -0.014 C 
ATOM      4  C   UNL     1     117.286 115.257 118.543  1.00  0.00     0.007 C 
BRANCH   3   5
ATOM      5  C   UNL     1     116.242 116.162 116.395  1.00  0.00     0.003 C 
BRANCH   5   6
ATOM      6  C   UNL     1     116.354 117.086 115.167  1.00  0.00     0.001 C 
BRANCH   6   7
ATOM      7  C   UNL     1     117.057 116.413 113.970  1.00  0.00     0.003 C 
BRANCH   7   8
ATOM      8  C   UNL     1     116.552 116.879 112.584  1.00  0.00    -0.017 C 
ATOM      9  C   UNL     1     117.675 117.455 111.713  1.00  0.00     0.007 C 
ATOM     10  C   UNL     1     115.787 115.778 111.835  1.00  0.00     0.007 C 
ENDBRANCH   7   8
ENDBRANCH   6   7
ENDBRANCH   5   6
ENDBRANCH   3   5
ENDBRANCH   2   3
ENDBRANCH   1   2
BRANCH   1  11
ATOM     11  C   UNL     1     117.363 119.366 118.605  1.00  0.00     0.003 C 
BRANCH  11  12
ATOM     12  C   UNL     1     115.849 119.434 118.923  1.00  0.00    -0.014 C 
ATOM     13  C   UNL     1     115.007 119.492 117.634  1.00  0.00     0.007 C 
BRANCH  12  14
ATOM     14  C   UNL     1     115.448 118.220 119.797  1.00  0.00     0.004 C 
BRANCH  14  15
ATOM     15  C   UNL     1     114.264 117.426 119.223  1.00  0.00     0.008 C 
BRANCH  15  16
ATOM     16  C   UNL     1     113.939 116.212 120.101  1.00  0.00     0.075 C 
BRANCH  16  17
ATOM     17  C   UNL     1     113.727 114.984 119.258  1.00  0.00     0.129 C 
ATOM     18  O   UNL     1     113.955 113.879 119.726  1.00  0.00    -0.300 OA
ATOM     19  C   UNL     1     113.258 115.108 117.840  1.00  0.00     0.087 C 
ENDBRANCH  16  17
ENDBRANCH  15  16
ENDBRANCH  14  15
ENDBRANCH  12  14
ENDBRANCH  11  12
ENDBRANCH   1  11
TORSDOF 12
ENDMDL
