MODEL 1
REMARK VINA RESULT:    -7.269      0.000      0.000
REMARK INTER + INTRA:         -11.433
REMARK INTER:                  -9.607
REMARK INTRA:                  -1.826
REMARK UNBOUND:                -1.826
REMARK SMILES CC[C@@H](C=C[C@H](C)[C@H]1CC[C@@H]2C3=CC[C@H]4C[C@H](O)CC[C@@]4(C)[C@H]3CC[C@@]21C)C(C)C
REMARK SMILES IDX 6 1 7 2 5 3 4 4 3 5 2 6 1 7 28 8 29 9 30 10 8 11 9 12 26 13
REMARK SMILES IDX 10 14 11 15 25 16 27 17 12 18 24 19 23 20 13 21 21 22 14 23
REMARK SMILES IDX 15 24 20 25 22 26 16 27 19 28 17 29 18 30
REMARK H PARENT 18 31
REMARK Flexibility Score: inf
ROOT
ATOM      1  C   UNL     1       1.348  20.367  47.018  1.00  0.00     0.012 C 
ATOM      2  C   UNL     1       2.301  19.176  47.227  1.00  0.00     0.012 C 
ENDROOT
BRANCH   1   3
ATOM      3  C   UNL     1       0.027  19.840  46.467  1.00  0.00    -0.028 C 
ATOM      4  C   UNL     1      -0.893  18.982  46.978  1.00  0.00    -0.027 C 
BRANCH   4   5
ATOM      5  C   UNL     1      -1.023  18.179  48.279  1.00  0.00     0.014 C 
BRANCH   5   6
ATOM      6  C   UNL     1      -0.769  16.652  48.210  1.00  0.00     0.004 C 
ATOM      7  C   UNL     1      -0.524  16.158  46.782  1.00  0.00     0.004 C 
ENDBRANCH   5   6
BRANCH   5   8
ATOM      8  C   UNL     1      -2.395  18.468  48.982  1.00  0.00    -0.011 C 
ATOM      9  C   UNL     1      -3.565  17.732  48.310  1.00  0.00     0.008 C 
ATOM     10  C   UNL     1      -2.718  19.975  49.113  1.00  0.00     0.008 C 
ENDBRANCH   5   8
ENDBRANCH   4   5
ENDBRANCH   1   3
BRANCH   1  11
ATOM     11  C   UNL     1       1.216  21.310  48.277  1.00  0.00     0.002 C 
ATOM     12  C   UNL     1       2.388  21.132  49.235  1.00  0.00     0.005 C 
ATOM     13  C   UNL     1       0.998  22.862  48.160  1.00  0.00    -0.023 C 
ATOM     14  C   UNL     1       2.328  22.293  50.208  1.00  0.00     0.009 C 
ATOM     15  C   UNL     1       1.631  23.451  49.477  1.00  0.00     0.021 C 
ATOM     16  C   UNL     1      -0.529  23.234  48.003  1.00  0.00     0.008 C 
ATOM     17  C   UNL     1       1.757  23.511  46.973  1.00  0.00     0.012 C 
ATOM     18  C   UNL     1       0.574  24.122  50.322  1.00  0.00    -0.067 C 
ATOM     19  C   UNL     1      -1.427  23.147  49.275  1.00  0.00     0.009 C 
ATOM     20  C   UNL     1      -0.665  23.308  50.609  1.00  0.00     0.021 C 
ATOM     21  C   UNL     1       0.482  25.470  50.318  1.00  0.00    -0.027 C 
ATOM     22  C   UNL     1      -1.457  23.902  51.840  1.00  0.00    -0.023 C 
ATOM     23  C   UNL     1      -0.840  26.134  50.591  1.00  0.00     0.031 C 
ATOM     24  C   UNL     1      -1.561  25.485  51.797  1.00  0.00     0.002 C 
ATOM     25  C   UNL     1      -2.852  23.209  52.025  1.00  0.00     0.010 C 
ATOM     26  C   UNL     1      -0.634  23.538  53.114  1.00  0.00     0.012 C 
ATOM     27  C   UNL     1      -3.006  26.011  51.958  1.00  0.00     0.036 C 
ATOM     28  C   UNL     1      -4.021  23.780  51.198  1.00  0.00     0.032 C 
ATOM     29  C   UNL     1      -3.988  25.312  51.002  1.00  0.00     0.114 C 
BRANCH  29  30
ATOM     30  O   UNL     1      -5.280  25.856  51.138  1.00  0.00    -0.393 OA
ATOM     31  H   UNL     1      -5.926  25.206  50.759  1.00  0.00     0.210 HD
ENDBRANCH  29  30
ENDBRANCH   1  11
TORSDOF 6
ENDMDL
MODEL 2
REMARK VINA RESULT:    -7.140      8.067     10.911
REMARK INTER + INTRA:         -11.262
REMARK INTER:                  -9.744
REMARK INTRA:                  -1.518
REMARK UNBOUND:                -1.826
REMARK SMILES CC[C@@H](C=C[C@H](C)[C@H]1CC[C@@H]2C3=CC[C@H]4C[C@H](O)CC[C@@]4(C)[C@H]3CC[C@@]21C)C(C)C
REMARK SMILES IDX 6 1 7 2 5 3 4 4 3 5 2 6 1 7 28 8 29 9 30 10 8 11 9 12 26 13
REMARK SMILES IDX 10 14 11 15 25 16 27 17 12 18 24 19 23 20 13 21 21 22 14 23
REMARK SMILES IDX 15 24 20 25 22 26 16 27 19 28 17 29 18 30
REMARK H PARENT 18 31
REMARK Flexibility Score: inf
ROOT
ATOM      1  C   UNL     1       6.419  21.026  40.492  1.00  0.00     0.012 C 
ATOM      2  C   UNL     1       7.013  20.745  39.100  1.00  0.00     0.012 C 
ENDROOT
BRANCH   1   3
ATOM      3  C   UNL     1       4.899  20.962  40.394  1.00  0.00    -0.028 C 
ATOM      4  C   UNL     1       3.947  21.930  40.397  1.00  0.00    -0.027 C 
BRANCH   4   5
ATOM      5  C   UNL     1       3.957  23.461  40.502  1.00  0.00     0.014 C 
BRANCH   5   6
ATOM      6  C   UNL     1       3.386  24.097  41.794  1.00  0.00     0.004 C 
ATOM      7  C   UNL     1       3.925  23.436  43.066  1.00  0.00     0.004 C 
ENDBRANCH   5   6
BRANCH   5   8
ATOM      8  C   UNL     1       3.293  24.114  39.239  1.00  0.00    -0.011 C 
ATOM      9  C   UNL     1       1.816  24.472  39.471  1.00  0.00     0.008 C 
ATOM     10  C   UNL     1       3.440  23.265  37.954  1.00  0.00     0.008 C 
ENDBRANCH   5   8
ENDBRANCH   4   5
ENDBRANCH   1   3
BRANCH   1  11
ATOM     11  C   UNL     1       7.050  20.151  41.645  1.00  0.00     0.002 C 
ATOM     12  C   UNL     1       8.459  19.689  41.290  1.00  0.00     0.005 C 
ATOM     13  C   UNL     1       7.127  20.636  43.138  1.00  0.00    -0.023 C 
ATOM     14  C   UNL     1       9.072  19.157  42.571  1.00  0.00     0.009 C 
ATOM     15  C   UNL     1       8.380  19.888  43.733  1.00  0.00     0.021 C 
ATOM     16  C   UNL     1       5.799  20.319  43.932  1.00  0.00     0.008 C 
ATOM     17  C   UNL     1       7.404  22.155  43.287  1.00  0.00     0.012 C 
ATOM     18  C   UNL     1       7.964  18.953  44.844  1.00  0.00    -0.067 C 
ATOM     19  C   UNL     1       5.553  18.842  44.366  1.00  0.00     0.009 C 
ATOM     20  C   UNL     1       6.838  17.998  44.524  1.00  0.00     0.021 C 
ATOM     21  C   UNL     1       8.159  19.324  46.129  1.00  0.00    -0.027 C 
ATOM     22  C   UNL     1       6.806  16.800  45.553  1.00  0.00    -0.023 C 
ATOM     23  C   UNL     1       7.258  18.793  47.210  1.00  0.00     0.031 C 
ATOM     24  C   UNL     1       7.022  17.271  47.052  1.00  0.00     0.002 C 
ATOM     25  C   UNL     1       5.525  15.914  45.376  1.00  0.00     0.010 C 
ATOM     26  C   UNL     1       8.010  15.875  45.192  1.00  0.00     0.012 C 
ATOM     27  C   UNL     1       5.937  16.751  48.023  1.00  0.00     0.036 C 
ATOM     28  C   UNL     1       4.256  16.378  46.120  1.00  0.00     0.032 C 
ATOM     29  C   UNL     1       4.515  17.019  47.501  1.00  0.00     0.114 C 
BRANCH  29  30
ATOM     30  O   UNL     1       3.556  16.584  48.436  1.00  0.00    -0.393 OA
ATOM     31  H   UNL     1       3.854  15.708  48.794  1.00  0.00     0.210 HD
ENDBRANCH  29  30
ENDBRANCH   1  11
TORSDOF 6
ENDMDL
MODEL 3
REMARK VINA RESULT:    -7.081      6.425     10.477
REMARK INTER + INTRA:         -11.183
REMARK INTER:                  -8.688
REMARK INTRA:                  -2.495
REMARK UNBOUND:                -1.826
REMARK SMILES CC[C@@H](C=C[C@H](C)[C@H]1CC[C@@H]2C3=CC[C@H]4C[C@H](O)CC[C@@]4(C)[C@H]3CC[C@@]21C)C(C)C
REMARK SMILES IDX 6 1 7 2 5 3 4 4 3 5 2 6 1 7 28 8 29 9 30 10 8 11 9 12 26 13
REMARK SMILES IDX 10 14 11 15 25 16 27 17 12 18 24 19 23 20 13 21 21 22 14 23
REMARK SMILES IDX 15 24 20 25 22 26 16 27 19 28 17 29 18 30
REMARK H PARENT 18 31
REMARK Flexibility Score: inf
ROOT
ATOM      1  C   UNL     1       5.276  17.188  47.358  1.00  0.00     0.012 C 
ATOM      2  C   UNL     1       5.476  17.374  48.873  1.00  0.00     0.012 C 
ENDROOT
BRANCH   1   3
ATOM      3  C   UNL     1       3.790  17.322  47.044  1.00  0.00    -0.028 C 
ATOM      4  C   UNL     1       2.981  18.406  46.920  1.00  0.00    -0.027 C 
BRANCH   4   5
ATOM      5  C   UNL     1       3.176  19.924  47.036  1.00  0.00     0.014 C 
BRANCH   5   6
ATOM      6  C   UNL     1       4.273  20.577  46.158  1.00  0.00     0.004 C 
ATOM      7  C   UNL     1       3.715  21.643  45.211  1.00  0.00     0.004 C 
ENDBRANCH   5   6
BRANCH   5   8
ATOM      8  C   UNL     1       3.356  20.353  48.535  1.00  0.00    -0.011 C 
ATOM      9  C   UNL     1       2.229  21.279  49.019  1.00  0.00     0.008 C 
ATOM     10  C   UNL     1       4.734  20.986  48.835  1.00  0.00     0.008 C 
ENDBRANCH   5   8
ENDBRANCH   4   5
ENDBRANCH   1   3
BRANCH   1  11
ATOM     11  C   UNL     1       6.228  18.085  46.472  1.00  0.00     0.002 C 
ATOM     12  C   UNL     1       7.350  18.698  47.301  1.00  0.00     0.005 C 
ATOM     13  C   UNL     1       6.910  17.561  45.157  1.00  0.00    -0.023 C 
ATOM     14  C   UNL     1       8.362  19.247  46.315  1.00  0.00     0.009 C 
ATOM     15  C   UNL     1       8.230  18.413  45.031  1.00  0.00     0.021 C 
ATOM     16  C   UNL     1       5.967  17.715  43.900  1.00  0.00     0.008 C 
ATOM     17  C   UNL     1       7.345  16.074  45.230  1.00  0.00     0.012 C 
ATOM     18  C   UNL     1       8.198  19.264  43.783  1.00  0.00    -0.067 C 
ATOM     19  C   UNL     1       5.787  19.146  43.304  1.00  0.00     0.009 C 
ATOM     20  C   UNL     1       6.962  20.109  43.586  1.00  0.00     0.021 C 
ATOM     21  C   UNL     1       8.900  18.872  42.697  1.00  0.00    -0.027 C 
ATOM     22  C   UNL     1       7.230  21.264  42.542  1.00  0.00    -0.023 C 
ATOM     23  C   UNL     1       8.443  19.274  41.321  1.00  0.00     0.031 C 
ATOM     24  C   UNL     1       8.042  20.768  41.273  1.00  0.00     0.002 C 
ATOM     25  C   UNL     1       5.911  22.021  42.160  1.00  0.00     0.010 C 
ATOM     26  C   UNL     1       8.124  22.317  43.267  1.00  0.00     0.012 C 
ATOM     27  C   UNL     1       7.374  21.143  39.930  1.00  0.00     0.036 C 
ATOM     28  C   UNL     1       5.067  21.407  41.025  1.00  0.00     0.032 C 
ATOM     29  C   UNL     1       5.887  20.750  39.892  1.00  0.00     0.114 C 
BRANCH  29  30
ATOM     30  O   UNL     1       5.328  21.055  38.636  1.00  0.00    -0.393 OA
ATOM     31  H   UNL     1       5.005  21.992  38.665  1.00  0.00     0.210 HD
ENDBRANCH  29  30
ENDBRANCH   1  11
TORSDOF 6
ENDMDL
MODEL 4
REMARK VINA RESULT:    -6.957      7.137     10.022
REMARK INTER + INTRA:         -11.020
REMARK INTER:                  -8.591
REMARK INTRA:                  -2.429
REMARK UNBOUND:                -1.826
REMARK SMILES CC[C@@H](C=C[C@H](C)[C@H]1CC[C@@H]2C3=CC[C@H]4C[C@H](O)CC[C@@]4(C)[C@H]3CC[C@@]21C)C(C)C
REMARK SMILES IDX 6 1 7 2 5 3 4 4 3 5 2 6 1 7 28 8 29 9 30 10 8 11 9 12 26 13
REMARK SMILES IDX 10 14 11 15 25 16 27 17 12 18 24 19 23 20 13 21 21 22 14 23
REMARK SMILES IDX 15 24 20 25 22 26 16 27 19 28 17 29 18 30
REMARK H PARENT 18 31
REMARK Flexibility Score: inf
ROOT
ATOM      1  C   UNL     1       8.845  22.497  43.699  1.00  0.00     0.012 C 
ATOM      2  C   UNL     1      10.032  23.443  43.956  1.00  0.00     0.012 C 
ENDROOT
BRANCH   1   3
ATOM      3  C   UNL     1       9.040  21.831  42.341  1.00  0.00    -0.028 C 
ATOM      4  C   UNL     1       8.324  20.881  41.685  1.00  0.00    -0.027 C 
BRANCH   4   5
ATOM      5  C   UNL     1       7.056  20.074  41.990  1.00  0.00     0.014 C 
BRANCH   5   6
ATOM      6  C   UNL     1       7.222  18.566  42.308  1.00  0.00     0.004 C 
ATOM      7  C   UNL     1       8.440  18.279  43.190  1.00  0.00     0.004 C 
ENDBRANCH   5   6
BRANCH   5   8
ATOM      8  C   UNL     1       5.980  20.274  40.865  1.00  0.00    -0.011 C 
ATOM      9  C   UNL     1       6.608  20.639  39.510  1.00  0.00     0.008 C 
ATOM     10  C   UNL     1       4.880  21.296  41.237  1.00  0.00     0.008 C 
ENDBRANCH   5   8
ENDBRANCH   4   5
ENDBRANCH   1   3
BRANCH   1  11
ATOM     11  C   UNL     1       8.547  21.505  44.891  1.00  0.00     0.002 C 
ATOM     12  C   UNL     1       9.791  21.256  45.736  1.00  0.00     0.005 C 
ATOM     13  C   UNL     1       7.378  21.732  45.916  1.00  0.00    -0.023 C 
ATOM     14  C   UNL     1       9.319  20.577  47.007  1.00  0.00     0.009 C 
ATOM     15  C   UNL     1       7.866  21.024  47.236  1.00  0.00     0.021 C 
ATOM     16  C   UNL     1       6.008  21.152  45.388  1.00  0.00     0.008 C 
ATOM     17  C   UNL     1       7.142  23.224  46.273  1.00  0.00     0.012 C 
ATOM     18  C   UNL     1       6.952  19.875  47.594  1.00  0.00    -0.067 C 
ATOM     19  C   UNL     1       5.817  19.604  45.428  1.00  0.00     0.009 C 
ATOM     20  C   UNL     1       6.672  18.881  46.492  1.00  0.00     0.021 C 
ATOM     21  C   UNL     1       6.036  20.039  48.573  1.00  0.00    -0.027 C 
ATOM     22  C   UNL     1       6.114  17.526  47.084  1.00  0.00    -0.023 C 
ATOM     23  C   UNL     1       4.761  19.241  48.551  1.00  0.00     0.031 C 
ATOM     24  C   UNL     1       5.030  17.753  48.220  1.00  0.00     0.002 C 
ATOM     25  C   UNL     1       5.615  16.559  45.955  1.00  0.00     0.010 C 
ATOM     26  C   UNL     1       7.325  16.804  47.753  1.00  0.00     0.012 C 
ATOM     27  C   UNL     1       3.720  16.968  47.985  1.00  0.00     0.036 C 
ATOM     28  C   UNL     1       4.166  16.758  45.466  1.00  0.00     0.032 C 
ATOM     29  C   UNL     1       3.165  17.176  46.566  1.00  0.00     0.114 C 
BRANCH  29  30
ATOM     30  O   UNL     1       1.944  16.492  46.408  1.00  0.00    -0.393 OA
ATOM     31  H   UNL     1       2.104  15.532  46.600  1.00  0.00     0.210 HD
ENDBRANCH  29  30
ENDBRANCH   1  11
TORSDOF 6
ENDMDL
MODEL 5
REMARK VINA RESULT:    -6.888      2.312      6.637
REMARK INTER + INTRA:         -10.928
REMARK INTER:                  -8.718
REMARK INTRA:                  -2.210
REMARK UNBOUND:                -1.826
REMARK SMILES CC[C@@H](C=C[C@H](C)[C@H]1CC[C@@H]2C3=CC[C@H]4C[C@H](O)CC[C@@]4(C)[C@H]3CC[C@@]21C)C(C)C
REMARK SMILES IDX 6 1 7 2 5 3 4 4 3 5 2 6 1 7 28 8 29 9 30 10 8 11 9 12 26 13
REMARK SMILES IDX 10 14 11 15 25 16 27 17 12 18 24 19 23 20 13 21 21 22 14 23
REMARK SMILES IDX 15 24 20 25 22 26 16 27 19 28 17 29 18 30
REMARK H PARENT 18 31
REMARK Flexibility Score: inf
ROOT
ATOM      1  C   UNL     1       1.213  25.016  51.384  1.00  0.00     0.012 C 
ATOM      2  C   UNL     1       0.611  26.431  51.321  1.00  0.00     0.012 C 
ENDROOT
BRANCH   1   3
ATOM      3  C   UNL     1       0.791  24.366  52.697  1.00  0.00    -0.028 C 
ATOM      4  C   UNL     1      -0.411  23.915  53.142  1.00  0.00    -0.027 C 
BRANCH   4   5
ATOM      5  C   UNL     1      -1.830  23.858  52.563  1.00  0.00     0.014 C 
BRANCH   5   6
ATOM      6  C   UNL     1      -1.976  23.611  51.040  1.00  0.00     0.004 C 
ATOM      7  C   UNL     1      -2.868  22.409  50.719  1.00  0.00     0.004 C 
ENDBRANCH   5   6
BRANCH   5   8
ATOM      8  C   UNL     1      -2.661  25.119  52.989  1.00  0.00    -0.011 C 
ATOM      9  C   UNL     1      -2.990  26.034  51.798  1.00  0.00     0.008 C 
ATOM     10  C   UNL     1      -2.005  25.938  54.125  1.00  0.00     0.008 C 
ENDBRANCH   5   8
ENDBRANCH   4   5
ENDBRANCH   1   3
BRANCH   1  11
ATOM     11  C   UNL     1       0.943  24.148  50.093  1.00  0.00     0.002 C 
ATOM     12  C   UNL     1       0.808  25.020  48.850  1.00  0.00     0.005 C 
ATOM     13  C   UNL     1       1.860  22.945  49.668  1.00  0.00    -0.023 C 
ATOM     14  C   UNL     1       0.884  24.086  47.658  1.00  0.00     0.009 C 
ATOM     15  C   UNL     1       1.709  22.867  48.102  1.00  0.00     0.021 C 
ATOM     16  C   UNL     1       1.442  21.601  50.385  1.00  0.00     0.008 C 
ATOM     17  C   UNL     1       3.366  23.176  49.959  1.00  0.00     0.012 C 
ATOM     18  C   UNL     1       1.079  21.556  47.692  1.00  0.00    -0.067 C 
ATOM     19  C   UNL     1       0.159  20.878  49.870  1.00  0.00     0.009 C 
ATOM     20  C   UNL     1      -0.202  21.183  48.399  1.00  0.00     0.021 C 
ATOM     21  C   UNL     1       1.863  20.571  47.199  1.00  0.00    -0.027 C 
ATOM     22  C   UNL     1      -0.990  20.077  47.592  1.00  0.00    -0.023 C 
ATOM     23  C   UNL     1       1.456  19.132  47.366  1.00  0.00     0.031 C 
ATOM     24  C   UNL     1      -0.044  18.928  47.042  1.00  0.00     0.002 C 
ATOM     25  C   UNL     1      -2.209  19.520  48.406  1.00  0.00     0.010 C 
ATOM     26  C   UNL     1      -1.605  20.790  46.349  1.00  0.00     0.012 C 
ATOM     27  C   UNL     1      -0.526  17.506  47.410  1.00  0.00     0.036 C 
ATOM     28  C   UNL     1      -1.914  18.369  49.389  1.00  0.00     0.032 C 
ATOM     29  C   UNL     1      -0.838  17.370  48.910  1.00  0.00     0.114 C 
BRANCH  29  30
ATOM     30  O   UNL     1      -1.218  16.049  49.217  1.00  0.00    -0.393 OA
ATOM     31  H   UNL     1      -2.187  16.051  49.430  1.00  0.00     0.210 HD
ENDBRANCH  29  30
ENDBRANCH   1  11
TORSDOF 6
ENDMDL
MODEL 6
REMARK VINA RESULT:    -6.853      6.693     10.286
REMARK INTER + INTRA:         -10.883
REMARK INTER:                  -8.429
REMARK INTRA:                  -2.454
REMARK UNBOUND:                -1.826
REMARK SMILES CC[C@@H](C=C[C@H](C)[C@H]1CC[C@@H]2C3=CC[C@H]4C[C@H](O)CC[C@@]4(C)[C@H]3CC[C@@]21C)C(C)C
REMARK SMILES IDX 6 1 7 2 5 3 4 4 3 5 2 6 1 7 28 8 29 9 30 10 8 11 9 12 26 13
REMARK SMILES IDX 10 14 11 15 25 16 27 17 12 18 24 19 23 20 13 21 21 22 14 23
REMARK SMILES IDX 15 24 20 25 22 26 16 27 19 28 17 29 18 30
REMARK H PARENT 18 31
REMARK Flexibility Score: inf
ROOT
ATOM      1  C   UNL     1       9.603  17.580  42.924  1.00  0.00     0.012 C 
ATOM      2  C   UNL     1       9.553  16.445  41.885  1.00  0.00     0.012 C 
ENDROOT
BRANCH   1   3
ATOM      3  C   UNL     1      10.007  18.869  42.217  1.00  0.00    -0.028 C 
ATOM      4  C   UNL     1       9.275  19.864  41.652  1.00  0.00    -0.027 C 
BRANCH   4   5
ATOM      5  C   UNL     1       7.777  20.137  41.469  1.00  0.00     0.014 C 
BRANCH   5   6
ATOM      6  C   UNL     1       7.361  21.161  40.382  1.00  0.00     0.004 C 
ATOM      7  C   UNL     1       6.660  20.504  39.189  1.00  0.00     0.004 C 
ENDBRANCH   5   6
BRANCH   5   8
ATOM      8  C   UNL     1       7.100  20.497  42.838  1.00  0.00    -0.011 C 
ATOM      9  C   UNL     1       5.570  20.355  42.792  1.00  0.00     0.008 C 
ATOM     10  C   UNL     1       7.491  21.894  43.373  1.00  0.00     0.008 C 
ENDBRANCH   5   8
ENDBRANCH   4   5
ENDBRANCH   1   3
BRANCH   1  11
ATOM     11  C   UNL     1       8.304  17.688  43.816  1.00  0.00     0.002 C 
ATOM     12  C   UNL     1       7.143  16.910  43.210  1.00  0.00     0.005 C 
ATOM     13  C   UNL     1       8.292  17.341  45.348  1.00  0.00    -0.023 C 
ATOM     14  C   UNL     1       6.082  16.811  44.289  1.00  0.00     0.009 C 
ATOM     15  C   UNL     1       6.812  16.885  45.639  1.00  0.00     0.021 C 
ATOM     16  C   UNL     1       8.732  18.571  46.236  1.00  0.00     0.008 C 
ATOM     17  C   UNL     1       9.208  16.147  45.725  1.00  0.00     0.012 C 
ATOM     18  C   UNL     1       6.145  17.827  46.613  1.00  0.00    -0.067 C 
ATOM     19  C   UNL     1       7.701  19.725  46.432  1.00  0.00     0.009 C 
ATOM     20  C   UNL     1       6.224  19.298  46.276  1.00  0.00     0.021 C 
ATOM     21  C   UNL     1       6.019  17.461  47.907  1.00  0.00    -0.027 C 
ATOM     22  C   UNL     1       5.135  20.118  47.074  1.00  0.00    -0.023 C 
ATOM     23  C   UNL     1       5.965  18.510  48.984  1.00  0.00     0.031 C 
ATOM     24  C   UNL     1       5.023  19.674  48.593  1.00  0.00     0.002 C 
ATOM     25  C   UNL     1       5.333  21.664  46.908  1.00  0.00     0.010 C 
ATOM     26  C   UNL     1       3.762  19.796  46.406  1.00  0.00     0.012 C 
ATOM     27  C   UNL     1       5.119  20.854  49.586  1.00  0.00     0.036 C 
ATOM     28  C   UNL     1       6.324  22.341  47.876  1.00  0.00     0.032 C 
ATOM     29  C   UNL     1       6.335  21.752  49.305  1.00  0.00     0.114 C 
BRANCH  29  30
ATOM     30  O   UNL     1       6.422  22.781  50.263  1.00  0.00    -0.393 OA
ATOM     31  H   UNL     1       5.650  23.389  50.129  1.00  0.00     0.210 HD
ENDBRANCH  29  30
ENDBRANCH   1  11
TORSDOF 6
ENDMDL
MODEL 7
REMARK VINA RESULT:    -6.843      6.188      9.940
REMARK INTER + INTRA:         -10.870
REMARK INTER:                  -9.484
REMARK INTRA:                  -1.386
REMARK UNBOUND:                -1.826
REMARK SMILES CC[C@@H](C=C[C@H](C)[C@H]1CC[C@@H]2C3=CC[C@H]4C[C@H](O)CC[C@@]4(C)[C@H]3CC[C@@]21C)C(C)C
REMARK SMILES IDX 6 1 7 2 5 3 4 4 3 5 2 6 1 7 28 8 29 9 30 10 8 11 9 12 26 13
REMARK SMILES IDX 10 14 11 15 25 16 27 17 12 18 24 19 23 20 13 21 21 22 14 23
REMARK SMILES IDX 15 24 20 25 22 26 16 27 19 28 17 29 18 30
REMARK H PARENT 18 31
REMARK Flexibility Score: inf
ROOT
ATOM      1  C   UNL     1       4.524  18.098  47.625  1.00  0.00     0.012 C 
ATOM      2  C   UNL     1       4.960  17.933  49.092  1.00  0.00     0.012 C 
ENDROOT
BRANCH   1   3
ATOM      3  C   UNL     1       3.189  18.834  47.595  1.00  0.00    -0.028 C 
ATOM      4  C   UNL     1       1.909  18.391  47.488  1.00  0.00    -0.027 C 
BRANCH   4   5
ATOM      5  C   UNL     1       1.246  17.015  47.350  1.00  0.00     0.014 C 
BRANCH   5   6
ATOM      6  C   UNL     1       1.204  16.375  45.939  1.00  0.00     0.004 C 
ATOM      7  C   UNL     1       2.575  15.875  45.476  1.00  0.00     0.004 C 
ENDBRANCH   5   6
BRANCH   5   8
ATOM      8  C   UNL     1      -0.189  17.017  47.986  1.00  0.00    -0.011 C 
ATOM      9  C   UNL     1      -1.157  16.074  47.253  1.00  0.00     0.008 C 
ATOM     10  C   UNL     1      -0.808  18.429  48.109  1.00  0.00     0.008 C 
ENDBRANCH   5   8
ENDBRANCH   4   5
ENDBRANCH   1   3
BRANCH   1  11
ATOM     11  C   UNL     1       5.641  18.705  46.690  1.00  0.00     0.002 C 
ATOM     12  C   UNL     1       6.860  19.149  47.490  1.00  0.00     0.005 C 
ATOM     13  C   UNL     1       6.211  17.944  45.439  1.00  0.00    -0.023 C 
ATOM     14  C   UNL     1       7.968  19.397  46.484  1.00  0.00     0.009 C 
ATOM     15  C   UNL     1       7.676  18.499  45.271  1.00  0.00     0.021 C 
ATOM     16  C   UNL     1       5.325  18.176  44.152  1.00  0.00     0.008 C 
ATOM     17  C   UNL     1       6.336  16.411  45.644  1.00  0.00     0.012 C 
ATOM     18  C   UNL     1       7.823  19.229  43.957  1.00  0.00    -0.067 C 
ATOM     19  C   UNL     1       5.441  19.557  43.435  1.00  0.00     0.009 C 
ATOM     20  C   UNL     1       6.784  20.285  43.663  1.00  0.00     0.021 C 
ATOM     21  C   UNL     1       8.437  18.612  42.923  1.00  0.00    -0.027 C 
ATOM     22  C   UNL     1       7.286  21.269  42.533  1.00  0.00    -0.023 C 
ATOM     23  C   UNL     1       8.078  18.978  41.509  1.00  0.00     0.031 C 
ATOM     24  C   UNL     1       7.987  20.513  41.327  1.00  0.00     0.002 C 
ATOM     25  C   UNL     1       6.149  22.240  42.059  1.00  0.00     0.010 C 
ATOM     26  C   UNL     1       8.371  22.179  43.188  1.00  0.00     0.012 C 
ATOM     27  C   UNL     1       7.416  20.898  39.944  1.00  0.00     0.036 C 
ATOM     28  C   UNL     1       5.204  21.712  40.961  1.00  0.00     0.032 C 
ATOM     29  C   UNL     1       5.880  20.809  39.905  1.00  0.00     0.114 C 
BRANCH  29  30
ATOM     30  O   UNL     1       5.401  21.112  38.616  1.00  0.00    -0.393 OA
ATOM     31  H   UNL     1       5.061  22.043  38.627  1.00  0.00     0.210 HD
ENDBRANCH  29  30
ENDBRANCH   1  11
TORSDOF 6
ENDMDL
MODEL 8
REMARK VINA RESULT:    -6.717      3.095      6.439
REMARK INTER + INTRA:         -10.702
REMARK INTER:                  -8.467
REMARK INTRA:                  -2.235
REMARK UNBOUND:                -1.826
REMARK SMILES CC[C@@H](C=C[C@H](C)[C@H]1CC[C@@H]2C3=CC[C@H]4C[C@H](O)CC[C@@]4(C)[C@H]3CC[C@@]21C)C(C)C
REMARK SMILES IDX 6 1 7 2 5 3 4 4 3 5 2 6 1 7 28 8 29 9 30 10 8 11 9 12 26 13
REMARK SMILES IDX 10 14 11 15 25 16 27 17 12 18 24 19 23 20 13 21 21 22 14 23
REMARK SMILES IDX 15 24 20 25 22 26 16 27 19 28 17 29 18 30
REMARK H PARENT 18 31
REMARK Flexibility Score: inf
ROOT
ATOM      1  C   UNL     1       2.716  23.263  49.523  1.00  0.00     0.012 C 
ATOM      2  C   UNL     1       2.737  24.468  50.480  1.00  0.00     0.012 C 
ENDROOT
BRANCH   1   3
ATOM      3  C   UNL     1       4.121  22.677  49.448  1.00  0.00    -0.028 C 
ATOM      4  C   UNL     1       4.607  21.555  48.856  1.00  0.00    -0.027 C 
BRANCH   4   5
ATOM      5  C   UNL     1       3.999  20.411  48.035  1.00  0.00     0.014 C 
BRANCH   5   6
ATOM      6  C   UNL     1       4.382  18.961  48.428  1.00  0.00     0.004 C 
ATOM      7  C   UNL     1       3.433  17.918  47.832  1.00  0.00     0.004 C 
ENDBRANCH   5   6
BRANCH   5   8
ATOM      8  C   UNL     1       4.234  20.635  46.500  1.00  0.00    -0.011 C 
ATOM      9  C   UNL     1       5.640  21.177  46.195  1.00  0.00     0.008 C 
ATOM     10  C   UNL     1       3.161  21.528  45.835  1.00  0.00     0.008 C 
ENDBRANCH   5   8
ENDBRANCH   4   5
ENDBRANCH   1   3
BRANCH   1  11
ATOM     11  C   UNL     1       1.574  22.218  49.835  1.00  0.00     0.002 C 
ATOM     12  C   UNL     1       1.299  22.118  51.331  1.00  0.00     0.005 C 
ATOM     13  C   UNL     1       0.161  22.269  49.148  1.00  0.00    -0.023 C 
ATOM     14  C   UNL     1      -0.005  21.359  51.479  1.00  0.00     0.009 C 
ATOM     15  C   UNL     1      -0.812  21.605  50.194  1.00  0.00     0.021 C 
ATOM     16  C   UNL     1       0.154  21.523  47.756  1.00  0.00     0.008 C 
ATOM     17  C   UNL     1      -0.362  23.709  48.904  1.00  0.00     0.012 C 
ATOM     18  C   UNL     1      -1.415  20.339  49.633  1.00  0.00    -0.067 C 
ATOM     19  C   UNL     1       0.151  19.963  47.773  1.00  0.00     0.009 C 
ATOM     20  C   UNL     1      -0.443  19.338  49.055  1.00  0.00     0.021 C 
ATOM     21  C   UNL     1      -2.683  20.361  49.166  1.00  0.00    -0.027 C 
ATOM     22  C   UNL     1      -1.109  17.911  48.934  1.00  0.00    -0.023 C 
ATOM     23  C   UNL     1      -3.103  19.403  48.085  1.00  0.00     0.031 C 
ATOM     24  C   UNL     1      -2.590  17.970  48.369  1.00  0.00     0.002 C 
ATOM     25  C   UNL     1      -0.199  16.908  48.144  1.00  0.00     0.010 C 
ATOM     26  C   UNL     1      -1.202  17.341  50.384  1.00  0.00     0.012 C 
ATOM     27  C   UNL     1      -2.830  17.023  47.171  1.00  0.00     0.036 C 
ATOM     28  C   UNL     1      -0.328  16.924  46.607  1.00  0.00     0.032 C 
ATOM     29  C   UNL     1      -1.756  17.184  46.080  1.00  0.00     0.114 C 
BRANCH  29  30
ATOM     30  O   UNL     1      -2.039  16.349  44.983  1.00  0.00    -0.393 OA
ATOM     31  H   UNL     1      -2.715  16.804  44.418  1.00  0.00     0.210 HD
ENDBRANCH  29  30
ENDBRANCH   1  11
TORSDOF 6
ENDMDL
MODEL 9
REMARK VINA RESULT:    -6.643      3.395      8.051
REMARK INTER + INTRA:         -10.605
REMARK INTER:                  -8.993
REMARK INTRA:                  -1.612
REMARK UNBOUND:                -1.826
REMARK SMILES CC[C@@H](C=C[C@H](C)[C@H]1CC[C@@H]2C3=CC[C@H]4C[C@H](O)CC[C@@]4(C)[C@H]3CC[C@@]21C)C(C)C
REMARK SMILES IDX 6 1 7 2 5 3 4 4 3 5 2 6 1 7 28 8 29 9 30 10 8 11 9 12 26 13
REMARK SMILES IDX 10 14 11 15 25 16 27 17 12 18 24 19 23 20 13 21 21 22 14 23
REMARK SMILES IDX 15 24 20 25 22 26 16 27 19 28 17 29 18 30
REMARK H PARENT 18 31
REMARK Flexibility Score: inf
ROOT
ATOM      1  C   UNL     1      -2.334  28.197  51.282  1.00  0.00     0.012 C 
ATOM      2  C   UNL     1      -1.449  29.141  52.116  1.00  0.00     0.012 C 
ENDROOT
BRANCH   1   3
ATOM      3  C   UNL     1      -2.263  28.629  49.821  1.00  0.00    -0.028 C 
ATOM      4  C   UNL     1      -3.227  28.957  48.923  1.00  0.00    -0.027 C 
BRANCH   4   5
ATOM      5  C   UNL     1      -4.759  29.037  48.956  1.00  0.00     0.014 C 
BRANCH   5   6
ATOM      6  C   UNL     1      -5.548  28.134  47.975  1.00  0.00     0.004 C 
ATOM      7  C   UNL     1      -4.636  27.230  47.141  1.00  0.00     0.004 C 
ENDBRANCH   5   6
BRANCH   5   8
ATOM      8  C   UNL     1      -5.245  30.524  48.834  1.00  0.00    -0.011 C 
ATOM      9  C   UNL     1      -5.491  30.943  47.376  1.00  0.00     0.008 C 
ATOM     10  C   UNL     1      -4.311  31.540  49.532  1.00  0.00     0.008 C 
ENDBRANCH   5   8
ENDBRANCH   4   5
ENDBRANCH   1   3
BRANCH   1  11
ATOM     11  C   UNL     1      -2.053  26.665  51.538  1.00  0.00     0.002 C 
ATOM     12  C   UNL     1      -2.051  26.338  53.027  1.00  0.00     0.005 C 
ATOM     13  C   UNL     1      -2.885  25.520  50.855  1.00  0.00    -0.023 C 
ATOM     14  C   UNL     1      -2.106  24.826  53.136  1.00  0.00     0.009 C 
ATOM     15  C   UNL     1      -2.803  24.314  51.865  1.00  0.00     0.021 C 
ATOM     16  C   UNL     1      -2.323  25.153  49.426  1.00  0.00     0.008 C 
ATOM     17  C   UNL     1      -4.390  25.858  50.687  1.00  0.00     0.012 C 
ATOM     18  C   UNL     1      -2.086  23.141  51.239  1.00  0.00    -0.067 C 
ATOM     19  C   UNL     1      -1.010  24.313  49.362  1.00  0.00     0.009 C 
ATOM     20  C   UNL     1      -0.746  23.440  50.609  1.00  0.00     0.021 C 
ATOM     21  C   UNL     1      -2.807  22.097  50.773  1.00  0.00    -0.027 C 
ATOM     22  C   UNL     1       0.092  22.116  50.414  1.00  0.00    -0.023 C 
ATOM     23  C   UNL     1      -2.273  21.259  49.644  1.00  0.00     0.031 C 
ATOM     24  C   UNL     1      -0.779  20.915  49.853  1.00  0.00     0.002 C 
ATOM     25  C   UNL     1       1.391  22.368  49.572  1.00  0.00     0.010 C 
ATOM     26  C   UNL     1       0.586  21.691  51.832  1.00  0.00     0.012 C 
ATOM     27  C   UNL     1      -0.162  20.238  48.607  1.00  0.00     0.036 C 
ATOM     28  C   UNL     1       1.241  22.311  48.039  1.00  0.00     0.032 C 
ATOM     29  C   UNL     1       0.231  21.260  47.526  1.00  0.00     0.114 C 
BRANCH  29  30
ATOM     30  O   UNL     1       0.735  20.604  46.387  1.00  0.00    -0.393 OA
ATOM     31  H   UNL     1      -0.036  20.331  45.826  1.00  0.00     0.210 HD
ENDBRANCH  29  30
ENDBRANCH   1  11
TORSDOF 6
ENDMDL
