MODEL 1
REMARK VINA RESULT:    -4.790      0.000      0.000
REMARK INTER + INTRA:         -11.346
REMARK INTER:                  -8.711
REMARK INTRA:                  -2.635
REMARK UNBOUND:                -2.635
REMARK SMILES CCCCCCCCCCCCCC[C@@H](C)C(=O)[O-]
REMARK SMILES IDX 9 1 10 2 11 3 12 4 13 5 14 6 15 7 16 8 17 9 18 10 19 11 8 12
REMARK SMILES IDX 7 13 6 14 5 15 4 16 3 17 2 18 1 19
REMARK H PARENT
REMARK Flexibility Score: inf
ROOT
ATOM      1  C   UNL     1      19.955  54.079  14.157  1.00  0.00     0.000 C 
ENDROOT
BRANCH   1   2
ATOM      2  C   UNL     1      18.786  55.078  14.104  1.00  0.00     0.000 C 
BRANCH   2   3
ATOM      3  C   UNL     1      17.814  54.876  12.925  1.00  0.00     0.000 C 
BRANCH   3   4
ATOM      4  C   UNL     1      16.320  54.820  13.308  1.00  0.00     0.000 C 
BRANCH   4   5
ATOM      5  C   UNL     1      16.032  54.824  14.819  1.00  0.00     0.001 C 
BRANCH   5   6
ATOM      6  C   UNL     1      14.705  55.523  15.175  1.00  0.00     0.009 C 
BRANCH   6   7
ATOM      7  C   UNL     1      14.189  55.218  16.599  1.00  0.00     0.032 C 
ATOM      8  C   UNL     1      14.706  53.877  17.137  1.00  0.00     0.014 C 
BRANCH   7   9
ATOM      9  C   UNL     1      14.475  56.348  17.552  1.00  0.00     0.044 C 
ATOM     10  O   UNL     1      14.603  56.116  18.783  1.00  0.00    -0.550 OA
ATOM     11  O   UNL     1      14.527  57.660  17.100  1.00  0.00    -0.550 OA
ENDBRANCH   7   9
ENDBRANCH   6   7
ENDBRANCH   5   6
ENDBRANCH   4   5
ENDBRANCH   3   4
ENDBRANCH   2   3
ENDBRANCH   1   2
BRANCH   1  12
ATOM     12  C   UNL     1      20.078  53.384  15.524  1.00  0.00     0.000 C 
BRANCH  12  13
ATOM     13  C   UNL     1      18.862  52.504  15.853  1.00  0.00    -0.000 C 
BRANCH  13  14
ATOM     14  C   UNL     1      18.203  52.882  17.193  1.00  0.00    -0.000 C 
BRANCH  14  15
ATOM     15  C   UNL     1      18.907  54.055  17.891  1.00  0.00    -0.000 C 
BRANCH  15  16
ATOM     16  C   UNL     1      17.972  55.257  18.112  1.00  0.00    -0.000 C 
BRANCH  16  17
ATOM     17  C   UNL     1      18.436  56.521  17.365  1.00  0.00    -0.000 C 
BRANCH  17  18
ATOM     18  C   UNL     1      19.814  57.056  17.787  1.00  0.00    -0.003 C 
ATOM     19  C   UNL     1      20.902  56.788  16.748  1.00  0.00     0.004 C 
ENDBRANCH  17  18
ENDBRANCH  16  17
ENDBRANCH  15  16
ENDBRANCH  14  15
ENDBRANCH  13  14
ENDBRANCH  12  13
ENDBRANCH   1  12
TORSDOF 14
ENDMDL
MODEL 2
REMARK VINA RESULT:    -4.758      3.138      5.316
REMARK INTER + INTRA:         -11.288
REMARK INTER:                  -8.741
REMARK INTRA:                  -2.547
REMARK UNBOUND:                -2.635
REMARK SMILES CCCCCCCCCCCCCC[C@@H](C)C(=O)[O-]
REMARK SMILES IDX 9 1 10 2 11 3 12 4 13 5 14 6 15 7 16 8 17 9 18 10 19 11 8 12
REMARK SMILES IDX 7 13 6 14 5 15 4 16 3 17 2 18 1 19
REMARK H PARENT
REMARK Flexibility Score: inf
ROOT
ATOM      1  C   UNL     1      16.291  54.863  13.460  1.00  0.00     0.000 C 
ENDROOT
BRANCH   1   2
ATOM      2  C   UNL     1      17.753  55.266  13.196  1.00  0.00     0.000 C 
BRANCH   2   3
ATOM      3  C   UNL     1      18.690  54.101  12.823  1.00  0.00     0.000 C 
BRANCH   3   4
ATOM      4  C   UNL     1      19.864  53.865  13.797  1.00  0.00     0.000 C 
BRANCH   4   5
ATOM      5  C   UNL     1      19.469  53.293  15.171  1.00  0.00     0.001 C 
BRANCH   5   6
ATOM      6  C   UNL     1      19.894  54.200  16.343  1.00  0.00     0.009 C 
BRANCH   6   7
ATOM      7  C   UNL     1      20.826  55.364  15.938  1.00  0.00     0.032 C 
ATOM      8  C   UNL     1      20.308  56.727  16.418  1.00  0.00     0.014 C 
BRANCH   7   9
ATOM      9  C   UNL     1      22.246  55.122  16.375  1.00  0.00     0.044 C 
ATOM     10  O   UNL     1      23.024  56.096  16.553  1.00  0.00    -0.550 OA
ATOM     11  O   UNL     1      22.734  53.829  16.516  1.00  0.00    -0.550 OA
ENDBRANCH   7   9
ENDBRANCH   6   7
ENDBRANCH   5   6
ENDBRANCH   4   5
ENDBRANCH   3   4
ENDBRANCH   2   3
ENDBRANCH   1   2
BRANCH   1  12
ATOM     12  C   UNL     1      15.898  55.001  14.941  1.00  0.00     0.000 C 
BRANCH  12  13
ATOM     13  C   UNL     1      16.830  55.946  15.716  1.00  0.00    -0.000 C 
BRANCH  13  14
ATOM     14  C   UNL     1      16.174  56.514  16.989  1.00  0.00    -0.000 C 
BRANCH  14  15
ATOM     15  C   UNL     1      16.938  56.138  18.268  1.00  0.00    -0.000 C 
BRANCH  15  16
ATOM     16  C   UNL     1      16.090  55.290  19.233  1.00  0.00    -0.000 C 
BRANCH  16  17
ATOM     17  C   UNL     1      16.458  53.796  19.199  1.00  0.00    -0.000 C 
BRANCH  17  18
ATOM     18  C   UNL     1      15.701  52.965  18.149  1.00  0.00    -0.003 C 
ATOM     19  C   UNL     1      16.632  52.195  17.213  1.00  0.00     0.004 C 
ENDBRANCH  17  18
ENDBRANCH  16  17
ENDBRANCH  15  16
ENDBRANCH  14  15
ENDBRANCH  13  14
ENDBRANCH  12  13
ENDBRANCH   1  12
TORSDOF 14
ENDMDL
MODEL 3
REMARK VINA RESULT:    -4.716      1.461      3.359
REMARK INTER + INTRA:         -11.210
REMARK INTER:                  -8.343
REMARK INTRA:                  -2.867
REMARK UNBOUND:                -2.635
REMARK SMILES CCCCCCCCCCCCCC[C@@H](C)C(=O)[O-]
REMARK SMILES IDX 9 1 10 2 11 3 12 4 13 5 14 6 15 7 16 8 17 9 18 10 19 11 8 12
REMARK SMILES IDX 7 13 6 14 5 15 4 16 3 17 2 18 1 19
REMARK H PARENT
REMARK Flexibility Score: inf
ROOT
ATOM      1  C   UNL     1      19.276  52.914  15.480  1.00  0.00     0.000 C 
ENDROOT
BRANCH   1   2
ATOM      2  C   UNL     1      20.275  53.033  16.645  1.00  0.00     0.000 C 
BRANCH   2   3
ATOM      3  C   UNL     1      19.731  52.584  18.015  1.00  0.00     0.000 C 
BRANCH   3   4
ATOM      4  C   UNL     1      19.015  53.683  18.829  1.00  0.00     0.000 C 
BRANCH   4   5
ATOM      5  C   UNL     1      17.825  53.198  19.676  1.00  0.00     0.001 C 
BRANCH   5   6
ATOM      6  C   UNL     1      16.506  53.914  19.322  1.00  0.00     0.009 C 
BRANCH   6   7
ATOM      7  C   UNL     1      16.393  54.339  17.842  1.00  0.00     0.032 C 
ATOM      8  C   UNL     1      15.854  53.216  16.946  1.00  0.00     0.014 C 
BRANCH   7   9
ATOM      9  C   UNL     1      15.597  55.608  17.683  1.00  0.00     0.044 C 
ATOM     10  O   UNL     1      15.525  56.428  18.636  1.00  0.00    -0.550 OA
ATOM     11  O   UNL     1      14.879  55.854  16.521  1.00  0.00    -0.550 OA
ENDBRANCH   7   9
ENDBRANCH   6   7
ENDBRANCH   5   6
ENDBRANCH   4   5
ENDBRANCH   3   4
ENDBRANCH   2   3
ENDBRANCH   1   2
BRANCH   1  12
ATOM     12  C   UNL     1      19.714  53.714  14.241  1.00  0.00     0.000 C 
BRANCH  12  13
ATOM     13  C   UNL     1      18.586  54.590  13.673  1.00  0.00    -0.000 C 
BRANCH  13  14
ATOM     14  C   UNL     1      17.929  55.480  14.746  1.00  0.00    -0.000 C 
BRANCH  14  15
ATOM     15  C   UNL     1      18.845  56.621  15.211  1.00  0.00    -0.000 C 
BRANCH  15  16
ATOM     16  C   UNL     1      18.933  56.720  16.745  1.00  0.00    -0.000 C 
BRANCH  16  17
ATOM     17  C   UNL     1      20.383  56.721  17.262  1.00  0.00    -0.000 C 
BRANCH  17  18
ATOM     18  C   UNL     1      21.462  56.612  16.172  1.00  0.00    -0.003 C 
ATOM     19  C   UNL     1      22.642  55.733  16.586  1.00  0.00     0.004 C 
ENDBRANCH  17  18
ENDBRANCH  16  17
ENDBRANCH  15  16
ENDBRANCH  14  15
ENDBRANCH  13  14
ENDBRANCH  12  13
ENDBRANCH   1  12
TORSDOF 14
ENDMDL
MODEL 4
REMARK VINA RESULT:    -4.711      1.557      2.091
REMARK INTER + INTRA:         -11.202
REMARK INTER:                  -8.415
REMARK INTRA:                  -2.787
REMARK UNBOUND:                -2.635
REMARK SMILES CCCCCCCCCCCCCC[C@@H](C)C(=O)[O-]
REMARK SMILES IDX 9 1 10 2 11 3 12 4 13 5 14 6 15 7 16 8 17 9 18 10 19 11 8 12
REMARK SMILES IDX 7 13 6 14 5 15 4 16 3 17 2 18 1 19
REMARK H PARENT
REMARK Flexibility Score: inf
ROOT
ATOM      1  C   UNL     1      19.201  53.915  13.431  1.00  0.00     0.000 C 
ENDROOT
BRANCH   1   2
ATOM      2  C   UNL     1      18.067  54.956  13.410  1.00  0.00     0.000 C 
BRANCH   2   3
ATOM      3  C   UNL     1      18.113  55.988  14.554  1.00  0.00     0.000 C 
BRANCH   3   4
ATOM      4  C   UNL     1      16.811  56.120  15.372  1.00  0.00     0.000 C 
BRANCH   4   5
ATOM      5  C   UNL     1      15.838  54.935  15.247  1.00  0.00     0.001 C 
BRANCH   5   6
ATOM      6  C   UNL     1      14.898  54.801  16.462  1.00  0.00     0.009 C 
BRANCH   6   7
ATOM      7  C   UNL     1      15.531  55.230  17.804  1.00  0.00     0.032 C 
ATOM      8  C   UNL     1      14.875  56.488  18.389  1.00  0.00     0.014 C 
BRANCH   7   9
ATOM      9  C   UNL     1      15.554  54.099  18.798  1.00  0.00     0.044 C 
ATOM     10  O   UNL     1      14.685  53.190  18.736  1.00  0.00    -0.550 OA
ATOM     11  O   UNL     1      16.481  54.083  19.832  1.00  0.00    -0.550 OA
ENDBRANCH   7   9
ENDBRANCH   6   7
ENDBRANCH   5   6
ENDBRANCH   4   5
ENDBRANCH   3   4
ENDBRANCH   2   3
ENDBRANCH   1   2
BRANCH   1  12
ATOM     12  C   UNL     1      20.385  54.347  14.313  1.00  0.00     0.000 C 
BRANCH  12  13
ATOM     13  C   UNL     1      20.665  53.357  15.454  1.00  0.00    -0.000 C 
BRANCH  13  14
ATOM     14  C   UNL     1      19.384  52.681  15.980  1.00  0.00    -0.000 C 
BRANCH  14  15
ATOM     15  C   UNL     1      18.846  53.342  17.257  1.00  0.00    -0.000 C 
BRANCH  15  16
ATOM     16  C   UNL     1      19.793  54.424  17.807  1.00  0.00    -0.000 C 
BRANCH  16  17
ATOM     17  C   UNL     1      19.077  55.755  18.098  1.00  0.00    -0.000 C 
BRANCH  17  18
ATOM     18  C   UNL     1      19.870  57.016  17.714  1.00  0.00    -0.003 C 
ATOM     19  C   UNL     1      21.169  56.702  16.974  1.00  0.00     0.004 C 
ENDBRANCH  17  18
ENDBRANCH  16  17
ENDBRANCH  15  16
ENDBRANCH  14  15
ENDBRANCH  13  14
ENDBRANCH  12  13
ENDBRANCH   1  12
TORSDOF 14
ENDMDL
MODEL 5
REMARK VINA RESULT:    -4.701      2.922      5.083
REMARK INTER + INTRA:         -11.183
REMARK INTER:                  -9.172
REMARK INTRA:                  -2.010
REMARK UNBOUND:                -2.635
REMARK SMILES CCCCCCCCCCCCCC[C@@H](C)C(=O)[O-]
REMARK SMILES IDX 9 1 10 2 11 3 12 4 13 5 14 6 15 7 16 8 17 9 18 10 19 11 8 12
REMARK SMILES IDX 7 13 6 14 5 15 4 16 3 17 2 18 1 19
REMARK H PARENT
REMARK Flexibility Score: inf
ROOT
ATOM      1  C   UNL     1      16.131  56.039  15.808  1.00  0.00     0.000 C 
ENDROOT
BRANCH   1   2
ATOM      2  C   UNL     1      16.461  54.806  14.947  1.00  0.00     0.000 C 
BRANCH   2   3
ATOM      3  C   UNL     1      17.091  55.123  13.576  1.00  0.00     0.000 C 
BRANCH   3   4
ATOM      4  C   UNL     1      18.420  54.397  13.281  1.00  0.00     0.000 C 
BRANCH   4   5
ATOM      5  C   UNL     1      19.180  53.895  14.521  1.00  0.00     0.001 C 
BRANCH   5   6
ATOM      6  C   UNL     1      20.589  54.508  14.650  1.00  0.00     0.009 C 
BRANCH   6   7
ATOM      7  C   UNL     1      21.089  54.647  16.104  1.00  0.00     0.032 C 
ATOM      8  C   UNL     1      22.144  53.593  16.467  1.00  0.00     0.014 C 
BRANCH   7   9
ATOM      9  C   UNL     1      21.572  56.043  16.399  1.00  0.00     0.044 C 
ATOM     10  O   UNL     1      20.846  57.032  16.117  1.00  0.00    -0.550 OA
ATOM     11  O   UNL     1      22.845  56.259  16.912  1.00  0.00    -0.550 OA
ENDBRANCH   7   9
ENDBRANCH   6   7
ENDBRANCH   5   6
ENDBRANCH   4   5
ENDBRANCH   3   4
ENDBRANCH   2   3
ENDBRANCH   1   2
BRANCH   1  12
ATOM     12  C   UNL     1      17.380  56.657  16.461  1.00  0.00     0.000 C 
BRANCH  12  13
ATOM     13  C   UNL     1      17.732  56.001  17.805  1.00  0.00    -0.000 C 
BRANCH  13  14
ATOM     14  C   UNL     1      16.566  56.049  18.812  1.00  0.00    -0.000 C 
BRANCH  14  15
ATOM     15  C   UNL     1      16.157  54.655  19.312  1.00  0.00    -0.000 C 
BRANCH  15  16
ATOM     16  C   UNL     1      17.057  53.539  18.752  1.00  0.00    -0.000 C 
BRANCH  16  17
ATOM     17  C   UNL     1      17.457  52.502  19.817  1.00  0.00    -0.000 C 
BRANCH  17  18
ATOM     18  C   UNL     1      18.877  52.666  20.382  1.00  0.00    -0.003 C 
ATOM     19  C   UNL     1      19.900  53.063  19.318  1.00  0.00     0.004 C 
ENDBRANCH  17  18
ENDBRANCH  16  17
ENDBRANCH  15  16
ENDBRANCH  14  15
ENDBRANCH  13  14
ENDBRANCH  12  13
ENDBRANCH   1  12
TORSDOF 14
ENDMDL
MODEL 6
REMARK VINA RESULT:    -4.682      3.643      5.876
REMARK INTER + INTRA:         -11.149
REMARK INTER:                  -8.441
REMARK INTRA:                  -2.708
REMARK UNBOUND:                -2.635
REMARK SMILES CCCCCCCCCCCCCC[C@@H](C)C(=O)[O-]
REMARK SMILES IDX 9 1 10 2 11 3 12 4 13 5 14 6 15 7 16 8 17 9 18 10 19 11 8 12
REMARK SMILES IDX 7 13 6 14 5 15 4 16 3 17 2 18 1 19
REMARK H PARENT
REMARK Flexibility Score: inf
ROOT
ATOM      1  C   UNL     1      17.565  54.685  14.408  1.00  0.00     0.000 C 
ENDROOT
BRANCH   1   2
ATOM      2  C   UNL     1      17.467  56.027  15.155  1.00  0.00     0.000 C 
BRANCH   2   3
ATOM      3  C   UNL     1      18.821  56.674  15.506  1.00  0.00     0.000 C 
BRANCH   3   4
ATOM      4  C   UNL     1      19.048  56.947  17.008  1.00  0.00     0.000 C 
BRANCH   4   5
ATOM      5  C   UNL     1      20.522  57.003  17.447  1.00  0.00     0.001 C 
BRANCH   5   6
ATOM      6  C   UNL     1      21.496  56.563  16.335  1.00  0.00     0.009 C 
BRANCH   6   7
ATOM      7  C   UNL     1      22.721  55.771  16.843  1.00  0.00     0.032 C 
ATOM      8  C   UNL     1      22.610  54.268  16.555  1.00  0.00     0.014 C 
BRANCH   7   9
ATOM      9  C   UNL     1      24.013  56.345  16.322  1.00  0.00     0.044 C 
ATOM     10  O   UNL     1      23.997  57.164  15.366  1.00  0.00    -0.550 OA
ATOM     11  O   UNL     1      25.232  55.926  16.837  1.00  0.00    -0.550 OA
ENDBRANCH   7   9
ENDBRANCH   6   7
ENDBRANCH   5   6
ENDBRANCH   4   5
ENDBRANCH   3   4
ENDBRANCH   2   3
ENDBRANCH   1   2
BRANCH   1  12
ATOM     12  C   UNL     1      18.991  54.385  13.914  1.00  0.00     0.000 C 
BRANCH  12  13
ATOM     13  C   UNL     1      19.707  53.332  14.774  1.00  0.00    -0.000 C 
BRANCH  13  14
ATOM     14  C   UNL     1      18.757  52.627  15.761  1.00  0.00    -0.000 C 
BRANCH  14  15
ATOM     15  C   UNL     1      19.412  52.358  17.124  1.00  0.00    -0.000 C 
BRANCH  15  16
ATOM     16  C   UNL     1      19.256  53.540  18.098  1.00  0.00    -0.000 C 
BRANCH  16  17
ATOM     17  C   UNL     1      17.942  53.488  18.897  1.00  0.00    -0.000 C 
BRANCH  17  18
ATOM     18  C   UNL     1      16.891  54.533  18.487  1.00  0.00    -0.003 C 
ATOM     19  C   UNL     1      15.685  53.920  17.776  1.00  0.00     0.004 C 
ENDBRANCH  17  18
ENDBRANCH  16  17
ENDBRANCH  15  16
ENDBRANCH  14  15
ENDBRANCH  13  14
ENDBRANCH  12  13
ENDBRANCH   1  12
TORSDOF 14
ENDMDL
MODEL 7
REMARK VINA RESULT:    -4.674      3.717      6.167
REMARK INTER + INTRA:         -11.134
REMARK INTER:                  -9.130
REMARK INTRA:                  -2.004
REMARK UNBOUND:                -2.635
REMARK SMILES CCCCCCCCCCCCCC[C@@H](C)C(=O)[O-]
REMARK SMILES IDX 9 1 10 2 11 3 12 4 13 5 14 6 15 7 16 8 17 9 18 10 19 11 8 12
REMARK SMILES IDX 7 13 6 14 5 15 4 16 3 17 2 18 1 19
REMARK H PARENT
REMARK Flexibility Score: inf
ROOT
ATOM      1  C   UNL     1      17.673  55.391  14.567  1.00  0.00     0.000 C 
ENDROOT
BRANCH   1   2
ATOM      2  C   UNL     1      18.514  54.357  13.798  1.00  0.00     0.000 C 
BRANCH   2   3
ATOM      3  C   UNL     1      19.964  54.199  14.298  1.00  0.00     0.000 C 
BRANCH   3   4
ATOM      4  C   UNL     1      20.182  53.080  15.337  1.00  0.00     0.000 C 
BRANCH   4   5
ATOM      5  C   UNL     1      20.821  53.533  16.662  1.00  0.00     0.001 C 
BRANCH   5   6
ATOM      6  C   UNL     1      22.333  53.807  16.535  1.00  0.00     0.009 C 
BRANCH   6   7
ATOM      7  C   UNL     1      22.688  55.285  16.261  1.00  0.00     0.032 C 
ATOM      8  C   UNL     1      21.830  56.258  17.081  1.00  0.00     0.014 C 
BRANCH   7   9
ATOM      9  C   UNL     1      24.160  55.550  16.444  1.00  0.00     0.044 C 
ATOM     10  O   UNL     1      24.614  56.712  16.280  1.00  0.00    -0.550 OA
ATOM     11  O   UNL     1      25.038  54.510  16.720  1.00  0.00    -0.550 OA
ENDBRANCH   7   9
ENDBRANCH   6   7
ENDBRANCH   5   6
ENDBRANCH   4   5
ENDBRANCH   3   4
ENDBRANCH   2   3
ENDBRANCH   1   2
BRANCH   1  12
ATOM     12  C   UNL     1      18.539  56.397  15.346  1.00  0.00     0.000 C 
BRANCH  12  13
ATOM     13  C   UNL     1      17.869  56.875  16.644  1.00  0.00    -0.000 C 
BRANCH  13  14
ATOM     14  C   UNL     1      18.250  56.010  17.861  1.00  0.00    -0.000 C 
BRANCH  14  15
ATOM     15  C   UNL     1      17.198  54.936  18.178  1.00  0.00    -0.000 C 
BRANCH  15  16
ATOM     16  C   UNL     1      15.782  55.350  17.739  1.00  0.00    -0.000 C 
BRANCH  16  17
ATOM     17  C   UNL     1      15.004  56.087  18.845  1.00  0.00    -0.000 C 
BRANCH  17  18
ATOM     18  C   UNL     1      14.185  57.297  18.367  1.00  0.00    -0.003 C 
ATOM     19  C   UNL     1      14.189  57.458  16.847  1.00  0.00     0.004 C 
ENDBRANCH  17  18
ENDBRANCH  16  17
ENDBRANCH  15  16
ENDBRANCH  14  15
ENDBRANCH  13  14
ENDBRANCH  12  13
ENDBRANCH   1  12
TORSDOF 14
ENDMDL
MODEL 8
REMARK VINA RESULT:    -4.672      2.258      4.728
REMARK INTER + INTRA:         -11.130
REMARK INTER:                  -8.791
REMARK INTRA:                  -2.339
REMARK UNBOUND:                -2.635
REMARK SMILES CCCCCCCCCCCCCC[C@@H](C)C(=O)[O-]
REMARK SMILES IDX 9 1 10 2 11 3 12 4 13 5 14 6 15 7 16 8 17 9 18 10 19 11 8 12
REMARK SMILES IDX 7 13 6 14 5 15 4 16 3 17 2 18 1 19
REMARK H PARENT
REMARK Flexibility Score: inf
ROOT
ATOM      1  C   UNL     1      21.026  56.383  16.187  1.00  0.00     0.000 C 
ENDROOT
BRANCH   1   2
ATOM      2  C   UNL     1      22.153  55.427  16.616  1.00  0.00     0.000 C 
BRANCH   2   3
ATOM      3  C   UNL     1      21.909  53.944  16.275  1.00  0.00     0.000 C 
BRANCH   3   4
ATOM      4  C   UNL     1      20.644  53.324  16.904  1.00  0.00     0.000 C 
BRANCH   4   5
ATOM      5  C   UNL     1      19.661  52.689  15.905  1.00  0.00     0.001 C 
BRANCH   5   6
ATOM      6  C   UNL     1      18.509  53.636  15.513  1.00  0.00     0.009 C 
BRANCH   6   7
ATOM      7  C   UNL     1      18.782  54.474  14.244  1.00  0.00     0.032 C 
ATOM      8  C   UNL     1      19.667  53.736  13.231  1.00  0.00     0.014 C 
BRANCH   7   9
ATOM      9  C   UNL     1      17.506  54.967  13.614  1.00  0.00     0.044 C 
ATOM     10  O   UNL     1      16.396  54.680  14.135  1.00  0.00    -0.550 OA
ATOM     11  O   UNL     1      17.532  55.675  12.420  1.00  0.00    -0.550 OA
ENDBRANCH   7   9
ENDBRANCH   6   7
ENDBRANCH   5   6
ENDBRANCH   4   5
ENDBRANCH   3   4
ENDBRANCH   2   3
ENDBRANCH   1   2
BRANCH   1  12
ATOM     12  C   UNL     1      20.351  57.078  17.383  1.00  0.00     0.000 C 
BRANCH  12  13
ATOM     13  C   UNL     1      18.924  56.568  17.636  1.00  0.00    -0.000 C 
BRANCH  13  14
ATOM     14  C   UNL     1      17.895  57.179  16.665  1.00  0.00    -0.000 C 
BRANCH  14  15
ATOM     15  C   UNL     1      16.457  56.733  16.968  1.00  0.00    -0.000 C 
BRANCH  15  16
ATOM     16  C   UNL     1      16.384  55.282  17.478  1.00  0.00    -0.000 C 
BRANCH  16  17
ATOM     17  C   UNL     1      15.816  55.178  18.906  1.00  0.00    -0.000 C 
BRANCH  17  18
ATOM     18  C   UNL     1      16.120  53.856  19.630  1.00  0.00    -0.003 C 
ATOM     19  C   UNL     1      17.527  53.330  19.347  1.00  0.00     0.004 C 
ENDBRANCH  17  18
ENDBRANCH  16  17
ENDBRANCH  15  16
ENDBRANCH  14  15
ENDBRANCH  13  14
ENDBRANCH  12  13
ENDBRANCH   1  12
TORSDOF 14
ENDMDL
MODEL 9
REMARK VINA RESULT:    -4.649      2.950      4.949
REMARK INTER + INTRA:         -11.088
REMARK INTER:                  -8.814
REMARK INTRA:                  -2.274
REMARK UNBOUND:                -2.635
REMARK SMILES CCCCCCCCCCCCCC[C@@H](C)C(=O)[O-]
REMARK SMILES IDX 9 1 10 2 11 3 12 4 13 5 14 6 15 7 16 8 17 9 18 10 19 11 8 12
REMARK SMILES IDX 7 13 6 14 5 15 4 16 3 17 2 18 1 19
REMARK H PARENT
REMARK Flexibility Score: inf
ROOT
ATOM      1  C   UNL     1      16.309  55.052  14.935  1.00  0.00     0.000 C 
ENDROOT
BRANCH   1   2
ATOM      2  C   UNL     1      16.471  54.815  13.423  1.00  0.00     0.000 C 
BRANCH   2   3
ATOM      3  C   UNL     1      17.922  54.884  12.908  1.00  0.00     0.000 C 
BRANCH   3   4
ATOM      4  C   UNL     1      19.010  54.839  14.001  1.00  0.00     0.000 C 
BRANCH   4   5
ATOM      5  C   UNL     1      19.547  53.435  14.332  1.00  0.00     0.001 C 
BRANCH   5   6
ATOM      6  C   UNL     1      19.526  53.126  15.842  1.00  0.00     0.009 C 
BRANCH   6   7
ATOM      7  C   UNL     1      20.093  54.256  16.729  1.00  0.00     0.032 C 
ATOM      8  C   UNL     1      19.741  54.074  18.211  1.00  0.00     0.014 C 
BRANCH   7   9
ATOM      9  C   UNL     1      21.574  54.436  16.526  1.00  0.00     0.044 C 
ATOM     10  O   UNL     1      22.327  53.428  16.458  1.00  0.00    -0.550 OA
ATOM     11  O   UNL     1      22.135  55.706  16.485  1.00  0.00    -0.550 OA
ENDBRANCH   7   9
ENDBRANCH   6   7
ENDBRANCH   5   6
ENDBRANCH   4   5
ENDBRANCH   3   4
ENDBRANCH   2   3
ENDBRANCH   1   2
BRANCH   1  12
ATOM     12  C   UNL     1      15.050  54.378  15.509  1.00  0.00     0.000 C 
BRANCH  12  13
ATOM     13  C   UNL     1      15.352  53.024  16.169  1.00  0.00    -0.000 C 
BRANCH  13  14
ATOM     14  C   UNL     1      16.223  53.162  17.433  1.00  0.00    -0.000 C 
BRANCH  14  15
ATOM     15  C   UNL     1      15.440  53.710  18.635  1.00  0.00    -0.000 C 
BRANCH  15  16
ATOM     16  C   UNL     1      16.151  54.896  19.312  1.00  0.00    -0.000 C 
BRANCH  16  17
ATOM     17  C   UNL     1      15.999  56.212  18.528  1.00  0.00    -0.000 C 
BRANCH  17  18
ATOM     18  C   UNL     1      14.579  56.802  18.521  1.00  0.00    -0.003 C 
ATOM     19  C   UNL     1      14.239  57.523  17.217  1.00  0.00     0.004 C 
ENDBRANCH  17  18
ENDBRANCH  16  17
ENDBRANCH  15  16
ENDBRANCH  14  15
ENDBRANCH  13  14
ENDBRANCH  12  13
ENDBRANCH   1  12
TORSDOF 14
ENDMDL
