MODEL 1
REMARK VINA RESULT:    -3.218      0.000      0.000
REMARK INTER + INTRA:          -3.878
REMARK INTER:                  -3.782
REMARK INTRA:                  -0.096
REMARK UNBOUND:                -0.096
REMARK SMILES O=C([O-])CCC(=O)[O-]
REMARK SMILES IDX 4 1 2 2 1 3 3 4 5 5 6 6 7 7 8 8
REMARK H PARENT
REMARK Flexibility Score: inf
ROOT
ATOM      1  C   UNL     1     138.969 146.463 147.392  1.00  0.00     0.059 C 
ENDROOT
BRANCH   1   2
ATOM      2  C   UNL     1     139.140 147.239 146.121  1.00  0.00     0.042 C 
ATOM      3  O   UNL     1     138.751 146.755 145.026  1.00  0.00    -0.550 OA
ATOM      4  O   UNL     1     139.763 148.480 146.143  1.00  0.00    -0.550 OA
ENDBRANCH   1   2
BRANCH   1   5
ATOM      5  C   UNL     1     137.684 146.859 148.125  1.00  0.00     0.059 C 
BRANCH   5   6
ATOM      6  C   UNL     1     136.620 145.814 147.976  1.00  0.00     0.042 C 
ATOM      7  O   UNL     1     135.406 146.123 148.114  1.00  0.00    -0.550 OA
ATOM      8  O   UNL     1     136.965 144.511 147.644  1.00  0.00    -0.550 OA
ENDBRANCH   5   6
ENDBRANCH   1   5
TORSDOF 3
ENDMDL
MODEL 2
REMARK VINA RESULT:    -3.165      0.376      3.966
REMARK INTER + INTRA:          -3.816
REMARK INTER:                  -3.782
REMARK INTRA:                  -0.034
REMARK UNBOUND:                -0.096
REMARK SMILES O=C([O-])CCC(=O)[O-]
REMARK SMILES IDX 4 1 2 2 1 3 3 4 5 5 6 6 7 7 8 8
REMARK H PARENT
REMARK Flexibility Score: inf
ROOT
ATOM      1  C   UNL     1     137.850 146.778 148.062  1.00  0.00     0.059 C 
ENDROOT
BRANCH   1   2
ATOM      2  C   UNL     1     136.767 145.743 148.085  1.00  0.00     0.042 C 
ATOM      3  O   UNL     1     135.557 146.092 148.124  1.00  0.00    -0.550 OA
ATOM      4  O   UNL     1     137.094 144.394 148.103  1.00  0.00    -0.550 OA
ENDBRANCH   1   2
BRANCH   1   5
ATOM      5  C   UNL     1     138.985 146.385 147.111  1.00  0.00     0.059 C 
BRANCH   5   6
ATOM      6  C   UNL     1     139.295 147.481 146.139  1.00  0.00     0.042 C 
ATOM      7  O   UNL     1     139.805 148.560 146.543  1.00  0.00    -0.550 OA
ATOM      8  O   UNL     1     139.062 147.297 144.782  1.00  0.00    -0.550 OA
ENDBRANCH   5   6
ENDBRANCH   1   5
TORSDOF 3
ENDMDL
MODEL 3
REMARK VINA RESULT:    -3.150     13.096     13.906
REMARK INTER + INTRA:          -3.799
REMARK INTER:                  -3.685
REMARK INTRA:                  -0.114
REMARK UNBOUND:                -0.096
REMARK SMILES O=C([O-])CCC(=O)[O-]
REMARK SMILES IDX 4 1 2 2 1 3 3 4 5 5 6 6 7 7 8 8
REMARK H PARENT
REMARK Flexibility Score: inf
ROOT
ATOM      1  C   UNL     1     132.053 133.753 148.124  1.00  0.00     0.059 C 
ENDROOT
BRANCH   1   2
ATOM      2  C   UNL     1     133.468 133.285 147.971  1.00  0.00     0.042 C 
ATOM      3  O   UNL     1     133.754 132.068 148.125  1.00  0.00    -0.550 OA
ATOM      4  O   UNL     1     134.477 134.200 147.695  1.00  0.00    -0.550 OA
ENDBRANCH   1   2
BRANCH   1   5
ATOM      5  C   UNL     1     131.804 135.055 147.358  1.00  0.00     0.059 C 
BRANCH   5   6
ATOM      6  C   UNL     1     131.206 134.797 146.009  1.00  0.00     0.042 C 
ATOM      7  O   UNL     1     129.955 134.785 145.863  1.00  0.00    -0.550 OA
ATOM      8  O   UNL     1     132.029 134.612 144.906  1.00  0.00    -0.550 OA
ENDBRANCH   5   6
ENDBRANCH   1   5
TORSDOF 3
ENDMDL
MODEL 4
REMARK VINA RESULT:    -3.142     13.135     14.063
REMARK INTER + INTRA:          -3.789
REMARK INTER:                  -3.729
REMARK INTRA:                  -0.060
REMARK UNBOUND:                -0.096
REMARK SMILES O=C([O-])CCC(=O)[O-]
REMARK SMILES IDX 4 1 2 2 1 3 3 4 5 5 6 6 7 7 8 8
REMARK H PARENT
REMARK Flexibility Score: inf
ROOT
ATOM      1  C   UNL     1     145.015 134.501 147.133  1.00  0.00     0.059 C 
ENDROOT
BRANCH   1   2
ATOM      2  C   UNL     1     145.782 133.863 146.014  1.00  0.00     0.042 C 
ATOM      3  O   UNL     1     146.531 132.876 146.241  1.00  0.00    -0.550 OA
ATOM      4  O   UNL     1     145.698 134.382 144.729  1.00  0.00    -0.550 OA
ENDBRANCH   1   2
BRANCH   1   5
ATOM      5  C   UNL     1     145.947 135.204 148.125  1.00  0.00     0.059 C 
BRANCH   5   6
ATOM      6  C   UNL     1     145.819 136.694 148.042  1.00  0.00     0.042 C 
ATOM      7  O   UNL     1     146.843 137.423 148.125  1.00  0.00    -0.550 OA
ATOM      8  O   UNL     1     144.576 137.276 147.831  1.00  0.00    -0.550 OA
ENDBRANCH   5   6
ENDBRANCH   1   5
TORSDOF 3
ENDMDL
MODEL 5
REMARK VINA RESULT:    -3.137     14.107     15.060
REMARK INTER + INTRA:          -3.783
REMARK INTER:                  -3.749
REMARK INTRA:                  -0.034
REMARK UNBOUND:                -0.096
REMARK SMILES O=C([O-])CCC(=O)[O-]
REMARK SMILES IDX 4 1 2 2 1 3 3 4 5 5 6 6 7 7 8 8
REMARK H PARENT
REMARK Flexibility Score: inf
ROOT
ATOM      1  C   UNL     1     145.656 134.182 145.459  1.00  0.00     0.059 C 
ENDROOT
BRANCH   1   2
ATOM      2  C   UNL     1     146.486 132.982 145.801  1.00  0.00     0.042 C 
ATOM      3  O   UNL     1     146.878 132.798 146.983  1.00  0.00    -0.550 OA
ATOM      4  O   UNL     1     146.857 132.088 144.805  1.00  0.00    -0.550 OA
ENDBRANCH   1   2
BRANCH   1   5
ATOM      5  C   UNL     1     145.688 134.481 143.957  1.00  0.00     0.059 C 
BRANCH   5   6
ATOM      6  C   UNL     1     144.842 135.668 143.612  1.00  0.00     0.042 C 
ATOM      7  O   UNL     1     144.762 136.641 144.407  1.00  0.00    -0.550 OA
ATOM      8  O   UNL     1     144.175 135.718 142.395  1.00  0.00    -0.550 OA
ENDBRANCH   5   6
ENDBRANCH   1   5
TORSDOF 3
ENDMDL
MODEL 6
REMARK VINA RESULT:    -3.132     13.088     13.968
REMARK INTER + INTRA:          -3.778
REMARK INTER:                  -3.684
REMARK INTRA:                  -0.094
REMARK UNBOUND:                -0.096
REMARK SMILES O=C([O-])CCC(=O)[O-]
REMARK SMILES IDX 4 1 2 2 1 3 3 4 5 5 6 6 7 7 8 8
REMARK H PARENT
REMARK Flexibility Score: inf
ROOT
ATOM      1  C   UNL     1     131.753 135.202 147.226  1.00  0.00     0.059 C 
ENDROOT
BRANCH   1   2
ATOM      2  C   UNL     1     130.953 134.888 145.998  1.00  0.00     0.042 C 
ATOM      3  O   UNL     1     129.696 134.859 146.050  1.00  0.00    -0.550 OA
ATOM      4  O   UNL     1     131.600 134.591 144.805  1.00  0.00    -0.550 OA
ENDBRANCH   1   2
BRANCH   1   5
ATOM      5  C   UNL     1     131.964 133.957 148.094  1.00  0.00     0.059 C 
BRANCH   5   6
ATOM      6  C   UNL     1     133.341 133.393 147.924  1.00  0.00     0.042 C 
ATOM      7  O   UNL     1     134.305 134.150 147.637  1.00  0.00    -0.550 OA
ATOM      8  O   UNL     1     133.567 132.037 148.125  1.00  0.00    -0.550 OA
ENDBRANCH   5   6
ENDBRANCH   1   5
TORSDOF 3
ENDMDL
MODEL 7
REMARK VINA RESULT:    -3.112     12.969     13.781
REMARK INTER + INTRA:          -3.753
REMARK INTER:                  -3.634
REMARK INTRA:                  -0.119
REMARK UNBOUND:                -0.096
REMARK SMILES O=C([O-])CCC(=O)[O-]
REMARK SMILES IDX 4 1 2 2 1 3 3 4 5 5 6 6 7 7 8 8
REMARK H PARENT
REMARK Flexibility Score: inf
ROOT
ATOM      1  C   UNL     1     146.224 135.495 148.123  1.00  0.00     0.059 C 
ENDROOT
BRANCH   1   2
ATOM      2  C   UNL     1     145.895 136.932 147.855  1.00  0.00     0.042 C 
ATOM      3  O   UNL     1     144.764 137.249 147.401  1.00  0.00    -0.550 OA
ATOM      4  O   UNL     1     146.851 137.917 148.070  1.00  0.00    -0.550 OA
ENDBRANCH   1   2
BRANCH   1   5
ATOM      5  C   UNL     1     145.165 134.556 147.540  1.00  0.00     0.059 C 
BRANCH   5   6
ATOM      6  C   UNL     1     145.574 134.025 146.200  1.00  0.00     0.042 C 
ATOM      7  O   UNL     1     145.202 134.608 145.147  1.00  0.00    -0.550 OA
ATOM      8  O   UNL     1     146.401 132.913 146.115  1.00  0.00    -0.550 OA
ENDBRANCH   5   6
ENDBRANCH   1   5
TORSDOF 3
ENDMDL
MODEL 8
REMARK VINA RESULT:    -3.087      3.044      3.776
REMARK INTER + INTRA:          -3.724
REMARK INTER:                  -3.681
REMARK INTRA:                  -0.042
REMARK UNBOUND:                -0.096
REMARK SMILES O=C([O-])CCC(=O)[O-]
REMARK SMILES IDX 4 1 2 2 1 3 3 4 5 5 6 6 7 7 8 8
REMARK H PARENT
REMARK Flexibility Score: inf
ROOT
ATOM      1  C   UNL     1     139.003 146.881 145.446  1.00  0.00     0.059 C 
ENDROOT
BRANCH   1   2
ATOM      2  C   UNL     1     139.609 148.231 145.679  1.00  0.00     0.042 C 
ATOM      3  O   UNL     1     139.643 148.720 146.839  1.00  0.00    -0.550 OA
ATOM      4  O   UNL     1     140.103 148.966 144.608  1.00  0.00    -0.550 OA
ENDBRANCH   1   2
BRANCH   1   5
ATOM      5  C   UNL     1     138.576 146.699 143.987  1.00  0.00     0.059 C 
BRANCH   5   6
ATOM      6  C   UNL     1     138.598 145.258 143.580  1.00  0.00     0.042 C 
ATOM      7  O   UNL     1     138.302 144.928 142.401  1.00  0.00    -0.550 OA
ATOM      8  O   UNL     1     138.986 144.283 144.490  1.00  0.00    -0.550 OA
ENDBRANCH   5   6
ENDBRANCH   1   5
TORSDOF 3
ENDMDL
MODEL 9
REMARK VINA RESULT:    -3.014     12.754     13.665
REMARK INTER + INTRA:          -3.638
REMARK INTER:                  -3.570
REMARK INTRA:                  -0.068
REMARK UNBOUND:                -0.096
REMARK SMILES O=C([O-])CCC(=O)[O-]
REMARK SMILES IDX 4 1 2 2 1 3 3 4 5 5 6 6 7 7 8 8
REMARK H PARENT
REMARK Flexibility Score: inf
ROOT
ATOM      1  C   UNL     1     131.565 134.528 144.224  1.00  0.00     0.059 C 
ENDROOT
BRANCH   1   2
ATOM      2  C   UNL     1     131.157 134.870 145.625  1.00  0.00     0.042 C 
ATOM      3  O   UNL     1     132.016 135.259 146.459  1.00  0.00    -0.550 OA
ATOM      4  O   UNL     1     129.833 134.721 146.019  1.00  0.00    -0.550 OA
ENDBRANCH   1   2
BRANCH   1   5
ATOM      5  C   UNL     1     133.089 134.499 144.073  1.00  0.00     0.059 C 
BRANCH   5   6
ATOM      6  C   UNL     1     133.536 135.240 142.850  1.00  0.00     0.042 C 
ATOM      7  O   UNL     1     132.709 135.914 142.180  1.00  0.00    -0.550 OA
ATOM      8  O   UNL     1     134.873 135.221 142.474  1.00  0.00    -0.550 OA
ENDBRANCH   5   6
ENDBRANCH   1   5
TORSDOF 3
ENDMDL
