MODEL 1
REMARK VINA RESULT:    -3.516      0.000      0.000
REMARK INTER + INTRA:          -7.232
REMARK INTER:                  -6.393
REMARK INTRA:                  -0.838
REMARK UNBOUND:                -0.838
REMARK SMILES CCCCCCCCCCCCCCCC(=O)[O-]
REMARK SMILES IDX 9 1 10 2 11 3 12 4 13 5 14 6 15 7 16 8 17 9 18 10 8 11 7 12
REMARK SMILES IDX 6 13 5 14 4 15 3 16 2 17 1 18
REMARK H PARENT
REMARK Flexibility Score: inf
ROOT
ATOM      1  C   UNL     1      -3.856 -11.685  14.826  1.00  0.00     0.000 C 
ENDROOT
BRANCH   1   2
ATOM      2  C   UNL     1      -4.342 -13.052  15.339  1.00  0.00     0.000 C 
BRANCH   2   3
ATOM      3  C   UNL     1      -3.969 -13.292  16.812  1.00  0.00     0.000 C 
BRANCH   3   4
ATOM      4  C   UNL     1      -3.377 -12.038  17.481  1.00  0.00     0.000 C 
BRANCH   4   5
ATOM      5  C   UNL     1      -3.490 -12.076  19.014  1.00  0.00     0.000 C 
BRANCH   5   6
ATOM      6  C   UNL     1      -4.630 -12.982  19.504  1.00  0.00     0.006 C 
BRANCH   6   7
ATOM      7  C   UNL     1      -5.606 -12.203  20.389  1.00  0.00     0.053 C 
BRANCH   7   8
ATOM      8  C   UNL     1      -6.834 -11.833  19.618  1.00  0.00     0.041 C 
ATOM      9  O   UNL     1      -6.869 -11.990  18.369  1.00  0.00    -0.550 OA
ATOM     10  O   UNL     1      -7.957 -11.359  20.284  1.00  0.00    -0.550 OA
ENDBRANCH   7   8
ENDBRANCH   6   7
ENDBRANCH   5   6
ENDBRANCH   4   5
ENDBRANCH   3   4
ENDBRANCH   2   3
ENDBRANCH   1   2
BRANCH   1  11
ATOM     11  C   UNL     1      -5.006 -10.799  14.317  1.00  0.00     0.000 C 
BRANCH  11  12
ATOM     12  C   UNL     1      -4.506  -9.552  13.567  1.00  0.00    -0.000 C 
BRANCH  12  13
ATOM     13  C   UNL     1      -5.229  -9.334  12.223  1.00  0.00    -0.000 C 
BRANCH  13  14
ATOM     14  C   UNL     1      -5.988  -7.999  12.099  1.00  0.00    -0.000 C 
BRANCH  14  15
ATOM     15  C   UNL     1      -6.947  -7.901  10.897  1.00  0.00    -0.000 C 
BRANCH  15  16
ATOM     16  C   UNL     1      -6.639  -8.911   9.771  1.00  0.00    -0.000 C 
BRANCH  16  17
ATOM     17  C   UNL     1      -5.668  -8.346   8.723  1.00  0.00    -0.003 C 
ATOM     18  C   UNL     1      -5.723  -6.822   8.690  1.00  0.00     0.004 C 
ENDBRANCH  16  17
ENDBRANCH  15  16
ENDBRANCH  14  15
ENDBRANCH  13  14
ENDBRANCH  12  13
ENDBRANCH  11  12
ENDBRANCH   1  11
TORSDOF 14
ENDMDL
MODEL 2
REMARK VINA RESULT:    -3.509      3.540      8.775
REMARK INTER + INTRA:          -7.218
REMARK INTER:                  -6.490
REMARK INTRA:                  -0.728
REMARK UNBOUND:                -0.838
REMARK SMILES CCCCCCCCCCCCCCCC(=O)[O-]
REMARK SMILES IDX 9 1 10 2 11 3 12 4 13 5 14 6 15 7 16 8 17 9 18 10 8 11 7 12
REMARK SMILES IDX 6 13 5 14 4 15 3 16 2 17 1 18
REMARK H PARENT
REMARK Flexibility Score: inf
ROOT
ATOM      1  C   UNL     1      -4.681 -12.191  15.389  1.00  0.00     0.000 C 
ENDROOT
BRANCH   1   2
ATOM      2  C   UNL     1      -4.195 -11.483  14.112  1.00  0.00     0.000 C 
BRANCH   2   3
ATOM      3  C   UNL     1      -4.585  -9.995  14.081  1.00  0.00     0.000 C 
BRANCH   3   4
ATOM      4  C   UNL     1      -4.980  -9.520  12.672  1.00  0.00     0.000 C 
BRANCH   4   5
ATOM      5  C   UNL     1      -5.754  -8.191  12.691  1.00  0.00     0.000 C 
BRANCH   5   6
ATOM      6  C   UNL     1      -6.773  -8.079  11.547  1.00  0.00     0.006 C 
BRANCH   6   7
ATOM      7  C   UNL     1      -6.152  -7.397  10.326  1.00  0.00     0.053 C 
BRANCH   7   8
ATOM      8  C   UNL     1      -5.983  -8.377   9.207  1.00  0.00     0.041 C 
ATOM      9  O   UNL     1      -5.369  -8.043   8.160  1.00  0.00    -0.550 OA
ATOM     10  O   UNL     1      -6.460  -9.675   9.342  1.00  0.00    -0.550 OA
ENDBRANCH   7   8
ENDBRANCH   6   7
ENDBRANCH   5   6
ENDBRANCH   4   5
ENDBRANCH   3   4
ENDBRANCH   2   3
ENDBRANCH   1   2
BRANCH   1  11
ATOM     11  C   UNL     1      -3.977 -13.538  15.625  1.00  0.00     0.000 C 
BRANCH  11  12
ATOM     12  C   UNL     1      -3.304 -13.621  17.006  1.00  0.00    -0.000 C 
BRANCH  12  13
ATOM     13  C   UNL     1      -3.463 -12.327  17.827  1.00  0.00    -0.000 C 
BRANCH  13  14
ATOM     14  C   UNL     1      -4.249 -12.482  19.144  1.00  0.00    -0.000 C 
BRANCH  14  15
ATOM     15  C   UNL     1      -5.780 -12.555  18.987  1.00  0.00    -0.000 C 
BRANCH  15  16
ATOM     16  C   UNL     1      -6.557 -12.097  20.240  1.00  0.00    -0.000 C 
BRANCH  16  17
ATOM     17  C   UNL     1      -7.871 -11.384  19.888  1.00  0.00    -0.003 C 
ATOM     18  C   UNL     1      -8.685 -11.081  21.142  1.00  0.00     0.004 C 
ENDBRANCH  16  17
ENDBRANCH  15  16
ENDBRANCH  14  15
ENDBRANCH  13  14
ENDBRANCH  12  13
ENDBRANCH  11  12
ENDBRANCH   1  11
TORSDOF 14
ENDMDL
MODEL 3
REMARK VINA RESULT:    -3.474      1.726      2.231
REMARK INTER + INTRA:          -7.156
REMARK INTER:                  -6.249
REMARK INTRA:                  -0.907
REMARK UNBOUND:                -0.838
REMARK SMILES CCCCCCCCCCCCCCCC(=O)[O-]
REMARK SMILES IDX 9 1 10 2 11 3 12 4 13 5 14 6 15 7 16 8 17 9 18 10 8 11 7 12
REMARK SMILES IDX 6 13 5 14 4 15 3 16 2 17 1 18
REMARK H PARENT
REMARK Flexibility Score: inf
ROOT
ATOM      1  C   UNL     1      -3.747 -11.543  15.163  1.00  0.00     0.000 C 
ENDROOT
BRANCH   1   2
ATOM      2  C   UNL     1      -3.530 -13.066  15.207  1.00  0.00     0.000 C 
BRANCH   2   3
ATOM      3  C   UNL     1      -4.783 -13.824  15.678  1.00  0.00     0.000 C 
BRANCH   3   4
ATOM      4  C   UNL     1      -5.890 -12.878  16.176  1.00  0.00     0.000 C 
BRANCH   4   5
ATOM      5  C   UNL     1      -6.299 -13.163  17.631  1.00  0.00     0.000 C 
BRANCH   5   6
ATOM      6  C   UNL     1      -5.944 -12.013  18.585  1.00  0.00     0.006 C 
BRANCH   6   7
ATOM      7  C   UNL     1      -4.869 -12.444  19.586  1.00  0.00     0.053 C 
BRANCH   7   8
ATOM      8  C   UNL     1      -3.528 -12.500  18.924  1.00  0.00     0.041 C 
ATOM      9  O   UNL     1      -2.956 -11.438  18.560  1.00  0.00    -0.550 OA
ATOM     10  O   UNL     1      -2.888 -13.720  18.752  1.00  0.00    -0.550 OA
ENDBRANCH   7   8
ENDBRANCH   6   7
ENDBRANCH   5   6
ENDBRANCH   4   5
ENDBRANCH   3   4
ENDBRANCH   2   3
ENDBRANCH   1   2
BRANCH   1  11
ATOM     11  C   UNL     1      -4.562 -11.095  13.938  1.00  0.00     0.000 C 
BRANCH  11  12
ATOM     12  C   UNL     1      -4.617  -9.565  13.790  1.00  0.00    -0.000 C 
BRANCH  12  13
ATOM     13  C   UNL     1      -5.019  -9.116  12.372  1.00  0.00    -0.000 C 
BRANCH  13  14
ATOM     14  C   UNL     1      -6.180  -8.104  12.312  1.00  0.00    -0.000 C 
BRANCH  14  15
ATOM     15  C   UNL     1      -6.846  -7.954  10.930  1.00  0.00    -0.000 C 
BRANCH  15  16
ATOM     16  C   UNL     1      -6.354  -8.980   9.887  1.00  0.00    -0.000 C 
BRANCH  16  17
ATOM     17  C   UNL     1      -5.926  -8.319   8.568  1.00  0.00    -0.003 C 
ATOM     18  C   UNL     1      -5.539  -6.860   8.786  1.00  0.00     0.004 C 
ENDBRANCH  16  17
ENDBRANCH  15  16
ENDBRANCH  14  15
ENDBRANCH  13  14
ENDBRANCH  12  13
ENDBRANCH  11  12
ENDBRANCH   1  11
TORSDOF 14
ENDMDL
MODEL 4
REMARK VINA RESULT:    -3.359      0.830      1.301
REMARK INTER + INTRA:          -6.946
REMARK INTER:                  -6.357
REMARK INTRA:                  -0.589
REMARK UNBOUND:                -0.838
REMARK SMILES CCCCCCCCCCCCCCCC(=O)[O-]
REMARK SMILES IDX 9 1 10 2 11 3 12 4 13 5 14 6 15 7 16 8 17 9 18 10 8 11 7 12
REMARK SMILES IDX 6 13 5 14 4 15 3 16 2 17 1 18
REMARK H PARENT
REMARK Flexibility Score: inf
ROOT
ATOM      1  C   UNL     1      -4.554 -12.891  15.526  1.00  0.00     0.000 C 
ENDROOT
BRANCH   1   2
ATOM      2  C   UNL     1      -3.465 -13.895  15.944  1.00  0.00     0.000 C 
BRANCH   2   3
ATOM      3  C   UNL     1      -3.148 -13.824  17.448  1.00  0.00     0.000 C 
BRANCH   3   4
ATOM      4  C   UNL     1      -3.437 -12.436  18.045  1.00  0.00     0.000 C 
BRANCH   4   5
ATOM      5  C   UNL     1      -4.245 -12.510  19.352  1.00  0.00     0.000 C 
BRANCH   5   6
ATOM      6  C   UNL     1      -5.762 -12.449  19.118  1.00  0.00     0.006 C 
BRANCH   6   7
ATOM      7  C   UNL     1      -6.506 -12.173  20.428  1.00  0.00     0.053 C 
BRANCH   7   8
ATOM      8  C   UNL     1      -7.722 -11.338  20.174  1.00  0.00     0.041 C 
ATOM      9  O   UNL     1      -7.805 -10.640  19.129  1.00  0.00    -0.550 OA
ATOM     10  O   UNL     1      -8.785 -11.369  21.068  1.00  0.00    -0.550 OA
ENDBRANCH   7   8
ENDBRANCH   6   7
ENDBRANCH   5   6
ENDBRANCH   4   5
ENDBRANCH   3   4
ENDBRANCH   2   3
ENDBRANCH   1   2
BRANCH   1  11
ATOM     11  C   UNL     1      -3.976 -11.643  14.837  1.00  0.00     0.000 C 
BRANCH  11  12
ATOM     12  C   UNL     1      -4.969 -10.996  13.855  1.00  0.00    -0.000 C 
BRANCH  12  13
ATOM     13  C   UNL     1      -4.689  -9.499  13.622  1.00  0.00    -0.000 C 
BRANCH  13  14
ATOM     14  C   UNL     1      -5.157  -8.950  12.260  1.00  0.00    -0.000 C 
BRANCH  14  15
ATOM     15  C   UNL     1      -6.471  -8.145  12.296  1.00  0.00    -0.000 C 
BRANCH  15  16
ATOM     16  C   UNL     1      -6.933  -7.646  10.910  1.00  0.00    -0.000 C 
BRANCH  16  17
ATOM     17  C   UNL     1      -6.133  -8.276   9.761  1.00  0.00    -0.003 C 
ATOM     18  C   UNL     1      -5.755  -7.231   8.716  1.00  0.00     0.004 C 
ENDBRANCH  16  17
ENDBRANCH  15  16
ENDBRANCH  14  15
ENDBRANCH  13  14
ENDBRANCH  12  13
ENDBRANCH  11  12
ENDBRANCH   1  11
TORSDOF 14
ENDMDL
MODEL 5
REMARK VINA RESULT:    -3.284      6.150      8.745
REMARK INTER + INTRA:          -6.810
REMARK INTER:                  -5.790
REMARK INTRA:                  -1.020
REMARK UNBOUND:                -0.838
REMARK SMILES CCCCCCCCCCCCCCCC(=O)[O-]
REMARK SMILES IDX 9 1 10 2 11 3 12 4 13 5 14 6 15 7 16 8 17 9 18 10 8 11 7 12
REMARK SMILES IDX 6 13 5 14 4 15 3 16 2 17 1 18
REMARK H PARENT
REMARK Flexibility Score: inf
ROOT
ATOM      1  C   UNL     1      -1.625 -15.494  16.572  1.00  0.00     0.000 C 
ENDROOT
BRANCH   1   2
ATOM      2  C   UNL     1      -1.193 -15.859  18.003  1.00  0.00     0.000 C 
BRANCH   2   3
ATOM      3  C   UNL     1      -0.342 -17.139  18.050  1.00  0.00     0.000 C 
BRANCH   3   4
ATOM      4  C   UNL     1       1.126 -16.856  18.417  1.00  0.00     0.000 C 
BRANCH   4   5
ATOM      5  C   UNL     1       1.960 -18.142  18.551  1.00  0.00     0.000 C 
BRANCH   5   6
ATOM      6  C   UNL     1       1.188 -19.283  19.231  1.00  0.00     0.006 C 
BRANCH   6   7
ATOM      7  C   UNL     1       1.509 -20.628  18.573  1.00  0.00     0.053 C 
BRANCH   7   8
ATOM      8  C   UNL     1       0.814 -20.745  17.252  1.00  0.00     0.041 C 
ATOM      9  O   UNL     1      -0.420 -20.514  17.163  1.00  0.00    -0.550 OA
ATOM     10  O   UNL     1       1.541 -21.061  16.111  1.00  0.00    -0.550 OA
ENDBRANCH   7   8
ENDBRANCH   6   7
ENDBRANCH   5   6
ENDBRANCH   4   5
ENDBRANCH   3   4
ENDBRANCH   2   3
ENDBRANCH   1   2
BRANCH   1  11
ATOM     11  C   UNL     1      -2.901 -14.634  16.538  1.00  0.00     0.000 C 
BRANCH  11  12
ATOM     12  C   UNL     1      -3.179 -14.041  15.146  1.00  0.00    -0.000 C 
BRANCH  12  13
ATOM     13  C   UNL     1      -4.648 -13.616  14.960  1.00  0.00    -0.000 C 
BRANCH  13  14
ATOM     14  C   UNL     1      -5.121 -12.477  15.885  1.00  0.00    -0.000 C 
BRANCH  14  15
ATOM     15  C   UNL     1      -6.048 -12.912  17.037  1.00  0.00    -0.000 C 
BRANCH  15  16
ATOM     16  C   UNL     1      -5.822 -12.130  18.348  1.00  0.00    -0.000 C 
BRANCH  16  17
ATOM     17  C   UNL     1      -4.740 -12.767  19.234  1.00  0.00    -0.003 C 
ATOM     18  C   UNL     1      -3.394 -12.075  19.040  1.00  0.00     0.004 C 
ENDBRANCH  16  17
ENDBRANCH  15  16
ENDBRANCH  14  15
ENDBRANCH  13  14
ENDBRANCH  12  13
ENDBRANCH  11  12
ENDBRANCH   1  11
TORSDOF 14
ENDMDL
MODEL 6
REMARK VINA RESULT:    -3.265      5.348      9.838
REMARK INTER + INTRA:          -6.775
REMARK INTER:                  -5.783
REMARK INTRA:                  -0.993
REMARK UNBOUND:                -0.838
REMARK SMILES CCCCCCCCCCCCCCCC(=O)[O-]
REMARK SMILES IDX 9 1 10 2 11 3 12 4 13 5 14 6 15 7 16 8 17 9 18 10 8 11 7 12
REMARK SMILES IDX 6 13 5 14 4 15 3 16 2 17 1 18
REMARK H PARENT
REMARK Flexibility Score: inf
ROOT
ATOM      1  C   UNL     1      -1.645 -15.512  17.650  1.00  0.00     0.000 C 
ENDROOT
BRANCH   1   2
ATOM      2  C   UNL     1      -2.035 -15.256  16.184  1.00  0.00     0.000 C 
BRANCH   2   3
ATOM      3  C   UNL     1      -2.810 -13.939  16.003  1.00  0.00     0.000 C 
BRANCH   3   4
ATOM      4  C   UNL     1      -4.018 -14.092  15.062  1.00  0.00     0.000 C 
BRANCH   4   5
ATOM      5  C   UNL     1      -5.239 -13.285  15.534  1.00  0.00     0.000 C 
BRANCH   5   6
ATOM      6  C   UNL     1      -4.914 -12.339  16.699  1.00  0.00     0.006 C 
BRANCH   6   7
ATOM      7  C   UNL     1      -5.884 -12.551  17.863  1.00  0.00     0.053 C 
BRANCH   7   8
ATOM      8  C   UNL     1      -5.165 -12.448  19.172  1.00  0.00     0.041 C 
ATOM      9  O   UNL     1      -5.814 -12.328  20.244  1.00  0.00    -0.550 OA
ATOM     10  O   UNL     1      -3.779 -12.535  19.211  1.00  0.00    -0.550 OA
ENDBRANCH   7   8
ENDBRANCH   6   7
ENDBRANCH   5   6
ENDBRANCH   4   5
ENDBRANCH   3   4
ENDBRANCH   2   3
ENDBRANCH   1   2
BRANCH   1  11
ATOM     11  C   UNL     1      -0.709 -16.721  17.813  1.00  0.00     0.000 C 
BRANCH  11  12
ATOM     12  C   UNL     1       0.665 -16.334  18.388  1.00  0.00    -0.000 C 
BRANCH  12  13
ATOM     13  C   UNL     1       1.683 -17.489  18.334  1.00  0.00    -0.000 C 
BRANCH  13  14
ATOM     14  C   UNL     1       1.530 -18.547  19.445  1.00  0.00    -0.000 C 
BRANCH  14  15
ATOM     15  C   UNL     1       1.587 -20.011  18.965  1.00  0.00    -0.000 C 
BRANCH  15  16
ATOM     16  C   UNL     1       0.203 -20.691  18.874  1.00  0.00    -0.000 C 
BRANCH  16  17
ATOM     17  C   UNL     1      -0.537 -20.344  17.573  1.00  0.00    -0.003 C 
ATOM     18  C   UNL     1       0.124 -21.011  16.371  1.00  0.00     0.004 C 
ENDBRANCH  16  17
ENDBRANCH  15  16
ENDBRANCH  14  15
ENDBRANCH  13  14
ENDBRANCH  12  13
ENDBRANCH  11  12
ENDBRANCH   1  11
TORSDOF 14
ENDMDL
MODEL 7
REMARK VINA RESULT:    -3.238      5.958      8.441
REMARK INTER + INTRA:          -6.725
REMARK INTER:                  -5.626
REMARK INTRA:                  -1.099
REMARK UNBOUND:                -0.838
REMARK SMILES CCCCCCCCCCCCCCCC(=O)[O-]
REMARK SMILES IDX 9 1 10 2 11 3 12 4 13 5 14 6 15 7 16 8 17 9 18 10 8 11 7 12
REMARK SMILES IDX 6 13 5 14 4 15 3 16 2 17 1 18
REMARK H PARENT
REMARK Flexibility Score: inf
ROOT
ATOM      1  C   UNL     1      -2.759 -13.770  15.391  1.00  0.00     0.000 C 
ENDROOT
BRANCH   1   2
ATOM      2  C   UNL     1      -2.144 -15.121  15.795  1.00  0.00     0.000 C 
BRANCH   2   3
ATOM      3  C   UNL     1      -1.821 -15.192  17.297  1.00  0.00     0.000 C 
BRANCH   3   4
ATOM      4  C   UNL     1      -1.126 -16.509  17.687  1.00  0.00     0.000 C 
BRANCH   4   5
ATOM      5  C   UNL     1       0.219 -16.279  18.397  1.00  0.00     0.000 C 
BRANCH   5   6
ATOM      6  C   UNL     1       1.236 -17.397  18.121  1.00  0.00     0.006 C 
BRANCH   6   7
ATOM      7  C   UNL     1       1.214 -18.444  19.238  1.00  0.00     0.053 C 
BRANCH   7   8
ATOM      8  C   UNL     1       0.758 -19.767  18.708  1.00  0.00     0.041 C 
ATOM      9  O   UNL     1      -0.364 -19.871  18.144  1.00  0.00    -0.550 OA
ATOM     10  O   UNL     1       1.592 -20.875  18.792  1.00  0.00    -0.550 OA
ENDBRANCH   7   8
ENDBRANCH   6   7
ENDBRANCH   5   6
ENDBRANCH   4   5
ENDBRANCH   3   4
ENDBRANCH   2   3
ENDBRANCH   1   2
BRANCH   1  11
ATOM     11  C   UNL     1      -4.297 -13.792  15.396  1.00  0.00     0.000 C 
BRANCH  11  12
ATOM     12  C   UNL     1      -4.900 -12.818  16.424  1.00  0.00    -0.000 C 
BRANCH  12  13
ATOM     13  C   UNL     1      -3.828 -12.058  17.227  1.00  0.00    -0.000 C 
BRANCH  13  14
ATOM     14  C   UNL     1      -3.760 -12.412  18.726  1.00  0.00    -0.000 C 
BRANCH  14  15
ATOM     15  C   UNL     1      -5.040 -13.044  19.307  1.00  0.00    -0.000 C 
BRANCH  15  16
ATOM     16  C   UNL     1      -5.873 -12.076  20.175  1.00  0.00    -0.000 C 
BRANCH  16  17
ATOM     17  C   UNL     1      -7.211 -11.703  19.520  1.00  0.00    -0.003 C 
ATOM     18  C   UNL     1      -8.239 -11.287  20.567  1.00  0.00     0.004 C 
ENDBRANCH  16  17
ENDBRANCH  15  16
ENDBRANCH  14  15
ENDBRANCH  13  14
ENDBRANCH  12  13
ENDBRANCH  11  12
ENDBRANCH   1  11
TORSDOF 14
ENDMDL
MODEL 8
REMARK VINA RESULT:    -3.156      3.583      8.323
REMARK INTER + INTRA:          -6.576
REMARK INTER:                  -5.757
REMARK INTRA:                  -0.819
REMARK UNBOUND:                -0.838
REMARK SMILES CCCCCCCCCCCCCCCC(=O)[O-]
REMARK SMILES IDX 9 1 10 2 11 3 12 4 13 5 14 6 15 7 16 8 17 9 18 10 8 11 7 12
REMARK SMILES IDX 6 13 5 14 4 15 3 16 2 17 1 18
REMARK H PARENT
REMARK Flexibility Score: inf
ROOT
ATOM      1  C   UNL     1      -4.681 -13.622  15.242  1.00  0.00     0.000 C 
ENDROOT
BRANCH   1   2
ATOM      2  C   UNL     1      -5.167 -12.172  15.068  1.00  0.00     0.000 C 
BRANCH   2   3
ATOM      3  C   UNL     1      -4.233 -11.345  14.167  1.00  0.00     0.000 C 
BRANCH   3   4
ATOM      4  C   UNL     1      -4.697  -9.885  14.022  1.00  0.00     0.000 C 
BRANCH   4   5
ATOM      5  C   UNL     1      -5.054  -9.520  12.572  1.00  0.00     0.000 C 
BRANCH   5   6
ATOM      6  C   UNL     1      -5.576  -8.081  12.432  1.00  0.00     0.006 C 
BRANCH   6   7
ATOM      7  C   UNL     1      -6.743  -8.016  11.444  1.00  0.00     0.053 C 
BRANCH   7   8
ATOM      8  C   UNL     1      -6.248  -8.146  10.037  1.00  0.00     0.041 C 
ATOM      9  O   UNL     1      -6.455  -9.205   9.388  1.00  0.00    -0.550 OA
ATOM     10  O   UNL     1      -5.601  -7.079   9.427  1.00  0.00    -0.550 OA
ENDBRANCH   7   8
ENDBRANCH   6   7
ENDBRANCH   5   6
ENDBRANCH   4   5
ENDBRANCH   3   4
ENDBRANCH   2   3
ENDBRANCH   1   2
BRANCH   1  11
ATOM     11  C   UNL     1      -3.233 -13.706  15.753  1.00  0.00     0.000 C 
BRANCH  11  12
ATOM     12  C   UNL     1      -3.149 -13.790  17.287  1.00  0.00    -0.000 C 
BRANCH  12  13
ATOM     13  C   UNL     1      -3.431 -12.440  17.975  1.00  0.00    -0.000 C 
BRANCH  13  14
ATOM     14  C   UNL     1      -4.550 -12.468  19.034  1.00  0.00    -0.000 C 
BRANCH  14  15
ATOM     15  C   UNL     1      -5.958 -12.777  18.489  1.00  0.00    -0.000 C 
BRANCH  15  16
ATOM     16  C   UNL     1      -7.014 -11.710  18.849  1.00  0.00    -0.000 C 
BRANCH  16  17
ATOM     17  C   UNL     1      -7.390 -11.735  20.338  1.00  0.00    -0.003 C 
ATOM     18  C   UNL     1      -8.486 -10.719  20.645  1.00  0.00     0.004 C 
ENDBRANCH  16  17
ENDBRANCH  15  16
ENDBRANCH  14  15
ENDBRANCH  13  14
ENDBRANCH  12  13
ENDBRANCH  11  12
ENDBRANCH   1  11
TORSDOF 14
ENDMDL
MODEL 9
REMARK VINA RESULT:    -3.047      3.556      8.555
REMARK INTER + INTRA:          -6.379
REMARK INTER:                  -5.558
REMARK INTRA:                  -0.820
REMARK UNBOUND:                -0.838
REMARK SMILES CCCCCCCCCCCCCCCC(=O)[O-]
REMARK SMILES IDX 9 1 10 2 11 3 12 4 13 5 14 6 15 7 16 8 17 9 18 10 8 11 7 12
REMARK SMILES IDX 6 13 5 14 4 15 3 16 2 17 1 18
REMARK H PARENT
REMARK Flexibility Score: inf
ROOT
ATOM      1  C   UNL     1      -3.565 -11.620  15.063  1.00  0.00     0.000 C 
ENDROOT
BRANCH   1   2
ATOM      2  C   UNL     1      -4.751 -10.957  14.340  1.00  0.00     0.000 C 
BRANCH   2   3
ATOM      3  C   UNL     1      -4.366  -9.618  13.687  1.00  0.00     0.000 C 
BRANCH   3   4
ATOM      4  C   UNL     1      -5.155  -9.347  12.393  1.00  0.00     0.000 C 
BRANCH   4   5
ATOM      5  C   UNL     1      -5.937  -8.024  12.444  1.00  0.00     0.000 C 
BRANCH   5   6
ATOM      6  C   UNL     1      -7.045  -7.947  11.383  1.00  0.00     0.006 C 
BRANCH   6   7
ATOM      7  C   UNL     1      -6.532  -7.284  10.103  1.00  0.00     0.053 C 
BRANCH   7   8
ATOM      8  C   UNL     1      -6.061  -8.318   9.129  1.00  0.00     0.041 C 
ATOM      9  O   UNL     1      -5.256  -8.005   8.212  1.00  0.00    -0.550 OA
ATOM     10  O   UNL     1      -6.474  -9.637   9.263  1.00  0.00    -0.550 OA
ENDBRANCH   7   8
ENDBRANCH   6   7
ENDBRANCH   5   6
ENDBRANCH   4   5
ENDBRANCH   3   4
ENDBRANCH   2   3
ENDBRANCH   1   2
BRANCH   1  11
ATOM     11  C   UNL     1      -3.847 -13.082  15.449  1.00  0.00     0.000 C 
BRANCH  11  12
ATOM     12  C   UNL     1      -5.340 -13.440  15.362  1.00  0.00    -0.000 C 
BRANCH  12  13
ATOM     13  C   UNL     1      -6.040 -13.424  16.734  1.00  0.00    -0.000 C 
BRANCH  13  14
ATOM     14  C   UNL     1      -6.090 -12.047  17.426  1.00  0.00    -0.000 C 
BRANCH  14  15
ATOM     15  C   UNL     1      -6.312 -12.089  18.950  1.00  0.00    -0.000 C 
BRANCH  15  16
ATOM     16  C   UNL     1      -5.053 -12.484  19.752  1.00  0.00    -0.000 C 
BRANCH  16  17
ATOM     17  C   UNL     1      -3.759 -12.292  18.947  1.00  0.00    -0.003 C 
ATOM     18  C   UNL     1      -2.984 -13.600  18.833  1.00  0.00     0.004 C 
ENDBRANCH  16  17
ENDBRANCH  15  16
ENDBRANCH  14  15
ENDBRANCH  13  14
ENDBRANCH  12  13
ENDBRANCH  11  12
ENDBRANCH   1  11
TORSDOF 14
ENDMDL
