MODEL 1
REMARK VINA RESULT:    -4.456      0.000      0.000
REMARK INTER + INTRA:         -10.122
REMARK INTER:                  -8.104
REMARK INTRA:                  -2.018
REMARK UNBOUND:                -2.018
REMARK SMILES CCCCCCCCCCCCCCCC(=O)[O-]
REMARK SMILES IDX 9 1 10 2 11 3 12 4 13 5 14 6 15 7 16 8 17 9 18 10 8 11 7 12
REMARK SMILES IDX 6 13 5 14 4 15 3 16 2 17 1 18
REMARK H PARENT
REMARK Flexibility Score: inf
ROOT
ATOM      1  C   UNL     1     190.030 194.357 193.826  1.00  0.00     0.000 C 
ENDROOT
BRANCH   1   2
ATOM      2  C   UNL     1     190.518 195.693 193.244  1.00  0.00     0.000 C 
BRANCH   2   3
ATOM      3  C   UNL     1     191.135 195.539 191.841  1.00  0.00     0.000 C 
BRANCH   3   4
ATOM      4  C   UNL     1     192.545 194.926 191.883  1.00  0.00     0.000 C 
BRANCH   4   5
ATOM      5  C   UNL     1     192.684 193.705 190.957  1.00  0.00     0.000 C 
BRANCH   5   6
ATOM      6  C   UNL     1     192.309 192.388 191.656  1.00  0.00     0.006 C 
BRANCH   6   7
ATOM      7  C   UNL     1     191.034 191.754 191.082  1.00  0.00     0.053 C 
BRANCH   7   8
ATOM      8  C   UNL     1     190.257 191.075 192.165  1.00  0.00     0.041 C 
ATOM      9  O   UNL     1     189.019 190.886 192.033  1.00  0.00    -0.550 OA
ATOM     10  O   UNL     1     190.890 190.694 193.341  1.00  0.00    -0.550 OA
ENDBRANCH   7   8
ENDBRANCH   6   7
ENDBRANCH   5   6
ENDBRANCH   4   5
ENDBRANCH   3   4
ENDBRANCH   2   3
ENDBRANCH   1   2
BRANCH   1  11
ATOM     11  C   UNL     1     188.544 194.089 193.528  1.00  0.00     0.000 C 
BRANCH  11  12
ATOM     12  C   UNL     1     187.658 194.179 194.785  1.00  0.00    -0.000 C 
BRANCH  12  13
ATOM     13  C   UNL     1     186.470 195.156 194.679  1.00  0.00    -0.000 C 
BRANCH  13  14
ATOM     14  C   UNL     1     186.565 196.407 195.578  1.00  0.00    -0.000 C 
BRANCH  14  15
ATOM     15  C   UNL     1     187.755 197.334 195.275  1.00  0.00    -0.000 C 
BRANCH  15  16
ATOM     16  C   UNL     1     188.574 197.680 196.527  1.00  0.00    -0.000 C 
BRANCH  16  17
ATOM     17  C   UNL     1     189.750 196.711 196.698  1.00  0.00    -0.003 C 
ATOM     18  C   UNL     1     189.487 195.718 197.826  1.00  0.00     0.004 C 
ENDBRANCH  16  17
ENDBRANCH  15  16
ENDBRANCH  14  15
ENDBRANCH  13  14
ENDBRANCH  12  13
ENDBRANCH  11  12
ENDBRANCH   1  11
TORSDOF 14
ENDMDL
MODEL 2
REMARK VINA RESULT:    -4.420      1.323      2.642
REMARK INTER + INTRA:         -10.055
REMARK INTER:                  -8.147
REMARK INTRA:                  -1.908
REMARK UNBOUND:                -2.018
REMARK SMILES CCCCCCCCCCCCCCCC(=O)[O-]
REMARK SMILES IDX 9 1 10 2 11 3 12 4 13 5 14 6 15 7 16 8 17 9 18 10 8 11 7 12
REMARK SMILES IDX 6 13 5 14 4 15 3 16 2 17 1 18
REMARK H PARENT
REMARK Flexibility Score: inf
ROOT
ATOM      1  C   UNL     1     191.619 195.873 192.337  1.00  0.00     0.000 C 
ENDROOT
BRANCH   1   2
ATOM      2  C   UNL     1     191.355 194.672 191.416  1.00  0.00     0.000 C 
BRANCH   2   3
ATOM      3  C   UNL     1     192.584 193.755 191.268  1.00  0.00     0.000 C 
BRANCH   3   4
ATOM      4  C   UNL     1     192.299 192.312 191.715  1.00  0.00     0.000 C 
BRANCH   4   5
ATOM      5  C   UNL     1     190.917 191.816 191.257  1.00  0.00     0.000 C 
BRANCH   5   6
ATOM      6  C   UNL     1     190.090 191.223 192.409  1.00  0.00     0.006 C 
BRANCH   6   7
ATOM      7  C   UNL     1     188.593 191.539 192.290  1.00  0.00     0.053 C 
BRANCH   7   8
ATOM      8  C   UNL     1     187.806 190.278 192.115  1.00  0.00     0.041 C 
ATOM      9  O   UNL     1     187.006 190.159 191.151  1.00  0.00    -0.550 OA
ATOM     10  O   UNL     1     187.921 189.252 193.045  1.00  0.00    -0.550 OA
ENDBRANCH   7   8
ENDBRANCH   6   7
ENDBRANCH   5   6
ENDBRANCH   4   5
ENDBRANCH   3   4
ENDBRANCH   2   3
ENDBRANCH   1   2
BRANCH   1  11
ATOM     11  C   UNL     1     190.582 195.991 193.469  1.00  0.00     0.000 C 
BRANCH  11  12
ATOM     12  C   UNL     1     189.622 194.788 193.525  1.00  0.00    -0.000 C 
BRANCH  12  13
ATOM     13  C   UNL     1     189.492 194.119 194.908  1.00  0.00    -0.000 C 
BRANCH  13  14
ATOM     14  C   UNL     1     188.106 194.251 195.574  1.00  0.00    -0.000 C 
BRANCH  14  15
ATOM     15  C   UNL     1     187.087 195.095 194.788  1.00  0.00    -0.000 C 
BRANCH  15  16
ATOM     16  C   UNL     1     186.672 196.372 195.532  1.00  0.00    -0.000 C 
BRANCH  16  17
ATOM     17  C   UNL     1     187.660 197.513 195.258  1.00  0.00    -0.003 C 
ATOM     18  C   UNL     1     188.556 197.768 196.466  1.00  0.00     0.004 C 
ENDBRANCH  16  17
ENDBRANCH  15  16
ENDBRANCH  14  15
ENDBRANCH  13  14
ENDBRANCH  12  13
ENDBRANCH  11  12
ENDBRANCH   1  11
TORSDOF 14
ENDMDL
MODEL 3
REMARK VINA RESULT:    -4.403      2.785      6.777
REMARK INTER + INTRA:         -10.024
REMARK INTER:                  -8.188
REMARK INTRA:                  -1.836
REMARK UNBOUND:                -2.018
REMARK SMILES CCCCCCCCCCCCCCCC(=O)[O-]
REMARK SMILES IDX 9 1 10 2 11 3 12 4 13 5 14 6 15 7 16 8 17 9 18 10 8 11 7 12
REMARK SMILES IDX 6 13 5 14 4 15 3 16 2 17 1 18
REMARK H PARENT
REMARK Flexibility Score: inf
ROOT
ATOM      1  C   UNL     1     190.073 194.862 194.116  1.00  0.00     0.000 C 
ENDROOT
BRANCH   1   2
ATOM      2  C   UNL     1     188.647 194.339 193.881  1.00  0.00     0.000 C 
BRANCH   2   3
ATOM      3  C   UNL     1     187.811 194.294 195.174  1.00  0.00     0.000 C 
BRANCH   3   4
ATOM      4  C   UNL     1     186.574 195.205 195.107  1.00  0.00     0.000 C 
BRANCH   4   5
ATOM      5  C   UNL     1     186.938 196.698 195.166  1.00  0.00     0.000 C 
BRANCH   5   6
ATOM      6  C   UNL     1     187.752 197.059 196.419  1.00  0.00     0.006 C 
BRANCH   6   7
ATOM      7  C   UNL     1     189.001 197.890 196.096  1.00  0.00     0.053 C 
BRANCH   7   8
ATOM      8  C   UNL     1     190.106 197.562 197.051  1.00  0.00     0.041 C 
ATOM      9  O   UNL     1     190.118 196.456 197.652  1.00  0.00    -0.550 OA
ATOM     10  O   UNL     1     191.098 198.499 197.313  1.00  0.00    -0.550 OA
ENDBRANCH   7   8
ENDBRANCH   6   7
ENDBRANCH   5   6
ENDBRANCH   4   5
ENDBRANCH   3   4
ENDBRANCH   2   3
ENDBRANCH   1   2
BRANCH   1  11
ATOM     11  C   UNL     1     190.401 196.094 193.254  1.00  0.00     0.000 C 
BRANCH  11  12
ATOM     12  C   UNL     1     191.797 196.015 192.608  1.00  0.00    -0.000 C 
BRANCH  12  13
ATOM     13  C   UNL     1     191.849 195.289 191.248  1.00  0.00    -0.000 C 
BRANCH  13  14
ATOM     14  C   UNL     1     192.368 193.837 191.298  1.00  0.00    -0.000 C 
BRANCH  14  15
ATOM     15  C   UNL     1     191.275 192.755 191.252  1.00  0.00    -0.000 C 
BRANCH  15  16
ATOM     16  C   UNL     1     191.723 191.428 191.881  1.00  0.00    -0.000 C 
BRANCH  16  17
ATOM     17  C   UNL     1     190.737 190.975 192.965  1.00  0.00    -0.003 C 
ATOM     18  C   UNL     1     189.313 190.908 192.422  1.00  0.00     0.004 C 
ENDBRANCH  16  17
ENDBRANCH  15  16
ENDBRANCH  14  15
ENDBRANCH  13  14
ENDBRANCH  12  13
ENDBRANCH  11  12
ENDBRANCH   1  11
TORSDOF 14
ENDMDL
MODEL 4
REMARK VINA RESULT:    -4.388      4.379      6.773
REMARK INTER + INTRA:          -9.997
REMARK INTER:                  -8.616
REMARK INTRA:                  -1.381
REMARK UNBOUND:                -2.018
REMARK SMILES CCCCCCCCCCCCCCCC(=O)[O-]
REMARK SMILES IDX 9 1 10 2 11 3 12 4 13 5 14 6 15 7 16 8 17 9 18 10 8 11 7 12
REMARK SMILES IDX 6 13 5 14 4 15 3 16 2 17 1 18
REMARK H PARENT
REMARK Flexibility Score: inf
ROOT
ATOM      1  C   UNL     1     192.725 192.922 191.735  1.00  0.00     0.000 C 
ENDROOT
BRANCH   1   2
ATOM      2  C   UNL     1     192.781 194.187 190.864  1.00  0.00     0.000 C 
BRANCH   2   3
ATOM      3  C   UNL     1     191.637 195.172 191.173  1.00  0.00     0.000 C 
BRANCH   3   4
ATOM      4  C   UNL     1     191.398 195.341 192.683  1.00  0.00     0.000 C 
BRANCH   4   5
ATOM      5  C   UNL     1     190.917 196.756 193.048  1.00  0.00     0.000 C 
BRANCH   5   6
ATOM      6  C   UNL     1     192.045 197.798 192.984  1.00  0.00     0.006 C 
BRANCH   6   7
ATOM      7  C   UNL     1     191.844 198.822 191.859  1.00  0.00     0.053 C 
BRANCH   7   8
ATOM      8  C   UNL     1     192.941 199.839 191.876  1.00  0.00     0.041 C 
ATOM      9  O   UNL     1     193.462 200.191 192.967  1.00  0.00    -0.550 OA
ATOM     10  O   UNL     1     193.357 200.433 190.691  1.00  0.00    -0.550 OA
ENDBRANCH   7   8
ENDBRANCH   6   7
ENDBRANCH   5   6
ENDBRANCH   4   5
ENDBRANCH   3   4
ENDBRANCH   2   3
ENDBRANCH   1   2
BRANCH   1  11
ATOM     11  C   UNL     1     191.649 191.927 191.266  1.00  0.00     0.000 C 
BRANCH  11  12
ATOM     12  C   UNL     1     191.085 191.072 192.416  1.00  0.00    -0.000 C 
BRANCH  12  13
ATOM     13  C   UNL     1     189.546 191.008 192.490  1.00  0.00    -0.000 C 
BRANCH  13  14
ATOM     14  C   UNL     1     188.832 192.375 192.510  1.00  0.00    -0.000 C 
BRANCH  14  15
ATOM     15  C   UNL     1     187.664 192.512 191.518  1.00  0.00    -0.000 C 
BRANCH  15  16
ATOM     16  C   UNL     1     188.132 192.676 190.065  1.00  0.00    -0.000 C 
BRANCH  16  17
ATOM     17  C   UNL     1     187.260 191.850 189.111  1.00  0.00    -0.003 C 
ATOM     18  C   UNL     1     186.551 190.720 189.852  1.00  0.00     0.004 C 
ENDBRANCH  16  17
ENDBRANCH  15  16
ENDBRANCH  14  15
ENDBRANCH  13  14
ENDBRANCH  12  13
ENDBRANCH  11  12
ENDBRANCH   1  11
TORSDOF 14
ENDMDL
MODEL 5
REMARK VINA RESULT:    -4.275      3.150      6.410
REMARK INTER + INTRA:          -9.792
REMARK INTER:                  -8.159
REMARK INTRA:                  -1.633
REMARK UNBOUND:                -2.018
REMARK SMILES CCCCCCCCCCCCCCCC(=O)[O-]
REMARK SMILES IDX 9 1 10 2 11 3 12 4 13 5 14 6 15 7 16 8 17 9 18 10 8 11 7 12
REMARK SMILES IDX 6 13 5 14 4 15 3 16 2 17 1 18
REMARK H PARENT
REMARK Flexibility Score: inf
ROOT
ATOM      1  C   UNL     1     188.629 193.711 193.252  1.00  0.00     0.000 C 
ENDROOT
BRANCH   1   2
ATOM      2  C   UNL     1     189.632 193.556 194.406  1.00  0.00     0.000 C 
BRANCH   2   3
ATOM      3  C   UNL     1     189.202 194.318 195.673  1.00  0.00     0.000 C 
BRANCH   3   4
ATOM      4  C   UNL     1     187.699 194.643 195.682  1.00  0.00     0.000 C 
BRANCH   4   5
ATOM      5  C   UNL     1     187.394 196.003 196.332  1.00  0.00     0.000 C 
BRANCH   5   6
ATOM      6  C   UNL     1     187.638 197.183 195.377  1.00  0.00     0.006 C 
BRANCH   6   7
ATOM      7  C   UNL     1     189.080 197.704 195.435  1.00  0.00     0.053 C 
BRANCH   7   8
ATOM      8  C   UNL     1     189.464 198.021 196.846  1.00  0.00     0.041 C 
ATOM      9  O   UNL     1     189.011 199.052 197.410  1.00  0.00    -0.550 OA
ATOM     10  O   UNL     1     190.361 197.204 197.523  1.00  0.00    -0.550 OA
ENDBRANCH   7   8
ENDBRANCH   6   7
ENDBRANCH   5   6
ENDBRANCH   4   5
ENDBRANCH   3   4
ENDBRANCH   2   3
ENDBRANCH   1   2
BRANCH   1  11
ATOM     11  C   UNL     1     188.986 192.838 192.035  1.00  0.00     0.000 C 
BRANCH  11  12
ATOM     12  C   UNL     1     190.365 192.166 192.168  1.00  0.00    -0.000 C 
BRANCH  12  13
ATOM     13  C   UNL     1     191.412 192.610 191.126  1.00  0.00    -0.000 C 
BRANCH  13  14
ATOM     14  C   UNL     1     192.287 193.810 191.544  1.00  0.00    -0.000 C 
BRANCH  14  15
ATOM     15  C   UNL     1     191.682 195.192 191.241  1.00  0.00    -0.000 C 
BRANCH  15  16
ATOM     16  C   UNL     1     191.452 196.032 192.505  1.00  0.00    -0.000 C 
BRANCH  16  17
ATOM     17  C   UNL     1     191.632 197.526 192.210  1.00  0.00    -0.003 C 
ATOM     18  C   UNL     1     191.232 197.857 190.775  1.00  0.00     0.004 C 
ENDBRANCH  16  17
ENDBRANCH  15  16
ENDBRANCH  14  15
ENDBRANCH  13  14
ENDBRANCH  12  13
ENDBRANCH  11  12
ENDBRANCH   1  11
TORSDOF 14
ENDMDL
MODEL 6
REMARK VINA RESULT:    -4.248      3.779      5.501
REMARK INTER + INTRA:          -9.742
REMARK INTER:                  -8.212
REMARK INTRA:                  -1.529
REMARK UNBOUND:                -2.018
REMARK SMILES CCCCCCCCCCCCCCCC(=O)[O-]
REMARK SMILES IDX 9 1 10 2 11 3 12 4 13 5 14 6 15 7 16 8 17 9 18 10 8 11 7 12
REMARK SMILES IDX 6 13 5 14 4 15 3 16 2 17 1 18
REMARK H PARENT
REMARK Flexibility Score: inf
ROOT
ATOM      1  C   UNL     1     191.382 192.536 190.884  1.00  0.00     0.000 C 
ENDROOT
BRANCH   1   2
ATOM      2  C   UNL     1     192.698 193.293 190.647  1.00  0.00     0.000 C 
BRANCH   2   3
ATOM      3  C   UNL     1     192.887 194.473 191.619  1.00  0.00     0.000 C 
BRANCH   3   4
ATOM      4  C   UNL     1     191.573 195.223 191.896  1.00  0.00     0.000 C 
BRANCH   4   5
ATOM      5  C   UNL     1     191.514 196.588 191.188  1.00  0.00     0.000 C 
BRANCH   5   6
ATOM      6  C   UNL     1     191.581 197.768 192.171  1.00  0.00     0.006 C 
BRANCH   6   7
ATOM      7  C   UNL     1     191.628 199.129 191.463  1.00  0.00     0.053 C 
BRANCH   7   8
ATOM      8  C   UNL     1     192.906 199.838 191.781  1.00  0.00     0.041 C 
ATOM      9  O   UNL     1     193.387 199.789 192.943  1.00  0.00    -0.550 OA
ATOM     10  O   UNL     1     193.543 200.594 190.804  1.00  0.00    -0.550 OA
ENDBRANCH   7   8
ENDBRANCH   6   7
ENDBRANCH   5   6
ENDBRANCH   4   5
ENDBRANCH   3   4
ENDBRANCH   2   3
ENDBRANCH   1   2
BRANCH   1  11
ATOM     11  C   UNL     1     191.534 191.389 191.900  1.00  0.00     0.000 C 
BRANCH  11  12
ATOM     12  C   UNL     1     190.412 191.375 192.955  1.00  0.00    -0.000 C 
BRANCH  12  13
ATOM     13  C   UNL     1     189.087 192.026 192.509  1.00  0.00    -0.000 C 
BRANCH  13  14
ATOM     14  C   UNL     1     188.663 193.272 193.315  1.00  0.00    -0.000 C 
BRANCH  14  15
ATOM     15  C   UNL     1     189.650 193.698 194.416  1.00  0.00    -0.000 C 
BRANCH  15  16
ATOM     16  C   UNL     1     189.105 194.830 195.299  1.00  0.00    -0.000 C 
BRANCH  16  17
ATOM     17  C   UNL     1     189.506 196.201 194.741  1.00  0.00    -0.003 C 
ATOM     18  C   UNL     1     188.653 197.312 195.347  1.00  0.00     0.004 C 
ENDBRANCH  16  17
ENDBRANCH  15  16
ENDBRANCH  14  15
ENDBRANCH  13  14
ENDBRANCH  12  13
ENDBRANCH  11  12
ENDBRANCH   1  11
TORSDOF 14
ENDMDL
MODEL 7
REMARK VINA RESULT:    -4.246      2.849      6.343
REMARK INTER + INTRA:          -9.739
REMARK INTER:                  -7.599
REMARK INTRA:                  -2.140
REMARK UNBOUND:                -2.018
REMARK SMILES CCCCCCCCCCCCCCCC(=O)[O-]
REMARK SMILES IDX 9 1 10 2 11 3 12 4 13 5 14 6 15 7 16 8 17 9 18 10 8 11 7 12
REMARK SMILES IDX 6 13 5 14 4 15 3 16 2 17 1 18
REMARK H PARENT
REMARK Flexibility Score: inf
ROOT
ATOM      1  C   UNL     1     190.791 194.340 191.621  1.00  0.00     0.000 C 
ENDROOT
BRANCH   1   2
ATOM      2  C   UNL     1     191.142 195.145 192.882  1.00  0.00     0.000 C 
BRANCH   2   3
ATOM      3  C   UNL     1     189.907 195.465 193.744  1.00  0.00     0.000 C 
BRANCH   3   4
ATOM      4  C   UNL     1     189.595 194.355 194.761  1.00  0.00     0.000 C 
BRANCH   4   5
ATOM      5  C   UNL     1     188.165 194.451 195.319  1.00  0.00     0.000 C 
BRANCH   5   6
ATOM      6  C   UNL     1     187.383 195.640 194.737  1.00  0.00     0.006 C 
BRANCH   6   7
ATOM      7  C   UNL     1     186.115 195.965 195.538  1.00  0.00     0.053 C 
BRANCH   7   8
ATOM      8  C   UNL     1     184.897 195.520 194.792  1.00  0.00     0.041 C 
ATOM      9  O   UNL     1     183.759 195.613 195.322  1.00  0.00    -0.550 OA
ATOM     10  O   UNL     1     185.024 194.957 193.528  1.00  0.00    -0.550 OA
ENDBRANCH   7   8
ENDBRANCH   6   7
ENDBRANCH   5   6
ENDBRANCH   4   5
ENDBRANCH   3   4
ENDBRANCH   2   3
ENDBRANCH   1   2
BRANCH   1  11
ATOM     11  C   UNL     1     191.850 193.275 191.284  1.00  0.00     0.000 C 
BRANCH  11  12
ATOM     12  C   UNL     1     191.266 191.851 191.226  1.00  0.00    -0.000 C 
BRANCH  12  13
ATOM     13  C   UNL     1     190.562 191.380 192.516  1.00  0.00    -0.000 C 
BRANCH  13  14
ATOM     14  C   UNL     1     189.134 190.829 192.321  1.00  0.00    -0.000 C 
BRANCH  14  15
ATOM     15  C   UNL     1     188.006 191.799 192.716  1.00  0.00    -0.000 C 
BRANCH  15  16
ATOM     16  C   UNL     1     187.525 192.663 191.542  1.00  0.00    -0.000 C 
BRANCH  16  17
ATOM     17  C   UNL     1     187.313 191.811 190.285  1.00  0.00    -0.003 C 
ATOM     18  C   UNL     1     188.057 192.400 189.089  1.00  0.00     0.004 C 
ENDBRANCH  16  17
ENDBRANCH  15  16
ENDBRANCH  14  15
ENDBRANCH  13  14
ENDBRANCH  12  13
ENDBRANCH  11  12
ENDBRANCH   1  11
TORSDOF 14
ENDMDL
MODEL 8
REMARK VINA RESULT:    -4.216      2.609      3.642
REMARK INTER + INTRA:          -9.684
REMARK INTER:                  -7.893
REMARK INTRA:                  -1.791
REMARK UNBOUND:                -2.018
REMARK SMILES CCCCCCCCCCCCCCCC(=O)[O-]
REMARK SMILES IDX 9 1 10 2 11 3 12 4 13 5 14 6 15 7 16 8 17 9 18 10 8 11 7 12
REMARK SMILES IDX 6 13 5 14 4 15 3 16 2 17 1 18
REMARK H PARENT
REMARK Flexibility Score: inf
ROOT
ATOM      1  C   UNL     1     189.987 192.958 193.801  1.00  0.00     0.000 C 
ENDROOT
BRANCH   1   2
ATOM      2  C   UNL     1     189.978 191.952 192.638  1.00  0.00     0.000 C 
BRANCH   2   3
ATOM      3  C   UNL     1     191.390 191.654 192.101  1.00  0.00     0.000 C 
BRANCH   3   4
ATOM      4  C   UNL     1     191.732 192.483 190.852  1.00  0.00     0.000 C 
BRANCH   4   5
ATOM      5  C   UNL     1     192.566 193.732 191.184  1.00  0.00     0.000 C 
BRANCH   5   6
ATOM      6  C   UNL     1     191.713 195.009 191.261  1.00  0.00     0.006 C 
BRANCH   6   7
ATOM      7  C   UNL     1     192.167 195.959 192.378  1.00  0.00     0.053 C 
BRANCH   7   8
ATOM      8  C   UNL     1     191.378 197.229 192.334  1.00  0.00     0.041 C 
ATOM      9  O   UNL     1     190.566 197.503 193.256  1.00  0.00    -0.550 OA
ATOM     10  O   UNL     1     191.505 198.089 191.250  1.00  0.00    -0.550 OA
ENDBRANCH   7   8
ENDBRANCH   6   7
ENDBRANCH   5   6
ENDBRANCH   4   5
ENDBRANCH   3   4
ENDBRANCH   2   3
ENDBRANCH   1   2
BRANCH   1  11
ATOM     11  C   UNL     1     188.987 194.110 193.595  1.00  0.00     0.000 C 
BRANCH  11  12
ATOM     12  C   UNL     1     187.557 193.615 193.310  1.00  0.00    -0.000 C 
BRANCH  12  13
ATOM     13  C   UNL     1     186.438 194.409 194.014  1.00  0.00    -0.000 C 
BRANCH  13  14
ATOM     14  C   UNL     1     186.382 194.248 195.547  1.00  0.00    -0.000 C 
BRANCH  14  15
ATOM     15  C   UNL     1     186.608 195.545 196.345  1.00  0.00    -0.000 C 
BRANCH  15  16
ATOM     16  C   UNL     1     186.940 196.746 195.447  1.00  0.00    -0.000 C 
BRANCH  16  17
ATOM     17  C   UNL     1     188.187 197.480 195.953  1.00  0.00    -0.003 C 
ATOM     18  C   UNL     1     189.220 196.499 196.499  1.00  0.00     0.004 C 
ENDBRANCH  16  17
ENDBRANCH  15  16
ENDBRANCH  14  15
ENDBRANCH  13  14
ENDBRANCH  12  13
ENDBRANCH  11  12
ENDBRANCH   1  11
TORSDOF 14
ENDMDL
MODEL 9
REMARK VINA RESULT:    -4.185      2.222      6.008
REMARK INTER + INTRA:          -9.629
REMARK INTER:                  -7.737
REMARK INTRA:                  -1.892
REMARK UNBOUND:                -2.018
REMARK SMILES CCCCCCCCCCCCCCCC(=O)[O-]
REMARK SMILES IDX 9 1 10 2 11 3 12 4 13 5 14 6 15 7 16 8 17 9 18 10 8 11 7 12
REMARK SMILES IDX 6 13 5 14 4 15 3 16 2 17 1 18
REMARK H PARENT
REMARK Flexibility Score: inf
ROOT
ATOM      1  C   UNL     1     189.177 194.342 193.473  1.00  0.00     0.000 C 
ENDROOT
BRANCH   1   2
ATOM      2  C   UNL     1     189.439 195.142 194.759  1.00  0.00     0.000 C 
BRANCH   2   3
ATOM      3  C   UNL     1     189.237 194.301 196.033  1.00  0.00     0.000 C 
BRANCH   3   4
ATOM      4  C   UNL     1     188.294 194.977 197.041  1.00  0.00     0.000 C 
BRANCH   4   5
ATOM      5  C   UNL     1     187.389 196.034 196.384  1.00  0.00     0.000 C 
BRANCH   5   6
ATOM      6  C   UNL     1     185.904 195.638 196.407  1.00  0.00     0.006 C 
BRANCH   6   7
ATOM      7  C   UNL     1     185.259 195.678 195.015  1.00  0.00     0.053 C 
BRANCH   7   8
ATOM      8  C   UNL     1     185.625 194.455 194.235  1.00  0.00     0.041 C 
ATOM      9  O   UNL     1     185.635 194.485 192.976  1.00  0.00    -0.550 OA
ATOM     10  O   UNL     1     185.910 193.267 194.898  1.00  0.00    -0.550 OA
ENDBRANCH   7   8
ENDBRANCH   6   7
ENDBRANCH   5   6
ENDBRANCH   4   5
ENDBRANCH   3   4
ENDBRANCH   2   3
ENDBRANCH   1   2
BRANCH   1  11
ATOM     11  C   UNL     1     189.896 192.981 193.466  1.00  0.00     0.000 C 
BRANCH  11  12
ATOM     12  C   UNL     1     189.709 192.214 192.143  1.00  0.00    -0.000 C 
BRANCH  12  13
ATOM     13  C   UNL     1     190.811 192.449 191.090  1.00  0.00    -0.000 C 
BRANCH  13  14
ATOM     14  C   UNL     1     192.216 192.731 191.661  1.00  0.00    -0.000 C 
BRANCH  14  15
ATOM     15  C   UNL     1     192.837 194.069 191.223  1.00  0.00    -0.000 C 
BRANCH  15  16
ATOM     16  C   UNL     1     191.806 195.204 191.132  1.00  0.00    -0.000 C 
BRANCH  16  17
ATOM     17  C   UNL     1     192.014 196.224 192.258  1.00  0.00    -0.003 C 
ATOM     18  C   UNL     1     191.101 197.433 192.081  1.00  0.00     0.004 C 
ENDBRANCH  16  17
ENDBRANCH  15  16
ENDBRANCH  14  15
ENDBRANCH  13  14
ENDBRANCH  12  13
ENDBRANCH  11  12
ENDBRANCH   1  11
TORSDOF 14
ENDMDL
