MODEL 1
REMARK VINA RESULT:    -6.189      0.000      0.000
REMARK INTER + INTRA:         -14.129
REMARK INTER:                 -11.616
REMARK INTRA:                  -2.513
REMARK UNBOUND:                -2.513
REMARK SMILES CCCCCCCCC=CCCCCCCCC(=O)[O-]
REMARK SMILES IDX 10 1 9 2 11 3 12 4 13 5 14 6 15 7 16 8 17 9 18 10 19 11
REMARK SMILES IDX 20 12 8 13 7 14 6 15 5 16 4 17 3 18 2 19 1 20
REMARK H PARENT
REMARK Flexibility Score: inf
ROOT
ATOM      1  C   UNL     1     101.852 103.120 109.297  1.00  0.00    -0.031 C 
ATOM      2  C   UNL     1     102.873 103.191 110.172  1.00  0.00    -0.031 C 
ENDROOT
BRANCH   1   3
ATOM      3  C   UNL     1     101.153 104.315 108.696  1.00  0.00     0.027 C 
BRANCH   3   4
ATOM      4  C   UNL     1     101.421 104.433 107.188  1.00  0.00     0.004 C 
BRANCH   4   5
ATOM      5  C   UNL     1     102.815 105.006 106.893  1.00  0.00     0.000 C 
BRANCH   5   6
ATOM      6  C   UNL     1     103.512 104.214 105.779  1.00  0.00     0.000 C 
BRANCH   6   7
ATOM      7  C   UNL     1     103.421 102.702 106.040  1.00  0.00     0.000 C 
BRANCH   7   8
ATOM      8  C   UNL     1     104.777 102.080 106.406  1.00  0.00     0.006 C 
BRANCH   8   9
ATOM      9  C   UNL     1     105.427 101.343 105.228  1.00  0.00     0.053 C 
BRANCH   9  10
ATOM     10  C   UNL     1     104.965  99.921 105.181  1.00  0.00     0.041 C 
ATOM     11  O   UNL     1     105.525  99.048 105.895  1.00  0.00    -0.550 OA
ATOM     12  O   UNL     1     103.886  99.567 104.382  1.00  0.00    -0.550 OA
ENDBRANCH   9  10
ENDBRANCH   8   9
ENDBRANCH   7   8
ENDBRANCH   6   7
ENDBRANCH   5   6
ENDBRANCH   4   5
ENDBRANCH   3   4
ENDBRANCH   1   3
BRANCH   2  13
ATOM     13  C   UNL     1     103.403 104.472 110.770  1.00  0.00     0.027 C 
BRANCH  13  14
ATOM     14  C   UNL     1     104.935 104.544 110.694  1.00  0.00     0.004 C 
BRANCH  14  15
ATOM     15  C   UNL     1     105.488 103.787 109.478  1.00  0.00     0.000 C 
BRANCH  15  16
ATOM     16  C   UNL     1     107.012 103.621 109.580  1.00  0.00     0.000 C 
BRANCH  16  17
ATOM     17  C   UNL     1     107.788 104.694 108.792  1.00  0.00    -0.000 C 
BRANCH  17  18
ATOM     18  C   UNL     1     106.911 105.711 108.040  1.00  0.00    -0.000 C 
BRANCH  18  19
ATOM     19  C   UNL     1     106.835 105.437 106.532  1.00  0.00    -0.003 C 
ATOM     20  C   UNL     1     107.748 104.279 106.137  1.00  0.00     0.004 C 
ENDBRANCH  18  19
ENDBRANCH  17  18
ENDBRANCH  16  17
ENDBRANCH  15  16
ENDBRANCH  14  15
ENDBRANCH  13  14
ENDBRANCH   2  13
TORSDOF 15
ENDMDL
MODEL 2
REMARK VINA RESULT:    -6.072      4.336      6.999
REMARK INTER + INTRA:         -13.910
REMARK INTER:                 -12.140
REMARK INTRA:                  -1.769
REMARK UNBOUND:                -2.513
REMARK SMILES CCCCCCCCC=CCCCCCCCC(=O)[O-]
REMARK SMILES IDX 10 1 9 2 11 3 12 4 13 5 14 6 15 7 16 8 17 9 18 10 19 11
REMARK SMILES IDX 20 12 8 13 7 14 6 15 5 16 4 17 3 18 2 19 1 20
REMARK H PARENT
REMARK Flexibility Score: inf
ROOT
ATOM      1  C   UNL     1     107.369 104.689 106.359  1.00  0.00    -0.031 C 
ATOM      2  C   UNL     1     107.317 105.365 105.195  1.00  0.00    -0.031 C 
ENDROOT
BRANCH   1   3
ATOM      3  C   UNL     1     107.248 105.321 107.724  1.00  0.00     0.027 C 
BRANCH   3   4
ATOM      4  C   UNL     1     107.730 104.376 108.834  1.00  0.00     0.004 C 
BRANCH   4   5
ATOM      5  C   UNL     1     106.575 103.891 109.722  1.00  0.00     0.000 C 
BRANCH   5   6
ATOM      6  C   UNL     1     105.845 105.074 110.370  1.00  0.00     0.000 C 
BRANCH   6   7
ATOM      7  C   UNL     1     104.322 104.872 110.327  1.00  0.00     0.000 C 
BRANCH   7   8
ATOM      8  C   UNL     1     103.720 105.189 108.950  1.00  0.00     0.006 C 
BRANCH   8   9
ATOM      9  C   UNL     1     103.980 106.634 108.507  1.00  0.00     0.053 C 
BRANCH   9  10
ATOM     10  C   UNL     1     103.907 106.746 107.018  1.00  0.00     0.041 C 
ATOM     11  O   UNL     1     103.879 107.878 106.467  1.00  0.00    -0.550 OA
ATOM     12  O   UNL     1     103.914 105.600 106.233  1.00  0.00    -0.550 OA
ENDBRANCH   9  10
ENDBRANCH   8   9
ENDBRANCH   7   8
ENDBRANCH   6   7
ENDBRANCH   5   6
ENDBRANCH   4   5
ENDBRANCH   3   4
ENDBRANCH   1   3
BRANCH   2  13
ATOM     13  C   UNL     1     107.239 106.869 105.079  1.00  0.00     0.027 C 
BRANCH  13  14
ATOM     14  C   UNL     1     106.314 107.304 103.933  1.00  0.00     0.004 C 
BRANCH  14  15
ATOM     15  C   UNL     1     106.218 108.832 103.818  1.00  0.00     0.000 C 
BRANCH  15  16
ATOM     16  C   UNL     1     106.755 109.316 102.463  1.00  0.00     0.000 C 
BRANCH  16  17
ATOM     17  C   UNL     1     106.585 108.275 101.342  1.00  0.00    -0.000 C 
BRANCH  17  18
ATOM     18  C   UNL     1     105.960 108.814 100.042  1.00  0.00    -0.000 C 
BRANCH  18  19
ATOM     19  C   UNL     1     104.635 108.127  99.686  1.00  0.00    -0.003 C 
ATOM     20  C   UNL     1     104.090 107.333 100.871  1.00  0.00     0.004 C 
ENDBRANCH  18  19
ENDBRANCH  17  18
ENDBRANCH  16  17
ENDBRANCH  15  16
ENDBRANCH  14  15
ENDBRANCH  13  14
ENDBRANCH   2  13
TORSDOF 15
ENDMDL
MODEL 3
REMARK VINA RESULT:    -6.057      1.415      4.197
REMARK INTER + INTRA:         -13.881
REMARK INTER:                 -11.470
REMARK INTRA:                  -2.411
REMARK UNBOUND:                -2.513
REMARK SMILES CCCCCCCCC=CCCCCCCCC(=O)[O-]
REMARK SMILES IDX 10 1 9 2 11 3 12 4 13 5 14 6 15 7 16 8 17 9 18 10 19 11
REMARK SMILES IDX 20 12 8 13 7 14 6 15 5 16 4 17 3 18 2 19 1 20
REMARK H PARENT
REMARK Flexibility Score: inf
ROOT
ATOM      1  C   UNL     1     107.699 104.373 108.660  1.00  0.00    -0.031 C 
ATOM      2  C   UNL     1     106.994 103.772 109.638  1.00  0.00    -0.031 C 
ENDROOT
BRANCH   1   3
ATOM      3  C   UNL     1     107.089 105.058 107.461  1.00  0.00     0.027 C 
BRANCH   3   4
ATOM      4  C   UNL     1     107.390 104.301 106.159  1.00  0.00     0.004 C 
BRANCH   4   5
ATOM      5  C   UNL     1     106.107 103.880 105.427  1.00  0.00     0.000 C 
BRANCH   5   6
ATOM      6  C   UNL     1     105.467 102.658 106.098  1.00  0.00     0.000 C 
BRANCH   6   7
ATOM      7  C   UNL     1     105.552 101.423 105.186  1.00  0.00     0.000 C 
BRANCH   7   8
ATOM      8  C   UNL     1     105.253 101.749 103.715  1.00  0.00     0.006 C 
BRANCH   8   9
ATOM      9  C   UNL     1     104.044 100.977 103.171  1.00  0.00     0.053 C 
BRANCH   9  10
ATOM     10  C   UNL     1     102.781 101.472 103.800  1.00  0.00     0.041 C 
ATOM     11  O   UNL     1     102.509 102.701 103.795  1.00  0.00    -0.550 OA
ATOM     12  O   UNL     1     101.880 100.571 104.353  1.00  0.00    -0.550 OA
ENDBRANCH   9  10
ENDBRANCH   8   9
ENDBRANCH   7   8
ENDBRANCH   6   7
ENDBRANCH   5   6
ENDBRANCH   4   5
ENDBRANCH   3   4
ENDBRANCH   1   3
BRANCH   2  13
ATOM     13  C   UNL     1     105.495 103.594 109.631  1.00  0.00     0.027 C 
BRANCH  13  14
ATOM     14  C   UNL     1     104.802 104.577 110.586  1.00  0.00     0.004 C 
BRANCH  14  15
ATOM     15  C   UNL     1     103.311 104.253 110.764  1.00  0.00     0.000 C 
BRANCH  15  16
ATOM     16  C   UNL     1     102.932 102.972 110.006  1.00  0.00     0.000 C 
BRANCH  16  17
ATOM     17  C   UNL     1     101.725 103.161 109.069  1.00  0.00    -0.000 C 
BRANCH  17  18
ATOM     18  C   UNL     1     101.585 104.569 108.463  1.00  0.00    -0.000 C 
BRANCH  18  19
ATOM     19  C   UNL     1     102.361 104.736 107.150  1.00  0.00    -0.003 C 
ATOM     20  C   UNL     1     103.470 105.774 107.294  1.00  0.00     0.004 C 
ENDBRANCH  18  19
ENDBRANCH  17  18
ENDBRANCH  16  17
ENDBRANCH  15  16
ENDBRANCH  14  15
ENDBRANCH  13  14
ENDBRANCH   2  13
TORSDOF 15
ENDMDL
MODEL 4
REMARK VINA RESULT:    -6.045      1.555      2.081
REMARK INTER + INTRA:         -13.859
REMARK INTER:                 -11.225
REMARK INTRA:                  -2.634
REMARK UNBOUND:                -2.513
REMARK SMILES CCCCCCCCC=CCCCCCCCC(=O)[O-]
REMARK SMILES IDX 10 1 9 2 11 3 12 4 13 5 14 6 15 7 16 8 17 9 18 10 19 11
REMARK SMILES IDX 20 12 8 13 7 14 6 15 5 16 4 17 3 18 2 19 1 20
REMARK H PARENT
REMARK Flexibility Score: inf
ROOT
ATOM      1  C   UNL     1     101.148 104.499 108.822  1.00  0.00    -0.031 C 
ATOM      2  C   UNL     1     101.781 105.151 109.816  1.00  0.00    -0.031 C 
ENDROOT
BRANCH   1   3
ATOM      3  C   UNL     1     101.740 103.356 108.034  1.00  0.00     0.027 C 
BRANCH   3   4
ATOM      4  C   UNL     1     102.168 103.797 106.626  1.00  0.00     0.004 C 
BRANCH   4   5
ATOM      5  C   UNL     1     103.692 103.753 106.446  1.00  0.00     0.000 C 
BRANCH   5   6
ATOM      6  C   UNL     1     104.332 102.744 107.408  1.00  0.00     0.000 C 
BRANCH   6   7
ATOM      7  C   UNL     1     105.131 101.681 106.638  1.00  0.00     0.000 C 
BRANCH   7   8
ATOM      8  C   UNL     1     104.502 101.333 105.281  1.00  0.00     0.006 C 
BRANCH   8   9
ATOM      9  C   UNL     1     105.530 101.291 104.143  1.00  0.00     0.053 C 
BRANCH   9  10
ATOM     10  C   UNL     1     104.872 101.581 102.832  1.00  0.00     0.041 C 
ATOM     11  O   UNL     1     105.566 101.727 101.792  1.00  0.00    -0.550 OA
ATOM     12  O   UNL     1     103.487 101.647 102.749  1.00  0.00    -0.550 OA
ENDBRANCH   9  10
ENDBRANCH   8   9
ENDBRANCH   7   8
ENDBRANCH   6   7
ENDBRANCH   5   6
ENDBRANCH   4   5
ENDBRANCH   3   4
ENDBRANCH   1   3
BRANCH   2  13
ATOM     13  C   UNL     1     103.215 104.914 110.222  1.00  0.00     0.027 C 
BRANCH  13  14
ATOM     14  C   UNL     1     104.178 105.859 109.487  1.00  0.00     0.004 C 
BRANCH  14  15
ATOM     15  C   UNL     1     105.595 105.812 110.076  1.00  0.00     0.000 C 
BRANCH  15  16
ATOM     16  C   UNL     1     105.945 104.394 110.552  1.00  0.00     0.000 C 
BRANCH  16  17
ATOM     17  C   UNL     1     107.021 103.716 109.684  1.00  0.00    -0.000 C 
BRANCH  17  18
ATOM     18  C   UNL     1     107.822 104.668 108.777  1.00  0.00    -0.000 C 
BRANCH  18  19
ATOM     19  C   UNL     1     107.636 104.370 107.283  1.00  0.00    -0.003 C 
ATOM     20  C   UNL     1     106.942 105.529 106.573  1.00  0.00     0.004 C 
ENDBRANCH  18  19
ENDBRANCH  17  18
ENDBRANCH  16  17
ENDBRANCH  15  16
ENDBRANCH  14  15
ENDBRANCH  13  14
ENDBRANCH   2  13
TORSDOF 15
ENDMDL
MODEL 5
REMARK VINA RESULT:    -6.039      5.982      8.560
REMARK INTER + INTRA:         -13.847
REMARK INTER:                 -12.407
REMARK INTRA:                  -1.440
REMARK UNBOUND:                -2.513
REMARK SMILES CCCCCCCCC=CCCCCCCCC(=O)[O-]
REMARK SMILES IDX 10 1 9 2 11 3 12 4 13 5 14 6 15 7 16 8 17 9 18 10 19 11
REMARK SMILES IDX 20 12 8 13 7 14 6 15 5 16 4 17 3 18 2 19 1 20
REMARK H PARENT
REMARK Flexibility Score: inf
ROOT
ATOM      1  C   UNL     1     105.875 108.650 104.323  1.00  0.00    -0.031 C 
ATOM      2  C   UNL     1     105.844 109.483 103.265  1.00  0.00    -0.031 C 
ENDROOT
BRANCH   1   3
ATOM      3  C   UNL     1     107.002 107.693 104.627  1.00  0.00     0.027 C 
BRANCH   3   4
ATOM      4  C   UNL     1     106.697 106.275 104.122  1.00  0.00     0.004 C 
BRANCH   4   5
ATOM      5  C   UNL     1     106.206 105.354 105.249  1.00  0.00     0.000 C 
BRANCH   5   6
ATOM      6  C   UNL     1     106.920 105.671 106.569  1.00  0.00     0.000 C 
BRANCH   6   7
ATOM      7  C   UNL     1     107.374 104.382 107.272  1.00  0.00     0.000 C 
BRANCH   7   8
ATOM      8  C   UNL     1     107.848 104.627 108.713  1.00  0.00     0.006 C 
BRANCH   8   9
ATOM      9  C   UNL     1     106.966 103.929 109.755  1.00  0.00     0.053 C 
BRANCH   9  10
ATOM     10  C   UNL     1     105.874 104.843 110.212  1.00  0.00     0.041 C 
ATOM     11  O   UNL     1     104.809 104.370 110.689  1.00  0.00    -0.550 OA
ATOM     12  O   UNL     1     106.049 106.220 110.154  1.00  0.00    -0.550 OA
ENDBRANCH   9  10
ENDBRANCH   8   9
ENDBRANCH   7   8
ENDBRANCH   6   7
ENDBRANCH   5   6
ENDBRANCH   4   5
ENDBRANCH   3   4
ENDBRANCH   1   3
BRANCH   2  13
ATOM     13  C   UNL     1     106.876 109.510 102.164  1.00  0.00     0.027 C 
BRANCH  13  14
ATOM     14  C   UNL     1     106.248 109.241 100.788  1.00  0.00     0.004 C 
BRANCH  14  15
ATOM     15  C   UNL     1     105.747 107.795 100.656  1.00  0.00     0.000 C 
BRANCH  15  16
ATOM     16  C   UNL     1     104.281 107.761 100.197  1.00  0.00     0.000 C 
BRANCH  16  17
ATOM     17  C   UNL     1     103.921 108.918  99.247  1.00  0.00    -0.000 C 
BRANCH  17  18
ATOM     18  C   UNL     1     103.988 108.576  97.748  1.00  0.00    -0.000 C 
BRANCH  18  19
ATOM     19  C   UNL     1     105.176 109.236  97.035  1.00  0.00    -0.003 C 
ATOM     20  C   UNL     1     105.499 110.596  97.650  1.00  0.00     0.004 C 
ENDBRANCH  18  19
ENDBRANCH  17  18
ENDBRANCH  16  17
ENDBRANCH  15  16
ENDBRANCH  14  15
ENDBRANCH  13  14
ENDBRANCH   2  13
TORSDOF 15
ENDMDL
MODEL 6
REMARK VINA RESULT:    -6.031      4.412      7.565
REMARK INTER + INTRA:         -13.832
REMARK INTER:                 -11.405
REMARK INTRA:                  -2.426
REMARK UNBOUND:                -2.513
REMARK SMILES CCCCCCCCC=CCCCCCCCC(=O)[O-]
REMARK SMILES IDX 10 1 9 2 11 3 12 4 13 5 14 6 15 7 16 8 17 9 18 10 19 11
REMARK SMILES IDX 20 12 8 13 7 14 6 15 5 16 4 17 3 18 2 19 1 20
REMARK H PARENT
REMARK Flexibility Score: inf
ROOT
ATOM      1  C   UNL     1     102.761 100.176 104.378  1.00  0.00    -0.031 C 
ATOM      2  C   UNL     1     102.959  99.504 103.228  1.00  0.00    -0.031 C 
ENDROOT
BRANCH   1   3
ATOM      3  C   UNL     1     101.519 100.969 104.705  1.00  0.00     0.027 C 
BRANCH   3   4
ATOM      4  C   UNL     1     101.824 102.466 104.861  1.00  0.00     0.004 C 
BRANCH   4   5
ATOM      5  C   UNL     1     102.512 103.048 103.616  1.00  0.00     0.000 C 
BRANCH   5   6
ATOM      6  C   UNL     1     103.778 103.825 103.999  1.00  0.00     0.000 C 
BRANCH   6   7
ATOM      7  C   UNL     1     105.010 102.906 103.993  1.00  0.00     0.000 C 
BRANCH   7   8
ATOM      8  C   UNL     1     105.790 102.950 105.315  1.00  0.00     0.006 C 
BRANCH   8   9
ATOM      9  C   UNL     1     105.174 102.054 106.397  1.00  0.00     0.053 C 
BRANCH   9  10
ATOM     10  C   UNL     1     104.819 102.862 107.605  1.00  0.00     0.041 C 
ATOM     11  O   UNL     1     103.708 103.452 107.670  1.00  0.00    -0.550 OA
ATOM     12  O   UNL     1     105.696 102.929 108.679  1.00  0.00    -0.550 OA
ENDBRANCH   9  10
ENDBRANCH   8   9
ENDBRANCH   7   8
ENDBRANCH   6   7
ENDBRANCH   5   6
ENDBRANCH   4   5
ENDBRANCH   3   4
ENDBRANCH   1   3
BRANCH   2  13
ATOM     13  C   UNL     1     102.021  99.530 102.046  1.00  0.00     0.027 C 
BRANCH  13  14
ATOM     14  C   UNL     1     102.575 100.387 100.899  1.00  0.00     0.004 C 
BRANCH  14  15
ATOM     15  C   UNL     1     104.049 100.758 101.116  1.00  0.00     0.000 C 
BRANCH  15  16
ATOM     16  C   UNL     1     104.572 101.630  99.964  1.00  0.00     0.000 C 
BRANCH  16  17
ATOM     17  C   UNL     1     104.312 101.015  98.577  1.00  0.00    -0.000 C 
BRANCH  17  18
ATOM     18  C   UNL     1     105.432 100.100  98.050  1.00  0.00    -0.000 C 
BRANCH  18  19
ATOM     19  C   UNL     1     105.053  98.613  98.076  1.00  0.00    -0.003 C 
ATOM     20  C   UNL     1     103.548  98.425  97.900  1.00  0.00     0.004 C 
ENDBRANCH  18  19
ENDBRANCH  17  18
ENDBRANCH  16  17
ENDBRANCH  15  16
ENDBRANCH  14  15
ENDBRANCH  13  14
ENDBRANCH   2  13
TORSDOF 15
ENDMDL
MODEL 7
REMARK VINA RESULT:    -6.029      4.404      7.663
REMARK INTER + INTRA:         -13.828
REMARK INTER:                 -12.620
REMARK INTRA:                  -1.208
REMARK UNBOUND:                -2.513
REMARK SMILES CCCCCCCCC=CCCCCCCCC(=O)[O-]
REMARK SMILES IDX 10 1 9 2 11 3 12 4 13 5 14 6 15 7 16 8 17 9 18 10 19 11
REMARK SMILES IDX 20 12 8 13 7 14 6 15 5 16 4 17 3 18 2 19 1 20
REMARK H PARENT
REMARK Flexibility Score: inf
ROOT
ATOM      1  C   UNL     1     101.965 101.808 104.870  1.00  0.00    -0.031 C 
ATOM      2  C   UNL     1     102.064 100.556 104.384  1.00  0.00    -0.031 C 
ENDROOT
BRANCH   1   3
ATOM      3  C   UNL     1     102.676 103.009 104.296  1.00  0.00     0.027 C 
BRANCH   3   4
ATOM      4  C   UNL     1     102.482 104.257 105.170  1.00  0.00     0.004 C 
BRANCH   4   5
ATOM      5  C   UNL     1     102.518 103.924 106.669  1.00  0.00     0.000 C 
BRANCH   5   6
ATOM      6  C   UNL     1     101.351 104.589 107.410  1.00  0.00     0.000 C 
BRANCH   6   7
ATOM      7  C   UNL     1     101.223 104.040 108.840  1.00  0.00     0.000 C 
BRANCH   7   8
ATOM      8  C   UNL     1     102.558 103.523 109.399  1.00  0.00     0.006 C 
BRANCH   8   9
ATOM      9  C   UNL     1     103.086 104.377 110.558  1.00  0.00     0.053 C 
BRANCH   9  10
ATOM     10  C   UNL     1     104.499 104.794 110.298  1.00  0.00     0.041 C 
ATOM     11  O   UNL     1     105.448 103.999 110.529  1.00  0.00    -0.550 OA
ATOM     12  O   UNL     1     104.766 106.046 109.759  1.00  0.00    -0.550 OA
ENDBRANCH   9  10
ENDBRANCH   8   9
ENDBRANCH   7   8
ENDBRANCH   6   7
ENDBRANCH   5   6
ENDBRANCH   4   5
ENDBRANCH   3   4
ENDBRANCH   1   3
BRANCH   2  13
ATOM     13  C   UNL     1     102.983 100.142 103.260  1.00  0.00     0.027 C 
BRANCH  13  14
ATOM     14  C   UNL     1     102.210  99.488 102.105  1.00  0.00     0.004 C 
BRANCH  14  15
ATOM     15  C   UNL     1     102.380 100.259 100.787  1.00  0.00     0.000 C 
BRANCH  15  16
ATOM     16  C   UNL     1     103.747 100.958 100.732  1.00  0.00     0.000 C 
BRANCH  16  17
ATOM     17  C   UNL     1     104.347 100.994  99.314  1.00  0.00    -0.000 C 
BRANCH  17  18
ATOM     18  C   UNL     1     105.603 100.126  99.117  1.00  0.00    -0.000 C 
BRANCH  18  19
ATOM     19  C   UNL     1     105.427  99.057  98.029  1.00  0.00    -0.003 C 
ATOM     20  C   UNL     1     103.950  98.781  97.763  1.00  0.00     0.004 C 
ENDBRANCH  18  19
ENDBRANCH  17  18
ENDBRANCH  16  17
ENDBRANCH  15  16
ENDBRANCH  14  15
ENDBRANCH  13  14
ENDBRANCH   2  13
TORSDOF 15
ENDMDL
MODEL 8
REMARK VINA RESULT:    -5.978      3.243      4.356
REMARK INTER + INTRA:         -13.733
REMARK INTER:                 -11.500
REMARK INTRA:                  -2.233
REMARK UNBOUND:                -2.513
REMARK SMILES CCCCCCCCC=CCCCCCCCC(=O)[O-]
REMARK SMILES IDX 10 1 9 2 11 3 12 4 13 5 14 6 15 7 16 8 17 9 18 10 19 11
REMARK SMILES IDX 20 12 8 13 7 14 6 15 5 16 4 17 3 18 2 19 1 20
REMARK H PARENT
REMARK Flexibility Score: inf
ROOT
ATOM      1  C   UNL     1     101.787 104.298 107.496  1.00  0.00    -0.031 C 
ATOM      2  C   UNL     1     101.470 104.555 108.779  1.00  0.00    -0.031 C 
ENDROOT
BRANCH   1   3
ATOM      3  C   UNL     1     103.152 104.516 106.889  1.00  0.00     0.027 C 
BRANCH   3   4
ATOM      4  C   UNL     1     103.238 105.857 106.146  1.00  0.00     0.004 C 
BRANCH   4   5
ATOM      5  C   UNL     1     104.006 106.915 106.953  1.00  0.00     0.000 C 
BRANCH   5   6
ATOM      6  C   UNL     1     103.853 108.305 106.323  1.00  0.00     0.000 C 
BRANCH   6   7
ATOM      7  C   UNL     1     103.913 108.223 104.789  1.00  0.00     0.000 C 
BRANCH   7   8
ATOM      8  C   UNL     1     105.061 109.053 104.195  1.00  0.00     0.006 C 
BRANCH   8   9
ATOM      9  C   UNL     1     106.014 108.215 103.333  1.00  0.00     0.053 C 
BRANCH   9  10
ATOM     10  C   UNL     1     106.548 107.059 104.117  1.00  0.00     0.041 C 
ATOM     11  O   UNL     1     107.346 107.254 105.071  1.00  0.00    -0.550 OA
ATOM     12  O   UNL     1     106.131 105.767 103.823  1.00  0.00    -0.550 OA
ENDBRANCH   9  10
ENDBRANCH   8   9
ENDBRANCH   7   8
ENDBRANCH   6   7
ENDBRANCH   5   6
ENDBRANCH   4   5
ENDBRANCH   3   4
ENDBRANCH   1   3
BRANCH   2  13
ATOM     13  C   UNL     1     102.399 105.201 109.779  1.00  0.00     0.027 C 
BRANCH  13  14
ATOM     14  C   UNL     1     103.079 104.160 110.680  1.00  0.00     0.004 C 
BRANCH  14  15
ATOM     15  C   UNL     1     104.468 103.765 110.158  1.00  0.00     0.000 C 
BRANCH  15  16
ATOM     16  C   UNL     1     105.549 104.710 110.705  1.00  0.00     0.000 C 
BRANCH  16  17
ATOM     17  C   UNL     1     105.989 105.776 109.684  1.00  0.00    -0.000 C 
BRANCH  17  18
ATOM     18  C   UNL     1     107.468 105.706 109.264  1.00  0.00    -0.000 C 
BRANCH  18  19
ATOM     19  C   UNL     1     107.807 104.434 108.474  1.00  0.00    -0.003 C 
ATOM     20  C   UNL     1     107.086 104.415 107.128  1.00  0.00     0.004 C 
ENDBRANCH  18  19
ENDBRANCH  17  18
ENDBRANCH  16  17
ENDBRANCH  15  16
ENDBRANCH  14  15
ENDBRANCH  13  14
ENDBRANCH   2  13
TORSDOF 15
ENDMDL
MODEL 9
REMARK VINA RESULT:    -5.971      2.394      3.304
REMARK INTER + INTRA:         -13.720
REMARK INTER:                 -11.419
REMARK INTRA:                  -2.301
REMARK UNBOUND:                -2.513
REMARK SMILES CCCCCCCCC=CCCCCCCCC(=O)[O-]
REMARK SMILES IDX 10 1 9 2 11 3 12 4 13 5 14 6 15 7 16 8 17 9 18 10 19 11
REMARK SMILES IDX 20 12 8 13 7 14 6 15 5 16 4 17 3 18 2 19 1 20
REMARK H PARENT
REMARK Flexibility Score: inf
ROOT
ATOM      1  C   UNL     1     101.259 104.372 107.784  1.00  0.00    -0.031 C 
ATOM      2  C   UNL     1     101.377 104.389 109.126  1.00  0.00    -0.031 C 
ENDROOT
BRANCH   1   3
ATOM      3  C   UNL     1     102.204 105.063 106.831  1.00  0.00     0.027 C 
BRANCH   3   4
ATOM      4  C   UNL     1     102.255 104.357 105.468  1.00  0.00     0.004 C 
BRANCH   4   5
ATOM      5  C   UNL     1     102.098 102.835 105.600  1.00  0.00     0.000 C 
BRANCH   5   6
ATOM      6  C   UNL     1     102.158 102.154 104.227  1.00  0.00     0.000 C 
BRANCH   6   7
ATOM      7  C   UNL     1     101.956 100.636 104.357  1.00  0.00     0.000 C 
BRANCH   7   8
ATOM      8  C   UNL     1     102.867  99.833 103.417  1.00  0.00     0.006 C 
BRANCH   8   9
ATOM      9  C   UNL     1     102.177  99.457 102.100  1.00  0.00     0.053 C 
BRANCH   9  10
ATOM     10  C   UNL     1     102.860 100.117 100.945  1.00  0.00     0.041 C 
ATOM     11  O   UNL     1     103.531 101.168 101.120  1.00  0.00    -0.550 OA
ATOM     12  O   UNL     1     102.792  99.548  99.679  1.00  0.00    -0.550 OA
ENDBRANCH   9  10
ENDBRANCH   8   9
ENDBRANCH   7   8
ENDBRANCH   6   7
ENDBRANCH   5   6
ENDBRANCH   4   5
ENDBRANCH   3   4
ENDBRANCH   1   3
BRANCH   2  13
ATOM     13  C   UNL     1     102.407 105.190 109.886  1.00  0.00     0.027 C 
BRANCH  13  14
ATOM     14  C   UNL     1     103.250 104.300 110.811  1.00  0.00     0.004 C 
BRANCH  14  15
ATOM     15  C   UNL     1     104.741 104.338 110.448  1.00  0.00     0.000 C 
BRANCH  15  16
ATOM     16  C   UNL     1     104.955 103.993 108.966  1.00  0.00     0.000 C 
BRANCH  16  17
ATOM     17  C   UNL     1     104.652 102.518 108.642  1.00  0.00    -0.000 C 
BRANCH  17  18
ATOM     18  C   UNL     1     105.096 102.054 107.244  1.00  0.00    -0.000 C 
BRANCH  18  19
ATOM     19  C   UNL     1     105.757 103.171 106.424  1.00  0.00    -0.003 C 
ATOM     20  C   UNL     1     105.788 102.818 104.939  1.00  0.00     0.004 C 
ENDBRANCH  18  19
ENDBRANCH  17  18
ENDBRANCH  16  17
ENDBRANCH  15  16
ENDBRANCH  14  15
ENDBRANCH  13  14
ENDBRANCH   2  13
TORSDOF 15
ENDMDL
