MODEL 1
REMARK VINA RESULT:    -7.581      0.000      0.000
REMARK INTER + INTRA:         -13.058
REMARK INTER:                 -11.791
REMARK INTRA:                  -1.268
REMARK UNBOUND:                -1.268
REMARK SMILES C[C@]12C[C@]3(O)O[C@H](O1)[C@@]1(COC(=O)c4ccccc4)[C@@H]3C[C@]12O[C@@H]1O[C@H](CO)[C@@H](O)[C@H](O)[C@H]1O
REMARK SMILES IDX 1 1 2 2 3 3 4 4 20 5 21 6 22 7 9 8 7 9 8 10 6 11 23 12 24 13
REMARK SMILES IDX 33 14 25 15 31 16 26 17 29 18 34 19 32 21 27 23 28 24 30 26
REMARK SMILES IDX 5 28 10 30 11 31 12 32 13 33 14 34 15 35 19 36 16 37 18 38
REMARK SMILES IDX 17 39
REMARK H PARENT 34 20 32 22 28 25 30 27 5 29
REMARK Flexibility Score: inf
ROOT
ATOM      1  C   UNL     1       6.739   4.049  20.740  1.00  0.00     0.046 C 
ATOM      2  C   UNL     1       6.202   5.490  20.660  1.00  0.00     0.104 C 
ATOM      3  C   UNL     1       7.054   6.486  21.528  1.00  0.00     0.104 C 
ATOM      4  C   UNL     1       6.372   7.874  21.250  1.00  0.00     0.175 C 
ATOM      5  C   UNL     1       6.205   8.092  19.716  1.00  0.00     0.070 C 
ATOM      6  C   UNL     1       7.084   7.150  18.861  1.00  0.00     0.050 C 
ATOM      7  C   UNL     1       6.042   6.054  19.194  1.00  0.00     0.115 C 
ATOM      8  C   UNL     1       5.030   7.150  19.502  1.00  0.00     0.096 C 
ATOM      9  C   UNL     1       4.446   6.851  20.868  1.00  0.00     0.267 C 
ATOM     10  O   UNL     1       4.896   5.547  21.195  1.00  0.00    -0.342 OA
ATOM     11  O   UNL     1       5.058   7.780  21.747  1.00  0.00    -0.320 OA
ENDROOT
BRANCH   7  12
ATOM     12  O   UNL     1       5.505   5.108  18.267  1.00  0.00    -0.339 OA
BRANCH  12  13
ATOM     13  C   UNL     1       6.384   4.164  17.682  1.00  0.00     0.282 C 
ATOM     14  C   UNL     1       5.742   2.759  17.593  1.00  0.00     0.202 C 
ATOM     15  O   UNL     1       6.727   4.626  16.382  1.00  0.00    -0.341 OA
ATOM     16  C   UNL     1       4.712   2.642  16.427  1.00  0.00     0.179 C 
ATOM     17  C   UNL     1       5.612   4.832  15.521  1.00  0.00     0.178 C 
ATOM     18  C   UNL     1       4.315   4.030  15.904  1.00  0.00     0.177 C 
BRANCH  14  19
ATOM     19  O   UNL     1       6.741   1.776  17.443  1.00  0.00    -0.385 OA
ATOM     20  H   UNL     1       7.202   1.715  18.319  1.00  0.00     0.211 HD
ENDBRANCH  14  19
BRANCH  16  21
ATOM     21  O   UNL     1       3.570   1.933  16.846  1.00  0.00    -0.387 OA
ATOM     22  H   UNL     1       3.367   2.279  17.769  1.00  0.00     0.211 HD
ENDBRANCH  16  21
BRANCH  17  23
ATOM     23  C   UNL     1       5.339   6.336  15.407  1.00  0.00     0.191 C 
BRANCH  23  24
ATOM     24  O   UNL     1       3.981   6.575  15.148  1.00  0.00    -0.394 OA
ATOM     25  H   UNL     1       3.942   6.911  14.217  1.00  0.00     0.210 HD
ENDBRANCH  23  24
ENDBRANCH  17  23
BRANCH  18  26
ATOM     26  O   UNL     1       3.397   3.895  14.850  1.00  0.00    -0.387 OA
ATOM     27  H   UNL     1       2.475   4.066  15.186  1.00  0.00     0.211 HD
ENDBRANCH  18  26
ENDBRANCH  12  13
ENDBRANCH   7  12
BRANCH   4  28
ATOM     28  O   UNL     1       7.069   8.944  21.829  1.00  0.00    -0.365 OA
ATOM     29  H   UNL     1       7.925   8.577  22.172  1.00  0.00     0.214 HD
ENDBRANCH   4  28
BRANCH   8  30
ATOM     30  C   UNL     1       4.020   7.564  18.403  1.00  0.00     0.249 C 
BRANCH  30  31
ATOM     31  O   UNL     1       2.724   7.824  18.966  1.00  0.00    -0.461 OA
BRANCH  31  32
ATOM     32  C   UNL     1       1.662   8.415  18.277  1.00  0.00     0.338 C 
ATOM     33  O   UNL     1       1.765   9.632  17.967  1.00  0.00    -0.246 OA
BRANCH  32  34
ATOM     34  C   UNL     1       0.405   7.689  17.963  1.00  0.00     0.060 A 
ATOM     35  C   UNL     1      -0.707   7.767  18.819  1.00  0.00     0.015 A 
ATOM     36  C   UNL     1       0.396   6.774  16.895  1.00  0.00     0.015 A 
ATOM     37  C   UNL     1      -1.724   6.808  18.725  1.00  0.00     0.001 A 
ATOM     38  C   UNL     1      -0.660   5.859  16.765  1.00  0.00     0.001 A 
ATOM     39  C   UNL     1      -1.720   5.876  17.683  1.00  0.00     0.000 A 
ENDBRANCH  32  34
ENDBRANCH  31  32
ENDBRANCH  30  31
ENDBRANCH   8  30
TORSDOF 12
ENDMDL
MODEL 2
REMARK VINA RESULT:    -7.395      1.044      1.582
REMARK INTER + INTRA:         -12.770
REMARK INTER:                 -11.366
REMARK INTRA:                  -1.404
REMARK UNBOUND:                -1.268
REMARK SMILES C[C@]12C[C@]3(O)O[C@H](O1)[C@@]1(COC(=O)c4ccccc4)[C@@H]3C[C@]12O[C@@H]1O[C@H](CO)[C@@H](O)[C@H](O)[C@H]1O
REMARK SMILES IDX 1 1 2 2 3 3 4 4 20 5 21 6 22 7 9 8 7 9 8 10 6 11 23 12 24 13
REMARK SMILES IDX 33 14 25 15 31 16 26 17 29 18 34 19 32 21 27 23 28 24 30 26
REMARK SMILES IDX 5 28 10 30 11 31 12 32 13 33 14 34 15 35 19 36 16 37 18 38
REMARK SMILES IDX 17 39
REMARK H PARENT 34 20 32 22 28 25 30 27 5 29
REMARK Flexibility Score: inf
ROOT
ATOM      1  C   UNL     1       6.612   3.939  20.760  1.00  0.00     0.046 C 
ATOM      2  C   UNL     1       6.191   5.419  20.702  1.00  0.00     0.104 C 
ATOM      3  C   UNL     1       7.069   6.317  21.647  1.00  0.00     0.104 C 
ATOM      4  C   UNL     1       6.512   7.763  21.383  1.00  0.00     0.175 C 
ATOM      5  C   UNL     1       6.446   8.039  19.850  1.00  0.00     0.070 C 
ATOM      6  C   UNL     1       7.295   7.059  19.010  1.00  0.00     0.050 C 
ATOM      7  C   UNL     1       6.156   6.038  19.250  1.00  0.00     0.115 C 
ATOM      8  C   UNL     1       5.215   7.200  19.542  1.00  0.00     0.096 C 
ATOM      9  C   UNL     1       4.537   6.906  20.866  1.00  0.00     0.267 C 
ATOM     10  O   UNL     1       4.866   5.562  21.170  1.00  0.00    -0.342 OA
ATOM     11  O   UNL     1       5.169   7.757  21.807  1.00  0.00    -0.320 OA
ENDROOT
BRANCH   7  12
ATOM     12  O   UNL     1       5.599   5.165  18.264  1.00  0.00    -0.339 OA
BRANCH  12  13
ATOM     13  C   UNL     1       6.441   4.191  17.674  1.00  0.00     0.282 C 
ATOM     14  C   UNL     1       5.766   2.799  17.629  1.00  0.00     0.202 C 
ATOM     15  O   UNL     1       6.758   4.622  16.356  1.00  0.00    -0.341 OA
ATOM     16  C   UNL     1       4.703   2.684  16.494  1.00  0.00     0.179 C 
ATOM     17  C   UNL     1       5.624   4.837  15.522  1.00  0.00     0.178 C 
ATOM     18  C   UNL     1       4.321   4.071  15.955  1.00  0.00     0.177 C 
BRANCH  14  19
ATOM     19  O   UNL     1       6.739   1.793  17.470  1.00  0.00    -0.385 OA
ATOM     20  H   UNL     1       6.270   1.015  17.069  1.00  0.00     0.211 HD
ENDBRANCH  14  19
BRANCH  16  21
ATOM     21  O   UNL     1       3.557   2.008  16.957  1.00  0.00    -0.387 OA
ATOM     22  H   UNL     1       2.783   2.608  16.722  1.00  0.00     0.211 HD
ENDBRANCH  16  21
BRANCH  17  23
ATOM     23  C   UNL     1       5.381   6.345  15.387  1.00  0.00     0.191 C 
BRANCH  23  24
ATOM     24  O   UNL     1       4.044   6.602  15.050  1.00  0.00    -0.394 OA
ATOM     25  H   UNL     1       3.813   5.939  14.350  1.00  0.00     0.210 HD
ENDBRANCH  23  24
ENDBRANCH  17  23
BRANCH  18  26
ATOM     26  O   UNL     1       3.372   3.937  14.930  1.00  0.00    -0.387 OA
ATOM     27  H   UNL     1       3.527   4.637  14.237  1.00  0.00     0.211 HD
ENDBRANCH  18  26
ENDBRANCH  12  13
ENDBRANCH   7  12
BRANCH   4  28
ATOM     28  O   UNL     1       7.256   8.757  22.033  1.00  0.00    -0.365 OA
ATOM     29  H   UNL     1       8.057   8.928  21.473  1.00  0.00     0.214 HD
ENDBRANCH   4  28
BRANCH   8  30
ATOM     30  C   UNL     1       4.301   7.725  18.407  1.00  0.00     0.249 C 
BRANCH  30  31
ATOM     31  O   UNL     1       2.918   7.467  18.700  1.00  0.00    -0.461 OA
BRANCH  31  32
ATOM     32  C   UNL     1       1.855   7.775  17.846  1.00  0.00     0.338 C 
ATOM     33  O   UNL     1       1.804   7.186  16.733  1.00  0.00    -0.246 OA
BRANCH  32  34
ATOM     34  C   UNL     1       0.838   8.807  18.170  1.00  0.00     0.060 A 
ATOM     35  C   UNL     1      -0.477   8.443  18.507  1.00  0.00     0.015 A 
ATOM     36  C   UNL     1       1.151  10.162  17.959  1.00  0.00     0.015 A 
ATOM     37  C   UNL     1      -1.500   9.399  18.438  1.00  0.00     0.001 A 
ATOM     38  C   UNL     1       0.131  11.125  17.958  1.00  0.00     0.001 A 
ATOM     39  C   UNL     1      -1.197  10.741  18.197  1.00  0.00     0.000 A 
ENDBRANCH  32  34
ENDBRANCH  31  32
ENDBRANCH  30  31
ENDBRANCH   8  30
TORSDOF 12
ENDMDL
MODEL 3
REMARK VINA RESULT:    -6.443      1.758      5.252
REMARK INTER + INTRA:         -11.289
REMARK INTER:                 -10.019
REMARK INTRA:                  -1.270
REMARK UNBOUND:                -1.268
REMARK SMILES C[C@]12C[C@]3(O)O[C@H](O1)[C@@]1(COC(=O)c4ccccc4)[C@@H]3C[C@]12O[C@@H]1O[C@H](CO)[C@@H](O)[C@H](O)[C@H]1O
REMARK SMILES IDX 1 1 2 2 3 3 4 4 20 5 21 6 22 7 9 8 7 9 8 10 6 11 23 12 24 13
REMARK SMILES IDX 33 14 25 15 31 16 26 17 29 18 34 19 32 21 27 23 28 24 30 26
REMARK SMILES IDX 5 28 10 30 11 31 12 32 13 33 14 34 15 35 19 36 16 37 18 38
REMARK SMILES IDX 17 39
REMARK H PARENT 34 20 32 22 28 25 30 27 5 29
REMARK Flexibility Score: inf
ROOT
ATOM      1  C   UNL     1       7.517   5.811  16.136  1.00  0.00     0.046 C 
ATOM      2  C   UNL     1       6.016   5.559  16.370  1.00  0.00     0.104 C 
ATOM      3  C   UNL     1       5.633   4.050  16.159  1.00  0.00     0.104 C 
ATOM      4  C   UNL     1       4.100   4.020  16.503  1.00  0.00     0.175 C 
ATOM      5  C   UNL     1       3.843   4.728  17.867  1.00  0.00     0.070 C 
ATOM      6  C   UNL     1       5.120   4.900  18.722  1.00  0.00     0.050 C 
ATOM      7  C   UNL     1       5.472   6.064  17.763  1.00  0.00     0.115 C 
ATOM      8  C   UNL     1       3.999   6.163  17.388  1.00  0.00     0.096 C 
ATOM      9  C   UNL     1       3.919   6.135  15.874  1.00  0.00     0.267 C 
ATOM     10  O   UNL     1       5.254   6.277  15.421  1.00  0.00    -0.342 OA
ATOM     11  O   UNL     1       3.461   4.834  15.548  1.00  0.00    -0.320 OA
ENDROOT
BRANCH   7  12
ATOM     12  O   UNL     1       5.986   7.339  18.156  1.00  0.00    -0.339 OA
BRANCH  12  13
ATOM     13  C   UNL     1       7.389   7.496  18.262  1.00  0.00     0.282 C 
ATOM     14  C   UNL     1       7.824   8.960  18.013  1.00  0.00     0.202 C 
ATOM     15  O   UNL     1       7.782   7.087  19.566  1.00  0.00    -0.341 OA
ATOM     16  C   UNL     1       7.547   9.886  19.237  1.00  0.00     0.179 C 
ATOM     17  C   UNL     1       7.143   7.800  20.621  1.00  0.00     0.178 C 
ATOM     18  C   UNL     1       6.583   9.215  20.226  1.00  0.00     0.177 C 
BRANCH  14  19
ATOM     19  O   UNL     1       9.193   9.010  17.681  1.00  0.00    -0.385 OA
ATOM     20  H   UNL     1       9.236   9.068  16.691  1.00  0.00     0.211 HD
ENDBRANCH  14  19
BRANCH  16  21
ATOM     21  O   UNL     1       7.028  11.124  18.812  1.00  0.00    -0.387 OA
ATOM     22  H   UNL     1       7.136  11.741  19.601  1.00  0.00     0.211 HD
ENDBRANCH  16  21
BRANCH  17  23
ATOM     23  C   UNL     1       6.060   6.911  21.242  1.00  0.00     0.191 C 
BRANCH  23  24
ATOM     24  O   UNL     1       4.795   7.500  21.100  1.00  0.00    -0.394 OA
ATOM     25  H   UNL     1       4.359   7.414  21.986  1.00  0.00     0.210 HD
ENDBRANCH  23  24
ENDBRANCH  17  23
BRANCH  18  26
ATOM     26  O   UNL     1       6.359  10.064  21.321  1.00  0.00    -0.387 OA
ATOM     27  H   UNL     1       6.858   9.726  22.114  1.00  0.00     0.211 HD
ENDBRANCH  18  26
ENDBRANCH  12  13
ENDBRANCH   7  12
BRANCH   4  28
ATOM     28  O   UNL     1       3.573   2.721  16.512  1.00  0.00    -0.365 OA
ATOM     29  H   UNL     1       4.139   2.186  17.126  1.00  0.00     0.214 HD
ENDBRANCH   4  28
BRANCH   8  30
ATOM     30  C   UNL     1       3.116   7.217  18.100  1.00  0.00     0.249 C 
BRANCH  30  31
ATOM     31  O   UNL     1       2.548   8.136  17.153  1.00  0.00    -0.461 OA
BRANCH  31  32
ATOM     32  C   UNL     1       1.178   8.289  16.918  1.00  0.00     0.338 C 
ATOM     33  O   UNL     1       0.798   9.324  16.306  1.00  0.00    -0.246 OA
BRANCH  32  34
ATOM     34  C   UNL     1       0.165   7.327  17.418  1.00  0.00     0.060 A 
ATOM     35  C   UNL     1      -0.161   6.174  16.682  1.00  0.00     0.015 A 
ATOM     36  C   UNL     1      -0.602   7.670  18.546  1.00  0.00     0.015 A 
ATOM     37  C   UNL     1      -1.353   5.490  16.957  1.00  0.00     0.001 A 
ATOM     38  C   UNL     1      -1.759   6.938  18.856  1.00  0.00     0.001 A 
ATOM     39  C   UNL     1      -2.134   5.848  18.058  1.00  0.00     0.000 A 
ENDBRANCH  32  34
ENDBRANCH  31  32
ENDBRANCH  30  31
ENDBRANCH   8  30
TORSDOF 12
ENDMDL
MODEL 4
REMARK VINA RESULT:    -6.405      1.972      5.867
REMARK INTER + INTRA:         -11.230
REMARK INTER:                  -9.563
REMARK INTRA:                  -1.667
REMARK UNBOUND:                -1.268
REMARK SMILES C[C@]12C[C@]3(O)O[C@H](O1)[C@@]1(COC(=O)c4ccccc4)[C@@H]3C[C@]12O[C@@H]1O[C@H](CO)[C@@H](O)[C@H](O)[C@H]1O
REMARK SMILES IDX 1 1 2 2 3 3 4 4 20 5 21 6 22 7 9 8 7 9 8 10 6 11 23 12 24 13
REMARK SMILES IDX 33 14 25 15 31 16 26 17 29 18 34 19 32 21 27 23 28 24 30 26
REMARK SMILES IDX 5 28 10 30 11 31 12 32 13 33 14 34 15 35 19 36 16 37 18 38
REMARK SMILES IDX 17 39
REMARK H PARENT 34 20 32 22 28 25 30 27 5 29
REMARK Flexibility Score: inf
ROOT
ATOM      1  C   UNL     1       5.600   9.537  18.760  1.00  0.00     0.046 C 
ATOM      2  C   UNL     1       5.881   8.056  19.075  1.00  0.00     0.104 C 
ATOM      3  C   UNL     1       6.715   7.883  20.396  1.00  0.00     0.104 C 
ATOM      4  C   UNL     1       6.826   6.323  20.547  1.00  0.00     0.175 C 
ATOM      5  C   UNL     1       5.419   5.669  20.397  1.00  0.00     0.070 C 
ATOM      6  C   UNL     1       4.254   6.672  20.561  1.00  0.00     0.050 C 
ATOM      7  C   UNL     1       4.598   7.137  19.124  1.00  0.00     0.115 C 
ATOM      8  C   UNL     1       5.290   5.801  18.888  1.00  0.00     0.096 C 
ATOM      9  C   UNL     1       6.674   6.102  18.348  1.00  0.00     0.267 C 
ATOM     10  O   UNL     1       6.673   7.488  18.053  1.00  0.00    -0.342 OA
ATOM     11  O   UNL     1       7.557   5.866  19.433  1.00  0.00    -0.320 OA
ENDROOT
BRANCH   7  12
ATOM     12  O   UNL     1       3.651   7.413  18.089  1.00  0.00    -0.339 OA
BRANCH  12  13
ATOM     13  C   UNL     1       2.273   7.384  18.412  1.00  0.00     0.282 C 
ATOM     14  C   UNL     1       1.650   8.800  18.402  1.00  0.00     0.202 C 
ATOM     15  O   UNL     1       1.614   6.556  17.462  1.00  0.00    -0.341 OA
ATOM     16  C   UNL     1       1.383   9.329  16.960  1.00  0.00     0.179 C 
ATOM     17  C   UNL     1       1.775   6.972  16.110  1.00  0.00     0.178 C 
ATOM     18  C   UNL     1       2.139   8.491  15.919  1.00  0.00     0.177 C 
BRANCH  14  19
ATOM     19  O   UNL     1       0.449   8.808  19.140  1.00  0.00    -0.385 OA
ATOM     20  H   UNL     1       0.694   9.067  20.065  1.00  0.00     0.211 HD
ENDBRANCH  14  19
BRANCH  16  21
ATOM     21  O   UNL     1       1.749  10.684  16.855  1.00  0.00    -0.387 OA
ATOM     22  H   UNL     1       0.885  11.197  16.907  1.00  0.00     0.211 HD
ENDBRANCH  16  21
BRANCH  17  23
ATOM     23  C   UNL     1       2.789   6.052  15.421  1.00  0.00     0.191 C 
BRANCH  23  24
ATOM     24  O   UNL     1       4.040   6.681  15.321  1.00  0.00    -0.394 OA
ATOM     25  H   UNL     1       4.216   7.069  16.216  1.00  0.00     0.210 HD
ENDBRANCH  23  24
ENDBRANCH  17  23
BRANCH  18  26
ATOM     26  O   UNL     1       1.873   8.981  14.630  1.00  0.00    -0.387 OA
ATOM     27  H   UNL     1       2.071   8.275  13.957  1.00  0.00     0.211 HD
ENDBRANCH  18  26
ENDBRANCH  12  13
ENDBRANCH   7  12
BRANCH   4  28
ATOM     28  O   UNL     1       7.426   5.937  21.753  1.00  0.00    -0.365 OA
ATOM     29  H   UNL     1       7.891   5.077  21.580  1.00  0.00     0.214 HD
ENDBRANCH   4  28
BRANCH   8  30
ATOM     30  C   UNL     1       4.508   4.672  18.172  1.00  0.00     0.249 C 
BRANCH  30  31
ATOM     31  O   UNL     1       5.153   4.298  16.944  1.00  0.00    -0.461 OA
BRANCH  31  32
ATOM     32  C   UNL     1       4.981   3.070  16.298  1.00  0.00     0.338 C 
ATOM     33  O   UNL     1       4.573   3.085  15.105  1.00  0.00    -0.246 OA
BRANCH  32  34
ATOM     34  C   UNL     1       5.192   1.768  16.978  1.00  0.00     0.060 A 
ATOM     35  C   UNL     1       6.333   0.991  16.712  1.00  0.00     0.015 A 
ATOM     36  C   UNL     1       4.151   1.229  17.756  1.00  0.00     0.015 A 
ATOM     37  C   UNL     1       6.341  -0.369  17.053  1.00  0.00     0.001 A 
ATOM     38  C   UNL     1       4.197  -0.116  18.152  1.00  0.00     0.001 A 
ATOM     39  C   UNL     1       5.293  -0.915  17.798  1.00  0.00     0.000 A 
ENDBRANCH  32  34
ENDBRANCH  31  32
ENDBRANCH  30  31
ENDBRANCH   8  30
TORSDOF 12
ENDMDL
MODEL 5
REMARK VINA RESULT:    -6.006      1.971      6.350
REMARK INTER + INTRA:         -10.610
REMARK INTER:                  -9.483
REMARK INTRA:                  -1.127
REMARK UNBOUND:                -1.268
REMARK SMILES C[C@]12C[C@]3(O)O[C@H](O1)[C@@]1(COC(=O)c4ccccc4)[C@@H]3C[C@]12O[C@@H]1O[C@H](CO)[C@@H](O)[C@H](O)[C@H]1O
REMARK SMILES IDX 1 1 2 2 3 3 4 4 20 5 21 6 22 7 9 8 7 9 8 10 6 11 23 12 24 13
REMARK SMILES IDX 33 14 25 15 31 16 26 17 29 18 34 19 32 21 27 23 28 24 30 26
REMARK SMILES IDX 5 28 10 30 11 31 12 32 13 33 14 34 15 35 19 36 16 37 18 38
REMARK SMILES IDX 17 39
REMARK H PARENT 34 20 32 22 28 25 30 27 5 29
REMARK Flexibility Score: inf
ROOT
ATOM      1  C   UNL     1       2.556   4.527  15.527  1.00  0.00     0.046 C 
ATOM      2  C   UNL     1       3.711   4.994  16.433  1.00  0.00     0.104 C 
ATOM      3  C   UNL     1       5.097   4.939  15.695  1.00  0.00     0.104 C 
ATOM      4  C   UNL     1       6.096   5.505  16.768  1.00  0.00     0.175 C 
ATOM      5  C   UNL     1       5.552   6.845  17.351  1.00  0.00     0.070 C 
ATOM      6  C   UNL     1       4.446   7.490  16.484  1.00  0.00     0.050 C 
ATOM      7  C   UNL     1       3.503   6.418  17.084  1.00  0.00     0.115 C 
ATOM      8  C   UNL     1       4.473   6.257  18.247  1.00  0.00     0.096 C 
ATOM      9  C   UNL     1       4.768   4.776  18.385  1.00  0.00     0.267 C 
ATOM     10  O   UNL     1       3.837   4.125  17.538  1.00  0.00    -0.342 OA
ATOM     11  O   UNL     1       6.071   4.604  17.851  1.00  0.00    -0.320 OA
ENDROOT
BRANCH   7  12
ATOM     12  O   UNL     1       2.173   6.648  17.555  1.00  0.00    -0.339 OA
BRANCH  12  13
ATOM     13  C   UNL     1       1.138   6.798  16.601  1.00  0.00     0.282 C 
ATOM     14  C   UNL     1      -0.219   6.286  17.141  1.00  0.00     0.202 C 
ATOM     15  O   UNL     1       1.040   8.177  16.268  1.00  0.00    -0.341 OA
ATOM     16  C   UNL     1      -0.884   7.283  18.138  1.00  0.00     0.179 C 
ATOM     17  C   UNL     1       0.788   9.032  17.379  1.00  0.00     0.178 C 
ATOM     18  C   UNL     1       0.127   8.332  18.623  1.00  0.00     0.177 C 
BRANCH  14  19
ATOM     19  O   UNL     1      -1.100   6.026  16.072  1.00  0.00    -0.385 OA
ATOM     20  H   UNL     1      -0.720   5.252  15.582  1.00  0.00     0.211 HD
ENDBRANCH  14  19
BRANCH  16  21
ATOM     21  O   UNL     1      -1.434   6.593  19.235  1.00  0.00    -0.387 OA
ATOM     22  H   UNL     1      -0.866   6.852  20.024  1.00  0.00     0.211 HD
ENDBRANCH  16  21
BRANCH  17  23
ATOM     23  C   UNL     1       2.085   9.758  17.755  1.00  0.00     0.191 C 
BRANCH  23  24
ATOM     24  O   UNL     1       1.806  10.916  18.497  1.00  0.00    -0.394 OA
ATOM     25  H   UNL     1       0.935  11.247  18.158  1.00  0.00     0.210 HD
ENDBRANCH  23  24
ENDBRANCH  17  23
BRANCH  18  26
ATOM     26  O   UNL     1      -0.499   9.222  19.510  1.00  0.00    -0.387 OA
ATOM     27  H   UNL     1      -0.986   9.920  18.993  1.00  0.00     0.211 HD
ENDBRANCH  18  26
ENDBRANCH  12  13
ENDBRANCH   7  12
BRANCH   4  28
ATOM     28  O   UNL     1       7.393   5.674  16.265  1.00  0.00    -0.365 OA
ATOM     29  H   UNL     1       7.472   6.625  15.991  1.00  0.00     0.214 HD
ENDBRANCH   4  28
BRANCH   8  30
ATOM     30  C   UNL     1       4.193   7.023  19.564  1.00  0.00     0.249 C 
BRANCH  30  31
ATOM     31  O   UNL     1       4.954   6.472  20.651  1.00  0.00    -0.461 OA
BRANCH  31  32
ATOM     32  C   UNL     1       6.279   6.807  20.943  1.00  0.00     0.338 C 
ATOM     33  O   UNL     1       6.940   6.017  21.669  1.00  0.00    -0.246 OA
BRANCH  32  34
ATOM     34  C   UNL     1       6.905   8.076  20.493  1.00  0.00     0.060 A 
ATOM     35  C   UNL     1       6.677   9.278  21.186  1.00  0.00     0.015 A 
ATOM     36  C   UNL     1       7.580   8.104  19.260  1.00  0.00     0.015 A 
ATOM     37  C   UNL     1       6.947  10.502  20.560  1.00  0.00     0.001 A 
ATOM     38  C   UNL     1       7.908   9.332  18.668  1.00  0.00     0.001 A 
ATOM     39  C   UNL     1       7.590  10.533  19.319  1.00  0.00     0.000 A 
ENDBRANCH  32  34
ENDBRANCH  31  32
ENDBRANCH  30  31
ENDBRANCH   8  30
TORSDOF 12
ENDMDL
MODEL 6
REMARK VINA RESULT:    -5.630      1.954      5.472
REMARK INTER + INTRA:         -10.025
REMARK INTER:                 -10.009
REMARK INTRA:                  -0.016
REMARK UNBOUND:                -1.268
REMARK SMILES C[C@]12C[C@]3(O)O[C@H](O1)[C@@]1(COC(=O)c4ccccc4)[C@@H]3C[C@]12O[C@@H]1O[C@H](CO)[C@@H](O)[C@H](O)[C@H]1O
REMARK SMILES IDX 1 1 2 2 3 3 4 4 20 5 21 6 22 7 9 8 7 9 8 10 6 11 23 12 24 13
REMARK SMILES IDX 33 14 25 15 31 16 26 17 29 18 34 19 32 21 27 23 28 24 30 26
REMARK SMILES IDX 5 28 10 30 11 31 12 32 13 33 14 34 15 35 19 36 16 37 18 38
REMARK SMILES IDX 17 39
REMARK H PARENT 34 20 32 22 28 25 30 27 5 29
REMARK Flexibility Score: inf
ROOT
ATOM      1  C   UNL     1       5.676   9.174  19.301  1.00  0.00     0.046 C 
ATOM      2  C   UNL     1       5.988   7.691  19.575  1.00  0.00     0.104 C 
ATOM      3  C   UNL     1       6.899   7.506  20.843  1.00  0.00     0.104 C 
ATOM      4  C   UNL     1       7.033   5.945  20.962  1.00  0.00     0.175 C 
ATOM      5  C   UNL     1       5.625   5.280  20.883  1.00  0.00     0.070 C 
ATOM      6  C   UNL     1       4.462   6.268  21.130  1.00  0.00     0.050 C 
ATOM      7  C   UNL     1       4.718   6.759  19.684  1.00  0.00     0.115 C 
ATOM      8  C   UNL     1       5.407   5.434  19.386  1.00  0.00     0.096 C 
ATOM      9  C   UNL     1       6.755   5.757  18.772  1.00  0.00     0.267 C 
ATOM     10  O   UNL     1       6.724   7.147  18.500  1.00  0.00    -0.342 OA
ATOM     11  O   UNL     1       7.701   5.513  19.800  1.00  0.00    -0.320 OA
ENDROOT
BRANCH   7  12
ATOM     12  O   UNL     1       3.710   7.041  18.710  1.00  0.00    -0.339 OA
BRANCH  12  13
ATOM     13  C   UNL     1       4.110   7.585  17.465  1.00  0.00     0.282 C 
ATOM     14  C   UNL     1       4.020   6.540  16.327  1.00  0.00     0.202 C 
ATOM     15  O   UNL     1       3.268   8.694  17.176  1.00  0.00    -0.341 OA
ATOM     16  C   UNL     1       2.556   6.303  15.844  1.00  0.00     0.179 C 
ATOM     17  C   UNL     1       1.880   8.380  17.133  1.00  0.00     0.178 C 
ATOM     18  C   UNL     1       1.546   6.868  16.854  1.00  0.00     0.177 C 
BRANCH  14  19
ATOM     19  O   UNL     1       4.819   6.939  15.237  1.00  0.00    -0.385 OA
ATOM     20  H   UNL     1       4.290   7.614  14.738  1.00  0.00     0.211 HD
ENDBRANCH  14  19
BRANCH  16  21
ATOM     21  O   UNL     1       2.321   4.931  15.635  1.00  0.00    -0.387 OA
ATOM     22  H   UNL     1       1.732   4.884  14.820  1.00  0.00     0.211 HD
ENDBRANCH  16  21
BRANCH  17  23
ATOM     23  C   UNL     1       1.213   8.883  18.418  1.00  0.00     0.191 C 
BRANCH  23  24
ATOM     24  O   UNL     1      -0.139   8.507  18.453  1.00  0.00    -0.394 OA
ATOM     25  H   UNL     1      -0.171   7.592  18.075  1.00  0.00     0.210 HD
ENDBRANCH  23  24
ENDBRANCH  17  23
BRANCH  18  26
ATOM     26  O   UNL     1       0.239   6.651  16.390  1.00  0.00    -0.387 OA
ATOM     27  H   UNL     1      -0.034   7.403  15.797  1.00  0.00     0.211 HD
ENDBRANCH  18  26
ENDBRANCH  12  13
ENDBRANCH   7  12
BRANCH   4  28
ATOM     28  O   UNL     1       7.705   5.547  22.125  1.00  0.00    -0.365 OA
ATOM     29  H   UNL     1       8.256   4.758  21.882  1.00  0.00     0.214 HD
ENDBRANCH   4  28
BRANCH   8  30
ATOM     30  C   UNL     1       4.596   4.308  18.699  1.00  0.00     0.249 C 
BRANCH  30  31
ATOM     31  O   UNL     1       5.072   4.071  17.364  1.00  0.00    -0.461 OA
BRANCH  31  32
ATOM     32  C   UNL     1       4.874   2.888  16.648  1.00  0.00     0.338 C 
ATOM     33  O   UNL     1       4.418   2.978  15.476  1.00  0.00    -0.246 OA
BRANCH  32  34
ATOM     34  C   UNL     1       5.111   1.544  17.234  1.00  0.00     0.060 A 
ATOM     35  C   UNL     1       6.255   0.801  16.894  1.00  0.00     0.015 A 
ATOM     36  C   UNL     1       4.091   0.941  17.992  1.00  0.00     0.015 A 
ATOM     37  C   UNL     1       6.284  -0.578  17.141  1.00  0.00     0.001 A 
ATOM     38  C   UNL     1       4.159  -0.427  18.294  1.00  0.00     0.001 A 
ATOM     39  C   UNL     1       5.257  -1.187  17.866  1.00  0.00     0.000 A 
ENDBRANCH  32  34
ENDBRANCH  31  32
ENDBRANCH  30  31
ENDBRANCH   8  30
TORSDOF 12
ENDMDL
MODEL 7
REMARK VINA RESULT:    -5.509      2.033      6.521
REMARK INTER + INTRA:          -9.836
REMARK INTER:                  -9.115
REMARK INTRA:                  -0.722
REMARK UNBOUND:                -1.268
REMARK SMILES C[C@]12C[C@]3(O)O[C@H](O1)[C@@]1(COC(=O)c4ccccc4)[C@@H]3C[C@]12O[C@@H]1O[C@H](CO)[C@@H](O)[C@H](O)[C@H]1O
REMARK SMILES IDX 1 1 2 2 3 3 4 4 20 5 21 6 22 7 9 8 7 9 8 10 6 11 23 12 24 13
REMARK SMILES IDX 33 14 25 15 31 16 26 17 29 18 34 19 32 21 27 23 28 24 30 26
REMARK SMILES IDX 5 28 10 30 11 31 12 32 13 33 14 34 15 35 19 36 16 37 18 38
REMARK SMILES IDX 17 39
REMARK H PARENT 34 20 32 22 28 25 30 27 5 29
REMARK Flexibility Score: inf
ROOT
ATOM      1  C   UNL     1       3.583   3.779  14.988  1.00  0.00     0.046 C 
ATOM      2  C   UNL     1       4.368   3.247  16.202  1.00  0.00     0.104 C 
ATOM      3  C   UNL     1       5.446   2.182  15.785  1.00  0.00     0.104 C 
ATOM      4  C   UNL     1       6.149   1.833  17.147  1.00  0.00     0.175 C 
ATOM      5  C   UNL     1       6.560   3.142  17.888  1.00  0.00     0.070 C 
ATOM      6  C   UNL     1       6.575   4.388  16.974  1.00  0.00     0.050 C 
ATOM      7  C   UNL     1       5.031   4.364  17.099  1.00  0.00     0.115 C 
ATOM      8  C   UNL     1       5.177   3.546  18.376  1.00  0.00     0.096 C 
ATOM      9  C   UNL     1       4.283   2.329  18.233  1.00  0.00     0.267 C 
ATOM     10  O   UNL     1       3.493   2.572  17.083  1.00  0.00    -0.342 OA
ATOM     11  O   UNL     1       5.163   1.249  17.966  1.00  0.00    -0.320 OA
ENDROOT
BRANCH   7  12
ATOM     12  O   UNL     1       4.195   5.503  17.315  1.00  0.00    -0.339 OA
BRANCH  12  13
ATOM     13  C   UNL     1       4.307   6.598  16.424  1.00  0.00     0.282 C 
ATOM     14  C   UNL     1       2.955   6.929  15.747  1.00  0.00     0.202 C 
ATOM     15  O   UNL     1       4.770   7.722  17.161  1.00  0.00    -0.341 OA
ATOM     16  C   UNL     1       1.981   7.694  16.694  1.00  0.00     0.179 C 
ATOM     17  C   UNL     1       3.938   8.086  18.258  1.00  0.00     0.178 C 
ATOM     18  C   UNL     1       2.446   7.599  18.155  1.00  0.00     0.177 C 
BRANCH  14  19
ATOM     19  O   UNL     1       3.169   7.683  14.576  1.00  0.00    -0.385 OA
ATOM     20  H   UNL     1       4.148   7.834  14.520  1.00  0.00     0.211 HD
ENDBRANCH  14  19
BRANCH  16  21
ATOM     21  O   UNL     1       0.671   7.194  16.565  1.00  0.00    -0.387 OA
ATOM     22  H   UNL     1       0.199   7.843  15.957  1.00  0.00     0.211 HD
ENDBRANCH  16  21
BRANCH  17  23
ATOM     23  C   UNL     1       4.599   7.625  19.562  1.00  0.00     0.191 C 
BRANCH  23  24
ATOM     24  O   UNL     1       3.628   7.343  20.536  1.00  0.00    -0.394 OA
ATOM     25  H   UNL     1       4.132   7.047  21.337  1.00  0.00     0.210 HD
ENDBRANCH  23  24
ENDBRANCH  17  23
BRANCH  18  26
ATOM     26  O   UNL     1       1.559   8.305  18.982  1.00  0.00    -0.387 OA
ATOM     27  H   UNL     1       0.621   8.120  18.702  1.00  0.00     0.211 HD
ENDBRANCH  18  26
ENDBRANCH  12  13
ENDBRANCH   7  12
BRANCH   4  28
ATOM     28  O   UNL     1       7.254   0.988  16.984  1.00  0.00    -0.365 OA
ATOM     29  H   UNL     1       7.908   1.476  16.418  1.00  0.00     0.214 HD
ENDBRANCH   4  28
BRANCH   8  30
ATOM     30  C   UNL     1       5.125   4.276  19.741  1.00  0.00     0.249 C 
BRANCH  30  31
ATOM     31  O   UNL     1       6.349   4.093  20.469  1.00  0.00    -0.461 OA
BRANCH  31  32
ATOM     32  C   UNL     1       7.212   5.127  20.845  1.00  0.00     0.338 C 
ATOM     33  O   UNL     1       7.284   5.418  22.069  1.00  0.00    -0.246 OA
BRANCH  32  34
ATOM     34  C   UNL     1       7.981   5.929  19.860  1.00  0.00     0.060 A 
ATOM     35  C   UNL     1       7.569   7.226  19.507  1.00  0.00     0.015 A 
ATOM     36  C   UNL     1       9.023   5.313  19.144  1.00  0.00     0.015 A 
ATOM     37  C   UNL     1       8.059   7.814  18.333  1.00  0.00     0.001 A 
ATOM     38  C   UNL     1       9.557   5.938  18.007  1.00  0.00     0.001 A 
ATOM     39  C   UNL     1       9.073   7.189  17.601  1.00  0.00     0.000 A 
ENDBRANCH  32  34
ENDBRANCH  31  32
ENDBRANCH  30  31
ENDBRANCH   8  30
TORSDOF 12
ENDMDL
MODEL 8
REMARK VINA RESULT:    -5.443      1.513      5.019
REMARK INTER + INTRA:          -9.734
REMARK INTER:                  -9.786
REMARK INTRA:                   0.052
REMARK UNBOUND:                -1.268
REMARK SMILES C[C@]12C[C@]3(O)O[C@H](O1)[C@@]1(COC(=O)c4ccccc4)[C@@H]3C[C@]12O[C@@H]1O[C@H](CO)[C@@H](O)[C@H](O)[C@H]1O
REMARK SMILES IDX 1 1 2 2 3 3 4 4 20 5 21 6 22 7 9 8 7 9 8 10 6 11 23 12 24 13
REMARK SMILES IDX 33 14 25 15 31 16 26 17 29 18 34 19 32 21 27 23 28 24 30 26
REMARK SMILES IDX 5 28 10 30 11 31 12 32 13 33 14 34 15 35 19 36 16 37 18 38
REMARK SMILES IDX 17 39
REMARK H PARENT 34 20 32 22 28 25 30 27 5 29
REMARK Flexibility Score: inf
ROOT
ATOM      1  C   UNL     1       5.297   2.470  18.830  1.00  0.00     0.046 C 
ATOM      2  C   UNL     1       5.134   3.400  17.614  1.00  0.00     0.104 C 
ATOM      3  C   UNL     1       4.476   2.661  16.392  1.00  0.00     0.104 C 
ATOM      4  C   UNL     1       4.356   3.796  15.312  1.00  0.00     0.175 C 
ATOM      5  C   UNL     1       3.691   5.061  15.935  1.00  0.00     0.070 C 
ATOM      6  C   UNL     1       2.955   4.778  17.264  1.00  0.00     0.050 C 
ATOM      7  C   UNL     1       4.362   4.745  17.910  1.00  0.00     0.115 C 
ATOM      8  C   UNL     1       4.890   5.552  16.732  1.00  0.00     0.096 C 
ATOM      9  C   UNL     1       6.107   4.823  16.197  1.00  0.00     0.267 C 
ATOM     10  O   UNL     1       6.402   3.824  17.159  1.00  0.00    -0.342 OA
ATOM     11  O   UNL     1       5.671   4.194  15.004  1.00  0.00    -0.320 OA
ENDROOT
BRANCH   7  12
ATOM     12  O   UNL     1       4.722   5.356  19.151  1.00  0.00    -0.339 OA
BRANCH  12  13
ATOM     13  C   UNL     1       5.869   4.876  19.830  1.00  0.00     0.282 C 
ATOM     14  C   UNL     1       7.149   5.632  19.399  1.00  0.00     0.202 C 
ATOM     15  O   UNL     1       5.655   5.038  21.226  1.00  0.00    -0.341 OA
ATOM     16  C   UNL     1       7.259   7.046  20.046  1.00  0.00     0.179 C 
ATOM     17  C   UNL     1       5.393   6.378  21.628  1.00  0.00     0.178 C 
ATOM     18  C   UNL     1       5.912   7.485  20.638  1.00  0.00     0.177 C 
BRANCH  14  19
ATOM     19  O   UNL     1       8.292   4.873  19.721  1.00  0.00    -0.385 OA
ATOM     20  H   UNL     1       8.626   5.229  20.585  1.00  0.00     0.211 HD
ENDBRANCH  14  19
BRANCH  16  21
ATOM     21  O   UNL     1       7.707   7.988  19.101  1.00  0.00    -0.387 OA
ATOM     22  H   UNL     1       8.517   8.417  19.518  1.00  0.00     0.211 HD
ENDBRANCH  16  21
BRANCH  17  23
ATOM     23  C   UNL     1       3.895   6.529  21.918  1.00  0.00     0.191 C 
BRANCH  23  24
ATOM     24  O   UNL     1       3.265   7.262  20.900  1.00  0.00    -0.394 OA
ATOM     25  H   UNL     1       2.668   7.903  21.363  1.00  0.00     0.210 HD
ENDBRANCH  23  24
ENDBRANCH  17  23
BRANCH  18  26
ATOM     26  O   UNL     1       6.041   8.755  21.223  1.00  0.00    -0.387 OA
ATOM     27  H   UNL     1       5.336   9.361  20.864  1.00  0.00     0.211 HD
ENDBRANCH  18  26
ENDBRANCH  12  13
ENDBRANCH   7  12
BRANCH   4  28
ATOM     28  O   UNL     1       3.659   3.383  14.168  1.00  0.00    -0.365 OA
ATOM     29  H   UNL     1       2.737   3.159  14.460  1.00  0.00     0.214 HD
ENDBRANCH   4  28
BRANCH   8  30
ATOM     30  C   UNL     1       5.024   7.088  16.879  1.00  0.00     0.249 C 
BRANCH  30  31
ATOM     31  O   UNL     1       3.775   7.742  16.607  1.00  0.00    -0.461 OA
BRANCH  31  32
ATOM     32  C   UNL     1       2.999   8.404  17.563  1.00  0.00     0.338 C 
ATOM     33  O   UNL     1       3.599   9.070  18.449  1.00  0.00    -0.246 OA
BRANCH  32  34
ATOM     34  C   UNL     1       1.519   8.294  17.613  1.00  0.00     0.060 A 
ATOM     35  C   UNL     1       0.829   7.437  16.738  1.00  0.00     0.015 A 
ATOM     36  C   UNL     1       0.796   9.192  18.419  1.00  0.00     0.015 A 
ATOM     37  C   UNL     1      -0.545   7.615  16.533  1.00  0.00     0.001 A 
ATOM     38  C   UNL     1      -0.591   9.318  18.256  1.00  0.00     0.001 A 
ATOM     39  C   UNL     1      -1.262   8.529  17.310  1.00  0.00     0.000 A 
ENDBRANCH  32  34
ENDBRANCH  31  32
ENDBRANCH  30  31
ENDBRANCH   8  30
TORSDOF 12
ENDMDL
MODEL 9
REMARK VINA RESULT:    -5.379      2.369      4.734
REMARK INTER + INTRA:          -9.633
REMARK INTER:                  -8.758
REMARK INTRA:                  -0.875
REMARK UNBOUND:                -1.268
REMARK SMILES C[C@]12C[C@]3(O)O[C@H](O1)[C@@]1(COC(=O)c4ccccc4)[C@@H]3C[C@]12O[C@@H]1O[C@H](CO)[C@@H](O)[C@H](O)[C@H]1O
REMARK SMILES IDX 1 1 2 2 3 3 4 4 20 5 21 6 22 7 9 8 7 9 8 10 6 11 23 12 24 13
REMARK SMILES IDX 33 14 25 15 31 16 26 17 29 18 34 19 32 21 27 23 28 24 30 26
REMARK SMILES IDX 5 28 10 30 11 31 12 32 13 33 14 34 15 35 19 36 16 37 18 38
REMARK SMILES IDX 17 39
REMARK H PARENT 34 20 32 22 28 25 30 27 5 29
REMARK Flexibility Score: inf
ROOT
ATOM      1  C   UNL     1       8.148   7.175  17.170  1.00  0.00     0.046 C 
ATOM      2  C   UNL     1       7.416   7.003  18.513  1.00  0.00     0.104 C 
ATOM      3  C   UNL     1       7.715   8.187  19.503  1.00  0.00     0.104 C 
ATOM      4  C   UNL     1       6.833   7.837  20.755  1.00  0.00     0.175 C 
ATOM      5  C   UNL     1       5.374   7.516  20.310  1.00  0.00     0.070 C 
ATOM      6  C   UNL     1       5.044   8.008  18.882  1.00  0.00     0.050 C 
ATOM      7  C   UNL     1       5.856   6.784  18.391  1.00  0.00     0.115 C 
ATOM      8  C   UNL     1       5.632   6.127  19.746  1.00  0.00     0.096 C 
ATOM      9  C   UNL     1       6.988   5.684  20.260  1.00  0.00     0.267 C 
ATOM     10  O   UNL     1       7.876   5.839  19.167  1.00  0.00    -0.342 OA
ATOM     11  O   UNL     1       7.330   6.622  21.266  1.00  0.00    -0.320 OA
ENDROOT
BRANCH   7  12
ATOM     12  O   UNL     1       5.479   5.907  17.328  1.00  0.00    -0.339 OA
BRANCH  12  13
ATOM     13  C   UNL     1       6.042   6.120  16.046  1.00  0.00     0.282 C 
ATOM     14  C   UNL     1       6.292   4.787  15.300  1.00  0.00     0.202 C 
ATOM     15  O   UNL     1       5.147   6.935  15.300  1.00  0.00    -0.341 OA
ATOM     16  C   UNL     1       4.985   4.174  14.712  1.00  0.00     0.179 C 
ATOM     17  C   UNL     1       3.839   6.391  15.158  1.00  0.00     0.178 C 
ATOM     18  C   UNL     1       3.743   4.830  15.330  1.00  0.00     0.177 C 
BRANCH  14  19
ATOM     19  O   UNL     1       7.233   4.977  14.268  1.00  0.00    -0.385 OA
ATOM     20  H   UNL     1       6.713   5.240  13.465  1.00  0.00     0.211 HD
ENDBRANCH  14  19
BRANCH  16  21
ATOM     21  O   UNL     1       4.956   2.781  14.919  1.00  0.00    -0.387 OA
ATOM     22  H   UNL     1       3.979   2.542  14.969  1.00  0.00     0.211 HD
ENDBRANCH  16  21
BRANCH  17  23
ATOM     23  C   UNL     1       2.885   7.129  16.104  1.00  0.00     0.191 C 
BRANCH  23  24
ATOM     24  O   UNL     1       2.372   6.252  17.072  1.00  0.00    -0.394 OA
ATOM     25  H   UNL     1       1.893   6.825  17.724  1.00  0.00     0.210 HD
ENDBRANCH  23  24
ENDBRANCH  17  23
BRANCH  18  26
ATOM     26  O   UNL     1       2.582   4.268  14.776  1.00  0.00    -0.387 OA
ATOM     27  H   UNL     1       2.149   3.669  15.444  1.00  0.00     0.211 HD
ENDBRANCH  18  26
ENDBRANCH  12  13
ENDBRANCH   7  12
BRANCH   4  28
ATOM     28  O   UNL     1       6.844   8.849  21.724  1.00  0.00    -0.365 OA
ATOM     29  H   UNL     1       5.900   8.999  21.993  1.00  0.00     0.214 HD
ENDBRANCH   4  28
BRANCH   8  30
ATOM     30  C   UNL     1       4.477   5.106  19.899  1.00  0.00     0.249 C 
BRANCH  30  31
ATOM     31  O   UNL     1       4.927   3.772  19.614  1.00  0.00    -0.461 OA
BRANCH  31  32
ATOM     32  C   UNL     1       4.560   3.034  18.485  1.00  0.00     0.338 C 
ATOM     33  O   UNL     1       3.678   3.518  17.726  1.00  0.00    -0.246 OA
BRANCH  32  34
ATOM     34  C   UNL     1       5.113   1.688  18.192  1.00  0.00     0.060 A 
ATOM     35  C   UNL     1       6.294   1.540  17.443  1.00  0.00     0.015 A 
ATOM     36  C   UNL     1       4.347   0.552  18.511  1.00  0.00     0.015 A 
ATOM     37  C   UNL     1       6.595   0.302  16.859  1.00  0.00     0.001 A 
ATOM     38  C   UNL     1       4.693  -0.698  17.977  1.00  0.00     0.001 A 
ATOM     39  C   UNL     1       5.817  -0.822  17.149  1.00  0.00     0.000 A 
ENDBRANCH  32  34
ENDBRANCH  31  32
ENDBRANCH  30  31
ENDBRANCH   8  30
TORSDOF 12
ENDMDL
