MODEL 1
REMARK VINA RESULT:    -3.871      0.000      0.000
REMARK INTER + INTRA:          -5.130
REMARK INTER:                  -5.002
REMARK INTRA:                  -0.127
REMARK UNBOUND:                -0.127
REMARK SMILES CCCCCCC=O
REMARK SMILES IDX 4 1 3 2 2 3 1 4 5 5 6 6 7 7 8 8
REMARK H PARENT
REMARK Flexibility Score: inf
ROOT
ATOM      1  C   UNL     1     116.771 116.926 114.731  1.00  0.00     0.000 C 
ENDROOT
BRANCH   1   2
ATOM      2  C   UNL     1     116.154 116.291 115.987  1.00  0.00    -0.000 C 
BRANCH   2   3
ATOM      3  C   UNL     1     117.221 116.057 117.063  1.00  0.00    -0.003 C 
ATOM      4  C   UNL     1     117.992 117.340 117.364  1.00  0.00     0.004 C 
ENDBRANCH   2   3
ENDBRANCH   1   2
BRANCH   1   5
ATOM      5  C   UNL     1     116.257 116.286 113.431  1.00  0.00     0.008 C 
BRANCH   5   6
ATOM      6  C   UNL     1     117.320 116.262 112.323  1.00  0.00     0.072 C 
BRANCH   6   7
ATOM      7  C   UNL     1     117.583 117.642 111.795  1.00  0.00     0.224 C 
ATOM      8  O   UNL     1     116.661 118.313 111.362  1.00  0.00    -0.303 OA
ENDBRANCH   6   7
ENDBRANCH   5   6
ENDBRANCH   1   5
TORSDOF 5
ENDMDL
MODEL 2
REMARK VINA RESULT:    -3.865      2.591      4.745
REMARK INTER + INTRA:          -5.122
REMARK INTER:                  -4.955
REMARK INTRA:                  -0.167
REMARK UNBOUND:                -0.127
REMARK SMILES CCCCCCC=O
REMARK SMILES IDX 4 1 3 2 2 3 1 4 5 5 6 6 7 7 8 8
REMARK H PARENT
REMARK Flexibility Score: inf
ROOT
ATOM      1  C   UNL     1     116.275 116.238 113.944  1.00  0.00     0.000 C 
ENDROOT
BRANCH   1   2
ATOM      2  C   UNL     1     116.242 117.170 112.722  1.00  0.00    -0.000 C 
BRANCH   2   3
ATOM      3  C   UNL     1     117.504 116.997 111.868  1.00  0.00    -0.003 C 
ATOM      4  C   UNL     1     117.900 115.528 111.759  1.00  0.00     0.004 C 
ENDBRANCH   2   3
ENDBRANCH   1   2
BRANCH   1   5
ATOM      5  C   UNL     1     116.710 116.961 115.228  1.00  0.00     0.008 C 
BRANCH   5   6
ATOM      6  C   UNL     1     116.800 116.019 116.437  1.00  0.00     0.072 C 
BRANCH   6   7
ATOM      7  C   UNL     1     115.649 116.232 117.376  1.00  0.00     0.224 C 
ATOM      8  O   UNL     1     114.646 115.545 117.276  1.00  0.00    -0.303 OA
ENDBRANCH   6   7
ENDBRANCH   5   6
ENDBRANCH   1   5
TORSDOF 5
ENDMDL
MODEL 3
REMARK VINA RESULT:    -3.844      1.077      1.435
REMARK INTER + INTRA:          -5.095
REMARK INTER:                  -4.968
REMARK INTRA:                  -0.127
REMARK UNBOUND:                -0.127
REMARK SMILES CCCCCCC=O
REMARK SMILES IDX 4 1 3 2 2 3 1 4 5 5 6 6 7 7 8 8
REMARK H PARENT
REMARK Flexibility Score: inf
ROOT
ATOM      1  C   UNL     1     116.972 116.263 113.740  1.00  0.00     0.000 C 
ENDROOT
BRANCH   1   2
ATOM      2  C   UNL     1     116.331 116.971 114.944  1.00  0.00    -0.000 C 
BRANCH   2   3
ATOM      3  C   UNL     1     117.051 116.598 116.246  1.00  0.00    -0.003 C 
ATOM      4  C   UNL     1     116.120 115.853 117.198  1.00  0.00     0.004 C 
ENDBRANCH   2   3
ENDBRANCH   1   2
BRANCH   1   5
ATOM      5  C   UNL     1     115.990 116.070 112.574  1.00  0.00     0.008 C 
BRANCH   5   6
ATOM      6  C   UNL     1     115.697 117.378 111.825  1.00  0.00     0.072 C 
BRANCH   6   7
ATOM      7  C   UNL     1     116.967 118.068 111.422  1.00  0.00     0.224 C 
ATOM      8  O   UNL     1     116.937 119.231 111.056  1.00  0.00    -0.303 OA
ENDBRANCH   6   7
ENDBRANCH   5   6
ENDBRANCH   1   5
TORSDOF 5
ENDMDL
MODEL 4
REMARK VINA RESULT:    -3.842      1.430      1.722
REMARK INTER + INTRA:          -5.093
REMARK INTER:                  -4.992
REMARK INTRA:                  -0.101
REMARK UNBOUND:                -0.127
REMARK SMILES CCCCCCC=O
REMARK SMILES IDX 4 1 3 2 2 3 1 4 5 5 6 6 7 7 8 8
REMARK H PARENT
REMARK Flexibility Score: inf
ROOT
ATOM      1  C   UNL     1     116.750 116.274 114.530  1.00  0.00     0.000 C 
ENDROOT
BRANCH   1   2
ATOM      2  C   UNL     1     116.323 116.923 115.856  1.00  0.00    -0.000 C 
BRANCH   2   3
ATOM      3  C   UNL     1     117.386 116.705 116.940  1.00  0.00    -0.003 C 
ATOM      4  C   UNL     1     117.409 115.252 117.405  1.00  0.00     0.004 C 
ENDBRANCH   2   3
ENDBRANCH   1   2
BRANCH   1   5
ATOM      5  C   UNL     1     116.235 117.042 113.302  1.00  0.00     0.008 C 
BRANCH   5   6
ATOM      6  C   UNL     1     117.206 116.979 112.115  1.00  0.00     0.072 C 
BRANCH   6   7
ATOM      7  C   UNL     1     117.512 115.558 111.740  1.00  0.00     0.224 C 
ATOM      8  O   UNL     1     116.617 114.827 111.349  1.00  0.00    -0.303 OA
ENDBRANCH   6   7
ENDBRANCH   5   6
ENDBRANCH   1   5
TORSDOF 5
ENDMDL
MODEL 5
REMARK VINA RESULT:    -3.826      2.400      4.554
REMARK INTER + INTRA:          -5.071
REMARK INTER:                  -4.917
REMARK INTRA:                  -0.154
REMARK UNBOUND:                -0.127
REMARK SMILES CCCCCCC=O
REMARK SMILES IDX 4 1 3 2 2 3 1 4 5 5 6 6 7 7 8 8
REMARK H PARENT
REMARK Flexibility Score: inf
ROOT
ATOM      1  C   UNL     1     116.909 116.997 113.988  1.00  0.00     0.000 C 
ENDROOT
BRANCH   1   2
ATOM      2  C   UNL     1     115.972 116.919 112.773  1.00  0.00    -0.000 C 
BRANCH   2   3
ATOM      3  C   UNL     1     116.291 115.688 111.914  1.00  0.00    -0.003 C 
ATOM      4  C   UNL     1     117.797 115.483 111.781  1.00  0.00     0.004 C 
ENDBRANCH   2   3
ENDBRANCH   1   2
BRANCH   1   5
ATOM      5  C   UNL     1     116.292 116.379 115.252  1.00  0.00     0.008 C 
BRANCH   5   6
ATOM      6  C   UNL     1     116.999 116.831 116.538  1.00  0.00     0.072 C 
BRANCH   6   7
ATOM      7  C   UNL     1     116.031 117.459 117.497  1.00  0.00     0.224 C 
ATOM      8  O   UNL     1     115.556 118.555 117.250  1.00  0.00    -0.303 OA
ENDBRANCH   6   7
ENDBRANCH   5   6
ENDBRANCH   1   5
TORSDOF 5
ENDMDL
MODEL 6
REMARK VINA RESULT:    -3.802      2.667      4.891
REMARK INTER + INTRA:          -5.041
REMARK INTER:                  -4.901
REMARK INTRA:                  -0.139
REMARK UNBOUND:                -0.127
REMARK SMILES CCCCCCC=O
REMARK SMILES IDX 4 1 3 2 2 3 1 4 5 5 6 6 7 7 8 8
REMARK H PARENT
REMARK Flexibility Score: inf
ROOT
ATOM      1  C   UNL     1     116.236 116.295 113.971  1.00  0.00     0.000 C 
ENDROOT
BRANCH   1   2
ATOM      2  C   UNL     1     117.209 116.327 112.781  1.00  0.00    -0.000 C 
BRANCH   2   3
ATOM      3  C   UNL     1     116.864 117.475 111.824  1.00  0.00    -0.003 C 
ATOM      4  C   UNL     1     115.359 117.720 111.776  1.00  0.00     0.004 C 
ENDBRANCH   2   3
ENDBRANCH   1   2
BRANCH   1   5
ATOM      5  C   UNL     1     116.914 116.664 115.300  1.00  0.00     0.008 C 
BRANCH   5   6
ATOM      6  C   UNL     1     116.083 116.250 116.523  1.00  0.00     0.072 C 
BRANCH   6   7
ATOM      7  C   UNL     1     116.951 115.647 117.589  1.00  0.00     0.224 C 
ATOM      8  O   UNL     1     117.664 114.693 117.325  1.00  0.00    -0.303 OA
ENDBRANCH   6   7
ENDBRANCH   5   6
ENDBRANCH   1   5
TORSDOF 5
ENDMDL
MODEL 7
REMARK VINA RESULT:    -3.791      2.410      4.604
REMARK INTER + INTRA:          -5.027
REMARK INTER:                  -4.882
REMARK INTRA:                  -0.145
REMARK UNBOUND:                -0.127
REMARK SMILES CCCCCCC=O
REMARK SMILES IDX 4 1 3 2 2 3 1 4 5 5 6 6 7 7 8 8
REMARK H PARENT
REMARK Flexibility Score: inf
ROOT
ATOM      1  C   UNL     1     116.994 116.640 114.193  1.00  0.00     0.000 C 
ENDROOT
BRANCH   1   2
ATOM      2  C   UNL     1     116.052 116.921 113.012  1.00  0.00    -0.000 C 
BRANCH   2   3
ATOM      3  C   UNL     1     116.264 115.898 111.888  1.00  0.00    -0.003 C 
ATOM      4  C   UNL     1     117.734 115.507 111.768  1.00  0.00     0.004 C 
ENDBRANCH   2   3
ENDBRANCH   1   2
BRANCH   1   5
ATOM      5  C   UNL     1     116.284 116.742 115.553  1.00  0.00     0.008 C 
BRANCH   5   6
ATOM      6  C   UNL     1     116.997 115.944 116.654  1.00  0.00     0.072 C 
BRANCH   6   7
ATOM      7  C   UNL     1     117.659 116.858 117.643  1.00  0.00     0.224 C 
ATOM      8  O   UNL     1     118.541 117.616 117.274  1.00  0.00    -0.303 OA
ENDBRANCH   6   7
ENDBRANCH   5   6
ENDBRANCH   1   5
TORSDOF 5
ENDMDL
MODEL 8
REMARK VINA RESULT:    -3.618      2.574      4.696
REMARK INTER + INTRA:          -4.803
REMARK INTER:                  -4.698
REMARK INTRA:                  -0.105
REMARK UNBOUND:                -0.127
REMARK SMILES CCCCCCC=O
REMARK SMILES IDX 4 1 3 2 2 3 1 4 5 5 6 6 7 7 8 8
REMARK H PARENT
REMARK Flexibility Score: inf
ROOT
ATOM      1  C   UNL     1     116.645 117.023 115.089  1.00  0.00     0.000 C 
ENDROOT
BRANCH   1   2
ATOM      2  C   UNL     1     116.878 116.250 113.781  1.00  0.00    -0.000 C 
BRANCH   2   3
ATOM      3  C   UNL     1     116.243 116.981 112.592  1.00  0.00    -0.003 C 
ATOM      4  C   UNL     1     117.302 117.680 111.745  1.00  0.00     0.004 C 
ENDBRANCH   2   3
ENDBRANCH   1   2
BRANCH   1   5
ATOM      5  C   UNL     1     116.423 116.095 116.293  1.00  0.00     0.008 C 
BRANCH   5   6
ATOM      6  C   UNL     1     115.594 116.755 117.404  1.00  0.00     0.072 C 
BRANCH   6   7
ATOM      7  C   UNL     1     115.955 118.203 117.561  1.00  0.00     0.224 C 
ATOM      8  O   UNL     1     115.077 119.036 117.715  1.00  0.00    -0.303 OA
ENDBRANCH   6   7
ENDBRANCH   5   6
ENDBRANCH   1   5
TORSDOF 5
ENDMDL
MODEL 9
REMARK VINA RESULT:    -3.542      2.511      4.742
REMARK INTER + INTRA:          -4.704
REMARK INTER:                  -4.575
REMARK INTRA:                  -0.129
REMARK UNBOUND:                -0.127
REMARK SMILES CCCCCCC=O
REMARK SMILES IDX 4 1 3 2 2 3 1 4 5 5 6 6 7 7 8 8
REMARK H PARENT
REMARK Flexibility Score: inf
ROOT
ATOM      1  C   UNL     1     116.137 116.365 115.574  1.00  0.00     0.000 C 
ENDROOT
BRANCH   1   2
ATOM      2  C   UNL     1     116.926 116.775 114.321  1.00  0.00    -0.000 C 
BRANCH   2   3
ATOM      3  C   UNL     1     116.227 116.282 113.048  1.00  0.00    -0.003 C 
ATOM      4  C   UNL     1     117.241 115.873 111.984  1.00  0.00     0.004 C 
ENDBRANCH   2   3
ENDBRANCH   1   2
BRANCH   1   5
ATOM      5  C   UNL     1     117.046 116.096 116.784  1.00  0.00     0.008 C 
BRANCH   5   6
ATOM      6  C   UNL     1     117.887 117.320 117.175  1.00  0.00     0.072 C 
BRANCH   6   7
ATOM      7  C   UNL     1     117.271 118.055 118.328  1.00  0.00     0.224 C 
ATOM      8  O   UNL     1     116.353 118.834 118.132  1.00  0.00    -0.303 OA
ENDBRANCH   6   7
ENDBRANCH   5   6
ENDBRANCH   1   5
TORSDOF 5
ENDMDL
