MODEL 1
REMARK VINA RESULT:    -4.396      0.000      0.000
REMARK INTER + INTRA:          -7.314
REMARK INTER:                  -6.452
REMARK INTRA:                  -0.861
REMARK UNBOUND:                -0.861
REMARK SMILES O=C([O-])CCCCCCCC(=O)[O-]
REMARK SMILES IDX 7 1 6 2 5 3 4 4 2 5 1 6 3 7 8 8 9 9 10 10 11 11 12 12 13 13
REMARK H PARENT
REMARK Flexibility Score: inf
ROOT
ATOM      1  C   UNL     1      61.821   4.424  21.730  1.00  0.00     0.000 C 
ENDROOT
BRANCH   1   2
ATOM      2  C   UNL     1      62.518   3.822  22.956  1.00  0.00     0.000 C 
BRANCH   2   3
ATOM      3  C   UNL     1      63.970   4.314  23.059  1.00  0.00     0.006 C 
BRANCH   3   4
ATOM      4  C   UNL     1      64.556   4.684  21.690  1.00  0.00     0.053 C 
BRANCH   4   5
ATOM      5  C   UNL     1      65.926   4.107  21.499  1.00  0.00     0.041 C 
ATOM      6  O   UNL     1      66.382   3.269  22.321  1.00  0.00    -0.550 OA
ATOM      7  O   UNL     1      66.711   4.521  20.431  1.00  0.00    -0.550 OA
ENDBRANCH   4   5
ENDBRANCH   3   4
ENDBRANCH   2   3
ENDBRANCH   1   2
BRANCH   1   8
ATOM      8  C   UNL     1      60.875   3.405  21.079  1.00  0.00     0.000 C 
BRANCH   8   9
ATOM      9  C   UNL     1      61.360   2.937  19.695  1.00  0.00     0.006 C 
BRANCH   9  10
ATOM     10  C   UNL     1      62.057   1.566  19.699  1.00  0.00     0.053 C 
BRANCH  10  11
ATOM     11  C   UNL     1      63.543   1.692  19.823  1.00  0.00     0.041 C 
ATOM     12  O   UNL     1      64.199   2.335  18.961  1.00  0.00    -0.550 OA
ATOM     13  O   UNL     1      64.201   1.127  20.908  1.00  0.00    -0.550 OA
ENDBRANCH  10  11
ENDBRANCH   9  10
ENDBRANCH   8   9
ENDBRANCH   1   8
TORSDOF 8
ENDMDL
MODEL 2
REMARK VINA RESULT:    -4.297      1.435      4.193
REMARK INTER + INTRA:          -7.167
REMARK INTER:                  -6.642
REMARK INTRA:                  -0.526
REMARK UNBOUND:                -0.861
REMARK SMILES O=C([O-])CCCCCCCC(=O)[O-]
REMARK SMILES IDX 7 1 6 2 5 3 4 4 2 5 1 6 3 7 8 8 9 9 10 10 11 11 12 12 13 13
REMARK H PARENT
REMARK Flexibility Score: inf
ROOT
ATOM      1  C   UNL     1      61.559   4.649  21.750  1.00  0.00     0.000 C 
ENDROOT
BRANCH   1   2
ATOM      2  C   UNL     1      61.035   3.257  21.377  1.00  0.00     0.000 C 
BRANCH   2   3
ATOM      3  C   UNL     1      61.328   2.936  19.903  1.00  0.00     0.006 C 
BRANCH   3   4
ATOM      4  C   UNL     1      61.980   1.557  19.729  1.00  0.00     0.053 C 
BRANCH   4   5
ATOM      5  C   UNL     1      63.475   1.642  19.771  1.00  0.00     0.041 C 
ATOM      6  O   UNL     1      64.099   2.289  18.889  1.00  0.00    -0.550 OA
ATOM      7  O   UNL     1      64.181   0.978  20.765  1.00  0.00    -0.550 OA
ENDBRANCH   4   5
ENDBRANCH   3   4
ENDBRANCH   2   3
ENDBRANCH   1   2
BRANCH   1   8
ATOM      8  C   UNL     1      63.094   4.671  21.770  1.00  0.00     0.000 C 
BRANCH   8   9
ATOM      9  C   UNL     1      63.687   3.960  23.000  1.00  0.00     0.006 C 
BRANCH   9  10
ATOM     10  C   UNL     1      65.086   4.455  23.404  1.00  0.00     0.053 C 
BRANCH  10  11
ATOM     11  C   UNL     1      65.932   3.353  23.962  1.00  0.00     0.041 C 
ATOM     12  O   UNL     1      67.166   3.531  24.143  1.00  0.00    -0.550 OA
ATOM     13  O   UNL     1      65.354   2.140  24.313  1.00  0.00    -0.550 OA
ENDBRANCH  10  11
ENDBRANCH   9  10
ENDBRANCH   8   9
ENDBRANCH   1   8
TORSDOF 8
ENDMDL
MODEL 3
REMARK VINA RESULT:    -4.279     10.348     13.192
REMARK INTER + INTRA:          -7.142
REMARK INTER:                  -6.476
REMARK INTRA:                  -0.666
REMARK UNBOUND:                -0.861
REMARK SMILES O=C([O-])CCCCCCCC(=O)[O-]
REMARK SMILES IDX 7 1 6 2 5 3 4 4 2 5 1 6 3 7 8 8 9 9 10 10 11 11 12 12 13 13
REMARK H PARENT
REMARK Flexibility Score: inf
ROOT
ATOM      1  C   UNL     1      77.764   6.948  21.837  1.00  0.00     0.000 C 
ENDROOT
BRANCH   1   2
ATOM      2  C   UNL     1      76.256   7.161  21.664  1.00  0.00     0.000 C 
BRANCH   2   3
ATOM      3  C   UNL     1      75.667   6.145  20.673  1.00  0.00     0.006 C 
BRANCH   3   4
ATOM      4  C   UNL     1      74.165   6.363  20.442  1.00  0.00     0.053 C 
BRANCH   4   5
ATOM      5  C   UNL     1      73.344   5.290  21.089  1.00  0.00     0.041 C 
ATOM      6  O   UNL     1      73.809   4.630  22.055  1.00  0.00    -0.550 OA
ATOM      7  O   UNL     1      72.076   4.998  20.603  1.00  0.00    -0.550 OA
ENDBRANCH   4   5
ENDBRANCH   3   4
ENDBRANCH   2   3
ENDBRANCH   1   2
BRANCH   1   8
ATOM      8  C   UNL     1      78.270   5.825  20.920  1.00  0.00     0.000 C 
BRANCH   8   9
ATOM      9  C   UNL     1      78.958   4.686  21.694  1.00  0.00     0.006 C 
BRANCH   9  10
ATOM     10  C   UNL     1      78.387   3.288  21.401  1.00  0.00     0.053 C 
BRANCH  10  11
ATOM     11  C   UNL     1      77.112   3.035  22.144  1.00  0.00     0.041 C 
ATOM     12  O   UNL     1      76.964   3.473  23.315  1.00  0.00    -0.550 OA
ATOM     13  O   UNL     1      76.075   2.344  21.531  1.00  0.00    -0.550 OA
ENDBRANCH  10  11
ENDBRANCH   9  10
ENDBRANCH   8   9
ENDBRANCH   1   8
TORSDOF 8
ENDMDL
MODEL 4
REMARK VINA RESULT:    -4.257      2.335      3.011
REMARK INTER + INTRA:          -7.108
REMARK INTER:                  -6.364
REMARK INTRA:                  -0.744
REMARK UNBOUND:                -0.861
REMARK SMILES O=C([O-])CCCCCCCC(=O)[O-]
REMARK SMILES IDX 7 1 6 2 5 3 4 4 2 5 1 6 3 7 8 8 9 9 10 10 11 11 12 12 13 13
REMARK H PARENT
REMARK Flexibility Score: inf
ROOT
ATOM      1  C   UNL     1      65.383   5.318  19.642  1.00  0.00     0.000 C 
ENDROOT
BRANCH   1   2
ATOM      2  C   UNL     1      64.715   5.407  21.019  1.00  0.00     0.000 C 
BRANCH   2   3
ATOM      3  C   UNL     1      65.693   5.001  22.132  1.00  0.00     0.006 C 
BRANCH   3   4
ATOM      4  C   UNL     1      64.998   4.226  23.260  1.00  0.00     0.053 C 
BRANCH   4   5
ATOM      5  C   UNL     1      65.962   3.361  24.013  1.00  0.00     0.041 C 
ATOM      6  O   UNL     1      65.578   2.272  24.516  1.00  0.00    -0.550 OA
ATOM      7  O   UNL     1      67.276   3.774  24.188  1.00  0.00    -0.550 OA
ENDBRANCH   4   5
ENDBRANCH   3   4
ENDBRANCH   2   3
ENDBRANCH   1   2
BRANCH   1   8
ATOM      8  C   UNL     1      64.660   4.302  18.744  1.00  0.00     0.000 C 
BRANCH   8   9
ATOM      9  C   UNL     1      65.197   2.869  18.911  1.00  0.00     0.006 C 
BRANCH   9  10
ATOM     10  C   UNL     1      64.117   1.823  19.237  1.00  0.00     0.053 C 
BRANCH  10  11
ATOM     11  C   UNL     1      63.781   1.800  20.696  1.00  0.00     0.041 C 
ATOM     12  O   UNL     1      64.523   1.184  21.507  1.00  0.00    -0.550 OA
ATOM     13  O   UNL     1      62.668   2.484  21.165  1.00  0.00    -0.550 OA
ENDBRANCH  10  11
ENDBRANCH   9  10
ENDBRANCH   8   9
ENDBRANCH   1   8
TORSDOF 8
ENDMDL
MODEL 5
REMARK VINA RESULT:    -4.239     10.609     13.031
REMARK INTER + INTRA:          -7.083
REMARK INTER:                  -6.568
REMARK INTRA:                  -0.515
REMARK UNBOUND:                -0.861
REMARK SMILES O=C([O-])CCCCCCCC(=O)[O-]
REMARK SMILES IDX 7 1 6 2 5 3 4 4 2 5 1 6 3 7 8 8 9 9 10 10 11 11 12 12 13 13
REMARK H PARENT
REMARK Flexibility Score: inf
ROOT
ATOM      1  C   UNL     1      77.410   3.363  22.695  1.00  0.00     0.000 C 
ENDROOT
BRANCH   1   2
ATOM      2  C   UNL     1      78.211   3.378  21.388  1.00  0.00     0.000 C 
BRANCH   2   3
ATOM      3  C   UNL     1      78.955   4.711  21.215  1.00  0.00     0.006 C 
BRANCH   3   4
ATOM      4  C   UNL     1      77.994   5.894  21.041  1.00  0.00     0.053 C 
BRANCH   4   5
ATOM      5  C   UNL     1      78.184   6.926  22.111  1.00  0.00     0.041 C 
ATOM      6  O   UNL     1      79.180   6.867  22.879  1.00  0.00    -0.550 OA
ATOM      7  O   UNL     1      77.243   7.932  22.281  1.00  0.00    -0.550 OA
ENDBRANCH   4   5
ENDBRANCH   3   4
ENDBRANCH   2   3
ENDBRANCH   1   2
BRANCH   1   8
ATOM      8  C   UNL     1      75.948   2.968  22.440  1.00  0.00     0.000 C 
BRANCH   8   9
ATOM      9  C   UNL     1      75.680   2.580  20.974  1.00  0.00     0.006 C 
BRANCH   9  10
ATOM     10  C   UNL     1      74.245   2.101  20.699  1.00  0.00     0.053 C 
BRANCH  10  11
ATOM     11  C   UNL     1      73.226   2.951  21.393  1.00  0.00     0.041 C 
ATOM     12  O   UNL     1      72.977   4.112  20.971  1.00  0.00    -0.550 OA
ATOM     13  O   UNL     1      72.528   2.450  22.484  1.00  0.00    -0.550 OA
ENDBRANCH  10  11
ENDBRANCH   9  10
ENDBRANCH   8   9
ENDBRANCH   1   8
TORSDOF 8
ENDMDL
MODEL 6
REMARK VINA RESULT:    -4.232      2.265      3.049
REMARK INTER + INTRA:          -7.072
REMARK INTER:                  -6.260
REMARK INTRA:                  -0.812
REMARK UNBOUND:                -0.861
REMARK SMILES O=C([O-])CCCCCCCC(=O)[O-]
REMARK SMILES IDX 7 1 6 2 5 3 4 4 2 5 1 6 3 7 8 8 9 9 10 10 11 11 12 12 13 13
REMARK H PARENT
REMARK Flexibility Score: inf
ROOT
ATOM      1  C   UNL     1      65.901   4.818  20.241  1.00  0.00     0.000 C 
ENDROOT
BRANCH   1   2
ATOM      2  C   UNL     1      65.096   5.483  21.364  1.00  0.00     0.000 C 
BRANCH   2   3
ATOM      3  C   UNL     1      65.204   4.678  22.668  1.00  0.00     0.006 C 
BRANCH   3   4
ATOM      4  C   UNL     1      65.757   3.265  22.434  1.00  0.00     0.053 C 
BRANCH   4   5
ATOM      5  C   UNL     1      64.863   2.215  23.020  1.00  0.00     0.041 C 
ATOM      6  O   UNL     1      65.306   1.058  23.244  1.00  0.00    -0.550 OA
ATOM      7  O   UNL     1      63.532   2.506  23.288  1.00  0.00    -0.550 OA
ENDBRANCH   4   5
ENDBRANCH   3   4
ENDBRANCH   2   3
ENDBRANCH   1   2
BRANCH   1   8
ATOM      8  C   UNL     1      65.021   4.568  19.007  1.00  0.00     0.000 C 
BRANCH   8   9
ATOM      9  C   UNL     1      64.467   3.133  18.949  1.00  0.00     0.006 C 
BRANCH   9  10
ATOM     10  C   UNL     1      63.024   2.990  19.461  1.00  0.00     0.053 C 
BRANCH  10  11
ATOM     11  C   UNL     1      62.748   1.615  19.986  1.00  0.00     0.041 C 
ATOM     12  O   UNL     1      61.592   1.309  20.382  1.00  0.00    -0.550 OA
ATOM     13  O   UNL     1      63.758   0.662  20.007  1.00  0.00    -0.550 OA
ENDBRANCH  10  11
ENDBRANCH   9  10
ENDBRANCH   8   9
ENDBRANCH   1   8
TORSDOF 8
ENDMDL
MODEL 7
REMARK VINA RESULT:    -4.230     10.806     13.888
REMARK INTER + INTRA:          -7.069
REMARK INTER:                  -6.545
REMARK INTRA:                  -0.525
REMARK UNBOUND:                -0.861
REMARK SMILES O=C([O-])CCCCCCCC(=O)[O-]
REMARK SMILES IDX 7 1 6 2 5 3 4 4 2 5 1 6 3 7 8 8 9 9 10 10 11 11 12 12 13 13
REMARK H PARENT
REMARK Flexibility Score: inf
ROOT
ATOM      1  C   UNL     1      78.595   3.682  21.873  1.00  0.00     0.000 C 
ENDROOT
BRANCH   1   2
ATOM      2  C   UNL     1      77.448   2.840  21.303  1.00  0.00     0.000 C 
BRANCH   2   3
ATOM      3  C   UNL     1      76.216   2.896  22.221  1.00  0.00     0.006 C 
BRANCH   3   4
ATOM      4  C   UNL     1      75.017   3.572  21.542  1.00  0.00     0.053 C 
BRANCH   4   5
ATOM      5  C   UNL     1      73.927   2.591  21.237  1.00  0.00     0.041 C 
ATOM      6  O   UNL     1      72.948   2.467  22.020  1.00  0.00    -0.550 OA
ATOM      7  O   UNL     1      74.008   1.791  20.105  1.00  0.00    -0.550 OA
ENDBRANCH   4   5
ENDBRANCH   3   4
ENDBRANCH   2   3
ENDBRANCH   1   2
BRANCH   1   8
ATOM      8  C   UNL     1      78.763   4.988  21.082  1.00  0.00     0.000 C 
BRANCH   8   9
ATOM      9  C   UNL     1      78.514   6.243  21.939  1.00  0.00     0.006 C 
BRANCH   9  10
ATOM     10  C   UNL     1      77.147   6.907  21.705  1.00  0.00     0.053 C 
BRANCH  10  11
ATOM     11  C   UNL     1      76.970   8.138  22.539  1.00  0.00     0.041 C 
ATOM     12  O   UNL     1      75.866   8.743  22.549  1.00  0.00    -0.550 OA
ATOM     13  O   UNL     1      78.013   8.597  23.332  1.00  0.00    -0.550 OA
ENDBRANCH  10  11
ENDBRANCH   9  10
ENDBRANCH   8   9
ENDBRANCH   1   8
TORSDOF 8
ENDMDL
MODEL 8
REMARK VINA RESULT:    -4.221      2.171      4.657
REMARK INTER + INTRA:          -7.056
REMARK INTER:                  -6.401
REMARK INTRA:                  -0.655
REMARK UNBOUND:                -0.861
REMARK SMILES O=C([O-])CCCCCCCC(=O)[O-]
REMARK SMILES IDX 7 1 6 2 5 3 4 4 2 5 1 6 3 7 8 8 9 9 10 10 11 11 12 12 13 13
REMARK H PARENT
REMARK Flexibility Score: inf
ROOT
ATOM      1  C   UNL     1      66.123   4.466  20.265  1.00  0.00     0.000 C 
ENDROOT
BRANCH   1   2
ATOM      2  C   UNL     1      65.769   3.618  19.038  1.00  0.00     0.000 C 
BRANCH   2   3
ATOM      3  C   UNL     1      64.254   3.377  18.955  1.00  0.00     0.006 C 
BRANCH   3   4
ATOM      4  C   UNL     1      63.887   1.904  19.182  1.00  0.00     0.053 C 
BRANCH   4   5
ATOM      5  C   UNL     1      63.478   1.646  20.599  1.00  0.00     0.041 C 
ATOM      6  O   UNL     1      64.319   1.219  21.435  1.00  0.00    -0.550 OA
ATOM      7  O   UNL     1      62.161   1.846  20.990  1.00  0.00    -0.550 OA
ENDBRANCH   4   5
ENDBRANCH   3   4
ENDBRANCH   2   3
ENDBRANCH   1   2
BRANCH   1   8
ATOM      8  C   UNL     1      64.857   5.022  20.934  1.00  0.00     0.000 C 
BRANCH   8   9
ATOM      9  C   UNL     1      64.757   4.653  22.425  1.00  0.00     0.006 C 
BRANCH   9  10
ATOM     10  C   UNL     1      66.096   4.706  23.181  1.00  0.00     0.053 C 
BRANCH  10  11
ATOM     11  C   UNL     1      66.549   3.347  23.615  1.00  0.00     0.041 C 
ATOM     12  O   UNL     1      67.698   2.932  23.305  1.00  0.00    -0.550 OA
ATOM     13  O   UNL     1      65.717   2.550  24.391  1.00  0.00    -0.550 OA
ENDBRANCH  10  11
ENDBRANCH   9  10
ENDBRANCH   8   9
ENDBRANCH   1   8
TORSDOF 8
ENDMDL
MODEL 9
REMARK VINA RESULT:    -4.214      2.157      4.506
REMARK INTER + INTRA:          -7.046
REMARK INTER:                  -6.272
REMARK INTRA:                  -0.773
REMARK UNBOUND:                -0.861
REMARK SMILES O=C([O-])CCCCCCCC(=O)[O-]
REMARK SMILES IDX 7 1 6 2 5 3 4 4 2 5 1 6 3 7 8 8 9 9 10 10 11 11 12 12 13 13
REMARK H PARENT
REMARK Flexibility Score: inf
ROOT
ATOM      1  C   UNL     1      65.385   5.280  20.377  1.00  0.00     0.000 C 
ENDROOT
BRANCH   1   2
ATOM      2  C   UNL     1      65.991   4.027  19.735  1.00  0.00     0.000 C 
BRANCH   2   3
ATOM      3  C   UNL     1      65.010   3.391  18.737  1.00  0.00     0.006 C 
BRANCH   3   4
ATOM      4  C   UNL     1      64.414   2.079  19.266  1.00  0.00     0.053 C 
BRANCH   4   5
ATOM      5  C   UNL     1      62.964   2.230  19.612  1.00  0.00     0.041 C 
ATOM      6  O   UNL     1      62.363   3.310  19.372  1.00  0.00    -0.550 OA
ATOM      7  O   UNL     1      62.286   1.188  20.231  1.00  0.00    -0.550 OA
ENDBRANCH   4   5
ENDBRANCH   3   4
ENDBRANCH   2   3
ENDBRANCH   1   2
BRANCH   1   8
ATOM      8  C   UNL     1      65.911   5.476  21.806  1.00  0.00     0.000 C 
BRANCH   8   9
ATOM      9  C   UNL     1      65.235   4.541  22.826  1.00  0.00     0.006 C 
BRANCH   9  10
ATOM     10  C   UNL     1      63.726   4.346  22.601  1.00  0.00     0.053 C 
BRANCH  10  11
ATOM     11  C   UNL     1      63.235   3.055  23.179  1.00  0.00     0.041 C 
ATOM     12  O   UNL     1      61.999   2.832  23.272  1.00  0.00    -0.550 OA
ATOM     13  O   UNL     1      64.141   2.084  23.583  1.00  0.00    -0.550 OA
ENDBRANCH  10  11
ENDBRANCH   9  10
ENDBRANCH   8   9
ENDBRANCH   1   8
TORSDOF 8
ENDMDL
