MODEL 1
REMARK VINA RESULT:    -4.976      0.000      0.000
REMARK INTER + INTRA:          -7.632
REMARK INTER:                  -7.594
REMARK INTRA:                  -0.038
REMARK UNBOUND:                -0.038
REMARK SMILES CC1=CCC[C@@H](C)C(=O)C[C@@H](C(C)C)C(=O)C1
REMARK SMILES IDX 8 1 9 2 6 3 7 4 5 5 4 6 3 7 2 8 1 9 10 11 11 12 15 13 16 14
REMARK SMILES IDX 17 15 12 17 13 18 14 19
REMARK H PARENT
REMARK Flexibility Score: 70.00
ROOT
ATOM      1  C   UNL     1     141.455 141.859 112.496  1.00  0.00     0.136 C 
ATOM      2  O   UNL     1     140.805 142.443 111.640  1.00  0.00    -0.299 OA
ENDROOT
BRANCH   1   3
ATOM      3  C   UNL     1     142.377 142.699 113.372  1.00  0.00     0.053 C 
ATOM      4  C   UNL     1     143.378 141.769 114.076  1.00  0.00     0.016 C 
BRANCH   3   5
ATOM      5  C   UNL     1     141.702 143.603 114.431  1.00  0.00     0.015 C 
BRANCH   5   6
ATOM      6  C   UNL     1     140.278 143.217 114.868  1.00  0.00     0.028 C 
BRANCH   6   7
ATOM      7  C   UNL     1     140.149 142.780 116.310  1.00  0.00    -0.028 C 
ATOM      8  C   UNL     1     139.858 141.539 116.787  1.00  0.00    -0.070 CG0
ATOM      9  C   UNL     1     139.869 141.378 118.289  1.00  0.00     0.039 C 
ATOM     10  G   UNL     1     139.396 140.336 115.967  1.00  0.00     0.000 G0
ENDBRANCH   6   7
ENDBRANCH   5   6
ENDBRANCH   3   5
ENDBRANCH   1   3
BRANCH   1  11
ATOM     11  C   UNL     1     141.269 140.359 112.599  1.00  0.00     0.087 C 
BRANCH  11  12
ATOM     12  C   UNL     1     139.998 139.990 113.420  1.00  0.00     0.066 C 
BRANCH  12  13
ATOM     13  C   UNL     1     140.343 139.843 114.904  1.00  0.00     0.140 C 
ATOM     14  O   UNL     1     141.383 139.296 115.247  1.00  0.00    -0.299 OA
BRANCH  13  15
ATOM     15  C   UNL     1     139.397 140.332 115.970  1.00  0.00     0.106 CG0
ATOM     16  G   UNL     1     139.865 141.537 116.786  1.00  0.00     0.000 G0
ENDBRANCH  13  15
ENDBRANCH  12  13
BRANCH  12  17
ATOM     17  C   UNL     1     139.257 138.721 112.873  1.00  0.00    -0.006 C 
ATOM     18  C   UNL     1     138.976 138.790 111.360  1.00  0.00     0.008 C 
ATOM     19  C   UNL     1     137.915 138.510 113.606  1.00  0.00     0.008 C 
ENDBRANCH  12  17
ENDBRANCH  11  12
ENDBRANCH   1  11
TORSDOF 1
ENDMDL
MODEL 2
REMARK VINA RESULT:    -4.772      1.678      2.366
REMARK INTER + INTRA:          -7.321
REMARK INTER:                  -6.971
REMARK INTRA:                  -0.350
REMARK UNBOUND:                -0.038
REMARK SMILES CC1=CCC[C@@H](C)C(=O)C[C@@H](C(C)C)C(=O)C1
REMARK SMILES IDX 8 1 9 2 6 3 7 4 5 5 4 6 3 7 2 8 1 9 10 11 11 12 15 13 16 14
REMARK SMILES IDX 17 15 12 17 13 18 14 19
REMARK H PARENT
REMARK Flexibility Score: 70.00
ROOT
ATOM      1  C   UNL     1     142.019 139.505 112.847  1.00  0.00     0.136 C 
ATOM      2  O   UNL     1     142.740 138.652 112.347  1.00  0.00    -0.299 OA
ENDROOT
BRANCH   1   3
ATOM      3  C   UNL     1     142.226 140.948 112.402  1.00  0.00     0.053 C 
ATOM      4  C   UNL     1     142.509 140.966 110.891  1.00  0.00     0.016 C 
BRANCH   3   5
ATOM      5  C   UNL     1     143.332 141.751 113.129  1.00  0.00     0.015 C 
BRANCH   5   6
ATOM      6  C   UNL     1     142.870 142.918 114.021  1.00  0.00     0.028 C 
BRANCH   6   7
ATOM      7  C   UNL     1     142.569 142.544 115.455  1.00  0.00    -0.028 C 
ATOM      8  C   UNL     1     141.398 142.084 115.974  1.00  0.00    -0.070 CG0
ATOM      9  C   UNL     1     141.411 141.717 117.439  1.00  0.00     0.039 C 
ATOM     10  G   UNL     1     140.049 142.027 115.259  1.00  0.00     0.000 G0
ENDBRANCH   6   7
ENDBRANCH   5   6
ENDBRANCH   3   5
ENDBRANCH   1   3
BRANCH   1  11
ATOM     11  C   UNL     1     140.991 139.034 113.855  1.00  0.00     0.087 C 
BRANCH  11  12
ATOM     12  C   UNL     1     139.675 139.863 113.767  1.00  0.00     0.066 C 
BRANCH  12  13
ATOM     13  C   UNL     1     139.444 140.641 115.065  1.00  0.00     0.140 C 
ATOM     14  O   UNL     1     138.753 140.167 115.957  1.00  0.00    -0.299 OA
BRANCH  13  15
ATOM     15  C   UNL     1     140.028 142.017 115.256  1.00  0.00     0.106 CG0
ATOM     16  G   UNL     1     141.382 142.082 115.963  1.00  0.00     0.000 G0
ENDBRANCH  13  15
ENDBRANCH  12  13
BRANCH  12  17
ATOM     17  C   UNL     1     138.425 138.997 113.386  1.00  0.00    -0.006 C 
ATOM     18  C   UNL     1     138.385 137.639 114.113  1.00  0.00     0.008 C 
ATOM     19  C   UNL     1     138.382 138.733 111.866  1.00  0.00     0.008 C 
ENDBRANCH  12  17
ENDBRANCH  11  12
ENDBRANCH   1  11
TORSDOF 1
ENDMDL
MODEL 3
REMARK VINA RESULT:    -4.637      5.655      8.708
REMARK INTER + INTRA:          -7.115
REMARK INTER:                  -6.890
REMARK INTRA:                  -0.225
REMARK UNBOUND:                -0.038
REMARK SMILES CC1=CCC[C@@H](C)C(=O)C[C@@H](C(C)C)C(=O)C1
REMARK SMILES IDX 8 1 9 2 6 3 7 4 5 5 4 6 3 7 2 8 1 9 10 11 11 12 15 13 16 14
REMARK SMILES IDX 17 15 12 17 13 18 14 19
REMARK H PARENT
REMARK Flexibility Score: 70.00
ROOT
ATOM      1  C   UNL     1     133.899 134.451 114.911  1.00  0.00     0.136 C 
ATOM      2  O   UNL     1     133.133 133.552 115.230  1.00  0.00    -0.299 OA
ENDROOT
BRANCH   1   3
ATOM      3  C   UNL     1     133.456 135.386 113.792  1.00  0.00     0.053 C 
ATOM      4  C   UNL     1     131.982 135.760 114.010  1.00  0.00     0.016 C 
BRANCH   3   5
ATOM      5  C   UNL     1     133.633 134.872 112.342  1.00  0.00     0.015 C 
BRANCH   5   6
ATOM      6  C   UNL     1     135.077 134.656 111.853  1.00  0.00     0.028 C 
BRANCH   6   7
ATOM      7  C   UNL     1     135.911 135.912 111.750  1.00  0.00    -0.028 C 
ATOM      8  C   UNL     1     136.841 136.377 112.627  1.00  0.00    -0.070 CG0
ATOM      9  C   UNL     1     137.579 137.631 112.223  1.00  0.00     0.039 C 
ATOM     10  G   UNL     1     137.119 135.833 114.028  1.00  0.00     0.000 G0
ENDBRANCH   6   7
ENDBRANCH   5   6
ENDBRANCH   3   5
ENDBRANCH   1   3
BRANCH   1  11
ATOM     11  C   UNL     1     135.208 134.543 115.668  1.00  0.00     0.087 C 
BRANCH  11  12
ATOM     12  C   UNL     1     135.519 136.005 116.108  1.00  0.00     0.066 C 
BRANCH  12  13
ATOM     13  C   UNL     1     136.559 136.634 115.179  1.00  0.00     0.140 C 
ATOM     14  O   UNL     1     136.906 137.798 115.334  1.00  0.00    -0.299 OA
BRANCH  13  15
ATOM     15  C   UNL     1     137.147 135.851 114.033  1.00  0.00     0.106 CG0
ATOM     16  G   UNL     1     136.852 136.383 112.631  1.00  0.00     0.000 G0
ENDBRANCH  13  15
ENDBRANCH  12  13
BRANCH  12  17
ATOM     17  C   UNL     1     135.947 136.119 117.612  1.00  0.00    -0.006 C 
ATOM     18  C   UNL     1     137.157 135.234 117.965  1.00  0.00     0.008 C 
ATOM     19  C   UNL     1     134.779 135.739 118.546  1.00  0.00     0.008 C 
ENDBRANCH  12  17
ENDBRANCH  11  12
ENDBRANCH   1  11
TORSDOF 1
ENDMDL
MODEL 4
REMARK VINA RESULT:    -4.635      1.862      4.138
REMARK INTER + INTRA:          -7.111
REMARK INTER:                  -6.764
REMARK INTRA:                  -0.346
REMARK UNBOUND:                -0.038
REMARK SMILES CC1=CCC[C@@H](C)C(=O)C[C@@H](C(C)C)C(=O)C1
REMARK SMILES IDX 8 1 9 2 6 3 7 4 5 5 4 6 3 7 2 8 1 9 10 11 11 12 15 13 16 14
REMARK SMILES IDX 17 15 12 17 13 18 14 19
REMARK H PARENT
REMARK Flexibility Score: 70.00
ROOT
ATOM      1  C   UNL     1     142.614 141.907 114.606  1.00  0.00     0.136 C 
ATOM      2  O   UNL     1     143.316 142.867 114.895  1.00  0.00    -0.299 OA
ENDROOT
BRANCH   1   3
ATOM      3  C   UNL     1     143.173 140.905 113.603  1.00  0.00     0.053 C 
ATOM      4  C   UNL     1     144.657 140.658 113.921  1.00  0.00     0.016 C 
BRANCH   3   5
ATOM      5  C   UNL     1     143.035 141.264 112.104  1.00  0.00     0.015 C 
BRANCH   5   6
ATOM      6  C   UNL     1     141.613 141.546 111.585  1.00  0.00     0.028 C 
BRANCH   6   7
ATOM      7  C   UNL     1     140.738 140.323 111.427  1.00  0.00    -0.028 C 
ATOM      8  C   UNL     1     139.727 139.905 112.235  1.00  0.00    -0.070 CG0
ATOM      9  C   UNL     1     138.970 138.678 111.784  1.00  0.00     0.039 C 
ATOM     10  G   UNL     1     139.368 140.472 113.608  1.00  0.00     0.000 G0
ENDBRANCH   6   7
ENDBRANCH   5   6
ENDBRANCH   3   5
ENDBRANCH   1   3
BRANCH   1  11
ATOM     11  C   UNL     1     141.261 141.816 115.280  1.00  0.00     0.087 C 
BRANCH  11  12
ATOM     12  C   UNL     1     140.933 140.358 115.721  1.00  0.00     0.066 C 
BRANCH  12  13
ATOM     13  C   UNL     1     139.862 139.751 114.811  1.00  0.00     0.140 C 
ATOM     14  O   UNL     1     139.414 138.636 115.040  1.00  0.00    -0.299 OA
BRANCH  13  15
ATOM     15  C   UNL     1     139.368 140.495 113.597  1.00  0.00     0.106 CG0
ATOM     16  G   UNL     1     139.724 139.885 112.241  1.00  0.00     0.000 G0
ENDBRANCH  13  15
ENDBRANCH  12  13
BRANCH  12  17
ATOM     17  C   UNL     1     140.535 140.244 117.233  1.00  0.00    -0.006 C 
ATOM     18  C   UNL     1     139.598 141.375 117.697  1.00  0.00     0.008 C 
ATOM     19  C   UNL     1     141.788 140.253 118.133  1.00  0.00     0.008 C 
ENDBRANCH  12  17
ENDBRANCH  11  12
ENDBRANCH   1  11
TORSDOF 1
ENDMDL
MODEL 5
REMARK VINA RESULT:    -4.499      2.222      4.974
REMARK INTER + INTRA:          -6.904
REMARK INTER:                  -6.779
REMARK INTRA:                  -0.126
REMARK UNBOUND:                -0.038
REMARK SMILES CC1=CCC[C@@H](C)C(=O)C[C@@H](C(C)C)C(=O)C1
REMARK SMILES IDX 8 1 9 2 6 3 7 4 5 5 4 6 3 7 2 8 1 9 10 11 11 12 15 13 16 14
REMARK SMILES IDX 17 15 12 17 13 18 14 19
REMARK H PARENT
REMARK Flexibility Score: 70.00
ROOT
ATOM      1  C   UNL     1     139.778 139.462 114.361  1.00  0.00     0.136 C 
ATOM      2  O   UNL     1     138.826 139.235 115.096  1.00  0.00    -0.299 OA
ENDROOT
BRANCH   1   3
ATOM      3  C   UNL     1     139.554 139.319 112.860  1.00  0.00     0.053 C 
ATOM      4  C   UNL     1     138.311 138.447 112.623  1.00  0.00     0.016 C 
BRANCH   3   5
ATOM      5  C   UNL     1     140.730 138.751 112.029  1.00  0.00     0.015 C 
BRANCH   5   6
ATOM      6  C   UNL     1     141.687 139.773 111.390  1.00  0.00     0.028 C 
BRANCH   6   7
ATOM      7  C   UNL     1     143.025 139.914 112.080  1.00  0.00    -0.028 C 
ATOM      8  C   UNL     1     143.388 140.819 113.029  1.00  0.00    -0.070 CG0
ATOM      9  C   UNL     1     144.779 140.673 113.599  1.00  0.00     0.039 C 
ATOM     10  G   UNL     1     142.582 142.037 113.478  1.00  0.00     0.000 G0
ENDBRANCH   6   7
ENDBRANCH   5   6
ENDBRANCH   3   5
ENDBRANCH   1   3
BRANCH   1  11
ATOM     11  C   UNL     1     141.079 139.865 115.022  1.00  0.00     0.087 C 
BRANCH  11  12
ATOM     12  C   UNL     1     141.039 141.340 115.524  1.00  0.00     0.066 C 
BRANCH  12  13
ATOM     13  C   UNL     1     142.217 142.133 114.952  1.00  0.00     0.140 C 
ATOM     14  O   UNL     1     142.870 142.876 115.672  1.00  0.00    -0.299 OA
BRANCH  13  15
ATOM     15  C   UNL     1     142.572 142.044 113.490  1.00  0.00     0.106 CG0
ATOM     16  G   UNL     1     143.374 140.815 113.065  1.00  0.00     0.000 G0
ENDBRANCH  13  15
ENDBRANCH  12  13
BRANCH  12  17
ATOM     17  C   UNL     1     140.968 141.459 117.085  1.00  0.00    -0.006 C 
ATOM     18  C   UNL     1     141.643 140.280 117.813  1.00  0.00     0.008 C 
ATOM     19  C   UNL     1     139.504 141.550 117.564  1.00  0.00     0.008 C 
ENDBRANCH  12  17
ENDBRANCH  11  12
ENDBRANCH   1  11
TORSDOF 1
ENDMDL
MODEL 6
REMARK VINA RESULT:    -4.405      1.936      3.533
REMARK INTER + INTRA:          -6.761
REMARK INTER:                  -6.512
REMARK INTRA:                  -0.249
REMARK UNBOUND:                -0.038
REMARK SMILES CC1=CCC[C@@H](C)C(=O)C[C@@H](C(C)C)C(=O)C1
REMARK SMILES IDX 8 1 9 2 6 3 7 4 5 5 4 6 3 7 2 8 1 9 10 11 11 12 15 13 16 14
REMARK SMILES IDX 17 15 12 17 13 18 14 19
REMARK H PARENT
REMARK Flexibility Score: 70.00
ROOT
ATOM      1  C   UNL     1     139.709 140.717 115.276  1.00  0.00     0.136 C 
ATOM      2  O   UNL     1     139.127 139.911 115.989  1.00  0.00    -0.299 OA
ENDROOT
BRANCH   1   3
ATOM      3  C   UNL     1     140.573 141.767 115.963  1.00  0.00     0.053 C 
ATOM      4  C   UNL     1     140.150 141.872 117.437  1.00  0.00     0.016 C 
BRANCH   3   5
ATOM      5  C   UNL     1     140.577 143.185 115.342  1.00  0.00     0.015 C 
BRANCH   5   6
ATOM      6  C   UNL     1     141.794 143.561 114.478  1.00  0.00     0.028 C 
BRANCH   6   7
ATOM      7  C   UNL     1     142.871 142.503 114.397  1.00  0.00    -0.028 C 
ATOM      8  C   UNL     1     142.999 141.505 113.481  1.00  0.00    -0.070 CG0
ATOM      9  C   UNL     1     144.227 140.634 113.604  1.00  0.00     0.039 C 
ATOM     10  G   UNL     1     141.967 141.100 112.429  1.00  0.00     0.000 G0
ENDBRANCH   6   7
ENDBRANCH   5   6
ENDBRANCH   3   5
ENDBRANCH   1   3
BRANCH   1  11
ATOM     11  C   UNL     1     139.512 140.581 113.780  1.00  0.00     0.087 C 
BRANCH  11  12
ATOM     12  C   UNL     1     140.210 139.306 113.219  1.00  0.00     0.066 C 
BRANCH  12  13
ATOM     13  C   UNL     1     141.466 139.686 112.431  1.00  0.00     0.140 C 
ATOM     14  O   UNL     1     142.101 138.831 111.828  1.00  0.00    -0.299 OA
BRANCH  13  15
ATOM     15  C   UNL     1     141.967 141.108 112.414  1.00  0.00     0.106 CG0
ATOM     16  G   UNL     1     142.990 141.475 113.488  1.00  0.00     0.000 G0
ENDBRANCH  13  15
ENDBRANCH  12  13
BRANCH  12  17
ATOM     17  C   UNL     1     139.251 138.400 112.372  1.00  0.00    -0.006 C 
ATOM     18  C   UNL     1     138.823 139.050 111.042  1.00  0.00     0.008 C 
ATOM     19  C   UNL     1     137.980 138.047 113.171  1.00  0.00     0.008 C 
ENDBRANCH  12  17
ENDBRANCH  11  12
ENDBRANCH   1  11
TORSDOF 1
ENDMDL
MODEL 7
REMARK VINA RESULT:    -4.319      5.508      8.329
REMARK INTER + INTRA:          -6.630
REMARK INTER:                  -6.434
REMARK INTRA:                  -0.196
REMARK UNBOUND:                -0.038
REMARK SMILES CC1=CCC[C@@H](C)C(=O)C[C@@H](C(C)C)C(=O)C1
REMARK SMILES IDX 8 1 9 2 6 3 7 4 5 5 4 6 3 7 2 8 1 9 10 11 11 12 15 13 16 14
REMARK SMILES IDX 17 15 12 17 13 18 14 19
REMARK H PARENT
REMARK Flexibility Score: 70.00
ROOT
ATOM      1  C   UNL     1     136.976 136.747 114.258  1.00  0.00     0.136 C 
ATOM      2  O   UNL     1     137.975 136.602 114.950  1.00  0.00    -0.299 OA
ENDROOT
BRANCH   1   3
ATOM      3  C   UNL     1     137.184 137.143 112.801  1.00  0.00     0.053 C 
ATOM      4  C   UNL     1     138.248 138.249 112.733  1.00  0.00     0.016 C 
BRANCH   3   5
ATOM      5  C   UNL     1     135.931 137.604 112.017  1.00  0.00     0.015 C 
BRANCH   5   6
ATOM      6  C   UNL     1     135.151 136.519 111.253  1.00  0.00     0.028 C 
BRANCH   6   7
ATOM      7  C   UNL     1     133.783 136.203 111.814  1.00  0.00    -0.028 C 
ATOM      8  C   UNL     1     133.461 135.300 112.780  1.00  0.00    -0.070 CG0
ATOM      9  C   UNL     1     132.010 135.251 113.197  1.00  0.00     0.039 C 
ATOM     10  G   UNL     1     134.389 134.249 113.387  1.00  0.00     0.000 G0
ENDBRANCH   6   7
ENDBRANCH   5   6
ENDBRANCH   3   5
ENDBRANCH   1   3
BRANCH   1  11
ATOM     11  C   UNL     1     135.636 136.511 114.924  1.00  0.00     0.087 C 
BRANCH  11  12
ATOM     12  C   UNL     1     135.563 135.106 115.592  1.00  0.00     0.066 C 
BRANCH  12  13
ATOM     13  C   UNL     1     134.514 134.236 114.896  1.00  0.00     0.140 C 
ATOM     14  O   UNL     1     133.779 133.507 115.550  1.00  0.00    -0.299 OA
BRANCH  13  15
ATOM     15  C   UNL     1     134.390 134.228 113.393  1.00  0.00     0.106 CG0
ATOM     16  G   UNL     1     133.466 135.284 112.789  1.00  0.00     0.000 G0
ENDBRANCH  13  15
ENDBRANCH  12  13
BRANCH  12  17
ATOM     17  C   UNL     1     135.321 135.170 117.140  1.00  0.00    -0.006 C 
ATOM     18  C   UNL     1     134.563 136.436 117.581  1.00  0.00     0.008 C 
ATOM     19  C   UNL     1     136.658 135.114 117.908  1.00  0.00     0.008 C 
ENDBRANCH  12  17
ENDBRANCH  11  12
ENDBRANCH   1  11
TORSDOF 1
ENDMDL
MODEL 8
REMARK VINA RESULT:    -4.289      1.861      3.806
REMARK INTER + INTRA:          -6.583
REMARK INTER:                  -6.494
REMARK INTRA:                  -0.089
REMARK UNBOUND:                -0.038
REMARK SMILES CC1=CCC[C@@H](C)C(=O)C[C@@H](C(C)C)C(=O)C1
REMARK SMILES IDX 8 1 9 2 6 3 7 4 5 5 4 6 3 7 2 8 1 9 10 11 11 12 15 13 16 14
REMARK SMILES IDX 17 15 12 17 13 18 14 19
REMARK H PARENT
REMARK Flexibility Score: 70.00
ROOT
ATOM      1  C   UNL     1     139.680 139.869 112.978  1.00  0.00     0.136 C 
ATOM      2  O   UNL     1     138.815 139.391 112.256  1.00  0.00    -0.299 OA
ENDROOT
BRANCH   1   3
ATOM      3  C   UNL     1     139.739 139.381 114.421  1.00  0.00     0.053 C 
ATOM      4  C   UNL     1     139.077 137.996 114.504  1.00  0.00     0.016 C 
BRANCH   3   5
ATOM      5  C   UNL     1     139.113 140.301 115.496  1.00  0.00     0.015 C 
BRANCH   5   6
ATOM      6  C   UNL     1     140.083 141.165 116.322  1.00  0.00     0.028 C 
BRANCH   6   7
ATOM      7  C   UNL     1     139.739 142.636 116.377  1.00  0.00    -0.028 C 
ATOM      8  C   UNL     1     139.757 143.541 115.360  1.00  0.00    -0.070 CG0
ATOM      9  C   UNL     1     139.287 144.937 115.695  1.00  0.00     0.039 C 
ATOM     10  G   UNL     1     140.325 143.321 113.959  1.00  0.00     0.000 G0
ENDBRANCH   6   7
ENDBRANCH   5   6
ENDBRANCH   3   5
ENDBRANCH   1   3
BRANCH   1  11
ATOM     11  C   UNL     1     140.606 140.895 112.357  1.00  0.00     0.087 C 
BRANCH  11  12
ATOM     12  C   UNL     1     141.798 141.240 113.299  1.00  0.00     0.066 C 
BRANCH  12  13
ATOM     13  C   UNL     1     141.657 142.664 113.843  1.00  0.00     0.140 C 
ATOM     14  O   UNL     1     142.640 143.279 114.235  1.00  0.00    -0.299 OA
BRANCH  13  15
ATOM     15  C   UNL     1     140.304 143.323 113.943  1.00  0.00     0.106 CG0
ATOM     16  G   UNL     1     139.767 143.547 115.355  1.00  0.00     0.000 G0
ENDBRANCH  13  15
ENDBRANCH  12  13
BRANCH  12  17
ATOM     17  C   UNL     1     143.198 141.016 112.630  1.00  0.00    -0.006 C 
ATOM     18  C   UNL     1     143.127 140.157 111.354  1.00  0.00     0.008 C 
ATOM     19  C   UNL     1     144.176 140.342 113.615  1.00  0.00     0.008 C 
ENDBRANCH  12  17
ENDBRANCH  11  12
ENDBRANCH   1  11
TORSDOF 1
ENDMDL
MODEL 9
REMARK VINA RESULT:    -4.127      2.097      4.220
REMARK INTER + INTRA:          -6.336
REMARK INTER:                  -6.273
REMARK INTRA:                  -0.063
REMARK UNBOUND:                -0.038
REMARK SMILES CC1=CCC[C@@H](C)C(=O)C[C@@H](C(C)C)C(=O)C1
REMARK SMILES IDX 8 1 9 2 6 3 7 4 5 5 4 6 3 7 2 8 1 9 10 11 11 12 15 13 16 14
REMARK SMILES IDX 17 15 12 17 13 18 14 19
REMARK H PARENT
REMARK Flexibility Score: 70.00
ROOT
ATOM      1  C   UNL     1     139.920 139.236 113.833  1.00  0.00     0.136 C 
ATOM      2  O   UNL     1     138.738 139.434 114.082  1.00  0.00    -0.299 OA
ENDROOT
BRANCH   1   3
ATOM      3  C   UNL     1     140.317 139.113 112.367  1.00  0.00     0.053 C 
ATOM      4  C   UNL     1     141.803 138.729 112.285  1.00  0.00     0.016 C 
BRANCH   3   5
ATOM      5  C   UNL     1     140.068 140.349 111.470  1.00  0.00     0.015 C 
BRANCH   5   6
ATOM      6  C   UNL     1     141.077 141.506 111.585  1.00  0.00     0.028 C 
BRANCH   6   7
ATOM      7  C   UNL     1     140.765 142.520 112.662  1.00  0.00    -0.028 C 
ATOM      8  C   UNL     1     141.538 142.885 113.720  1.00  0.00    -0.070 CG0
ATOM      9  C   UNL     1     140.998 143.988 114.598  1.00  0.00     0.039 C 
ATOM     10  G   UNL     1     142.827 142.205 114.180  1.00  0.00     0.000 G0
ENDBRANCH   6   7
ENDBRANCH   5   6
ENDBRANCH   3   5
ENDBRANCH   1   3
BRANCH   1  11
ATOM     11  C   UNL     1     140.866 139.139 115.013  1.00  0.00     0.087 C 
BRANCH  11  12
ATOM     12  C   UNL     1     141.270 140.547 115.545  1.00  0.00     0.066 C 
BRANCH  12  13
ATOM     13  C   UNL     1     142.646 140.947 115.007  1.00  0.00     0.140 C 
ATOM     14  O   UNL     1     143.631 140.263 115.252  1.00  0.00    -0.299 OA
BRANCH  13  15
ATOM     15  C   UNL     1     142.824 142.208 114.199  1.00  0.00     0.106 CG0
ATOM     16  G   UNL     1     141.541 142.886 113.719  1.00  0.00     0.000 G0
ENDBRANCH  13  15
ENDBRANCH  12  13
BRANCH  12  17
ATOM     17  C   UNL     1     141.209 140.657 117.107  1.00  0.00    -0.006 C 
ATOM     18  C   UNL     1     139.784 140.492 117.669  1.00  0.00     0.008 C 
ATOM     19  C   UNL     1     141.764 142.015 117.585  1.00  0.00     0.008 C 
ENDBRANCH  12  17
ENDBRANCH  11  12
ENDBRANCH   1  11
TORSDOF 1
ENDMDL
