MODEL 1
REMARK VINA RESULT:    -0.125      0.000      0.000
REMARK INTER + INTRA:          -0.218
REMARK INTER:                  -0.150
REMARK INTRA:                  -0.067
REMARK UNBOUND:                -0.067
REMARK SMILES Oc1cc(O)c2c(c1)O[C@@H](c1ccc(O)c(O)c1)[C@H](O)C2
REMARK SMILES IDX 21 1 19 2 10 3 9 4 7 5 8 6 2 7 3 8 4 9 6 10 20 11 11 13
REMARK SMILES IDX 18 14 12 15 16 16 13 17 14 18 17 19 15 21 5 23 1 25
REMARK H PARENT 20 12 17 20 15 22 5 24 1 26
REMARK Flexibility Score: inf
ROOT
ATOM      1  C   UNL     1      73.537  40.858  22.508  1.00  0.00     0.079 C 
ATOM      2  C   UNL     1      72.108  41.030  21.964  1.00  0.00     0.164 C 
ATOM      3  C   UNL     1      71.894  42.489  21.520  1.00  0.00     0.232 C 
ATOM      4  O   UNL     1      72.884  42.862  20.561  1.00  0.00    -0.482 OA
ATOM      5  C   UNL     1      74.208  42.413  20.635  1.00  0.00     0.131 A 
ATOM      6  C   UNL     1      75.163  42.949  19.766  1.00  0.00     0.093 A 
ATOM      7  C   UNL     1      76.493  42.515  19.825  1.00  0.00     0.122 A 
ATOM      8  C   UNL     1      76.865  41.541  20.757  1.00  0.00     0.092 A 
ATOM      9  C   UNL     1      75.914  40.993  21.631  1.00  0.00     0.126 A 
ATOM     10  C   UNL     1      74.572  41.415  21.559  1.00  0.00     0.039 A 
ENDROOT
BRANCH   2  11
ATOM     11  O   UNL     1      71.177  40.696  22.962  1.00  0.00    -0.389 OA
ATOM     12  H   UNL     1      70.329  40.471  22.497  1.00  0.00     0.211 HD
ENDBRANCH   2  11
BRANCH   3  13
ATOM     13  C   UNL     1      70.517  42.682  20.928  1.00  0.00    -0.001 A 
ATOM     14  C   UNL     1      69.399  42.825  21.766  1.00  0.00     0.057 A 
ATOM     15  C   UNL     1      70.331  42.671  19.536  1.00  0.00     0.012 A 
ATOM     16  C   UNL     1      68.115  42.976  21.223  1.00  0.00     0.157 A 
ATOM     17  C   UNL     1      69.053  42.822  18.993  1.00  0.00     0.050 A 
ATOM     18  C   UNL     1      67.944  42.975  19.828  1.00  0.00     0.157 A 
BRANCH  16  19
ATOM     19  O   UNL     1      67.011  43.124  22.062  1.00  0.00    -0.504 OA
ATOM     20  H   UNL     1      66.087  43.318  21.695  1.00  0.00     0.293 HD
ENDBRANCH  16  19
BRANCH  18  21
ATOM     21  O   UNL     1      66.679  43.124  19.257  1.00  0.00    -0.504 OA
ATOM     22  H   UNL     1      66.386  43.989  18.820  1.00  0.00     0.293 HD
ENDBRANCH  18  21
ENDBRANCH   3  13
BRANCH   9  23
ATOM     23  O   UNL     1      76.299  40.033  22.566  1.00  0.00    -0.507 OA
ATOM     24  H   UNL     1      77.275  39.834  22.753  1.00  0.00     0.293 HD
ENDBRANCH   9  23
BRANCH   7  25
ATOM     25  O   UNL     1      77.452  43.045  18.965  1.00  0.00    -0.508 OA
ATOM     26  H   UNL     1      77.694  42.586  18.095  1.00  0.00     0.293 HD
ENDBRANCH   7  25
TORSDOF 6
ENDMDL
MODEL 2
REMARK VINA RESULT:     0.726      3.290      6.870
REMARK INTER + INTRA:           0.807
REMARK INTER:                   0.764
REMARK INTRA:                   0.043
REMARK UNBOUND:                -0.067
REMARK SMILES Oc1cc(O)c2c(c1)O[C@@H](c1ccc(O)c(O)c1)[C@H](O)C2
REMARK SMILES IDX 21 1 19 2 10 3 9 4 7 5 8 6 2 7 3 8 4 9 6 10 20 11 11 13
REMARK SMILES IDX 18 14 12 15 16 16 13 17 14 18 17 19 15 21 5 23 1 25
REMARK H PARENT 20 12 17 20 15 22 5 24 1 26
REMARK Flexibility Score: inf
ROOT
ATOM      1  C   UNL     1      71.269  40.722  20.724  1.00  0.00     0.079 C 
ATOM      2  C   UNL     1      72.524  41.451  21.236  1.00  0.00     0.164 C 
ATOM      3  C   UNL     1      73.292  40.539  22.211  1.00  0.00     0.232 C 
ATOM      4  O   UNL     1      73.611  39.299  21.577  1.00  0.00    -0.482 OA
ATOM      5  C   UNL     1      72.742  38.671  20.678  1.00  0.00     0.131 A 
ATOM      6  C   UNL     1      73.037  37.381  20.227  1.00  0.00     0.093 A 
ATOM      7  C   UNL     1      72.180  36.735  19.329  1.00  0.00     0.122 A 
ATOM      8  C   UNL     1      71.024  37.382  18.882  1.00  0.00     0.092 A 
ATOM      9  C   UNL     1      70.720  38.678  19.324  1.00  0.00     0.126 A 
ATOM     10  C   UNL     1      71.591  39.337  20.213  1.00  0.00     0.039 A 
ENDROOT
BRANCH   2  11
ATOM     11  O   UNL     1      72.151  42.637  21.890  1.00  0.00    -0.389 OA
ATOM     12  H   UNL     1      71.484  42.384  22.581  1.00  0.00     0.211 HD
ENDBRANCH   2  11
BRANCH   3  13
ATOM     13  C   UNL     1      74.562  41.203  22.692  1.00  0.00    -0.001 A 
ATOM     14  C   UNL     1      75.228  40.718  23.830  1.00  0.00     0.057 A 
ATOM     15  C   UNL     1      75.064  42.341  22.038  1.00  0.00     0.012 A 
ATOM     16  C   UNL     1      76.391  41.347  24.297  1.00  0.00     0.157 A 
ATOM     17  C   UNL     1      76.223  42.967  22.502  1.00  0.00     0.050 A 
ATOM     18  C   UNL     1      76.890  42.476  23.628  1.00  0.00     0.157 A 
BRANCH  16  19
ATOM     19  O   UNL     1      77.049  40.855  25.424  1.00  0.00    -0.504 OA
ATOM     20  H   UNL     1      77.491  39.943  25.423  1.00  0.00     0.293 HD
ENDBRANCH  16  19
BRANCH  18  21
ATOM     21  O   UNL     1      78.045  43.124  24.067  1.00  0.00    -0.504 OA
ATOM     22  H   UNL     1      78.113  43.533  24.991  1.00  0.00     0.293 HD
ENDBRANCH  18  21
ENDBRANCH   3  13
BRANCH   9  23
ATOM     23  O   UNL     1      69.557  39.310  18.884  1.00  0.00    -0.507 OA
ATOM     24  H   UNL     1      69.546  40.294  18.643  1.00  0.00     0.293 HD
ENDBRANCH   9  23
BRANCH   7  25
ATOM     25  O   UNL     1      72.466  35.448  18.875  1.00  0.00    -0.508 OA
ATOM     26  H   UNL     1      73.119  34.848  19.364  1.00  0.00     0.293 HD
ENDBRANCH   7  25
TORSDOF 6
ENDMDL
MODEL 3
REMARK VINA RESULT:     1.154      3.189      3.860
REMARK INTER + INTRA:           1.323
REMARK INTER:                   1.471
REMARK INTRA:                  -0.148
REMARK UNBOUND:                -0.067
REMARK SMILES Oc1cc(O)c2c(c1)O[C@@H](c1ccc(O)c(O)c1)[C@H](O)C2
REMARK SMILES IDX 21 1 19 2 10 3 9 4 7 5 8 6 2 7 3 8 4 9 6 10 20 11 11 13
REMARK SMILES IDX 18 14 12 15 16 16 13 17 14 18 17 19 15 21 5 23 1 25
REMARK H PARENT 20 12 17 20 15 22 5 24 1 26
REMARK Flexibility Score: inf
ROOT
ATOM      1  C   UNL     1      75.252  41.985  22.859  1.00  0.00     0.079 C 
ATOM      2  C   UNL     1      74.238  40.934  22.374  1.00  0.00     0.164 C 
ATOM      3  C   UNL     1      73.720  41.320  20.976  1.00  0.00     0.232 C 
ATOM      4  O   UNL     1      74.814  41.472  20.070  1.00  0.00    -0.482 OA
ATOM      5  C   UNL     1      76.042  42.018  20.460  1.00  0.00     0.131 A 
ATOM      6  C   UNL     1      77.009  42.295  19.489  1.00  0.00     0.093 A 
ATOM      7  C   UNL     1      78.242  42.844  19.859  1.00  0.00     0.122 A 
ATOM      8  C   UNL     1      78.507  43.115  21.205  1.00  0.00     0.092 A 
ATOM      9  C   UNL     1      77.546  42.837  22.189  1.00  0.00     0.126 A 
ATOM     10  C   UNL     1      76.312  42.267  21.820  1.00  0.00     0.039 A 
ENDROOT
BRANCH   2  11
ATOM     11  O   UNL     1      73.163  40.861  23.275  1.00  0.00    -0.389 OA
ATOM     12  H   UNL     1      72.597  40.099  22.982  1.00  0.00     0.211 HD
ENDBRANCH   2  11
BRANCH   3  13
ATOM     13  C   UNL     1      72.762  40.279  20.444  1.00  0.00    -0.001 A 
ATOM     14  C   UNL     1      72.889  38.935  20.831  1.00  0.00     0.057 A 
ATOM     15  C   UNL     1      71.766  40.633  19.518  1.00  0.00     0.012 A 
ATOM     16  C   UNL     1      72.022  37.960  20.318  1.00  0.00     0.157 A 
ATOM     17  C   UNL     1      70.900  39.664  19.008  1.00  0.00     0.050 A 
ATOM     18  C   UNL     1      71.021  38.328  19.404  1.00  0.00     0.157 A 
BRANCH  16  19
ATOM     19  O   UNL     1      72.151  36.629  20.714  1.00  0.00    -0.504 OA
ATOM     20  H   UNL     1      72.767  36.358  21.472  1.00  0.00     0.293 HD
ENDBRANCH  16  19
BRANCH  18  21
ATOM     21  O   UNL     1      70.141  37.382  18.877  1.00  0.00    -0.504 OA
ATOM     22  H   UNL     1      70.207  37.063  17.918  1.00  0.00     0.293 HD
ENDBRANCH  18  21
ENDBRANCH   3  13
BRANCH   9  23
ATOM     23  O   UNL     1      77.815  43.125  23.527  1.00  0.00    -0.507 OA
ATOM     24  H   UNL     1      78.318  42.475  24.119  1.00  0.00     0.293 HD
ENDBRANCH   9  23
BRANCH   7  25
ATOM     25  O   UNL     1      79.211  43.125  18.898  1.00  0.00    -0.508 OA
ATOM     26  H   UNL     1      78.958  43.426  17.964  1.00  0.00     0.293 HD
ENDBRANCH   7  25
TORSDOF 6
ENDMDL
MODEL 4
REMARK VINA RESULT:     1.331      1.441      6.858
REMARK INTER + INTRA:           1.536
REMARK INTER:                   1.225
REMARK INTRA:                   0.311
REMARK UNBOUND:                -0.067
REMARK SMILES Oc1cc(O)c2c(c1)O[C@@H](c1ccc(O)c(O)c1)[C@H](O)C2
REMARK SMILES IDX 21 1 19 2 10 3 9 4 7 5 8 6 2 7 3 8 4 9 6 10 20 11 11 13
REMARK SMILES IDX 18 14 12 15 16 16 13 17 14 18 17 19 15 21 5 23 1 25
REMARK H PARENT 20 12 17 20 15 22 5 24 1 26
REMARK Flexibility Score: inf
ROOT
ATOM      1  C   UNL     1      72.524  41.073  23.190  1.00  0.00     0.079 C 
ATOM      2  C   UNL     1      73.924  41.516  22.729  1.00  0.00     0.164 C 
ATOM      3  C   UNL     1      74.084  41.246  21.221  1.00  0.00     0.232 C 
ATOM      4  O   UNL     1      73.044  41.900  20.491  1.00  0.00    -0.482 OA
ATOM      5  C   UNL     1      71.736  42.005  20.979  1.00  0.00     0.131 A 
ATOM      6  C   UNL     1      70.732  42.505  20.144  1.00  0.00     0.093 A 
ATOM      7  C   UNL     1      69.417  42.615  20.613  1.00  0.00     0.122 A 
ATOM      8  C   UNL     1      69.109  42.225  21.919  1.00  0.00     0.092 A 
ATOM      9  C   UNL     1      70.109  41.727  22.767  1.00  0.00     0.126 A 
ATOM     10  C   UNL     1      71.436  41.633  22.304  1.00  0.00     0.039 A 
ENDROOT
BRANCH   2  11
ATOM     11  O   UNL     1      74.905  40.809  23.443  1.00  0.00    -0.389 OA
ATOM     12  H   UNL     1      75.550  40.461  22.774  1.00  0.00     0.211 HD
ENDBRANCH   2  11
BRANCH   3  13
ATOM     13  C   UNL     1      75.429  41.720  20.721  1.00  0.00    -0.001 A 
ATOM     14  C   UNL     1      76.404  42.168  21.629  1.00  0.00     0.057 A 
ATOM     15  C   UNL     1      75.703  41.766  19.344  1.00  0.00     0.012 A 
ATOM     16  C   UNL     1      77.643  42.637  21.169  1.00  0.00     0.157 A 
ATOM     17  C   UNL     1      76.937  42.231  18.886  1.00  0.00     0.050 A 
ATOM     18  C   UNL     1      77.910  42.666  19.790  1.00  0.00     0.157 A 
BRANCH  16  19
ATOM     19  O   UNL     1      78.607  43.073  22.077  1.00  0.00    -0.504 OA
ATOM     20  H   UNL     1      78.500  42.930  23.075  1.00  0.00     0.293 HD
ENDBRANCH  16  19
BRANCH  18  21
ATOM     21  O   UNL     1      79.134  43.125  19.302  1.00  0.00    -0.504 OA
ATOM     22  H   UNL     1      79.678  42.594  18.633  1.00  0.00     0.293 HD
ENDBRANCH  18  21
ENDBRANCH   3  13
BRANCH   9  23
ATOM     23  O   UNL     1      69.789  41.327  24.064  1.00  0.00    -0.507 OA
ATOM     24  H   UNL     1      69.286  41.936  24.698  1.00  0.00     0.293 HD
ENDBRANCH   9  23
BRANCH   7  25
ATOM     25  O   UNL     1      68.409  43.110  19.787  1.00  0.00    -0.508 OA
ATOM     26  H   UNL     1      67.430  42.988  20.017  1.00  0.00     0.293 HD
ENDBRANCH   7  25
TORSDOF 6
ENDMDL
MODEL 5
REMARK VINA RESULT:     2.159      2.563      6.861
REMARK INTER + INTRA:           2.533
REMARK INTER:                   2.803
REMARK INTRA:                  -0.270
REMARK UNBOUND:                -0.067
REMARK SMILES Oc1cc(O)c2c(c1)O[C@@H](c1ccc(O)c(O)c1)[C@H](O)C2
REMARK SMILES IDX 21 1 19 2 10 3 9 4 7 5 8 6 2 7 3 8 4 9 6 10 20 11 11 13
REMARK SMILES IDX 18 14 12 15 16 16 13 17 14 18 17 19 15 21 5 23 1 25
REMARK H PARENT 20 12 17 20 15 22 5 24 1 26
REMARK Flexibility Score: inf
ROOT
ATOM      1  C   UNL     1      72.160  39.399  20.928  1.00  0.00     0.079 C 
ATOM      2  C   UNL     1      73.633  39.811  20.763  1.00  0.00     0.164 C 
ATOM      3  C   UNL     1      73.715  41.292  20.348  1.00  0.00     0.232 C 
ATOM      4  O   UNL     1      73.030  42.108  21.300  1.00  0.00    -0.482 OA
ATOM      5  C   UNL     1      71.854  41.694  21.935  1.00  0.00     0.131 A 
ATOM      6  C   UNL     1      71.144  42.605  22.724  1.00  0.00     0.093 A 
ATOM      7  C   UNL     1      69.964  42.211  23.366  1.00  0.00     0.122 A 
ATOM      8  C   UNL     1      69.494  40.903  23.217  1.00  0.00     0.092 A 
ATOM      9  C   UNL     1      70.200  39.979  22.432  1.00  0.00     0.126 A 
ATOM     10  C   UNL     1      71.398  40.368  21.801  1.00  0.00     0.039 A 
ENDROOT
BRANCH   2  11
ATOM     11  O   UNL     1      74.244  39.010  19.784  1.00  0.00    -0.389 OA
ATOM     12  H   UNL     1      73.512  38.556  19.289  1.00  0.00     0.211 HD
ENDBRANCH   2  11
BRANCH   3  13
ATOM     13  C   UNL     1      75.151  41.747  20.231  1.00  0.00    -0.001 A 
ATOM     14  C   UNL     1      75.840  42.216  21.362  1.00  0.00     0.057 A 
ATOM     15  C   UNL     1      75.798  41.753  18.984  1.00  0.00     0.012 A 
ATOM     16  C   UNL     1      77.164  42.667  21.254  1.00  0.00     0.157 A 
ATOM     17  C   UNL     1      77.117  42.200  18.875  1.00  0.00     0.050 A 
ATOM     18  C   UNL     1      77.804  42.656  20.003  1.00  0.00     0.157 A 
BRANCH  16  19
ATOM     19  O   UNL     1      77.843  43.124  22.383  1.00  0.00    -0.504 OA
ATOM     20  H   UNL     1      77.464  43.861  22.967  1.00  0.00     0.293 HD
ENDBRANCH  16  19
BRANCH  18  21
ATOM     21  O   UNL     1      79.121  43.096  19.863  1.00  0.00    -0.504 OA
ATOM     22  H   UNL     1      79.580  43.652  20.574  1.00  0.00     0.293 HD
ENDBRANCH  18  21
ENDBRANCH   3  13
BRANCH   9  23
ATOM     23  O   UNL     1      69.716  38.681  22.278  1.00  0.00    -0.507 OA
ATOM     24  H   UNL     1      70.203  37.996  21.711  1.00  0.00     0.293 HD
ENDBRANCH   9  23
BRANCH   7  25
ATOM     25  O   UNL     1      69.249  43.112  24.153  1.00  0.00    -0.508 OA
ATOM     26  H   UNL     1      68.284  42.941  24.409  1.00  0.00     0.293 HD
ENDBRANCH   7  25
TORSDOF 6
ENDMDL
MODEL 6
REMARK VINA RESULT:     2.334      3.755      7.497
REMARK INTER + INTRA:           2.744
REMARK INTER:                   3.104
REMARK INTRA:                  -0.360
REMARK UNBOUND:                -0.067
REMARK SMILES Oc1cc(O)c2c(c1)O[C@@H](c1ccc(O)c(O)c1)[C@H](O)C2
REMARK SMILES IDX 21 1 19 2 10 3 9 4 7 5 8 6 2 7 3 8 4 9 6 10 20 11 11 13
REMARK SMILES IDX 18 14 12 15 16 16 13 17 14 18 17 19 15 21 5 23 1 25
REMARK H PARENT 20 12 17 20 15 22 5 24 1 26
REMARK Flexibility Score: inf
ROOT
ATOM      1  C   UNL     1      75.666  42.052  21.886  1.00  0.00     0.079 C 
ATOM      2  C   UNL     1      76.229  41.418  23.170  1.00  0.00     0.164 C 
ATOM      3  C   UNL     1      75.070  41.012  24.100  1.00  0.00     0.232 C 
ATOM      4  O   UNL     1      74.173  40.137  23.415  1.00  0.00    -0.482 OA
ATOM      5  C   UNL     1      73.869  40.285  22.057  1.00  0.00     0.131 A 
ATOM      6  C   UNL     1      72.858  39.504  21.491  1.00  0.00     0.093 A 
ATOM      7  C   UNL     1      72.538  39.639  20.134  1.00  0.00     0.122 A 
ATOM      8  C   UNL     1      73.233  40.559  19.344  1.00  0.00     0.092 A 
ATOM      9  C   UNL     1      74.254  41.345  19.900  1.00  0.00     0.126 A 
ATOM     10  C   UNL     1      74.590  41.196  21.260  1.00  0.00     0.039 A 
ENDROOT
BRANCH   2  11
ATOM     11  O   UNL     1      77.065  42.336  23.826  1.00  0.00    -0.389 OA
ATOM     12  H   UNL     1      76.473  43.030  24.219  1.00  0.00     0.211 HD
ENDBRANCH   2  11
BRANCH   3  13
ATOM     13  C   UNL     1      75.585  40.334  25.348  1.00  0.00    -0.001 A 
ATOM     14  C   UNL     1      75.272  40.851  26.616  1.00  0.00     0.057 A 
ATOM     15  C   UNL     1      76.422  39.209  25.255  1.00  0.00     0.012 A 
ATOM     16  C   UNL     1      75.771  40.243  27.777  1.00  0.00     0.157 A 
ATOM     17  C   UNL     1      76.918  38.601  26.411  1.00  0.00     0.050 A 
ATOM     18  C   UNL     1      76.596  39.111  27.672  1.00  0.00     0.157 A 
BRANCH  16  19
ATOM     19  O   UNL     1      75.450  40.760  29.032  1.00  0.00    -0.504 OA
ATOM     20  H   UNL     1      74.563  41.220  29.205  1.00  0.00     0.293 HD
ENDBRANCH  16  19
BRANCH  18  21
ATOM     21  O   UNL     1      77.107  38.483  28.808  1.00  0.00    -0.504 OA
ATOM     22  H   UNL     1      76.825  38.751  29.743  1.00  0.00     0.293 HD
ENDBRANCH  18  21
ENDBRANCH   3  13
BRANCH   9  23
ATOM     23  O   UNL     1      74.931  42.270  19.107  1.00  0.00    -0.507 OA
ATOM     24  H   UNL     1      74.682  43.252  19.106  1.00  0.00     0.293 HD
ENDBRANCH   9  23
BRANCH   7  25
ATOM     25  O   UNL     1      71.529  38.866  19.562  1.00  0.00    -0.508 OA
ATOM     26  H   UNL     1      71.621  37.861  19.471  1.00  0.00     0.293 HD
ENDBRANCH   7  25
TORSDOF 6
ENDMDL
MODEL 7
REMARK VINA RESULT:     2.670      2.365      6.774
REMARK INTER + INTRA:           3.149
REMARK INTER:                   3.172
REMARK INTRA:                  -0.023
REMARK UNBOUND:                -0.067
REMARK SMILES Oc1cc(O)c2c(c1)O[C@@H](c1ccc(O)c(O)c1)[C@H](O)C2
REMARK SMILES IDX 21 1 19 2 10 3 9 4 7 5 8 6 2 7 3 8 4 9 6 10 20 11 11 13
REMARK SMILES IDX 18 14 12 15 16 16 13 17 14 18 17 19 15 21 5 23 1 25
REMARK H PARENT 20 12 17 20 15 22 5 24 1 26
REMARK Flexibility Score: inf
ROOT
ATOM      1  C   UNL     1      72.911  39.123  19.979  1.00  0.00     0.079 C 
ATOM      2  C   UNL     1      73.948  39.612  21.005  1.00  0.00     0.164 C 
ATOM      3  C   UNL     1      74.468  41.003  20.595  1.00  0.00     0.232 C 
ATOM      4  O   UNL     1      73.377  41.915  20.455  1.00  0.00    -0.482 OA
ATOM      5  C   UNL     1      72.136  41.527  19.937  1.00  0.00     0.131 A 
ATOM      6  C   UNL     1      71.170  42.501  19.669  1.00  0.00     0.093 A 
ATOM      7  C   UNL     1      69.923  42.134  19.148  1.00  0.00     0.122 A 
ATOM      8  C   UNL     1      69.645  40.787  18.896  1.00  0.00     0.092 A 
ATOM      9  C   UNL     1      70.604  39.800  19.166  1.00  0.00     0.126 A 
ATOM     10  C   UNL     1      71.852  40.166  19.708  1.00  0.00     0.039 A 
ENDROOT
BRANCH   2  11
ATOM     11  O   UNL     1      75.019  38.706  21.067  1.00  0.00    -0.389 OA
ATOM     12  H   UNL     1      75.848  39.247  21.138  1.00  0.00     0.211 HD
ENDBRANCH   2  11
BRANCH   3  13
ATOM     13  C   UNL     1      75.449  41.540  21.611  1.00  0.00    -0.001 A 
ATOM     14  C   UNL     1      75.478  41.014  22.914  1.00  0.00     0.057 A 
ATOM     15  C   UNL     1      76.308  42.601  21.282  1.00  0.00     0.012 A 
ATOM     16  C   UNL     1      76.367  41.528  23.870  1.00  0.00     0.157 A 
ATOM     17  C   UNL     1      77.195  43.112  22.232  1.00  0.00     0.050 A 
ATOM     18  C   UNL     1      77.230  42.581  23.525  1.00  0.00     0.157 A 
BRANCH  16  19
ATOM     19  O   UNL     1      76.394  40.996  25.159  1.00  0.00    -0.504 OA
ATOM     20  H   UNL     1      77.133  41.226  25.812  1.00  0.00     0.293 HD
ENDBRANCH  16  19
BRANCH  18  21
ATOM     21  O   UNL     1      78.127  43.112  24.452  1.00  0.00    -0.504 OA
ATOM     22  H   UNL     1      77.929  43.964  24.963  1.00  0.00     0.293 HD
ENDBRANCH  18  21
ENDBRANCH   3  13
BRANCH   9  23
ATOM     23  O   UNL     1      70.322  38.461  18.897  1.00  0.00    -0.507 OA
ATOM     24  H   UNL     1      70.300  38.103  17.949  1.00  0.00     0.293 HD
ENDBRANCH   9  23
BRANCH   7  25
ATOM     25  O   UNL     1      68.955  43.098  18.876  1.00  0.00    -0.508 OA
ATOM     26  H   UNL     1      69.128  43.851  18.220  1.00  0.00     0.293 HD
ENDBRANCH   7  25
TORSDOF 6
ENDMDL
