MODEL 1
REMARK VINA RESULT:    31.581      0.000      0.000
REMARK INTER + INTRA:          37.701
REMARK INTER:                  38.043
REMARK INTRA:                  -0.341
REMARK UNBOUND:                -0.341
REMARK SMILES O=c1c(O)c(-c2ccc(O)cc2O)oc2cc(O)cc(O)c12
REMARK SMILES IDX 5 1 3 2 2 3 1 4 22 5 20 6 19 7 17 8 16 9 15 10 14 11 6 12
REMARK SMILES IDX 8 13 7 14 9 15 11 16 12 17 10 18 13 20 4 22 21 24 18 26
REMARK H PARENT 10 19 13 21 4 23 21 25 18 27
REMARK Flexibility Score: inf
ROOT
ATOM      1  C   UNL     1      12.312   4.947  18.046  1.00  0.00     0.184 A 
ATOM      2  C   UNL     1      11.416   5.127  16.981  1.00  0.00     0.208 A 
ATOM      3  C   UNL     1      11.223   6.417  16.464  1.00  0.00     0.238 A 
ATOM      4  O   UNL     1      10.460   6.565  15.474  1.00  0.00    -0.285 OA
ATOM      5  C   UNL     1      11.918   7.513  17.031  1.00  0.00     0.111 A 
ATOM      6  C   UNL     1      11.770   8.870  16.614  1.00  0.00     0.134 A 
ATOM      7  C   UNL     1      12.603   9.855  17.159  1.00  0.00     0.093 A 
ATOM      8  C   UNL     1      13.534   9.542  18.153  1.00  0.00     0.123 A 
ATOM      9  C   UNL     1      13.646   8.231  18.608  1.00  0.00     0.094 A 
ATOM     10  C   UNL     1      12.854   7.220  18.059  1.00  0.00     0.146 A 
ATOM     11  O   UNL     1      12.999   5.981  18.515  1.00  0.00    -0.451 OA
ENDROOT
BRANCH   1  12
ATOM     12  C   UNL     1      12.547   3.617  18.647  1.00  0.00     0.063 A 
ATOM     13  C   UNL     1      12.181   2.080  20.496  1.00  0.00     0.047 A 
ATOM     14  C   UNL     1      11.982   3.329  19.900  1.00  0.00     0.020 A 
ATOM     15  C   UNL     1      12.932   1.100  19.842  1.00  0.00     0.119 A 
ATOM     16  C   UNL     1      13.481   1.371  18.582  1.00  0.00     0.093 A 
ATOM     17  C   UNL     1      13.282   2.620  17.974  1.00  0.00     0.130 A 
BRANCH  15  18
ATOM     18  O   UNL     1      13.125  -0.138  20.450  1.00  0.00    -0.508 OA
ATOM     19  H   UNL     1      13.347  -0.965  19.908  1.00  0.00     0.293 HD
ENDBRANCH  15  18
BRANCH  17  20
ATOM     20  O   UNL     1      13.792   2.860  16.698  1.00  0.00    -0.507 OA
ATOM     21  H   UNL     1      13.857   3.797  16.318  1.00  0.00     0.293 HD
ENDBRANCH  17  20
ENDBRANCH   1  12
BRANCH   2  22
ATOM     22  O   UNL     1      10.757   4.025  16.429  1.00  0.00    -0.502 OA
ATOM     23  H   UNL     1      11.255   3.256  15.993  1.00  0.00     0.293 HD
ENDBRANCH   2  22
BRANCH   6  24
ATOM     24  O   UNL     1      10.810   9.304  15.696  1.00  0.00    -0.507 OA
ATOM     25  H   UNL     1      10.868  10.159  15.163  1.00  0.00     0.293 HD
ENDBRANCH   6  24
BRANCH   8  26
ATOM     26  O   UNL     1      14.349  10.531  18.699  1.00  0.00    -0.508 OA
ATOM     27  H   UNL     1      14.315  11.489  18.370  1.00  0.00     0.293 HD
ENDBRANCH   8  26
TORSDOF 6
ENDMDL
MODEL 2
REMARK VINA RESULT:    31.845      1.166      2.807
REMARK INTER + INTRA:          38.019
REMARK INTER:                  38.414
REMARK INTRA:                  -0.395
REMARK UNBOUND:                -0.341
REMARK SMILES O=c1c(O)c(-c2ccc(O)cc2O)oc2cc(O)cc(O)c12
REMARK SMILES IDX 5 1 3 2 2 3 1 4 22 5 20 6 19 7 17 8 16 9 15 10 14 11 6 12
REMARK SMILES IDX 8 13 7 14 9 15 11 16 12 17 10 18 13 20 4 22 21 24 18 26
REMARK H PARENT 10 19 13 21 4 23 21 25 18 27
REMARK Flexibility Score: inf
ROOT
ATOM      1  C   UNL     1      12.772   4.982  18.506  1.00  0.00     0.184 A 
ATOM      2  C   UNL     1      13.716   5.874  19.037  1.00  0.00     0.208 A 
ATOM      3  C   UNL     1      13.697   7.214  18.620  1.00  0.00     0.238 A 
ATOM      4  O   UNL     1      14.510   8.021  19.139  1.00  0.00    -0.285 OA
ATOM      5  C   UNL     1      12.741   7.640  17.665  1.00  0.00     0.111 A 
ATOM      6  C   UNL     1      12.653   8.964  17.141  1.00  0.00     0.134 A 
ATOM      7  C   UNL     1      11.588   9.304  16.298  1.00  0.00     0.093 A 
ATOM      8  C   UNL     1      10.643   8.350  15.910  1.00  0.00     0.123 A 
ATOM      9  C   UNL     1      10.753   7.041  16.370  1.00  0.00     0.094 A 
ATOM     10  C   UNL     1      11.784   6.680  17.240  1.00  0.00     0.146 A 
ATOM     11  O   UNL     1      11.846   5.422  17.663  1.00  0.00    -0.451 OA
ENDROOT
BRANCH   1  12
ATOM     12  C   UNL     1      12.750   3.554  18.890  1.00  0.00     0.063 A 
ATOM     13  C   UNL     1      11.984   1.826  20.420  1.00  0.00     0.047 A 
ATOM     14  C   UNL     1      12.030   3.168  20.032  1.00  0.00     0.020 A 
ATOM     15  C   UNL     1      12.645   0.853  19.666  1.00  0.00     0.119 A 
ATOM     16  C   UNL     1      13.347   1.225  18.513  1.00  0.00     0.093 A 
ATOM     17  C   UNL     1      13.393   2.570  18.113  1.00  0.00     0.130 A 
BRANCH  15  18
ATOM     18  O   UNL     1      12.595  -0.480  20.068  1.00  0.00    -0.508 OA
ATOM     19  H   UNL     1      13.418  -0.961  20.411  1.00  0.00     0.293 HD
ENDBRANCH  15  18
BRANCH  17  20
ATOM     20  O   UNL     1      14.055   2.921  16.935  1.00  0.00    -0.507 OA
ATOM     21  H   UNL     1      14.989   3.314  16.947  1.00  0.00     0.293 HD
ENDBRANCH  17  20
ENDBRANCH   1  12
BRANCH   2  22
ATOM     22  O   UNL     1      14.637   5.431  19.991  1.00  0.00    -0.502 OA
ATOM     23  H   UNL     1      14.624   4.487  20.361  1.00  0.00     0.293 HD
ENDBRANCH   2  22
BRANCH   6  24
ATOM     24  O   UNL     1      13.595   9.966  17.391  1.00  0.00    -0.507 OA
ATOM     25  H   UNL     1      13.398  10.956  17.378  1.00  0.00     0.293 HD
ENDBRANCH   6  24
BRANCH   8  26
ATOM     26  O   UNL     1       9.595   8.695  15.060  1.00  0.00    -0.508 OA
ATOM     27  H   UNL     1       8.763   9.161  15.405  1.00  0.00     0.293 HD
ENDBRANCH   8  26
TORSDOF 6
ENDMDL
MODEL 3
REMARK VINA RESULT:    32.378      4.738      7.695
REMARK INTER + INTRA:          38.662
REMARK INTER:                  38.997
REMARK INTRA:                  -0.334
REMARK UNBOUND:                -0.341
REMARK SMILES O=c1c(O)c(-c2ccc(O)cc2O)oc2cc(O)cc(O)c12
REMARK SMILES IDX 5 1 3 2 2 3 1 4 22 5 20 6 19 7 17 8 16 9 15 10 14 11 6 12
REMARK SMILES IDX 8 13 7 14 9 15 11 16 12 17 10 18 13 20 4 22 21 24 18 26
REMARK H PARENT 10 19 13 21 4 23 21 25 18 27
REMARK Flexibility Score: inf
ROOT
ATOM      1  C   UNL     1       9.737  10.020  19.909  1.00  0.00     0.184 A 
ATOM      2  C   UNL     1      11.046  10.344  20.296  1.00  0.00     0.208 A 
ATOM      3  C   UNL     1      12.110  10.006  19.446  1.00  0.00     0.238 A 
ATOM      4  O   UNL     1      13.277  10.347  19.771  1.00  0.00    -0.285 OA
ATOM      5  C   UNL     1      11.851   9.332  18.227  1.00  0.00     0.111 A 
ATOM      6  C   UNL     1      12.855   8.906  17.307  1.00  0.00     0.134 A 
ATOM      7  C   UNL     1      12.475   8.364  16.073  1.00  0.00     0.093 A 
ATOM      8  C   UNL     1      11.128   8.175  15.753  1.00  0.00     0.123 A 
ATOM      9  C   UNL     1      10.142   8.534  16.668  1.00  0.00     0.094 A 
ATOM     10  C   UNL     1      10.489   9.109  17.892  1.00  0.00     0.146 A 
ATOM     11  O   UNL     1       9.516   9.448  18.732  1.00  0.00    -0.451 OA
ENDROOT
BRANCH   1  12
ATOM     12  C   UNL     1       8.574  10.332  20.767  1.00  0.00     0.063 A 
ATOM     13  C   UNL     1       6.832   9.546  22.271  1.00  0.00     0.047 A 
ATOM     14  C   UNL     1       7.932   9.286  21.448  1.00  0.00     0.020 A 
ATOM     15  C   UNL     1       6.370  10.855  22.434  1.00  0.00     0.119 A 
ATOM     16  C   UNL     1       7.018  11.908  21.776  1.00  0.00     0.093 A 
ATOM     17  C   UNL     1       8.126  11.655  20.953  1.00  0.00     0.130 A 
BRANCH  15  18
ATOM     18  O   UNL     1       5.270  11.098  23.254  1.00  0.00    -0.508 OA
ATOM     19  H   UNL     1       5.236  11.903  23.869  1.00  0.00     0.293 HD
ENDBRANCH  15  18
BRANCH  17  20
ATOM     20  O   UNL     1       8.793  12.719  20.342  1.00  0.00    -0.507 OA
ATOM     21  H   UNL     1       9.439  12.572  19.576  1.00  0.00     0.293 HD
ENDBRANCH  17  20
ENDBRANCH   1  12
BRANCH   2  22
ATOM     22  O   UNL     1      11.272  11.025  21.496  1.00  0.00    -0.502 OA
ATOM     23  H   UNL     1      10.562  11.109  22.214  1.00  0.00     0.293 HD
ENDBRANCH   2  22
BRANCH   6  24
ATOM     24  O   UNL     1      14.227   8.965  17.567  1.00  0.00    -0.507 OA
ATOM     25  H   UNL     1      14.637   9.329  18.414  1.00  0.00     0.293 HD
ENDBRANCH   6  24
BRANCH   8  26
ATOM     26  O   UNL     1      10.761   7.622  14.528  1.00  0.00    -0.508 OA
ATOM     27  H   UNL     1      10.112   6.845  14.470  1.00  0.00     0.293 HD
ENDBRANCH   8  26
TORSDOF 6
ENDMDL
MODEL 4
REMARK VINA RESULT:    32.841      4.921      7.205
REMARK INTER + INTRA:          39.219
REMARK INTER:                  39.618
REMARK INTRA:                  -0.399
REMARK UNBOUND:                -0.341
REMARK SMILES O=c1c(O)c(-c2ccc(O)cc2O)oc2cc(O)cc(O)c12
REMARK SMILES IDX 5 1 3 2 2 3 1 4 22 5 20 6 19 7 17 8 16 9 15 10 14 11 6 12
REMARK SMILES IDX 8 13 7 14 9 15 11 16 12 17 10 18 13 20 4 22 21 24 18 26
REMARK H PARENT 10 19 13 21 4 23 21 25 18 27
REMARK Flexibility Score: inf
ROOT
ATOM      1  C   UNL     1       9.195   9.888  19.546  1.00  0.00     0.184 A 
ATOM      2  C   UNL     1       8.705   9.458  18.303  1.00  0.00     0.208 A 
ATOM      3  C   UNL     1       9.618   9.104  17.298  1.00  0.00     0.238 A 
ATOM      4  O   UNL     1       9.175   8.667  16.204  1.00  0.00    -0.285 OA
ATOM      5  C   UNL     1      11.009   9.200  17.545  1.00  0.00     0.111 A 
ATOM      6  C   UNL     1      12.025   8.905  16.587  1.00  0.00     0.134 A 
ATOM      7  C   UNL     1      13.369   8.911  16.981  1.00  0.00     0.093 A 
ATOM      8  C   UNL     1      13.737   9.264  18.282  1.00  0.00     0.123 A 
ATOM      9  C   UNL     1      12.757   9.610  19.209  1.00  0.00     0.094 A 
ATOM     10  C   UNL     1      11.406   9.579  18.855  1.00  0.00     0.146 A 
ATOM     11  O   UNL     1      10.502   9.907  19.773  1.00  0.00    -0.451 OA
ENDROOT
BRANCH   1  12
ATOM     12  C   UNL     1       8.287  10.293  20.641  1.00  0.00     0.063 A 
ATOM     13  C   UNL     1       6.882   9.650  22.518  1.00  0.00     0.047 A 
ATOM     14  C   UNL     1       7.740   9.302  21.471  1.00  0.00     0.020 A 
ATOM     15  C   UNL     1       6.572  10.992  22.757  1.00  0.00     0.119 A 
ATOM     16  C   UNL     1       7.131  11.989  21.948  1.00  0.00     0.093 A 
ATOM     17  C   UNL     1       7.998  11.648  20.899  1.00  0.00     0.130 A 
BRANCH  15  18
ATOM     18  O   UNL     1       5.712  11.323  23.802  1.00  0.00    -0.508 OA
ATOM     19  H   UNL     1       5.928  12.073  24.448  1.00  0.00     0.293 HD
ENDBRANCH  15  18
BRANCH  17  20
ATOM     20  O   UNL     1       8.586  12.655  20.131  1.00  0.00    -0.507 OA
ATOM     21  H   UNL     1       8.339  12.796  19.159  1.00  0.00     0.293 HD
ENDBRANCH  17  20
ENDBRANCH   1  12
BRANCH   2  22
ATOM     22  O   UNL     1       7.327   9.356  18.092  1.00  0.00    -0.502 OA
ATOM     23  H   UNL     1       6.872   8.471  17.902  1.00  0.00     0.293 HD
ENDBRANCH   2  22
BRANCH   6  24
ATOM     24  O   UNL     1      11.771   8.630  15.241  1.00  0.00    -0.507 OA
ATOM     25  H   UNL     1      11.888   7.727  14.806  1.00  0.00     0.293 HD
ENDBRANCH   6  24
BRANCH   8  26
ATOM     26  O   UNL     1      15.077   9.281  18.661  1.00  0.00    -0.508 OA
ATOM     27  H   UNL     1      15.771   9.798  18.133  1.00  0.00     0.293 HD
ENDBRANCH   8  26
TORSDOF 6
ENDMDL
