MODEL 1
REMARK VINA RESULT:    -3.418      0.000      0.000
REMARK INTER + INTRA:          -4.384
REMARK INTER:                  -4.817
REMARK INTRA:                   0.433
REMARK UNBOUND:                 0.433
REMARK SMILES CC1=CCC(=C(C)C)C(=O)CC(C)=CCC1
REMARK SMILES IDX 12 1 14 2 13 3 15 4 16 5 2 6 1 7 3 8 11 10 9 11 10 12 5 13
REMARK SMILES IDX 6 14 7 15 8 16 4 17
REMARK H PARENT
REMARK Flexibility Score: 60.00
ROOT
ATOM      1  C   UNL     1       0.989 -15.428   9.730  1.00  0.00    -0.070 C 
ATOM      2  C   UNL     1       1.994 -16.175  10.238  1.00  0.00    -0.027 C 
ATOM      3  C   UNL     1       0.245 -15.968   8.535  1.00  0.00     0.039 C 
ENDROOT
BRANCH   2   4
ATOM      4  C   UNL     1       2.790 -15.852  11.485  1.00  0.00     0.032 C 
BRANCH   4   5
ATOM      5  C   UNL     1       4.273 -15.509  11.235  1.00  0.00     0.034 C 
BRANCH   5   6
ATOM      6  C   UNL     1       4.547 -14.016  11.217  1.00  0.00    -0.077 C 
ATOM      7  C   UNL     1       5.200 -13.408  12.433  1.00  0.00     0.039 C 
ATOM      8  C   UNL     1       4.306 -13.207  10.156  1.00  0.00    -0.023 CG0
ATOM      9  G   UNL     1       3.644 -13.590   8.847  1.00  0.00     0.000 G0
ENDBRANCH   5   6
ENDBRANCH   4   5
ENDBRANCH   2   4
BRANCH   1  10
ATOM     10  C   UNL     1       0.517 -14.132  10.356  1.00  0.00     0.111 C 
BRANCH  10  11
ATOM     11  C   UNL     1       1.373 -12.967   9.934  1.00  0.00     0.163 C 
ATOM     12  O   UNL     1       1.410 -11.955  10.684  1.00  0.00    -0.294 OA
BRANCH  11  13
ATOM     13  C   UNL     1       2.218 -12.997   8.702  1.00  0.00    -0.002 C 
ATOM     14  C   UNL     1       1.763 -12.461   7.530  1.00  0.00    -0.069 C 
ATOM     15  C   UNL     1       2.650 -12.333   6.310  1.00  0.00     0.039 C 
ATOM     16  C   UNL     1       0.340 -11.963   7.395  1.00  0.00     0.039 C 
BRANCH  13  17
ATOM     17  C   UNL     1       3.624 -13.558   8.837  1.00  0.00     0.066 CG0
ATOM     18  G   UNL     1       4.268 -13.189  10.159  1.00  0.00     0.000 G0
ENDBRANCH  13  17
ENDBRANCH  11  13
ENDBRANCH  10  11
ENDBRANCH   1  10
TORSDOF 0
ENDMDL
MODEL 2
REMARK VINA RESULT:    -3.114      1.490      4.133
REMARK INTER + INTRA:          -3.955
REMARK INTER:                  -4.498
REMARK INTRA:                   0.543
REMARK UNBOUND:                 0.433
REMARK SMILES CC1=CCC(=C(C)C)C(=O)CC(C)=CCC1
REMARK SMILES IDX 12 1 14 2 13 3 15 4 16 5 2 6 1 7 3 8 11 10 9 11 10 12 5 13
REMARK SMILES IDX 6 14 7 15 8 16 4 17
REMARK H PARENT
REMARK Flexibility Score: 60.00
ROOT
ATOM      1  C   UNL     1       0.579 -15.370   9.286  1.00  0.00    -0.070 C 
ATOM      2  C   UNL     1       0.231 -14.182   8.746  1.00  0.00    -0.027 C 
ATOM      3  C   UNL     1       0.236 -16.622   8.518  1.00  0.00     0.039 C 
ENDROOT
BRANCH   2   4
ATOM      4  C   UNL     1       0.571 -12.820   9.313  1.00  0.00     0.032 C 
BRANCH   4   5
ATOM      5  C   UNL     1       1.302 -11.876   8.336  1.00  0.00     0.034 C 
BRANCH   5   6
ATOM      6  C   UNL     1       2.716 -12.325   8.015  1.00  0.00    -0.077 C 
ATOM      7  C   UNL     1       3.151 -12.293   6.572  1.00  0.00     0.039 C 
ATOM      8  C   UNL     1       3.633 -12.686   8.946  1.00  0.00    -0.023 CG0
ATOM      9  G   UNL     1       3.417 -12.809  10.442  1.00  0.00     0.000 G0
ENDBRANCH   5   6
ENDBRANCH   4   5
ENDBRANCH   2   4
BRANCH   1  10
ATOM     10  C   UNL     1       1.373 -15.500  10.569  1.00  0.00     0.111 C 
BRANCH  10  11
ATOM     11  C   UNL     1       2.848 -15.310  10.332  1.00  0.00     0.163 C 
ATOM     12  O   UNL     1       3.423 -16.080   9.516  1.00  0.00    -0.294 OA
BRANCH  11  13
ATOM     13  C   UNL     1       3.630 -14.213  10.978  1.00  0.00    -0.002 C 
ATOM     14  C   UNL     1       4.553 -14.489  11.948  1.00  0.00    -0.069 C 
ATOM     15  C   UNL     1       5.470 -13.424  12.507  1.00  0.00     0.039 C 
ATOM     16  C   UNL     1       4.705 -15.886  12.510  1.00  0.00     0.039 C 
BRANCH  13  17
ATOM     17  C   UNL     1       3.420 -12.804  10.446  1.00  0.00     0.066 CG0
ATOM     18  G   UNL     1       3.626 -12.718   8.947  1.00  0.00     0.000 G0
ENDBRANCH  13  17
ENDBRANCH  11  13
ENDBRANCH  10  11
ENDBRANCH   1  10
TORSDOF 0
ENDMDL
MODEL 3
REMARK VINA RESULT:    -3.068      1.802      3.874
REMARK INTER + INTRA:          -3.891
REMARK INTER:                  -4.350
REMARK INTRA:                   0.459
REMARK UNBOUND:                 0.433
REMARK SMILES CC1=CCC(=C(C)C)C(=O)CC(C)=CCC1
REMARK SMILES IDX 12 1 14 2 13 3 15 4 16 5 2 6 1 7 3 8 11 10 9 11 10 12 5 13
REMARK SMILES IDX 6 14 7 15 8 16 4 17
REMARK H PARENT
REMARK Flexibility Score: 60.00
ROOT
ATOM      1  C   UNL     1       1.428 -12.918   8.764  1.00  0.00    -0.070 C 
ATOM      2  C   UNL     1       0.735 -13.680   9.639  1.00  0.00    -0.027 C 
ATOM      3  C   UNL     1       0.790 -12.614   7.432  1.00  0.00     0.039 C 
ENDROOT
BRANCH   2   4
ATOM      4  C   UNL     1       1.161 -14.011  11.052  1.00  0.00     0.032 C 
BRANCH   4   5
ATOM      5  C   UNL     1       1.540 -15.488  11.285  1.00  0.00     0.034 C 
BRANCH   5   6
ATOM      6  C   UNL     1       2.245 -16.119  10.098  1.00  0.00    -0.077 C 
ATOM      7  C   UNL     1       1.454 -17.072   9.238  1.00  0.00     0.039 C 
ATOM      8  C   UNL     1       3.515 -15.830   9.721  1.00  0.00    -0.023 CG0
ATOM      9  G   UNL     1       4.497 -14.924  10.438  1.00  0.00     0.000 G0
ENDBRANCH   5   6
ENDBRANCH   4   5
ENDBRANCH   2   4
BRANCH   1  10
ATOM     10  C   UNL     1       2.763 -12.282   9.092  1.00  0.00     0.111 C 
BRANCH  10  11
ATOM     11  C   UNL     1       3.915 -13.152   8.661  1.00  0.00     0.163 C 
ATOM     12  O   UNL     1       4.059 -13.379   7.430  1.00  0.00    -0.294 OA
BRANCH  11  13
ATOM     13  C   UNL     1       4.914 -13.697   9.629  1.00  0.00    -0.002 C 
ATOM     14  C   UNL     1       6.111 -13.067   9.827  1.00  0.00    -0.069 C 
ATOM     15  C   UNL     1       7.074 -13.500  10.911  1.00  0.00     0.039 C 
ATOM     16  C   UNL     1       6.531 -11.895   8.968  1.00  0.00     0.039 C 
BRANCH  13  17
ATOM     17  C   UNL     1       4.502 -14.914  10.442  1.00  0.00     0.066 CG0
ATOM     18  G   UNL     1       3.516 -15.796   9.700  1.00  0.00     0.000 G0
ENDBRANCH  13  17
ENDBRANCH  11  13
ENDBRANCH  10  11
ENDBRANCH   1  10
TORSDOF 0
ENDMDL
MODEL 4
REMARK VINA RESULT:    -3.064      1.489      2.894
REMARK INTER + INTRA:          -3.884
REMARK INTER:                  -4.204
REMARK INTRA:                   0.319
REMARK UNBOUND:                 0.433
REMARK SMILES CC1=CCC(=C(C)C)C(=O)CC(C)=CCC1
REMARK SMILES IDX 12 1 14 2 13 3 15 4 16 5 2 6 1 7 3 8 11 10 9 11 10 12 5 13
REMARK SMILES IDX 6 14 7 15 8 16 4 17
REMARK H PARENT
REMARK Flexibility Score: 60.00
ROOT
ATOM      1  C   UNL     1       3.135 -16.309  12.284  1.00  0.00    -0.070 C 
ATOM      2  C   UNL     1       4.398 -15.835  12.197  1.00  0.00    -0.027 C 
ATOM      3  C   UNL     1       2.736 -17.024  13.550  1.00  0.00     0.039 C 
ENDROOT
BRANCH   2   4
ATOM      4  C   UNL     1       4.955 -15.012  11.056  1.00  0.00     0.032 C 
BRANCH   4   5
ATOM      5  C   UNL     1       4.897 -13.485  11.270  1.00  0.00     0.034 C 
BRANCH   5   6
ATOM      6  C   UNL     1       4.591 -12.713   9.999  1.00  0.00    -0.077 C 
ATOM      7  C   UNL     1       5.726 -12.465   9.039  1.00  0.00     0.039 C 
ATOM      8  C   UNL     1       3.353 -12.294   9.640  1.00  0.00    -0.023 CG0
ATOM      9  G   UNL     1       2.076 -12.415  10.448  1.00  0.00     0.000 G0
ENDBRANCH   5   6
ENDBRANCH   4   5
ENDBRANCH   2   4
BRANCH   1  10
ATOM     10  C   UNL     1       2.084 -16.076  11.218  1.00  0.00     0.111 C 
BRANCH  10  11
ATOM     11  C   UNL     1       1.434 -14.726  11.364  1.00  0.00     0.163 C 
ATOM     12  O   UNL     1       0.986 -14.402  12.497  1.00  0.00    -0.294 OA
BRANCH  11  13
ATOM     13  C   UNL     1       1.359 -13.746  10.239  1.00  0.00    -0.002 C 
ATOM     14  C   UNL     1       0.624 -14.022   9.120  1.00  0.00    -0.069 C 
ATOM     15  C   UNL     1       0.398 -12.991   8.035  1.00  0.00     0.039 C 
ATOM     16  C   UNL     1      -0.007 -15.381   8.911  1.00  0.00     0.039 C 
BRANCH  13  17
ATOM     17  C   UNL     1       2.051 -12.407  10.436  1.00  0.00     0.066 CG0
ATOM     18  G   UNL     1       3.345 -12.306   9.651  1.00  0.00     0.000 G0
ENDBRANCH  13  17
ENDBRANCH  11  13
ENDBRANCH  10  11
ENDBRANCH   1  10
TORSDOF 0
ENDMDL
MODEL 5
REMARK VINA RESULT:    -3.027      1.990      5.091
REMARK INTER + INTRA:          -3.833
REMARK INTER:                  -4.369
REMARK INTRA:                   0.536
REMARK UNBOUND:                 0.433
REMARK SMILES CC1=CCC(=C(C)C)C(=O)CC(C)=CCC1
REMARK SMILES IDX 12 1 14 2 13 3 15 4 16 5 2 6 1 7 3 8 11 10 9 11 10 12 5 13
REMARK SMILES IDX 6 14 7 15 8 16 4 17
REMARK H PARENT
REMARK Flexibility Score: 60.00
ROOT
ATOM      1  C   UNL     1       3.563 -12.822   8.558  1.00  0.00    -0.070 C 
ATOM      2  C   UNL     1       2.246 -12.639   8.799  1.00  0.00    -0.027 C 
ATOM      3  C   UNL     1       4.104 -12.379   7.222  1.00  0.00     0.039 C 
ENDROOT
BRANCH   2   4
ATOM      4  C   UNL     1       1.539 -12.927  10.105  1.00  0.00     0.032 C 
BRANCH   4   5
ATOM      5  C   UNL     1       0.306 -13.847   9.985  1.00  0.00     0.034 C 
BRANCH   5   6
ATOM      6  C   UNL     1       0.661 -15.279   9.627  1.00  0.00    -0.077 C 
ATOM      7  C   UNL     1      -0.099 -15.928   8.498  1.00  0.00     0.039 C 
ATOM      8  C   UNL     1       1.660 -15.987  10.209  1.00  0.00    -0.023 CG0
ATOM      9  G   UNL     1       2.538 -15.550  11.365  1.00  0.00     0.000 G0
ENDBRANCH   5   6
ENDBRANCH   4   5
ENDBRANCH   2   4
BRANCH   1  10
ATOM     10  C   UNL     1       4.530 -13.360   9.592  1.00  0.00     0.111 C 
BRANCH  10  11
ATOM     11  C   UNL     1       4.409 -14.854   9.743  1.00  0.00     0.163 C 
ATOM     12  O   UNL     1       4.689 -15.576   8.748  1.00  0.00    -0.294 OA
BRANCH  11  13
ATOM     13  C   UNL     1       4.033 -15.501  11.036  1.00  0.00    -0.002 C 
ATOM     14  C   UNL     1       4.994 -15.947  11.899  1.00  0.00    -0.069 C 
ATOM     15  C   UNL     1       4.652 -16.460  13.282  1.00  0.00     0.039 C 
ATOM     16  C   UNL     1       6.457 -15.946  11.514  1.00  0.00     0.039 C 
BRANCH  13  17
ATOM     17  C   UNL     1       2.554 -15.552  11.383  1.00  0.00     0.066 CG0
ATOM     18  G   UNL     1       1.701 -15.990  10.208  1.00  0.00     0.000 G0
ENDBRANCH  13  17
ENDBRANCH  11  13
ENDBRANCH  10  11
ENDBRANCH   1  10
TORSDOF 0
ENDMDL
MODEL 6
REMARK VINA RESULT:    -2.978      2.107      3.244
REMARK INTER + INTRA:          -3.764
REMARK INTER:                  -3.989
REMARK INTRA:                   0.226
REMARK UNBOUND:                 0.433
REMARK SMILES CC1=CCC(=C(C)C)C(=O)CC(C)=CCC1
REMARK SMILES IDX 12 1 14 2 13 3 15 4 16 5 2 6 1 7 3 8 11 10 9 11 10 12 5 13
REMARK SMILES IDX 6 14 7 15 8 16 4 17
REMARK H PARENT
REMARK Flexibility Score: 60.00
ROOT
ATOM      1  C   UNL     1       4.141 -14.725   9.468  1.00  0.00    -0.070 C 
ATOM      2  C   UNL     1       5.122 -14.369  10.326  1.00  0.00    -0.027 C 
ATOM      3  C   UNL     1       3.957 -13.893   8.223  1.00  0.00     0.039 C 
ENDROOT
BRANCH   2   4
ATOM      4  C   UNL     1       5.523 -15.130  11.572  1.00  0.00     0.032 C 
BRANCH   4   5
ATOM      5  C   UNL     1       4.458 -15.152  12.688  1.00  0.00     0.034 C 
BRANCH   5   6
ATOM      6  C   UNL     1       3.803 -13.801  12.916  1.00  0.00    -0.077 C 
ATOM      7  C   UNL     1       4.661 -12.691  13.469  1.00  0.00     0.039 C 
ATOM      8  C   UNL     1       2.519 -13.510  12.593  1.00  0.00    -0.023 CG0
ATOM      9  G   UNL     1       1.475 -14.465  12.047  1.00  0.00     0.000 G0
ENDBRANCH   5   6
ENDBRANCH   4   5
ENDBRANCH   2   4
BRANCH   1  10
ATOM     10  C   UNL     1       3.287 -15.963   9.647  1.00  0.00     0.111 C 
BRANCH  10  11
ATOM     11  C   UNL     1       1.825 -15.618   9.762  1.00  0.00     0.163 C 
ATOM     12  O   UNL     1       0.987 -16.400   9.239  1.00  0.00    -0.294 OA
BRANCH  11  13
ATOM     13  C   UNL     1       1.341 -14.426  10.522  1.00  0.00    -0.002 C 
ATOM     14  C   UNL     1       0.746 -13.379   9.874  1.00  0.00    -0.069 C 
ATOM     15  C   UNL     1       0.103 -12.234  10.625  1.00  0.00     0.039 C 
ATOM     16  C   UNL     1       0.697 -13.317   8.363  1.00  0.00     0.039 C 
BRANCH  13  17
ATOM     17  C   UNL     1       1.452 -14.475  12.037  1.00  0.00     0.066 CG0
ATOM     18  G   UNL     1       2.519 -13.536  12.566  1.00  0.00     0.000 G0
ENDBRANCH  13  17
ENDBRANCH  11  13
ENDBRANCH  10  11
ENDBRANCH   1  10
TORSDOF 0
ENDMDL
MODEL 7
REMARK VINA RESULT:    -2.950      2.541      4.993
REMARK INTER + INTRA:          -3.724
REMARK INTER:                  -3.921
REMARK INTRA:                   0.198
REMARK UNBOUND:                 0.433
REMARK SMILES CC1=CCC(=C(C)C)C(=O)CC(C)=CCC1
REMARK SMILES IDX 12 1 14 2 13 3 15 4 16 5 2 6 1 7 3 8 11 10 9 11 10 12 5 13
REMARK SMILES IDX 6 14 7 15 8 16 4 17
REMARK H PARENT
REMARK Flexibility Score: 60.00
ROOT
ATOM      1  C   UNL     1       2.072 -15.192   9.883  1.00  0.00    -0.070 C 
ATOM      2  C   UNL     1       3.031 -14.568   9.165  1.00  0.00    -0.027 C 
ATOM      3  C   UNL     1       0.638 -14.790   9.645  1.00  0.00     0.039 C 
ENDROOT
BRANCH   2   4
ATOM      4  C   UNL     1       4.508 -14.896   9.191  1.00  0.00     0.032 C 
BRANCH   4   5
ATOM      5  C   UNL     1       5.267 -14.370  10.427  1.00  0.00     0.034 C 
BRANCH   5   6
ATOM      6  C   UNL     1       6.049 -15.450  11.153  1.00  0.00    -0.077 C 
ATOM      7  C   UNL     1       7.238 -16.049  10.446  1.00  0.00     0.039 C 
ATOM      8  C   UNL     1       5.790 -15.862  12.418  1.00  0.00    -0.023 CG0
ATOM      9  G   UNL     1       4.644 -15.418  13.307  1.00  0.00     0.000 G0
ENDBRANCH   5   6
ENDBRANCH   4   5
ENDBRANCH   2   4
BRANCH   1  10
ATOM     10  C   UNL     1       2.358 -16.331  10.840  1.00  0.00     0.111 C 
BRANCH  10  11
ATOM     11  C   UNL     1       2.369 -15.865  12.272  1.00  0.00     0.163 C 
ATOM     12  O   UNL     1       1.417 -15.141  12.669  1.00  0.00    -0.294 OA
BRANCH  11  13
ATOM     13  C   UNL     1       3.429 -16.279  13.241  1.00  0.00    -0.002 C 
ATOM     14  C   UNL     1       3.318 -17.448  13.940  1.00  0.00    -0.069 C 
ATOM     15  C   UNL     1       4.442 -17.973  14.806  1.00  0.00     0.039 C 
ATOM     16  C   UNL     1       2.057 -18.282  13.878  1.00  0.00     0.039 C 
BRANCH  13  17
ATOM     17  C   UNL     1       4.663 -15.398  13.340  1.00  0.00     0.066 CG0
ATOM     18  G   UNL     1       5.772 -15.853  12.411  1.00  0.00     0.000 G0
ENDBRANCH  13  17
ENDBRANCH  11  13
ENDBRANCH  10  11
ENDBRANCH   1  10
TORSDOF 0
ENDMDL
MODEL 8
REMARK VINA RESULT:    -2.935      1.937      4.811
REMARK INTER + INTRA:          -3.703
REMARK INTER:                  -4.325
REMARK INTRA:                   0.622
REMARK UNBOUND:                 0.433
REMARK SMILES CC1=CCC(=C(C)C)C(=O)CC(C)=CCC1
REMARK SMILES IDX 12 1 14 2 13 3 15 4 16 5 2 6 1 7 3 8 11 10 9 11 10 12 5 13
REMARK SMILES IDX 6 14 7 15 8 16 4 17
REMARK H PARENT
REMARK Flexibility Score: 60.00
ROOT
ATOM      1  C   UNL     1       4.818 -15.187  10.016  1.00  0.00    -0.070 C 
ATOM      2  C   UNL     1       4.845 -14.036   9.308  1.00  0.00    -0.027 C 
ATOM      3  C   UNL     1       5.689 -15.281  11.243  1.00  0.00     0.039 C 
ENDROOT
BRANCH   2   4
ATOM      4  C   UNL     1       3.977 -13.715   8.111  1.00  0.00     0.032 C 
BRANCH   4   5
ATOM      5  C   UNL     1       3.063 -12.485   8.285  1.00  0.00     0.034 C 
BRANCH   5   6
ATOM      6  C   UNL     1       1.605 -12.849   8.503  1.00  0.00    -0.077 C 
ATOM      7  C   UNL     1       0.654 -12.655   7.350  1.00  0.00     0.039 C 
ATOM      8  C   UNL     1       1.117 -13.400   9.642  1.00  0.00    -0.023 CG0
ATOM      9  G   UNL     1       1.877 -13.668  10.926  1.00  0.00     0.000 G0
ENDBRANCH   5   6
ENDBRANCH   4   5
ENDBRANCH   2   4
BRANCH   1  10
ATOM     10  C   UNL     1       3.893 -16.341   9.691  1.00  0.00     0.111 C 
BRANCH  10  11
ATOM     11  C   UNL     1       2.456 -16.004   9.992  1.00  0.00     0.163 C 
ATOM     12  O   UNL     1       1.563 -16.491   9.247  1.00  0.00    -0.294 OA
BRANCH  11  13
ATOM     13  C   UNL     1       2.057 -15.171  11.166  1.00  0.00    -0.002 C 
ATOM     14  C   UNL     1       1.945 -15.726  12.411  1.00  0.00    -0.069 C 
ATOM     15  C   UNL     1       1.700 -14.884  13.644  1.00  0.00     0.039 C 
ATOM     16  C   UNL     1       2.067 -17.220  12.617  1.00  0.00     0.039 C 
BRANCH  13  17
ATOM     17  C   UNL     1       1.877 -13.680  10.932  1.00  0.00     0.066 CG0
ATOM     18  G   UNL     1       1.120 -13.385   9.651  1.00  0.00     0.000 G0
ENDBRANCH  13  17
ENDBRANCH  11  13
ENDBRANCH  10  11
ENDBRANCH   1  10
TORSDOF 0
ENDMDL
MODEL 9
REMARK VINA RESULT:    -2.734      2.838      5.188
REMARK INTER + INTRA:          -3.419
REMARK INTER:                  -4.016
REMARK INTRA:                   0.597
REMARK UNBOUND:                 0.433
REMARK SMILES CC1=CCC(=C(C)C)C(=O)CC(C)=CCC1
REMARK SMILES IDX 12 1 14 2 13 3 15 4 16 5 2 6 1 7 3 8 11 10 9 11 10 12 5 13
REMARK SMILES IDX 6 14 7 15 8 16 4 17
REMARK H PARENT
REMARK Flexibility Score: 60.00
ROOT
ATOM      1  C   UNL     1       2.557 -15.871   9.865  1.00  0.00    -0.070 C 
ATOM      2  C   UNL     1       1.922 -14.767   9.415  1.00  0.00    -0.027 C 
ATOM      3  C   UNL     1       3.875 -16.236   9.228  1.00  0.00     0.039 C 
ENDROOT
BRANCH   2   4
ATOM      4  C   UNL     1       0.647 -14.186   9.988  1.00  0.00     0.032 C 
BRANCH   4   5
ATOM      5  C   UNL     1       0.822 -12.843  10.726  1.00  0.00     0.034 C 
BRANCH   5   6
ATOM      6  C   UNL     1       2.091 -12.777  11.557  1.00  0.00    -0.077 C 
ATOM      7  C   UNL     1       3.227 -11.934  11.036  1.00  0.00     0.039 C 
ATOM      8  C   UNL     1       2.244 -13.370  12.766  1.00  0.00    -0.023 CG0
ATOM      9  G   UNL     1       1.252 -14.274  13.473  1.00  0.00     0.000 G0
ENDBRANCH   5   6
ENDBRANCH   4   5
ENDBRANCH   2   4
BRANCH   1  10
ATOM     10  C   UNL     1       2.059 -16.700  11.031  1.00  0.00     0.111 C 
BRANCH  10  11
ATOM     11  C   UNL     1       2.581 -16.181  12.345  1.00  0.00     0.163 C 
ATOM     12  O   UNL     1       3.829 -16.064  12.484  1.00  0.00    -0.294 OA
BRANCH  11  13
ATOM     13  C   UNL     1       1.676 -15.748  13.452  1.00  0.00    -0.002 C 
ATOM     14  C   UNL     1       1.326 -16.617  14.448  1.00  0.00    -0.069 C 
ATOM     15  C   UNL     1       0.544 -16.168  15.664  1.00  0.00     0.039 C 
ATOM     16  C   UNL     1       1.710 -18.079  14.385  1.00  0.00     0.039 C 
BRANCH  13  17
ATOM     17  C   UNL     1       1.246 -14.290  13.469  1.00  0.00     0.066 CG0
ATOM     18  G   UNL     1       2.246 -13.387  12.774  1.00  0.00     0.000 G0
ENDBRANCH  13  17
ENDBRANCH  11  13
ENDBRANCH  10  11
ENDBRANCH   1  10
TORSDOF 0
ENDMDL
