MODEL 1
REMARK VINA RESULT:    -5.385      0.000      0.000
REMARK INTER + INTRA:          -9.393
REMARK INTER:                  -7.432
REMARK INTRA:                  -1.961
REMARK UNBOUND:                -1.961
REMARK SMILES CC[C@@H](CC[C@H](C)[C@H]1CC[C@H]2[C@H]3CC=C4C[C@H](O)CC[C@]4(C)[C@@H]3CC[C@@]12C)C(C)C
REMARK SMILES IDX 5 1 4 2 3 3 2 4 1 5 28 6 29 7 30 8 6 9 7 10 8 11 9 12 26 13
REMARK SMILES IDX 10 14 11 15 25 16 27 17 12 18 24 19 23 20 13 21 21 22 14 23
REMARK SMILES IDX 15 24 20 25 22 26 16 27 19 28 17 29 18 30
REMARK H PARENT 18 31
REMARK Flexibility Score: inf
ROOT
ATOM      1  C   UNL     1      17.124  -7.780  26.850  1.00  0.00     0.004 C 
ENDROOT
BRANCH   1   2
ATOM      2  C   UNL     1      17.779  -6.778  27.820  1.00  0.00     0.004 C 
BRANCH   2   3
ATOM      3  C   UNL     1      17.293  -6.905  29.295  1.00  0.00    -0.009 C 
BRANCH   3   4
ATOM      4  C   UNL     1      15.935  -7.663  29.361  1.00  0.00     0.000 C 
ATOM      5  C   UNL     1      14.985  -7.045  30.402  1.00  0.00     0.004 C 
ENDBRANCH   3   4
BRANCH   3   6
ATOM      6  C   UNL     1      17.283  -5.494  29.974  1.00  0.00    -0.014 C 
ATOM      7  C   UNL     1      17.743  -4.431  28.953  1.00  0.00     0.007 C 
ATOM      8  C   UNL     1      18.140  -5.379  31.238  1.00  0.00     0.007 C 
ENDBRANCH   3   6
ENDBRANCH   2   3
ENDBRANCH   1   2
BRANCH   1   9
ATOM      9  C   UNL     1      16.555  -7.056  25.597  1.00  0.00    -0.011 C 
ATOM     10  C   UNL     1      17.421  -7.411  24.360  1.00  0.00     0.008 C 
BRANCH   9  11
ATOM     11  C   UNL     1      16.389  -5.506  25.833  1.00  0.00    -0.002 C 
ATOM     12  C   UNL     1      17.317  -4.609  24.987  1.00  0.00     0.005 C 
ATOM     13  C   UNL     1      14.924  -4.923  25.699  1.00  0.00    -0.026 C 
ATOM     14  C   UNL     1      16.399  -3.724  24.149  1.00  0.00     0.005 C 
ATOM     15  C   UNL     1      15.161  -3.546  25.020  1.00  0.00    -0.001 C 
ATOM     16  C   UNL     1      13.930  -5.850  24.891  1.00  0.00     0.007 C 
ATOM     17  C   UNL     1      14.318  -4.711  27.110  1.00  0.00     0.012 C 
ATOM     18  C   UNL     1      13.913  -2.970  24.331  1.00  0.00     0.000 C 
ATOM     19  C   UNL     1      12.742  -5.132  24.232  1.00  0.00     0.005 C 
ATOM     20  C   UNL     1      13.258  -3.976  23.348  1.00  0.00     0.003 C 
ATOM     21  C   UNL     1      14.096  -1.585  23.695  1.00  0.00     0.031 C 
ATOM     22  C   UNL     1      12.236  -3.290  22.332  1.00  0.00    -0.008 C 
ATOM     23  C   UNL     1      12.724  -1.072  23.352  1.00  0.00    -0.027 C 
ATOM     24  C   UNL     1      11.802  -1.905  22.835  1.00  0.00    -0.065 C 
ATOM     25  C   UNL     1      10.967  -4.162  22.085  1.00  0.00     0.014 C 
ATOM     26  C   UNL     1      12.948  -3.054  20.948  1.00  0.00     0.016 C 
ATOM     27  C   UNL     1      10.366  -1.457  22.657  1.00  0.00     0.063 C 
ATOM     28  C   UNL     1       9.899  -3.498  21.184  1.00  0.00     0.033 C 
ATOM     29  C   UNL     1       9.835  -1.954  21.302  1.00  0.00     0.118 C 
BRANCH  29  30
ATOM     30  O   UNL     1       8.506  -1.520  21.139  1.00  0.00    -0.393 OA
ATOM     31  H   UNL     1       8.063  -1.666  22.025  1.00  0.00     0.210 HD
ENDBRANCH  29  30
ENDBRANCH   9  11
ENDBRANCH   1   9
TORSDOF 7
ENDMDL
MODEL 2
REMARK VINA RESULT:    -5.313     13.964     17.112
REMARK INTER + INTRA:          -9.293
REMARK INTER:                  -7.285
REMARK INTRA:                  -2.008
REMARK UNBOUND:                -1.961
REMARK SMILES CC[C@@H](CC[C@H](C)[C@H]1CC[C@H]2[C@H]3CC=C4C[C@H](O)CC[C@]4(C)[C@@H]3CC[C@@]12C)C(C)C
REMARK SMILES IDX 5 1 4 2 3 3 2 4 1 5 28 6 29 7 30 8 6 9 7 10 8 11 9 12 26 13
REMARK SMILES IDX 10 14 11 15 25 16 27 17 12 18 24 19 23 20 13 21 21 22 14 23
REMARK SMILES IDX 15 24 20 25 22 26 16 27 19 28 17 29 18 30
REMARK H PARENT 18 31
REMARK Flexibility Score: inf
ROOT
ATOM      1  C   UNL     1      10.909   6.421  36.905  1.00  0.00     0.004 C 
ENDROOT
BRANCH   1   2
ATOM      2  C   UNL     1      11.203   6.626  38.403  1.00  0.00     0.004 C 
BRANCH   2   3
ATOM      3  C   UNL     1      12.190   7.793  38.707  1.00  0.00    -0.009 C 
BRANCH   3   4
ATOM      4  C   UNL     1      13.082   7.450  39.936  1.00  0.00     0.000 C 
ATOM      5  C   UNL     1      12.509   6.276  40.750  1.00  0.00     0.004 C 
ENDBRANCH   3   4
BRANCH   3   6
ATOM      6  C   UNL     1      11.397   9.137  38.836  1.00  0.00    -0.014 C 
ATOM      7  C   UNL     1      11.884  10.125  37.753  1.00  0.00     0.007 C 
ATOM      8  C   UNL     1      11.487   9.812  40.208  1.00  0.00     0.007 C 
ENDBRANCH   3   6
ENDBRANCH   2   3
ENDBRANCH   1   2
BRANCH   1   9
ATOM      9  C   UNL     1      12.214   6.483  36.063  1.00  0.00    -0.011 C 
ATOM     10  C   UNL     1      11.875   6.928  34.617  1.00  0.00     0.008 C 
BRANCH   9  11
ATOM     11  C   UNL     1      13.031   5.136  36.138  1.00  0.00    -0.002 C 
ATOM     12  C   UNL     1      13.078   4.322  34.828  1.00  0.00     0.005 C 
ATOM     13  C   UNL     1      14.514   5.237  36.681  1.00  0.00    -0.026 C 
ATOM     14  C   UNL     1      14.553   4.210  34.453  1.00  0.00     0.005 C 
ATOM     15  C   UNL     1      15.277   4.214  35.795  1.00  0.00    -0.001 C 
ATOM     16  C   UNL     1      15.129   6.692  36.616  1.00  0.00     0.007 C 
ATOM     17  C   UNL     1      14.558   4.781  38.161  1.00  0.00     0.012 C 
ATOM     18  C   UNL     1      16.797   4.437  35.755  1.00  0.00     0.000 C 
ATOM     19  C   UNL     1      16.663   6.762  36.552  1.00  0.00     0.005 C 
ATOM     20  C   UNL     1      17.175   5.894  35.381  1.00  0.00     0.003 C 
ATOM     21  C   UNL     1      17.589   3.412  34.933  1.00  0.00     0.031 C 
ATOM     22  C   UNL     1      18.699   6.056  34.933  1.00  0.00    -0.008 C 
ATOM     23  C   UNL     1      19.044   3.612  35.260  1.00  0.00    -0.027 C 
ATOM     24  C   UNL     1      19.540   4.856  35.394  1.00  0.00    -0.065 C 
ATOM     25  C   UNL     1      19.343   7.368  35.478  1.00  0.00     0.014 C 
ATOM     26  C   UNL     1      18.786   6.080  33.362  1.00  0.00     0.016 C 
ATOM     27  C   UNL     1      20.949   5.077  35.902  1.00  0.00     0.063 C 
ATOM     28  C   UNL     1      20.848   7.524  35.154  1.00  0.00     0.033 C 
ATOM     29  C   UNL     1      21.627   6.186  35.079  1.00  0.00     0.118 C 
BRANCH  29  30
ATOM     30  O   UNL     1      22.940   6.374  35.548  1.00  0.00    -0.393 OA
ATOM     31  H   UNL     1      23.502   5.709  35.053  1.00  0.00     0.210 HD
ENDBRANCH  29  30
ENDBRANCH   9  11
ENDBRANCH   1   9
TORSDOF 7
ENDMDL
MODEL 3
REMARK VINA RESULT:    -5.261     14.106     16.847
REMARK INTER + INTRA:          -9.221
REMARK INTER:                  -7.631
REMARK INTRA:                  -1.591
REMARK UNBOUND:                -1.961
REMARK SMILES CC[C@@H](CC[C@H](C)[C@H]1CC[C@H]2[C@H]3CC=C4C[C@H](O)CC[C@]4(C)[C@@H]3CC[C@@]12C)C(C)C
REMARK SMILES IDX 5 1 4 2 3 3 2 4 1 5 28 6 29 7 30 8 6 9 7 10 8 11 9 12 26 13
REMARK SMILES IDX 10 14 11 15 25 16 27 17 12 18 24 19 23 20 13 21 21 22 14 23
REMARK SMILES IDX 15 24 20 25 22 26 16 27 19 28 17 29 18 30
REMARK H PARENT 18 31
REMARK Flexibility Score: inf
ROOT
ATOM      1  C   UNL     1      19.318   3.991  36.494  1.00  0.00     0.004 C 
ENDROOT
BRANCH   1   2
ATOM      2  C   UNL     1      19.751   4.486  35.101  1.00  0.00     0.004 C 
BRANCH   2   3
ATOM      3  C   UNL     1      19.939   6.030  35.001  1.00  0.00    -0.009 C 
BRANCH   3   4
ATOM      4  C   UNL     1      19.383   6.562  33.648  1.00  0.00     0.000 C 
ATOM      5  C   UNL     1      18.862   5.423  32.754  1.00  0.00     0.004 C 
ENDBRANCH   3   4
BRANCH   3   6
ATOM      6  C   UNL     1      21.435   6.401  35.279  1.00  0.00    -0.014 C 
ATOM      7  C   UNL     1      21.580   7.937  35.336  1.00  0.00     0.007 C 
ATOM      8  C   UNL     1      22.440   5.840  34.268  1.00  0.00     0.007 C 
ENDBRANCH   3   6
ENDBRANCH   2   3
ENDBRANCH   1   2
BRANCH   1   9
ATOM      9  C   UNL     1      17.780   3.775  36.559  1.00  0.00    -0.011 C 
ATOM     10  C   UNL     1      17.442   2.333  36.097  1.00  0.00     0.008 C 
BRANCH   9  11
ATOM     11  C   UNL     1      16.992   4.894  35.775  1.00  0.00    -0.002 C 
ATOM     12  C   UNL     1      15.926   4.377  34.787  1.00  0.00     0.005 C 
ATOM     13  C   UNL     1      16.311   6.023  36.650  1.00  0.00    -0.026 C 
ATOM     14  C   UNL     1      14.595   4.956  35.260  1.00  0.00     0.005 C 
ATOM     15  C   UNL     1      14.977   6.286  35.899  1.00  0.00    -0.001 C 
ATOM     16  C   UNL     1      16.100   5.628  38.167  1.00  0.00     0.007 C 
ATOM     17  C   UNL     1      17.187   7.301  36.622  1.00  0.00     0.012 C 
ATOM     18  C   UNL     1      13.902   6.969  36.760  1.00  0.00     0.000 C 
ATOM     19  C   UNL     1      14.970   6.373  38.896  1.00  0.00     0.005 C 
ATOM     20  C   UNL     1      13.654   6.229  38.100  1.00  0.00     0.003 C 
ATOM     21  C   UNL     1      12.590   7.294  36.034  1.00  0.00     0.031 C 
ATOM     22  C   UNL     1      12.292   6.655  38.813  1.00  0.00    -0.008 C 
ATOM     23  C   UNL     1      11.804   8.210  36.932  1.00  0.00    -0.027 C 
ATOM     24  C   UNL     1      11.772   7.990  38.259  1.00  0.00    -0.065 C 
ATOM     25  C   UNL     1      12.442   6.772  40.362  1.00  0.00     0.014 C 
ATOM     26  C   UNL     1      11.179   5.585  38.506  1.00  0.00     0.016 C 
ATOM     27  C   UNL     1      11.144   9.000  39.197  1.00  0.00     0.063 C 
ATOM     28  C   UNL     1      11.175   7.278  41.091  1.00  0.00     0.033 C 
ATOM     29  C   UNL     1      10.314   8.267  40.265  1.00  0.00     0.118 C 
BRANCH  29  30
ATOM     30  O   UNL     1       9.723   9.213  41.122  1.00  0.00    -0.393 OA
ATOM     31  H   UNL     1       8.797   9.358  40.767  1.00  0.00     0.210 HD
ENDBRANCH  29  30
ENDBRANCH   9  11
ENDBRANCH   1   9
TORSDOF 7
ENDMDL
MODEL 4
REMARK VINA RESULT:    -5.238     14.029     16.912
REMARK INTER + INTRA:          -9.190
REMARK INTER:                  -7.080
REMARK INTRA:                  -2.110
REMARK UNBOUND:                -1.961
REMARK SMILES CC[C@@H](CC[C@H](C)[C@H]1CC[C@H]2[C@H]3CC=C4C[C@H](O)CC[C@]4(C)[C@@H]3CC[C@@]12C)C(C)C
REMARK SMILES IDX 5 1 4 2 3 3 2 4 1 5 28 6 29 7 30 8 6 9 7 10 8 11 9 12 26 13
REMARK SMILES IDX 10 14 11 15 25 16 27 17 12 18 24 19 23 20 13 21 21 22 14 23
REMARK SMILES IDX 15 24 20 25 22 26 16 27 19 28 17 29 18 30
REMARK H PARENT 18 31
REMARK Flexibility Score: inf
ROOT
ATOM      1  C   UNL     1      12.022   4.665  38.228  1.00  0.00     0.004 C 
ENDROOT
BRANCH   1   2
ATOM      2  C   UNL     1      11.642   6.044  38.801  1.00  0.00     0.004 C 
BRANCH   2   3
ATOM      3  C   UNL     1      12.507   7.222  38.261  1.00  0.00    -0.009 C 
BRANCH   3   4
ATOM      4  C   UNL     1      13.261   7.927  39.426  1.00  0.00     0.000 C 
ATOM      5  C   UNL     1      13.176   7.121  40.734  1.00  0.00     0.004 C 
ENDBRANCH   3   4
BRANCH   3   6
ATOM      6  C   UNL     1      11.620   8.174  37.390  1.00  0.00    -0.014 C 
ATOM      7  C   UNL     1      11.861   7.873  35.894  1.00  0.00     0.007 C 
ATOM      8  C   UNL     1      11.838   9.670  37.641  1.00  0.00     0.007 C 
ENDBRANCH   3   6
ENDBRANCH   2   3
ENDBRANCH   1   2
BRANCH   1   9
ATOM      9  C   UNL     1      13.159   4.790  37.175  1.00  0.00    -0.011 C 
ATOM     10  C   UNL     1      12.688   4.175  35.831  1.00  0.00     0.008 C 
BRANCH   9  11
ATOM     11  C   UNL     1      14.522   4.196  37.703  1.00  0.00    -0.002 C 
ATOM     12  C   UNL     1      14.912   2.825  37.114  1.00  0.00     0.005 C 
ATOM     13  C   UNL     1      15.792   5.133  37.591  1.00  0.00    -0.026 C 
ATOM     14  C   UNL     1      16.250   3.033  36.409  1.00  0.00     0.005 C 
ATOM     15  C   UNL     1      16.924   4.138  37.215  1.00  0.00    -0.001 C 
ATOM     16  C   UNL     1      15.636   6.315  36.551  1.00  0.00     0.007 C 
ATOM     17  C   UNL     1      16.093   5.768  38.972  1.00  0.00     0.012 C 
ATOM     18  C   UNL     1      18.152   4.805  36.573  1.00  0.00     0.000 C 
ATOM     19  C   UNL     1      16.948   6.866  35.970  1.00  0.00     0.005 C 
ATOM     20  C   UNL     1      17.776   5.709  35.370  1.00  0.00     0.003 C 
ATOM     21  C   UNL     1      19.312   3.859  36.238  1.00  0.00     0.031 C 
ATOM     22  C   UNL     1      19.024   6.077  34.444  1.00  0.00    -0.008 C 
ATOM     23  C   UNL     1      20.503   4.718  35.914  1.00  0.00    -0.027 C 
ATOM     24  C   UNL     1      20.349   5.837  35.183  1.00  0.00    -0.065 C 
ATOM     25  C   UNL     1      18.980   7.555  33.946  1.00  0.00     0.014 C 
ATOM     26  C   UNL     1      19.042   5.134  33.185  1.00  0.00     0.016 C 
ATOM     27  C   UNL     1      21.496   6.809  35.003  1.00  0.00     0.063 C 
ATOM     28  C   UNL     1      20.217   7.991  33.127  1.00  0.00     0.033 C 
ATOM     29  C   UNL     1      21.537   7.296  33.544  1.00  0.00     0.118 C 
BRANCH  29  30
ATOM     30  O   UNL     1      22.615   8.186  33.383  1.00  0.00    -0.393 OA
ATOM     31  H   UNL     1      22.480   8.901  34.071  1.00  0.00     0.210 HD
ENDBRANCH  29  30
ENDBRANCH   9  11
ENDBRANCH   1   9
TORSDOF 7
ENDMDL
MODEL 5
REMARK VINA RESULT:    -5.186     10.173     12.925
REMARK INTER + INTRA:          -9.119
REMARK INTER:                  -7.210
REMARK INTRA:                  -1.909
REMARK UNBOUND:                -1.961
REMARK SMILES CC[C@@H](CC[C@H](C)[C@H]1CC[C@H]2[C@H]3CC=C4C[C@H](O)CC[C@]4(C)[C@@H]3CC[C@@]12C)C(C)C
REMARK SMILES IDX 5 1 4 2 3 3 2 4 1 5 28 6 29 7 30 8 6 9 7 10 8 11 9 12 26 13
REMARK SMILES IDX 10 14 11 15 25 16 27 17 12 18 24 19 23 20 13 21 21 22 14 23
REMARK SMILES IDX 15 24 20 25 22 26 16 27 19 28 17 29 18 30
REMARK H PARENT 18 31
REMARK Flexibility Score: inf
ROOT
ATOM      1  C   UNL     1      14.540   5.793  23.336  1.00  0.00     0.004 C 
ENDROOT
BRANCH   1   2
ATOM      2  C   UNL     1      14.557   7.308  23.618  1.00  0.00     0.004 C 
BRANCH   2   3
ATOM      3  C   UNL     1      14.494   8.196  22.339  1.00  0.00    -0.009 C 
BRANCH   3   4
ATOM      4  C   UNL     1      15.923   8.448  21.776  1.00  0.00     0.000 C 
ATOM      5  C   UNL     1      15.971   9.695  20.875  1.00  0.00     0.004 C 
ENDBRANCH   3   4
BRANCH   3   6
ATOM      6  C   UNL     1      13.675   9.497  22.638  1.00  0.00    -0.014 C 
ATOM      7  C   UNL     1      13.547   9.682  24.166  1.00  0.00     0.007 C 
ATOM      8  C   UNL     1      12.279   9.542  22.009  1.00  0.00     0.007 C 
ENDBRANCH   3   6
ENDBRANCH   2   3
ENDBRANCH   1   2
BRANCH   1   9
ATOM      9  C   UNL     1      13.146   5.181  23.651  1.00  0.00    -0.011 C 
ATOM     10  C   UNL     1      12.674   4.325  22.446  1.00  0.00     0.008 C 
BRANCH   9  11
ATOM     11  C   UNL     1      12.104   6.278  24.097  1.00  0.00    -0.002 C 
ATOM     12  C   UNL     1      10.899   6.463  23.152  1.00  0.00     0.005 C 
ATOM     13  C   UNL     1      11.533   6.155  25.567  1.00  0.00    -0.026 C 
ATOM     14  C   UNL     1       9.658   6.156  23.986  1.00  0.00     0.005 C 
ATOM     15  C   UNL     1      10.048   6.578  25.398  1.00  0.00    -0.001 C 
ATOM     16  C   UNL     1      11.698   4.718  26.208  1.00  0.00     0.007 C 
ATOM     17  C   UNL     1      12.260   7.162  26.494  1.00  0.00     0.012 C 
ATOM     18  C   UNL     1       9.131   6.100  26.536  1.00  0.00     0.000 C 
ATOM     19  C   UNL     1      10.694   4.366  27.316  1.00  0.00     0.005 C 
ATOM     20  C   UNL     1       9.254   4.576  26.799  1.00  0.00     0.003 C 
ATOM     21  C   UNL     1       7.667   6.546  26.429  1.00  0.00     0.031 C 
ATOM     22  C   UNL     1       8.049   3.986  27.663  1.00  0.00    -0.008 C 
ATOM     23  C   UNL     1       7.017   6.250  27.753  1.00  0.00    -0.027 C 
ATOM     24  C   UNL     1       7.299   5.105  28.402  1.00  0.00    -0.065 C 
ATOM     25  C   UNL     1       8.525   2.922  28.700  1.00  0.00     0.014 C 
ATOM     26  C   UNL     1       6.999   3.306  26.708  1.00  0.00     0.016 C 
ATOM     27  C   UNL     1       6.804   4.873  29.814  1.00  0.00     0.063 C 
ATOM     28  C   UNL     1       7.410   2.392  29.631  1.00  0.00     0.033 C 
ATOM     29  C   UNL     1       6.301   3.425  29.953  1.00  0.00     0.118 C 
BRANCH  29  30
ATOM     30  O   UNL     1       5.828   3.223  31.263  1.00  0.00    -0.393 OA
ATOM     31  H   UNL     1       5.243   2.412  31.217  1.00  0.00     0.210 HD
ENDBRANCH  29  30
ENDBRANCH   9  11
ENDBRANCH   1   9
TORSDOF 7
ENDMDL
MODEL 6
REMARK VINA RESULT:    -5.080     14.192     17.792
REMARK INTER + INTRA:          -8.972
REMARK INTER:                  -6.950
REMARK INTRA:                  -2.021
REMARK UNBOUND:                -1.961
REMARK SMILES CC[C@@H](CC[C@H](C)[C@H]1CC[C@H]2[C@H]3CC=C4C[C@H](O)CC[C@]4(C)[C@@H]3CC[C@@]12C)C(C)C
REMARK SMILES IDX 5 1 4 2 3 3 2 4 1 5 28 6 29 7 30 8 6 9 7 10 8 11 9 12 26 13
REMARK SMILES IDX 10 14 11 15 25 16 27 17 12 18 24 19 23 20 13 21 21 22 14 23
REMARK SMILES IDX 15 24 20 25 22 26 16 27 19 28 17 29 18 30
REMARK H PARENT 18 31
REMARK Flexibility Score: inf
ROOT
ATOM      1  C   UNL     1      11.849   8.205  36.416  1.00  0.00     0.004 C 
ENDROOT
BRANCH   1   2
ATOM      2  C   UNL     1      10.865   7.878  37.556  1.00  0.00     0.004 C 
BRANCH   2   3
ATOM      3  C   UNL     1      10.926   8.870  38.756  1.00  0.00    -0.009 C 
BRANCH   3   4
ATOM      4  C   UNL     1      12.157   9.815  38.624  1.00  0.00     0.000 C 
ATOM      5  C   UNL     1      12.913   9.959  39.956  1.00  0.00     0.004 C 
ENDBRANCH   3   4
BRANCH   3   6
ATOM      6  C   UNL     1      10.859   8.076  40.105  1.00  0.00    -0.014 C 
ATOM      7  C   UNL     1      10.698   6.570  39.805  1.00  0.00     0.007 C 
ATOM      8  C   UNL     1       9.748   8.519  41.061  1.00  0.00     0.007 C 
ENDBRANCH   3   6
ENDBRANCH   2   3
ENDBRANCH   1   2
BRANCH   1   9
ATOM      9  C   UNL     1      12.492   6.910  35.843  1.00  0.00    -0.011 C 
ATOM     10  C   UNL     1      11.561   6.309  34.757  1.00  0.00     0.008 C 
BRANCH   9  11
ATOM     11  C   UNL     1      12.882   5.890  36.980  1.00  0.00    -0.002 C 
ATOM     12  C   UNL     1      12.586   4.409  36.665  1.00  0.00     0.005 C 
ATOM     13  C   UNL     1      14.368   5.966  37.519  1.00  0.00    -0.026 C 
ATOM     14  C   UNL     1      13.930   3.688  36.723  1.00  0.00     0.005 C 
ATOM     15  C   UNL     1      14.727   4.474  37.758  1.00  0.00    -0.001 C 
ATOM     16  C   UNL     1      15.375   6.696  36.541  1.00  0.00     0.007 C 
ATOM     17  C   UNL     1      14.394   6.732  38.866  1.00  0.00     0.012 C 
ATOM     18  C   UNL     1      16.238   4.198  37.816  1.00  0.00     0.000 C 
ATOM     19  C   UNL     1      16.852   6.301  36.694  1.00  0.00     0.005 C 
ATOM     20  C   UNL     1      16.994   4.767  36.587  1.00  0.00     0.003 C 
ATOM     21  C   UNL     1      16.628   2.743  38.106  1.00  0.00     0.031 C 
ATOM     22  C   UNL     1      18.458   4.156  36.410  1.00  0.00    -0.008 C 
ATOM     23  C   UNL     1      18.099   2.734  38.421  1.00  0.00    -0.027 C 
ATOM     24  C   UNL     1      18.945   3.503  37.711  1.00  0.00    -0.065 C 
ATOM     25  C   UNL     1      19.499   5.227  35.957  1.00  0.00     0.014 C 
ATOM     26  C   UNL     1      18.424   3.014  35.327  1.00  0.00     0.016 C 
ATOM     27  C   UNL     1      20.394   3.651  38.130  1.00  0.00     0.063 C 
ATOM     28  C   UNL     1      20.952   4.707  35.866  1.00  0.00     0.033 C 
ATOM     29  C   UNL     1      21.299   3.594  36.887  1.00  0.00     0.118 C 
BRANCH  29  30
ATOM     30  O   UNL     1      22.643   3.717  37.287  1.00  0.00    -0.393 OA
ATOM     31  H   UNL     1      23.020   4.465  36.738  1.00  0.00     0.210 HD
ENDBRANCH  29  30
ENDBRANCH   9  11
ENDBRANCH   1   9
TORSDOF 7
ENDMDL
MODEL 7
REMARK VINA RESULT:    -5.066      3.399      8.953
REMARK INTER + INTRA:          -8.952
REMARK INTER:                  -7.102
REMARK INTRA:                  -1.850
REMARK UNBOUND:                -1.961
REMARK SMILES CC[C@@H](CC[C@H](C)[C@H]1CC[C@H]2[C@H]3CC=C4C[C@H](O)CC[C@]4(C)[C@@H]3CC[C@@]12C)C(C)C
REMARK SMILES IDX 5 1 4 2 3 3 2 4 1 5 28 6 29 7 30 8 6 9 7 10 8 11 9 12 26 13
REMARK SMILES IDX 10 14 11 15 25 16 27 17 12 18 24 19 23 20 13 21 21 22 14 23
REMARK SMILES IDX 15 24 20 25 22 26 16 27 19 28 17 29 18 30
REMARK H PARENT 18 31
REMARK Flexibility Score: inf
ROOT
ATOM      1  C   UNL     1      11.629  -5.123  23.592  1.00  0.00     0.004 C 
ENDROOT
BRANCH   1   2
ATOM      2  C   UNL     1      12.222  -4.882  22.190  1.00  0.00     0.004 C 
BRANCH   2   3
ATOM      3  C   UNL     1      11.274  -4.116  21.219  1.00  0.00    -0.009 C 
BRANCH   3   4
ATOM      4  C   UNL     1      11.834  -2.695  20.915  1.00  0.00     0.000 C 
ATOM      5  C   UNL     1      13.345  -2.604  21.191  1.00  0.00     0.004 C 
ENDBRANCH   3   4
BRANCH   3   6
ATOM      6  C   UNL     1       9.813  -4.131  21.781  1.00  0.00    -0.014 C 
ATOM      7  C   UNL     1       8.957  -5.116  20.955  1.00  0.00     0.007 C 
ATOM      8  C   UNL     1       9.118  -2.767  21.813  1.00  0.00     0.007 C 
ENDBRANCH   3   6
ENDBRANCH   2   3
ENDBRANCH   1   2
BRANCH   1   9
ATOM      9  C   UNL     1      12.522  -4.488  24.694  1.00  0.00    -0.011 C 
ATOM     10  C   UNL     1      12.042  -3.040  24.977  1.00  0.00     0.008 C 
BRANCH   9  11
ATOM     11  C   UNL     1      14.057  -4.591  24.345  1.00  0.00    -0.002 C 
ATOM     12  C   UNL     1      14.838  -3.262  24.417  1.00  0.00     0.005 C 
ATOM     13  C   UNL     1      14.893  -5.670  25.146  1.00  0.00    -0.026 C 
ATOM     14  C   UNL     1      15.927  -3.469  25.466  1.00  0.00     0.005 C 
ATOM     15  C   UNL     1      16.253  -4.956  25.372  1.00  0.00    -0.001 C 
ATOM     16  C   UNL     1      14.213  -6.149  26.491  1.00  0.00     0.007 C 
ATOM     17  C   UNL     1      15.103  -6.925  24.261  1.00  0.00     0.012 C 
ATOM     18  C   UNL     1      17.085  -5.550  26.520  1.00  0.00     0.000 C 
ATOM     19  C   UNL     1      15.171  -6.695  27.561  1.00  0.00     0.005 C 
ATOM     20  C   UNL     1      16.282  -5.660  27.843  1.00  0.00     0.003 C 
ATOM     21  C   UNL     1      18.460  -4.904  26.737  1.00  0.00     0.031 C 
ATOM     22  C   UNL     1      17.206  -5.876  29.126  1.00  0.00    -0.008 C 
ATOM     23  C   UNL     1      19.226  -5.798  27.673  1.00  0.00    -0.027 C 
ATOM     24  C   UNL     1      18.605  -6.366  28.723  1.00  0.00    -0.065 C 
ATOM     25  C   UNL     1      16.587  -6.884  30.142  1.00  0.00     0.014 C 
ATOM     26  C   UNL     1      17.415  -4.500  29.862  1.00  0.00     0.016 C 
ATOM     27  C   UNL     1      19.306  -7.411  29.565  1.00  0.00     0.063 C 
ATOM     28  C   UNL     1      17.490  -7.204  31.357  1.00  0.00     0.033 C 
ATOM     29  C   UNL     1      19.008  -7.159  31.054  1.00  0.00     0.118 C 
BRANCH  29  30
ATOM     30  O   UNL     1      19.677  -8.126  31.829  1.00  0.00    -0.393 OA
ATOM     31  H   UNL     1      19.107  -8.261  32.641  1.00  0.00     0.210 HD
ENDBRANCH  29  30
ENDBRANCH   9  11
ENDBRANCH   1   9
TORSDOF 7
ENDMDL
MODEL 8
REMARK VINA RESULT:    -4.987     14.050     16.934
REMARK INTER + INTRA:          -8.843
REMARK INTER:                  -6.700
REMARK INTRA:                  -2.143
REMARK UNBOUND:                -1.961
REMARK SMILES CC[C@@H](CC[C@H](C)[C@H]1CC[C@H]2[C@H]3CC=C4C[C@H](O)CC[C@]4(C)[C@@H]3CC[C@@]12C)C(C)C
REMARK SMILES IDX 5 1 4 2 3 3 2 4 1 5 28 6 29 7 30 8 6 9 7 10 8 11 9 12 26 13
REMARK SMILES IDX 10 14 11 15 25 16 27 17 12 18 24 19 23 20 13 21 21 22 14 23
REMARK SMILES IDX 15 24 20 25 22 26 16 27 19 28 17 29 18 30
REMARK H PARENT 18 31
REMARK Flexibility Score: inf
ROOT
ATOM      1  C   UNL     1      10.489   5.805  39.158  1.00  0.00     0.004 C 
ENDROOT
BRANCH   1   2
ATOM      2  C   UNL     1      10.571   6.914  40.224  1.00  0.00     0.004 C 
BRANCH   2   3
ATOM      3  C   UNL     1      10.127   8.319  39.719  1.00  0.00    -0.009 C 
BRANCH   3   4
ATOM      4  C   UNL     1       9.734   8.262  38.214  1.00  0.00     0.000 C 
ATOM      5  C   UNL     1       8.269   8.675  37.989  1.00  0.00     0.004 C 
ENDBRANCH   3   4
BRANCH   3   6
ATOM      6  C   UNL     1      11.229   9.379  40.063  1.00  0.00    -0.014 C 
ATOM      7  C   UNL     1      11.985   9.768  38.774  1.00  0.00     0.007 C 
ATOM      8  C   UNL     1      12.241   8.938  41.125  1.00  0.00     0.007 C 
ENDBRANCH   3   6
ENDBRANCH   2   3
ENDBRANCH   1   2
BRANCH   1   9
ATOM      9  C   UNL     1      11.888   5.183  38.887  1.00  0.00    -0.011 C 
ATOM     10  C   UNL     1      12.295   4.286  40.086  1.00  0.00     0.008 C 
BRANCH   9  11
ATOM     11  C   UNL     1      12.962   6.278  38.521  1.00  0.00    -0.002 C 
ATOM     12  C   UNL     1      14.169   6.361  39.477  1.00  0.00     0.005 C 
ATOM     13  C   UNL     1      13.534   6.242  37.046  1.00  0.00    -0.026 C 
ATOM     14  C   UNL     1      15.404   6.078  38.625  1.00  0.00     0.005 C 
ATOM     15  C   UNL     1      15.030   6.609  37.246  1.00  0.00    -0.001 C 
ATOM     16  C   UNL     1      13.329   4.860  36.305  1.00  0.00     0.007 C 
ATOM     17  C   UNL     1      12.838   7.333  36.192  1.00  0.00     0.012 C 
ATOM     18  C   UNL     1      15.936   6.186  36.078  1.00  0.00     0.000 C 
ATOM     19  C   UNL     1      14.326   4.558  35.176  1.00  0.00     0.005 C 
ATOM     20  C   UNL     1      15.770   4.689  35.708  1.00  0.00     0.003 C 
ATOM     21  C   UNL     1      17.412   6.581  36.217  1.00  0.00     0.031 C 
ATOM     22  C   UNL     1      16.960   4.127  34.805  1.00  0.00    -0.008 C 
ATOM     23  C   UNL     1      18.057   6.361  34.876  1.00  0.00    -0.027 C 
ATOM     24  C   UNL     1      17.743   5.273  34.148  1.00  0.00    -0.065 C 
ATOM     25  C   UNL     1      16.456   3.153  33.695  1.00  0.00     0.014 C 
ATOM     26  C   UNL     1      17.987   3.351  35.711  1.00  0.00     0.016 C 
ATOM     27  C   UNL     1      18.236   5.127  32.723  1.00  0.00     0.063 C 
ATOM     28  C   UNL     1      17.559   2.658  32.730  1.00  0.00     0.033 C 
ATOM     29  C   UNL     1      18.698   3.678  32.483  1.00  0.00     0.118 C 
BRANCH  29  30
ATOM     30  O   UNL     1      19.168   3.556  31.162  1.00  0.00    -0.393 OA
ATOM     31  H   UNL     1      19.729   2.726  31.151  1.00  0.00     0.210 HD
ENDBRANCH  29  30
ENDBRANCH   9  11
ENDBRANCH   1   9
TORSDOF 7
ENDMDL
MODEL 9
REMARK VINA RESULT:    -4.886     14.850     17.569
REMARK INTER + INTRA:          -8.704
REMARK INTER:                  -7.198
REMARK INTRA:                  -1.506
REMARK UNBOUND:                -1.961
REMARK SMILES CC[C@@H](CC[C@H](C)[C@H]1CC[C@H]2[C@H]3CC=C4C[C@H](O)CC[C@]4(C)[C@@H]3CC[C@@]12C)C(C)C
REMARK SMILES IDX 5 1 4 2 3 3 2 4 1 5 28 6 29 7 30 8 6 9 7 10 8 11 9 12 26 13
REMARK SMILES IDX 10 14 11 15 25 16 27 17 12 18 24 19 23 20 13 21 21 22 14 23
REMARK SMILES IDX 15 24 20 25 22 26 16 27 19 28 17 29 18 30
REMARK H PARENT 18 31
REMARK Flexibility Score: inf
ROOT
ATOM      1  C   UNL     1      17.187   4.955  34.455  1.00  0.00     0.004 C 
ENDROOT
BRANCH   1   2
ATOM      2  C   UNL     1      18.532   5.537  33.980  1.00  0.00     0.004 C 
BRANCH   2   3
ATOM      3  C   UNL     1      19.768   4.653  34.323  1.00  0.00    -0.009 C 
BRANCH   3   4
ATOM      4  C   UNL     1      19.518   3.844  35.629  1.00  0.00     0.000 C 
ATOM      5  C   UNL     1      20.600   4.118  36.688  1.00  0.00     0.004 C 
ENDBRANCH   3   4
BRANCH   3   6
ATOM      6  C   UNL     1      21.062   5.536  34.344  1.00  0.00    -0.014 C 
ATOM      7  C   UNL     1      20.666   7.027  34.299  1.00  0.00     0.007 C 
ATOM      8  C   UNL     1      22.060   5.247  33.218  1.00  0.00     0.007 C 
ENDBRANCH   3   6
ENDBRANCH   2   3
ENDBRANCH   1   2
BRANCH   1   9
ATOM      9  C   UNL     1      16.490   5.909  35.465  1.00  0.00    -0.011 C 
ATOM     10  C   UNL     1      17.475   7.034  35.878  1.00  0.00     0.008 C 
BRANCH   9  11
ATOM     11  C   UNL     1      15.871   5.127  36.687  1.00  0.00    -0.002 C 
ATOM     12  C   UNL     1      16.641   5.268  38.016  1.00  0.00     0.005 C 
ATOM     13  C   UNL     1      14.343   5.398  36.999  1.00  0.00    -0.026 C 
ATOM     14  C   UNL     1      15.663   5.894  39.007  1.00  0.00     0.005 C 
ATOM     15  C   UNL     1      14.300   5.384  38.552  1.00  0.00    -0.001 C 
ATOM     16  C   UNL     1      13.783   6.740  36.376  1.00  0.00     0.007 C 
ATOM     17  C   UNL     1      13.485   4.234  36.442  1.00  0.00     0.012 C 
ATOM     18  C   UNL     1      13.070   6.088  39.147  1.00  0.00     0.000 C 
ATOM     19  C   UNL     1      12.566   7.346  37.092  1.00  0.00     0.005 C 
ATOM     20  C   UNL     1      12.881   7.525  38.593  1.00  0.00     0.003 C 
ATOM     21  C   UNL     1      12.966   6.046  40.677  1.00  0.00     0.031 C 
ATOM     22  C   UNL     1      11.887   8.413  39.472  1.00  0.00    -0.008 C 
ATOM     23  C   UNL     1      11.580   6.504  41.039  1.00  0.00    -0.027 C 
ATOM     24  C   UNL     1      11.017   7.533  40.380  1.00  0.00    -0.065 C 
ATOM     25  C   UNL     1      10.962   9.313  38.596  1.00  0.00     0.014 C 
ATOM     26  C   UNL     1      12.720   9.347  40.426  1.00  0.00     0.016 C 
ATOM     27  C   UNL     1       9.561   7.889  40.600  1.00  0.00     0.063 C 
ATOM     28  C   UNL     1       9.912  10.120  39.395  1.00  0.00     0.033 C 
ATOM     29  C   UNL     1       9.410   9.418  40.681  1.00  0.00     0.118 C 
BRANCH  29  30
ATOM     30  O   UNL     1       8.057   9.738  40.901  1.00  0.00    -0.393 OA
ATOM     31  H   UNL     1       8.061  10.502  41.548  1.00  0.00     0.210 HD
ENDBRANCH  29  30
ENDBRANCH   9  11
ENDBRANCH   1   9
TORSDOF 7
ENDMDL
