MODEL 1
REMARK VINA RESULT:    -3.043      0.000      0.000
REMARK INTER + INTRA:          -4.408
REMARK INTER:                  -4.021
REMARK INTRA:                  -0.387
REMARK UNBOUND:                -0.387
REMARK SMILES C=CCC[C@@H](O)CCC
REMARK SMILES IDX 4 1 5 2 7 3 8 4 9 5 6 6 3 8 2 9 1 10
REMARK H PARENT 6 7
REMARK Flexibility Score: inf
ROOT
ATOM      1  C   UNL     1       0.386   2.578  -5.635  1.00  0.00     0.036 C 
ENDROOT
BRANCH   1   2
ATOM      2  C   UNL     1      -1.088   2.628  -5.171  1.00  0.00     0.114 C 
BRANCH   2   3
ATOM      3  C   UNL     1      -1.360   3.799  -4.202  1.00  0.00     0.031 C 
BRANCH   3   4
ATOM      4  C   UNL     1      -2.773   4.371  -4.386  1.00  0.00    -0.001 C 
ATOM      5  C   UNL     1      -3.257   4.195  -5.822  1.00  0.00     0.004 C 
ENDBRANCH   3   4
ENDBRANCH   2   3
BRANCH   2   6
ATOM      6  O   UNL     1      -1.436   1.404  -4.574  1.00  0.00    -0.393 OA
ATOM      7  H   UNL     1      -2.003   0.906  -5.220  1.00  0.00     0.210 HD
ENDBRANCH   2   6
ENDBRANCH   1   2
BRANCH   1   8
ATOM      8  C   UNL     1       1.361   3.135  -4.585  1.00  0.00     0.029 C 
BRANCH   8   9
ATOM      9  C   UNL     1       2.329   2.077  -4.129  1.00  0.00    -0.035 C 
ATOM     10  C   UNL     1       1.927   1.003  -3.444  1.00  0.00     0.004 C 
ENDBRANCH   8   9
ENDBRANCH   1   8
TORSDOF 6
ENDMDL
MODEL 2
REMARK VINA RESULT:    -2.988      1.222      4.007
REMARK INTER + INTRA:          -4.336
REMARK INTER:                  -3.693
REMARK INTRA:                  -0.643
REMARK UNBOUND:                -0.387
REMARK SMILES C=CCC[C@@H](O)CCC
REMARK SMILES IDX 4 1 5 2 7 3 8 4 9 5 6 6 3 8 2 9 1 10
REMARK H PARENT 6 7
REMARK Flexibility Score: inf
ROOT
ATOM      1  C   UNL     1      -0.880   3.909  -4.345  1.00  0.00     0.036 C 
ENDROOT
BRANCH   1   2
ATOM      2  C   UNL     1      -0.167   2.541  -4.253  1.00  0.00     0.114 C 
BRANCH   2   3
ATOM      3  C   UNL     1       1.029   2.435  -5.224  1.00  0.00     0.031 C 
BRANCH   3   4
ATOM      4  C   UNL     1       0.827   3.310  -6.470  1.00  0.00    -0.001 C 
ATOM      5  C   UNL     1       0.234   2.502  -7.621  1.00  0.00     0.004 C 
ENDBRANCH   3   4
ENDBRANCH   2   3
BRANCH   2   6
ATOM      6  O   UNL     1      -1.092   1.510  -4.495  1.00  0.00    -0.393 OA
ATOM      7  H   UNL     1      -0.847   0.744  -3.912  1.00  0.00     0.210 HD
ENDBRANCH   2   6
ENDBRANCH   1   2
BRANCH   1   8
ATOM      8  C   UNL     1      -2.404   3.778  -4.508  1.00  0.00     0.029 C 
BRANCH   8   9
ATOM      9  C   UNL     1      -2.834   4.155  -5.898  1.00  0.00    -0.035 C 
ATOM     10  C   UNL     1      -3.328   3.254  -6.752  1.00  0.00     0.004 C 
ENDBRANCH   8   9
ENDBRANCH   1   8
TORSDOF 6
ENDMDL
MODEL 3
REMARK VINA RESULT:    -2.909      1.690      3.909
REMARK INTER + INTRA:          -4.232
REMARK INTER:                  -3.801
REMARK INTRA:                  -0.431
REMARK UNBOUND:                -0.387
REMARK SMILES C=CCC[C@@H](O)CCC
REMARK SMILES IDX 4 1 5 2 7 3 8 4 9 5 6 6 3 8 2 9 1 10
REMARK H PARENT 6 7
REMARK Flexibility Score: inf
ROOT
ATOM      1  C   UNL     1      -0.493   3.936  -5.730  1.00  0.00     0.036 C 
ENDROOT
BRANCH   1   2
ATOM      2  C   UNL     1      -0.555   3.436  -4.269  1.00  0.00     0.114 C 
BRANCH   2   3
ATOM      3  C   UNL     1       0.052   2.026  -4.104  1.00  0.00     0.031 C 
BRANCH   3   4
ATOM      4  C   UNL     1       1.586   2.060  -4.148  1.00  0.00    -0.001 C 
ATOM      5  C   UNL     1       2.186   0.881  -3.387  1.00  0.00     0.004 C 
ENDBRANCH   3   4
ENDBRANCH   2   3
BRANCH   2   6
ATOM      6  O   UNL     1      -1.887   3.456  -3.819  1.00  0.00    -0.393 OA
ATOM      7  H   UNL     1      -1.872   3.363  -2.831  1.00  0.00     0.210 HD
ENDBRANCH   2   6
ENDBRANCH   1   2
BRANCH   1   8
ATOM      8  C   UNL     1      -0.958   2.877  -6.743  1.00  0.00     0.029 C 
BRANCH   8   9
ATOM      9  C   UNL     1       0.063   2.683  -7.830  1.00  0.00    -0.035 C 
ATOM     10  C   UNL     1       1.327   3.093  -7.692  1.00  0.00     0.004 C 
ENDBRANCH   8   9
ENDBRANCH   1   8
TORSDOF 6
ENDMDL
MODEL 4
REMARK VINA RESULT:    -2.895      1.970      2.483
REMARK INTER + INTRA:          -4.213
REMARK INTER:                  -3.973
REMARK INTRA:                  -0.240
REMARK UNBOUND:                -0.387
REMARK SMILES C=CCC[C@@H](O)CCC
REMARK SMILES IDX 4 1 5 2 7 3 8 4 9 5 6 6 3 8 2 9 1 10
REMARK H PARENT 6 7
REMARK Flexibility Score: inf
ROOT
ATOM      1  C   UNL     1       1.222   1.486  -3.744  1.00  0.00     0.036 C 
ENDROOT
BRANCH   1   2
ATOM      2  C   UNL     1       0.077   2.185  -4.511  1.00  0.00     0.114 C 
BRANCH   2   3
ATOM      3  C   UNL     1       0.598   3.121  -5.623  1.00  0.00     0.031 C 
BRANCH   3   4
ATOM      4  C   UNL     1       0.281   2.572  -7.022  1.00  0.00    -0.001 C 
ATOM      5  C   UNL     1      -1.147   2.911  -7.437  1.00  0.00     0.004 C 
ENDBRANCH   3   4
ENDBRANCH   2   3
BRANCH   2   6
ATOM      6  O   UNL     1      -0.732   2.896  -3.607  1.00  0.00    -0.393 OA
ATOM      7  H   UNL     1      -0.382   3.824  -3.558  1.00  0.00     0.210 HD
ENDBRANCH   2   6
ENDBRANCH   1   2
BRANCH   1   8
ATOM      8  C   UNL     1       2.600   2.100  -4.041  1.00  0.00     0.029 C 
BRANCH   8   9
ATOM      9  C   UNL     1       3.693   1.347  -3.332  1.00  0.00    -0.035 C 
ATOM     10  C   UNL     1       3.622   0.028  -3.129  1.00  0.00     0.004 C 
ENDBRANCH   8   9
ENDBRANCH   1   8
TORSDOF 6
ENDMDL
MODEL 5
REMARK VINA RESULT:    -2.811      1.884      2.690
REMARK INTER + INTRA:          -4.102
REMARK INTER:                  -3.757
REMARK INTRA:                  -0.345
REMARK UNBOUND:                -0.387
REMARK SMILES C=CCC[C@@H](O)CCC
REMARK SMILES IDX 4 1 5 2 7 3 8 4 9 5 6 6 3 8 2 9 1 10
REMARK H PARENT 6 7
REMARK Flexibility Score: inf
ROOT
ATOM      1  C   UNL     1      -1.595   2.458  -5.005  1.00  0.00     0.036 C 
ENDROOT
BRANCH   1   2
ATOM      2  C   UNL     1      -2.537   2.821  -6.175  1.00  0.00     0.114 C 
BRANCH   2   3
ATOM      3  C   UNL     1      -3.366   4.093  -5.891  1.00  0.00     0.031 C 
BRANCH   3   4
ATOM      4  C   UNL     1      -3.048   4.679  -4.508  1.00  0.00    -0.001 C 
ATOM      5  C   UNL     1      -4.211   5.516  -3.984  1.00  0.00     0.004 C 
ENDBRANCH   3   4
ENDBRANCH   2   3
BRANCH   2   6
ATOM      6  O   UNL     1      -3.384   1.733  -6.454  1.00  0.00    -0.393 OA
ATOM      7  H   UNL     1      -3.779   1.883  -7.352  1.00  0.00     0.210 HD
ENDBRANCH   2   6
ENDBRANCH   1   2
BRANCH   1   8
ATOM      8  C   UNL     1      -0.111   2.475  -5.407  1.00  0.00     0.029 C 
BRANCH   8   9
ATOM      9  C   UNL     1       0.047   2.662  -6.890  1.00  0.00    -0.035 C 
ATOM     10  C   UNL     1       1.207   3.045  -7.432  1.00  0.00     0.004 C 
ENDBRANCH   8   9
ENDBRANCH   1   8
TORSDOF 6
ENDMDL
MODEL 6
REMARK VINA RESULT:    -2.807      1.944      3.089
REMARK INTER + INTRA:          -4.096
REMARK INTER:                  -3.460
REMARK INTRA:                  -0.636
REMARK UNBOUND:                -0.387
REMARK SMILES C=CCC[C@@H](O)CCC
REMARK SMILES IDX 4 1 5 2 7 3 8 4 9 5 6 6 3 8 2 9 1 10
REMARK H PARENT 6 7
REMARK Flexibility Score: inf
ROOT
ATOM      1  C   UNL     1      -2.435   3.482  -5.033  1.00  0.00     0.036 C 
ENDROOT
BRANCH   1   2
ATOM      2  C   UNL     1      -2.309   2.752  -6.389  1.00  0.00     0.114 C 
BRANCH   2   3
ATOM      3  C   UNL     1      -2.113   3.730  -7.569  1.00  0.00     0.031 C 
BRANCH   3   4
ATOM      4  C   UNL     1      -0.645   3.796  -8.012  1.00  0.00    -0.001 C 
ATOM      5  C   UNL     1      -0.007   2.410  -8.015  1.00  0.00     0.004 C 
ENDBRANCH   3   4
ENDBRANCH   2   3
BRANCH   2   6
ATOM      6  O   UNL     1      -3.444   1.948  -6.599  1.00  0.00    -0.393 OA
ATOM      7  H   UNL     1      -3.578   1.869  -7.580  1.00  0.00     0.210 HD
ENDBRANCH   2   6
ENDBRANCH   1   2
BRANCH   1   8
ATOM      8  C   UNL     1      -1.110   3.528  -4.255  1.00  0.00     0.029 C 
BRANCH   8   9
ATOM      9  C   UNL     1      -0.379   2.218  -4.351  1.00  0.00    -0.035 C 
ATOM     10  C   UNL     1       0.956   2.154  -4.346  1.00  0.00     0.004 C 
ENDBRANCH   8   9
ENDBRANCH   1   8
TORSDOF 6
ENDMDL
MODEL 7
REMARK VINA RESULT:    -2.803      1.673      2.682
REMARK INTER + INTRA:          -4.092
REMARK INTER:                  -3.550
REMARK INTRA:                  -0.542
REMARK UNBOUND:                -0.387
REMARK SMILES C=CCC[C@@H](O)CCC
REMARK SMILES IDX 4 1 5 2 7 3 8 4 9 5 6 6 3 8 2 9 1 10
REMARK H PARENT 6 7
REMARK Flexibility Score: inf
ROOT
ATOM      1  C   UNL     1       0.835   2.582  -5.561  1.00  0.00     0.036 C 
ENDROOT
BRANCH   1   2
ATOM      2  C   UNL     1      -0.459   2.613  -4.716  1.00  0.00     0.114 C 
BRANCH   2   3
ATOM      3  C   UNL     1      -1.122   4.007  -4.705  1.00  0.00     0.031 C 
BRANCH   3   4
ATOM      4  C   UNL     1      -2.637   3.917  -4.943  1.00  0.00    -0.001 C 
ATOM      5  C   UNL     1      -2.962   2.926  -6.056  1.00  0.00     0.004 C 
ENDBRANCH   3   4
ENDBRANCH   2   3
BRANCH   2   6
ATOM      6  O   UNL     1      -0.175   2.192  -3.405  1.00  0.00    -0.393 OA
ATOM      7  H   UNL     1      -1.002   1.787  -3.034  1.00  0.00     0.210 HD
ENDBRANCH   2   6
ENDBRANCH   1   2
BRANCH   1   8
ATOM      8  C   UNL     1       0.738   3.444  -6.831  1.00  0.00     0.029 C 
BRANCH   8   9
ATOM      9  C   UNL     1       0.731   2.588  -8.068  1.00  0.00    -0.035 C 
ATOM     10  C   UNL     1      -0.408   2.186  -8.640  1.00  0.00     0.004 C 
ENDBRANCH   8   9
ENDBRANCH   1   8
TORSDOF 6
ENDMDL
MODEL 8
REMARK VINA RESULT:    -2.792     11.762     12.834
REMARK INTER + INTRA:          -4.077
REMARK INTER:                  -3.423
REMARK INTRA:                  -0.654
REMARK UNBOUND:                -0.387
REMARK SMILES C=CCC[C@@H](O)CCC
REMARK SMILES IDX 4 1 5 2 7 3 8 4 9 5 6 6 3 8 2 9 1 10
REMARK H PARENT 6 7
REMARK Flexibility Score: inf
ROOT
ATOM      1  C   UNL     1      -0.434   2.113   7.661  1.00  0.00     0.036 C 
ENDROOT
BRANCH   1   2
ATOM      2  C   UNL     1      -1.615   1.494   6.878  1.00  0.00     0.114 C 
BRANCH   2   3
ATOM      3  C   UNL     1      -1.166   0.349   5.945  1.00  0.00     0.031 C 
BRANCH   3   4
ATOM      4  C   UNL     1      -1.342  -1.025   6.608  1.00  0.00    -0.001 C 
ATOM      5  C   UNL     1      -2.646  -1.093   7.397  1.00  0.00     0.004 C 
ENDBRANCH   3   4
ENDBRANCH   2   3
BRANCH   2   6
ATOM      6  O   UNL     1      -2.272   2.498   6.146  1.00  0.00    -0.393 OA
ATOM      7  H   UNL     1      -2.961   2.056   5.583  1.00  0.00     0.210 HD
ENDBRANCH   2   6
ENDBRANCH   1   2
BRANCH   1   8
ATOM      8  C   UNL     1      -0.694   2.184   9.175  1.00  0.00     0.029 C 
BRANCH   8   9
ATOM      9  C   UNL     1      -0.495   0.842   9.823  1.00  0.00    -0.035 C 
ATOM     10  C   UNL     1       0.594   0.103   9.592  1.00  0.00     0.004 C 
ENDBRANCH   8   9
ENDBRANCH   1   8
TORSDOF 6
ENDMDL
MODEL 9
REMARK VINA RESULT:    -2.762      0.792      4.462
REMARK INTER + INTRA:          -4.037
REMARK INTER:                  -3.742
REMARK INTRA:                  -0.295
REMARK UNBOUND:                -0.387
REMARK SMILES C=CCC[C@@H](O)CCC
REMARK SMILES IDX 4 1 5 2 7 3 8 4 9 5 6 6 3 8 2 9 1 10
REMARK H PARENT 6 7
REMARK Flexibility Score: inf
ROOT
ATOM      1  C   UNL     1      -1.098   3.845  -4.215  1.00  0.00     0.036 C 
ENDROOT
BRANCH   1   2
ATOM      2  C   UNL     1      -0.352   2.497  -4.334  1.00  0.00     0.114 C 
BRANCH   2   3
ATOM      3  C   UNL     1       0.776   2.540  -5.389  1.00  0.00     0.031 C 
BRANCH   3   4
ATOM      4  C   UNL     1       2.165   2.488  -4.736  1.00  0.00    -0.001 C 
ATOM      5  C   UNL     1       2.231   1.402  -3.666  1.00  0.00     0.004 C 
ENDBRANCH   3   4
ENDBRANCH   2   3
BRANCH   2   6
ATOM      6  O   UNL     1      -1.270   1.475  -4.635  1.00  0.00    -0.393 OA
ATOM      7  H   UNL     1      -1.621   1.647  -5.548  1.00  0.00     0.210 HD
ENDBRANCH   2   6
ENDBRANCH   1   2
BRANCH   1   8
ATOM      8  C   UNL     1      -2.557   3.765  -4.691  1.00  0.00     0.029 C 
BRANCH   8   9
ATOM      9  C   UNL     1      -2.676   4.148  -6.140  1.00  0.00    -0.035 C 
ATOM     10  C   UNL     1      -3.210   3.323  -7.046  1.00  0.00     0.004 C 
ENDBRANCH   8   9
ENDBRANCH   1   8
TORSDOF 6
ENDMDL
