MODEL 1
REMARK VINA RESULT:    -5.641      0.000      0.000
REMARK INTER + INTRA:          -5.971
REMARK INTER:                  -5.971
REMARK INTRA:                   0.000
REMARK UNBOUND:                 0.000
REMARK SMILES O=c1ccc2cc(O)c(O)cc2o1
REMARK SMILES IDX 4 1 3 2 2 3 1 4 13 5 12 6 11 7 9 8 7 9 6 10 5 11 8 12 10 14
REMARK H PARENT 8 13 10 15
REMARK Flexibility Score: inf
ROOT
ATOM      1  C   UNL     1     -20.006 -36.733 120.347  1.00  0.00     0.019 A 
ATOM      2  C   UNL     1     -19.424 -36.037 121.406  1.00  0.00     0.094 A 
ATOM      3  C   UNL     1     -19.412 -34.638 121.374  1.00  0.00     0.336 A 
ATOM      4  O   UNL     1     -18.891 -33.992 122.320  1.00  0.00    -0.246 OA
ATOM      5  O   UNL     1     -19.949 -33.984 120.347  1.00  0.00    -0.423 OA
ATOM      6  C   UNL     1     -20.515 -34.608 119.316  1.00  0.00     0.142 A 
ATOM      7  C   UNL     1     -21.064 -33.867 118.265  1.00  0.00     0.098 A 
ATOM      8  C   UNL     1     -21.661 -34.522 117.177  1.00  0.00     0.161 A 
ATOM      9  C   UNL     1     -21.708 -35.923 117.141  1.00  0.00     0.158 A 
ATOM     10  C   UNL     1     -21.160 -36.671 118.192  1.00  0.00     0.062 A 
ATOM     11  C   UNL     1     -20.563 -36.019 119.281  1.00  0.00     0.022 A 
ENDROOT
BRANCH   9  12
ATOM     12  O   UNL     1     -22.304 -36.564 116.055  1.00  0.00    -0.504 OA
ATOM     13  H   UNL     1     -21.750 -37.031 115.347  1.00  0.00     0.293 HD
ENDBRANCH   9  12
BRANCH   8  14
ATOM     14  O   UNL     1     -22.208 -33.786 116.128  1.00  0.00    -0.504 OA
ATOM     15  H   UNL     1     -21.764 -32.942 115.784  1.00  0.00     0.293 HD
ENDBRANCH   8  14
TORSDOF 2
ENDMDL
MODEL 2
REMARK VINA RESULT:    -5.632      1.113      2.246
REMARK INTER + INTRA:          -5.961
REMARK INTER:                  -5.961
REMARK INTRA:                   0.000
REMARK UNBOUND:                 0.000
REMARK SMILES O=c1ccc2cc(O)c(O)cc2o1
REMARK SMILES IDX 4 1 3 2 2 3 1 4 13 5 12 6 11 7 9 8 7 9 6 10 5 11 8 12 10 14
REMARK H PARENT 8 13 10 15
REMARK Flexibility Score: inf
ROOT
ATOM      1  C   UNL     1     -19.954 -33.829 120.442  1.00  0.00     0.019 A 
ATOM      2  C   UNL     1     -19.460 -34.577 121.509  1.00  0.00     0.094 A 
ATOM      3  C   UNL     1     -19.569 -35.972 121.469  1.00  0.00     0.336 A 
ATOM      4  O   UNL     1     -19.130 -36.665 122.424  1.00  0.00    -0.246 OA
ATOM      5  O   UNL     1     -20.135 -36.573 120.425  1.00  0.00    -0.423 OA
ATOM      6  C   UNL     1     -20.619 -35.897 119.385  1.00  0.00     0.142 A 
ATOM      7  C   UNL     1     -21.204 -36.582 118.316  1.00  0.00     0.098 A 
ATOM      8  C   UNL     1     -21.714 -35.874 117.218  1.00  0.00     0.161 A 
ATOM      9  C   UNL     1     -21.641 -34.473 117.191  1.00  0.00     0.158 A 
ATOM     10  C   UNL     1     -21.055 -33.780 118.260  1.00  0.00     0.062 A 
ATOM     11  C   UNL     1     -20.544 -34.487 119.358  1.00  0.00     0.022 A 
ENDROOT
BRANCH   9  12
ATOM     12  O   UNL     1     -22.151 -33.778 116.095  1.00  0.00    -0.504 OA
ATOM     13  H   UNL     1     -21.963 -32.791 115.959  1.00  0.00     0.293 HD
ENDBRANCH   9  12
BRANCH   8  14
ATOM     14  O   UNL     1     -22.298 -36.555 116.152  1.00  0.00    -0.504 OA
ATOM     15  H   UNL     1     -22.075 -36.325 115.190  1.00  0.00     0.293 HD
ENDBRANCH   8  14
TORSDOF 2
ENDMDL
MODEL 3
REMARK VINA RESULT:    -5.478      2.048      3.158
REMARK INTER + INTRA:          -5.798
REMARK INTER:                  -5.798
REMARK INTRA:                   0.000
REMARK UNBOUND:                 0.000
REMARK SMILES O=c1ccc2cc(O)c(O)cc2o1
REMARK SMILES IDX 4 1 3 2 2 3 1 4 13 5 12 6 11 7 9 8 7 9 6 10 5 11 8 12 10 14
REMARK H PARENT 8 13 10 15
REMARK Flexibility Score: inf
ROOT
ATOM      1  C   UNL     1     -23.368 -33.041 119.023  1.00  0.00     0.019 A 
ATOM      2  C   UNL     1     -23.181 -32.410 120.252  1.00  0.00     0.094 A 
ATOM      3  C   UNL     1     -22.258 -32.946 121.157  1.00  0.00     0.336 A 
ATOM      4  O   UNL     1     -22.076 -32.392 122.272  1.00  0.00    -0.246 OA
ATOM      5  O   UNL     1     -21.569 -34.042 120.846  1.00  0.00    -0.423 OA
ATOM      6  C   UNL     1     -21.716 -34.675 119.684  1.00  0.00     0.142 A 
ATOM      7  C   UNL     1     -20.965 -35.822 119.413  1.00  0.00     0.098 A 
ATOM      8  C   UNL     1     -21.116 -36.492 118.190  1.00  0.00     0.161 A 
ATOM      9  C   UNL     1     -22.024 -36.012 117.234  1.00  0.00     0.158 A 
ATOM     10  C   UNL     1     -22.780 -34.862 117.501  1.00  0.00     0.062 A 
ATOM     11  C   UNL     1     -22.630 -34.191 118.723  1.00  0.00     0.022 A 
ENDROOT
BRANCH   9  12
ATOM     12  O   UNL     1     -22.167 -36.685 116.021  1.00  0.00    -0.504 OA
ATOM     13  H   UNL     1     -21.363 -36.997 115.490  1.00  0.00     0.293 HD
ENDBRANCH   9  12
BRANCH   8  14
ATOM     14  O   UNL     1     -20.368 -37.636 117.917  1.00  0.00    -0.504 OA
ATOM     15  H   UNL     1     -19.549 -37.605 117.321  1.00  0.00     0.293 HD
ENDBRANCH   8  14
TORSDOF 2
ENDMDL
MODEL 4
REMARK VINA RESULT:    -5.475      2.184      2.688
REMARK INTER + INTRA:          -5.795
REMARK INTER:                  -5.795
REMARK INTRA:                   0.000
REMARK UNBOUND:                 0.000
REMARK SMILES O=c1ccc2cc(O)c(O)cc2o1
REMARK SMILES IDX 4 1 3 2 2 3 1 4 13 5 12 6 11 7 9 8 7 9 6 10 5 11 8 12 10 14
REMARK H PARENT 8 13 10 15
REMARK Flexibility Score: inf
ROOT
ATOM      1  C   UNL     1     -19.838 -37.473 117.223  1.00  0.00     0.019 A 
ATOM      2  C   UNL     1     -18.540 -37.602 117.715  1.00  0.00     0.094 A 
ATOM      3  C   UNL     1     -18.011 -36.581 118.511  1.00  0.00     0.336 A 
ATOM      4  O   UNL     1     -16.840 -36.679 118.963  1.00  0.00    -0.246 OA
ATOM      5  O   UNL     1     -18.738 -35.503 118.794  1.00  0.00    -0.423 OA
ATOM      6  C   UNL     1     -19.981 -35.339 118.346  1.00  0.00     0.142 A 
ATOM      7  C   UNL     1     -20.698 -34.185 118.676  1.00  0.00     0.098 A 
ATOM      8  C   UNL     1     -22.008 -34.009 118.207  1.00  0.00     0.161 A 
ATOM      9  C   UNL     1     -22.603 -34.992 117.402  1.00  0.00     0.158 A 
ATOM     10  C   UNL     1     -21.889 -36.152 117.068  1.00  0.00     0.062 A 
ATOM     11  C   UNL     1     -20.580 -36.330 117.537  1.00  0.00     0.022 A 
ENDROOT
BRANCH   9  12
ATOM     12  O   UNL     1     -23.906 -34.808 116.940  1.00  0.00    -0.504 OA
ATOM     13  H   UNL     1     -24.662 -35.418 117.228  1.00  0.00     0.293 HD
ENDBRANCH   9  12
BRANCH   8  14
ATOM     14  O   UNL     1     -22.724 -32.859 118.534  1.00  0.00    -0.504 OA
ATOM     15  H   UNL     1     -23.730 -32.812 118.424  1.00  0.00     0.293 HD
ENDBRANCH   8  14
TORSDOF 2
ENDMDL
MODEL 5
REMARK VINA RESULT:    -5.463      2.519      3.610
REMARK INTER + INTRA:          -5.782
REMARK INTER:                  -5.782
REMARK INTRA:                   0.000
REMARK UNBOUND:                 0.000
REMARK SMILES O=c1ccc2cc(O)c(O)cc2o1
REMARK SMILES IDX 4 1 3 2 2 3 1 4 13 5 12 6 11 7 9 8 7 9 6 10 5 11 8 12 10 14
REMARK H PARENT 8 13 10 15
REMARK Flexibility Score: inf
ROOT
ATOM      1  C   UNL     1     -18.725 -35.545 118.664  1.00  0.00     0.019 A 
ATOM      2  C   UNL     1     -18.061 -36.696 118.244  1.00  0.00     0.094 A 
ATOM      3  C   UNL     1     -18.731 -37.604 117.416  1.00  0.00     0.336 A 
ATOM      4  O   UNL     1     -18.148 -38.649 117.028  1.00  0.00    -0.246 OA
ATOM      5  O   UNL     1     -19.984 -37.368 117.035  1.00  0.00    -0.423 OA
ATOM      6  C   UNL     1     -20.656 -36.282 117.412  1.00  0.00     0.142 A 
ATOM      7  C   UNL     1     -21.971 -36.087 116.980  1.00  0.00     0.098 A 
ATOM      8  C   UNL     1     -22.682 -34.944 117.375  1.00  0.00     0.161 A 
ATOM      9  C   UNL     1     -22.073 -33.991 118.206  1.00  0.00     0.158 A 
ATOM     10  C   UNL     1     -20.754 -34.181 118.642  1.00  0.00     0.062 A 
ATOM     11  C   UNL     1     -20.042 -35.323 118.248  1.00  0.00     0.022 A 
ENDROOT
BRANCH   9  12
ATOM     12  O   UNL     1     -22.788 -32.858 118.592  1.00  0.00    -0.504 OA
ATOM     13  H   UNL     1     -22.561 -31.939 118.230  1.00  0.00     0.293 HD
ENDBRANCH   9  12
BRANCH   8  14
ATOM     14  O   UNL     1     -23.993 -34.748 116.946  1.00  0.00    -0.504 OA
ATOM     15  H   UNL     1     -24.201 -34.378 116.026  1.00  0.00     0.293 HD
ENDBRANCH   8  14
TORSDOF 2
ENDMDL
MODEL 6
REMARK VINA RESULT:    -5.447      2.491      3.323
REMARK INTER + INTRA:          -5.765
REMARK INTER:                  -5.765
REMARK INTRA:                   0.000
REMARK UNBOUND:                 0.000
REMARK SMILES O=c1ccc2cc(O)c(O)cc2o1
REMARK SMILES IDX 4 1 3 2 2 3 1 4 13 5 12 6 11 7 9 8 7 9 6 10 5 11 8 12 10 14
REMARK H PARENT 8 13 10 15
REMARK Flexibility Score: inf
ROOT
ATOM      1  C   UNL     1     -21.663 -34.001 120.715  1.00  0.00     0.019 A 
ATOM      2  C   UNL     1     -22.506 -32.912 120.935  1.00  0.00     0.094 A 
ATOM      3  C   UNL     1     -23.423 -32.553 119.941  1.00  0.00     0.336 A 
ATOM      4  O   UNL     1     -24.191 -31.572 120.120  1.00  0.00    -0.246 OA
ATOM      5  O   UNL     1     -23.489 -33.242 118.805  1.00  0.00    -0.423 OA
ATOM      6  C   UNL     1     -22.705 -34.288 118.555  1.00  0.00     0.142 A 
ATOM      7  C   UNL     1     -22.819 -34.974 117.342  1.00  0.00     0.098 A 
ATOM      8  C   UNL     1     -21.995 -36.077 117.074  1.00  0.00     0.161 A 
ATOM      9  C   UNL     1     -21.050 -36.494 118.025  1.00  0.00     0.158 A 
ATOM     10  C   UNL     1     -20.931 -35.810 119.243  1.00  0.00     0.062 A 
ATOM     11  C   UNL     1     -21.755 -34.708 119.512  1.00  0.00     0.022 A 
ENDROOT
BRANCH   9  12
ATOM     12  O   UNL     1     -20.235 -37.591 117.750  1.00  0.00    -0.504 OA
ATOM     13  H   UNL     1     -19.227 -37.501 117.691  1.00  0.00     0.293 HD
ENDBRANCH   9  12
BRANCH   8  14
ATOM     14  O   UNL     1     -22.107 -36.763 115.867  1.00  0.00    -0.504 OA
ATOM     15  H   UNL     1     -21.475 -36.583 115.094  1.00  0.00     0.293 HD
ENDBRANCH   8  14
TORSDOF 2
ENDMDL
MODEL 7
REMARK VINA RESULT:    -5.261      2.465      4.456
REMARK INTER + INTRA:          -5.568
REMARK INTER:                  -5.568
REMARK INTRA:                   0.000
REMARK UNBOUND:                 0.000
REMARK SMILES O=c1ccc2cc(O)c(O)cc2o1
REMARK SMILES IDX 4 1 3 2 2 3 1 4 13 5 12 6 11 7 9 8 7 9 6 10 5 11 8 12 10 14
REMARK H PARENT 8 13 10 15
REMARK Flexibility Score: inf
ROOT
ATOM      1  C   UNL     1     -20.725 -35.685 119.519  1.00  0.00     0.019 A 
ATOM      2  C   UNL     1     -20.765 -36.440 118.348  1.00  0.00     0.094 A 
ATOM      3  C   UNL     1     -21.704 -36.115 117.362  1.00  0.00     0.336 A 
ATOM      4  O   UNL     1     -21.757 -36.786 116.298  1.00  0.00    -0.246 OA
ATOM      5  O   UNL     1     -22.544 -35.099 117.542  1.00  0.00    -0.423 OA
ATOM      6  C   UNL     1     -22.540 -34.352 118.644  1.00  0.00     0.142 A 
ATOM      7  C   UNL     1     -23.447 -33.296 118.777  1.00  0.00     0.098 A 
ATOM      8  C   UNL     1     -23.445 -32.506 119.937  1.00  0.00     0.161 A 
ATOM      9  C   UNL     1     -22.533 -32.775 120.968  1.00  0.00     0.158 A 
ATOM     10  C   UNL     1     -21.621 -33.832 120.839  1.00  0.00     0.062 A 
ATOM     11  C   UNL     1     -21.620 -34.622 119.681  1.00  0.00     0.022 A 
ENDROOT
BRANCH   9  12
ATOM     12  O   UNL     1     -22.539 -31.985 122.116  1.00  0.00    -0.504 OA
ATOM     13  H   UNL     1     -23.327 -31.391 122.346  1.00  0.00     0.293 HD
ENDBRANCH   9  12
BRANCH   8  14
ATOM     14  O   UNL     1     -24.349 -31.454 120.072  1.00  0.00    -0.504 OA
ATOM     15  H   UNL     1     -24.085 -30.583 120.518  1.00  0.00     0.293 HD
ENDBRANCH   8  14
TORSDOF 2
ENDMDL
MODEL 8
REMARK VINA RESULT:    -5.209      2.412      4.397
REMARK INTER + INTRA:          -5.513
REMARK INTER:                  -5.513
REMARK INTRA:                   0.000
REMARK UNBOUND:                 0.000
REMARK SMILES O=c1ccc2cc(O)c(O)cc2o1
REMARK SMILES IDX 4 1 3 2 2 3 1 4 13 5 12 6 11 7 9 8 7 9 6 10 5 11 8 12 10 14
REMARK H PARENT 8 13 10 15
REMARK Flexibility Score: inf
ROOT
ATOM      1  C   UNL     1     -20.548 -34.117 119.034  1.00  0.00     0.019 A 
ATOM      2  C   UNL     1     -21.842 -33.756 118.661  1.00  0.00     0.094 A 
ATOM      3  C   UNL     1     -22.559 -34.594 117.800  1.00  0.00     0.336 A 
ATOM      4  O   UNL     1     -23.728 -34.285 117.450  1.00  0.00    -0.246 OA
ATOM      5  O   UNL     1     -22.011 -35.719 117.345  1.00  0.00    -0.423 OA
ATOM      6  C   UNL     1     -20.780 -36.101 117.676  1.00  0.00     0.142 A 
ATOM      7  C   UNL     1     -20.257 -37.294 117.167  1.00  0.00     0.098 A 
ATOM      8  C   UNL     1     -18.960 -37.700 117.514  1.00  0.00     0.161 A 
ATOM      9  C   UNL     1     -18.183 -36.909 118.373  1.00  0.00     0.158 A 
ATOM     10  C   UNL     1     -18.702 -35.712 118.887  1.00  0.00     0.062 A 
ATOM     11  C   UNL     1     -19.998 -35.305 118.542  1.00  0.00     0.022 A 
ENDROOT
BRANCH   9  12
ATOM     12  O   UNL     1     -16.895 -37.322 118.712  1.00  0.00    -0.504 OA
ATOM     13  H   UNL     1     -16.730 -37.985 119.461  1.00  0.00     0.293 HD
ENDBRANCH   9  12
BRANCH   8  14
ATOM     14  O   UNL     1     -18.436 -38.888 117.008  1.00  0.00    -0.504 OA
ATOM     15  H   UNL     1     -17.886 -38.905 116.158  1.00  0.00     0.293 HD
ENDBRANCH   8  14
TORSDOF 2
ENDMDL
MODEL 9
REMARK VINA RESULT:    -5.173      9.823     11.372
REMARK INTER + INTRA:          -5.476
REMARK INTER:                  -5.476
REMARK INTRA:                   0.000
REMARK UNBOUND:                 0.000
REMARK SMILES O=c1ccc2cc(O)c(O)cc2o1
REMARK SMILES IDX 4 1 3 2 2 3 1 4 13 5 12 6 11 7 9 8 7 9 6 10 5 11 8 12 10 14
REMARK H PARENT 8 13 10 15
REMARK Flexibility Score: inf
ROOT
ATOM      1  C   UNL     1     -14.009 -44.751 115.266  1.00  0.00     0.019 A 
ATOM      2  C   UNL     1     -14.372 -44.354 113.980  1.00  0.00     0.094 A 
ATOM      3  C   UNL     1     -14.727 -43.020 113.755  1.00  0.00     0.336 A 
ATOM      4  O   UNL     1     -15.059 -42.643 112.601  1.00  0.00    -0.246 OA
ATOM      5  O   UNL     1     -14.718 -42.143 114.757  1.00  0.00    -0.423 OA
ATOM      6  C   UNL     1     -14.378 -42.479 115.999  1.00  0.00     0.142 A 
ATOM      7  C   UNL     1     -14.386 -41.515 117.012  1.00  0.00     0.098 A 
ATOM      8  C   UNL     1     -14.028 -41.864 118.322  1.00  0.00     0.161 A 
ATOM      9  C   UNL     1     -13.661 -43.185 118.621  1.00  0.00     0.158 A 
ATOM     10  C   UNL     1     -13.651 -44.156 117.610  1.00  0.00     0.062 A 
ATOM     11  C   UNL     1     -14.008 -43.808 116.300  1.00  0.00     0.022 A 
ENDROOT
BRANCH   9  12
ATOM     12  O   UNL     1     -13.307 -43.522 119.927  1.00  0.00    -0.504 OA
ATOM     13  H   UNL     1     -12.428 -43.982 120.136  1.00  0.00     0.293 HD
ENDBRANCH   9  12
BRANCH   8  14
ATOM     14  O   UNL     1     -14.036 -40.905 119.333  1.00  0.00    -0.504 OA
ATOM     15  H   UNL     1     -13.191 -40.656 119.835  1.00  0.00     0.293 HD
ENDBRANCH   8  14
TORSDOF 2
ENDMDL
