MODEL 1
REMARK VINA RESULT:    -3.010      0.000      0.000
REMARK INTER + INTRA:          -9.215
REMARK INTER:                  -5.826
REMARK INTRA:                  -3.390
REMARK UNBOUND:                -3.390
REMARK SMILES CCCCCC=CCC=CCCCCCCCCOC(C)=O
REMARK SMILES IDX 12 1 11 2 10 3 9 4 8 5 7 6 6 7 5 8 4 9 3 10 2 11 1 12 13 13
REMARK SMILES IDX 14 14 15 15 16 16 17 17 18 18 19 19 20 20 22 21 21 22
REMARK H PARENT
REMARK Flexibility Score: inf
ROOT
ATOM      1  C   UNL     1     104.063  85.667  20.749  1.00  0.00     0.004 C 
ENDROOT
BRANCH   1   2
ATOM      2  C   UNL     1     103.089  85.555  19.569  1.00  0.00     0.027 C 
BRANCH   2   3
ATOM      3  C   UNL     1     103.651  84.698  18.467  1.00  0.00    -0.031 C 
ATOM      4  C   UNL     1     104.972  84.604  18.252  1.00  0.00    -0.027 C 
BRANCH   4   5
ATOM      5  C   UNL     1     105.527  83.704  17.188  1.00  0.00     0.054 C 
BRANCH   5   6
ATOM      6  C   UNL     1     106.307  82.576  17.818  1.00  0.00    -0.027 C 
ATOM      7  C   UNL     1     105.778  81.423  18.265  1.00  0.00    -0.031 C 
BRANCH   7   8
ATOM      8  C   UNL     1     104.313  81.069  18.213  1.00  0.00     0.027 C 
BRANCH   8   9
ATOM      9  C   UNL     1     103.978  79.941  19.198  1.00  0.00     0.004 C 
BRANCH   9  10
ATOM     10  C   UNL     1     102.751  80.301  20.048  1.00  0.00     0.000 C 
BRANCH  10  11
ATOM     11  C   UNL     1     102.172  81.680  19.696  1.00  0.00    -0.003 C 
ATOM     12  C   UNL     1     101.383  82.302  20.849  1.00  0.00     0.004 C 
ENDBRANCH  10  11
ENDBRANCH   9  10
ENDBRANCH   8   9
ENDBRANCH   7   8
ENDBRANCH   5   6
ENDBRANCH   4   5
ENDBRANCH   2   3
ENDBRANCH   1   2
BRANCH   1  13
ATOM     13  C   UNL     1     103.509  85.004  22.023  1.00  0.00     0.000 C 
BRANCH  13  14
ATOM     14  C   UNL     1     104.515  84.040  22.671  1.00  0.00     0.000 C 
BRANCH  14  15
ATOM     15  C   UNL     1     105.246  83.168  21.634  1.00  0.00     0.000 C 
BRANCH  15  16
ATOM     16  C   UNL     1     105.657  81.799  22.200  1.00  0.00     0.003 C 
BRANCH  16  17
ATOM     17  C   UNL     1     104.577  81.187  23.107  1.00  0.00     0.042 C 
BRANCH  17  18
ATOM     18  C   UNL     1     105.157  80.746  24.452  1.00  0.00     0.233 C 
BRANCH  18  19
ATOM     19  O   UNL     1     104.221  81.000  25.495  1.00  0.00    -0.466 OA
BRANCH  19  20
ATOM     20  C   UNL     1     103.991  82.280  26.006  1.00  0.00     0.302 C 
ATOM     21  O   UNL     1     104.932  83.113  26.107  1.00  0.00    -0.253 OA
ATOM     22  C   UNL     1     102.607  82.680  26.389  1.00  0.00     0.139 C 
ENDBRANCH  19  20
ENDBRANCH  18  19
ENDBRANCH  17  18
ENDBRANCH  16  17
ENDBRANCH  15  16
ENDBRANCH  14  15
ENDBRANCH  13  14
ENDBRANCH   1  13
TORSDOF 16
ENDMDL
MODEL 2
REMARK VINA RESULT:    -2.992      3.511      6.630
REMARK INTER + INTRA:          -9.180
REMARK INTER:                  -5.933
REMARK INTRA:                  -3.247
REMARK UNBOUND:                -3.390
REMARK SMILES CCCCCC=CCC=CCCCCCCCCOC(C)=O
REMARK SMILES IDX 12 1 11 2 10 3 9 4 8 5 7 6 6 7 5 8 4 9 3 10 2 11 1 12 13 13
REMARK SMILES IDX 14 14 15 15 16 16 17 17 18 18 19 19 20 20 22 21 21 22
REMARK H PARENT
REMARK Flexibility Score: inf
ROOT
ATOM      1  C   UNL     1     104.885  81.107  15.914  1.00  0.00     0.004 C 
ENDROOT
BRANCH   1   2
ATOM      2  C   UNL     1     103.535  80.468  16.263  1.00  0.00     0.027 C 
BRANCH   2   3
ATOM      3  C   UNL     1     103.309  80.428  17.750  1.00  0.00    -0.031 C 
ATOM      4  C   UNL     1     102.854  81.497  18.421  1.00  0.00    -0.027 C 
BRANCH   4   5
ATOM      5  C   UNL     1     102.578  81.432  19.895  1.00  0.00     0.054 C 
BRANCH   5   6
ATOM      6  C   UNL     1     103.301  80.257  20.506  1.00  0.00    -0.027 C 
ATOM      7  C   UNL     1     104.561  80.283  20.979  1.00  0.00    -0.031 C 
BRANCH   7   8
ATOM      8  C   UNL     1     105.460  81.494  20.971  1.00  0.00     0.027 C 
BRANCH   8   9
ATOM      9  C   UNL     1     105.578  82.108  22.372  1.00  0.00     0.004 C 
BRANCH   9  10
ATOM     10  C   UNL     1     105.331  83.622  22.330  1.00  0.00     0.000 C 
BRANCH  10  11
ATOM     11  C   UNL     1     103.893  83.998  22.721  1.00  0.00    -0.003 C 
ATOM     12  C   UNL     1     103.145  84.722  21.602  1.00  0.00     0.004 C 
ENDBRANCH  10  11
ENDBRANCH   9  10
ENDBRANCH   8   9
ENDBRANCH   7   8
ENDBRANCH   5   6
ENDBRANCH   4   5
ENDBRANCH   2   3
ENDBRANCH   1   2
BRANCH   1  13
ATOM     13  C   UNL     1     105.993  80.697  16.901  1.00  0.00     0.000 C 
BRANCH  13  14
ATOM     14  C   UNL     1     106.655  81.907  17.579  1.00  0.00     0.000 C 
BRANCH  14  15
ATOM     15  C   UNL     1     106.012  83.242  17.161  1.00  0.00     0.000 C 
BRANCH  15  16
ATOM     16  C   UNL     1     105.427  84.014  18.355  1.00  0.00     0.003 C 
BRANCH  16  17
ATOM     17  C   UNL     1     104.840  85.375  17.946  1.00  0.00     0.042 C 
BRANCH  17  18
ATOM     18  C   UNL     1     103.311  85.360  17.982  1.00  0.00     0.233 C 
BRANCH  18  19
ATOM     19  O   UNL     1     102.802  84.638  16.864  1.00  0.00    -0.466 OA
BRANCH  19  20
ATOM     20  C   UNL     1     102.919  85.101  15.551  1.00  0.00     0.302 C 
ATOM     21  O   UNL     1     102.661  86.301  15.264  1.00  0.00    -0.253 OA
ATOM     22  C   UNL     1     103.403  84.176  14.486  1.00  0.00     0.139 C 
ENDBRANCH  19  20
ENDBRANCH  18  19
ENDBRANCH  17  18
ENDBRANCH  16  17
ENDBRANCH  15  16
ENDBRANCH  14  15
ENDBRANCH  13  14
ENDBRANCH   1  13
TORSDOF 16
ENDMDL
MODEL 3
REMARK VINA RESULT:    -2.939      3.087      6.133
REMARK INTER + INTRA:          -9.077
REMARK INTER:                  -5.633
REMARK INTRA:                  -3.444
REMARK UNBOUND:                -3.390
REMARK SMILES CCCCCC=CCC=CCCCCCCCCOC(C)=O
REMARK SMILES IDX 12 1 11 2 10 3 9 4 8 5 7 6 6 7 5 8 4 9 3 10 2 11 1 12 13 13
REMARK SMILES IDX 14 14 15 15 16 16 17 17 18 18 19 19 20 20 22 21 21 22
REMARK H PARENT
REMARK Flexibility Score: inf
ROOT
ATOM      1  C   UNL     1     104.759  82.234  24.682  1.00  0.00     0.004 C 
ENDROOT
BRANCH   1   2
ATOM      2  C   UNL     1     103.436  81.684  25.232  1.00  0.00     0.027 C 
BRANCH   2   3
ATOM      3  C   UNL     1     102.435  81.447  24.133  1.00  0.00    -0.031 C 
ATOM      4  C   UNL     1     102.425  80.309  23.424  1.00  0.00    -0.027 C 
BRANCH   4   5
ATOM      5  C   UNL     1     101.389  80.058  22.368  1.00  0.00     0.054 C 
BRANCH   5   6
ATOM      6  C   UNL     1     101.965  80.333  21.000  1.00  0.00    -0.027 C 
ATOM      7  C   UNL     1     101.805  81.476  20.307  1.00  0.00    -0.031 C 
BRANCH   7   8
ATOM      8  C   UNL     1     101.017  82.670  20.784  1.00  0.00     0.027 C 
BRANCH   8   9
ATOM      9  C   UNL     1     101.940  83.855  21.099  1.00  0.00     0.004 C 
BRANCH   9  10
ATOM     10  C   UNL     1     101.404  84.667  22.286  1.00  0.00     0.000 C 
BRANCH  10  11
ATOM     11  C   UNL     1     101.928  86.111  22.300  1.00  0.00    -0.003 C 
ATOM     12  C   UNL     1     103.243  86.271  21.538  1.00  0.00     0.004 C 
ENDBRANCH  10  11
ENDBRANCH   9  10
ENDBRANCH   8   9
ENDBRANCH   7   8
ENDBRANCH   5   6
ENDBRANCH   4   5
ENDBRANCH   2   3
ENDBRANCH   1   2
BRANCH   1  13
ATOM     13  C   UNL     1     104.538  83.393  23.693  1.00  0.00     0.000 C 
BRANCH  13  14
ATOM     14  C   UNL     1     105.443  83.291  22.456  1.00  0.00     0.000 C 
BRANCH  14  15
ATOM     15  C   UNL     1     105.321  81.931  21.746  1.00  0.00     0.000 C 
BRANCH  15  16
ATOM     16  C   UNL     1     105.422  82.052  20.217  1.00  0.00     0.003 C 
BRANCH  16  17
ATOM     17  C   UNL     1     105.157  83.482  19.720  1.00  0.00     0.042 C 
BRANCH  17  18
ATOM     18  C   UNL     1     104.932  83.518  18.207  1.00  0.00     0.233 C 
BRANCH  18  19
ATOM     19  O   UNL     1     103.953  82.552  17.835  1.00  0.00    -0.466 OA
BRANCH  19  20
ATOM     20  C   UNL     1     104.127  81.679  16.758  1.00  0.00     0.302 C 
ATOM     21  O   UNL     1     104.952  81.941  15.841  1.00  0.00    -0.253 OA
ATOM     22  C   UNL     1     103.363  80.399  16.719  1.00  0.00     0.139 C 
ENDBRANCH  19  20
ENDBRANCH  18  19
ENDBRANCH  17  18
ENDBRANCH  16  17
ENDBRANCH  15  16
ENDBRANCH  14  15
ENDBRANCH  13  14
ENDBRANCH   1  13
TORSDOF 16
ENDMDL
MODEL 4
REMARK VINA RESULT:    -2.877      1.330      2.863
REMARK INTER + INTRA:          -8.958
REMARK INTER:                  -5.992
REMARK INTRA:                  -2.966
REMARK UNBOUND:                -3.390
REMARK SMILES CCCCCC=CCC=CCCCCCCCCOC(C)=O
REMARK SMILES IDX 12 1 11 2 10 3 9 4 8 5 7 6 6 7 5 8 4 9 3 10 2 11 1 12 13 13
REMARK SMILES IDX 14 14 15 15 16 16 17 17 18 18 19 19 20 20 22 21 21 22
REMARK H PARENT
REMARK Flexibility Score: inf
ROOT
ATOM      1  C   UNL     1     102.582  84.689  19.932  1.00  0.00     0.004 C 
ENDROOT
BRANCH   1   2
ATOM      2  C   UNL     1     101.667  83.459  19.867  1.00  0.00     0.027 C 
BRANCH   2   3
ATOM      3  C   UNL     1     102.460  82.180  19.842  1.00  0.00    -0.031 C 
ATOM      4  C   UNL     1     102.584  81.453  18.722  1.00  0.00    -0.027 C 
BRANCH   4   5
ATOM      5  C   UNL     1     103.422  80.208  18.691  1.00  0.00     0.054 C 
BRANCH   5   6
ATOM      6  C   UNL     1     104.887  80.570  18.675  1.00  0.00    -0.027 C 
ATOM      7  C   UNL     1     105.623  80.774  17.566  1.00  0.00    -0.031 C 
BRANCH   7   8
ATOM      8  C   UNL     1     105.102  80.671  16.155  1.00  0.00     0.027 C 
BRANCH   8   9
ATOM      9  C   UNL     1     104.634  82.036  15.633  1.00  0.00     0.004 C 
BRANCH   9  10
ATOM     10  C   UNL     1     105.180  83.174  16.507  1.00  0.00     0.000 C 
BRANCH  10  11
ATOM     11  C   UNL     1     104.212  84.363  16.604  1.00  0.00    -0.003 C 
ATOM     12  C   UNL     1     102.774  83.986  16.246  1.00  0.00     0.004 C 
ENDBRANCH  10  11
ENDBRANCH   9  10
ENDBRANCH   8   9
ENDBRANCH   7   8
ENDBRANCH   5   6
ENDBRANCH   4   5
ENDBRANCH   2   3
ENDBRANCH   1   2
BRANCH   1  13
ATOM     13  C   UNL     1     103.955  84.359  20.546  1.00  0.00     0.000 C 
BRANCH  13  14
ATOM     14  C   UNL     1     103.996  84.601  22.062  1.00  0.00     0.000 C 
BRANCH  14  15
ATOM     15  C   UNL     1     105.031  83.711  22.773  1.00  0.00     0.000 C 
BRANCH  15  16
ATOM     16  C   UNL     1     105.402  82.465  21.953  1.00  0.00     0.003 C 
BRANCH  16  17
ATOM     17  C   UNL     1     105.150  81.157  22.720  1.00  0.00     0.042 C 
BRANCH  17  18
ATOM     18  C   UNL     1     103.798  81.178  23.436  1.00  0.00     0.233 C 
BRANCH  18  19
ATOM     19  O   UNL     1     103.983  80.979  24.835  1.00  0.00    -0.466 OA
BRANCH  19  20
ATOM     20  C   UNL     1     103.701  81.968  25.781  1.00  0.00     0.302 C 
ATOM     21  O   UNL     1     102.511  82.244  26.092  1.00  0.00    -0.253 OA
ATOM     22  C   UNL     1     104.824  82.669  26.467  1.00  0.00     0.139 C 
ENDBRANCH  19  20
ENDBRANCH  18  19
ENDBRANCH  17  18
ENDBRANCH  16  17
ENDBRANCH  15  16
ENDBRANCH  14  15
ENDBRANCH  13  14
ENDBRANCH   1  13
TORSDOF 16
ENDMDL
MODEL 5
REMARK VINA RESULT:    -2.856      3.450      6.700
REMARK INTER + INTRA:          -8.916
REMARK INTER:                  -5.671
REMARK INTRA:                  -3.245
REMARK UNBOUND:                -3.390
REMARK SMILES CCCCCC=CCC=CCCCCCCCCOC(C)=O
REMARK SMILES IDX 12 1 11 2 10 3 9 4 8 5 7 6 6 7 5 8 4 9 3 10 2 11 1 12 13 13
REMARK SMILES IDX 14 14 15 15 16 16 17 17 18 18 19 19 20 20 22 21 21 22
REMARK H PARENT
REMARK Flexibility Score: inf
ROOT
ATOM      1  C   UNL     1     105.261  83.340  22.795  1.00  0.00     0.004 C 
ENDROOT
BRANCH   1   2
ATOM      2  C   UNL     1     104.410  82.885  23.987  1.00  0.00     0.027 C 
BRANCH   2   3
ATOM      3  C   UNL     1     102.946  82.843  23.639  1.00  0.00    -0.031 C 
ATOM      4  C   UNL     1     102.463  81.974  22.738  1.00  0.00    -0.027 C 
BRANCH   4   5
ATOM      5  C   UNL     1     100.994  81.901  22.437  1.00  0.00     0.054 C 
BRANCH   5   6
ATOM      6  C   UNL     1     100.708  82.528  21.094  1.00  0.00    -0.027 C 
ATOM      7  C   UNL     1     100.239  83.776  20.906  1.00  0.00    -0.031 C 
BRANCH   7   8
ATOM      8  C   UNL     1      99.918  84.752  22.010  1.00  0.00     0.027 C 
BRANCH   8   9
ATOM      9  C   UNL     1     101.126  85.641  22.335  1.00  0.00     0.004 C 
BRANCH   9  10
ATOM     10  C   UNL     1     102.054  85.773  21.118  1.00  0.00     0.000 C 
BRANCH  10  11
ATOM     11  C   UNL     1     103.463  86.252  21.497  1.00  0.00    -0.003 C 
ATOM     12  C   UNL     1     104.223  86.850  20.314  1.00  0.00     0.004 C 
ENDBRANCH  10  11
ENDBRANCH   9  10
ENDBRANCH   8   9
ENDBRANCH   7   8
ENDBRANCH   5   6
ENDBRANCH   4   5
ENDBRANCH   2   3
ENDBRANCH   1   2
BRANCH   1  13
ATOM     13  C   UNL     1     106.042  82.175  22.161  1.00  0.00     0.000 C 
BRANCH  13  14
ATOM     14  C   UNL     1     105.672  81.950  20.687  1.00  0.00     0.000 C 
BRANCH  14  15
ATOM     15  C   UNL     1     105.095  83.214  20.025  1.00  0.00     0.000 C 
BRANCH  15  16
ATOM     16  C   UNL     1     103.746  82.955  19.333  1.00  0.00     0.003 C 
BRANCH  16  17
ATOM     17  C   UNL     1     103.528  83.861  18.110  1.00  0.00     0.042 C 
BRANCH  17  18
ATOM     18  C   UNL     1     102.525  83.248  17.131  1.00  0.00     0.233 C 
BRANCH  18  19
ATOM     19  O   UNL     1     102.976  81.964  16.708  1.00  0.00    -0.466 OA
BRANCH  19  20
ATOM     20  C   UNL     1     104.082  81.792  15.871  1.00  0.00     0.302 C 
ATOM     21  O   UNL     1     104.365  82.649  14.992  1.00  0.00    -0.253 OA
ATOM     22  C   UNL     1     104.964  80.604  16.056  1.00  0.00     0.139 C 
ENDBRANCH  19  20
ENDBRANCH  18  19
ENDBRANCH  17  18
ENDBRANCH  16  17
ENDBRANCH  15  16
ENDBRANCH  14  15
ENDBRANCH  13  14
ENDBRANCH   1  13
TORSDOF 16
ENDMDL
MODEL 6
REMARK VINA RESULT:    -2.851      3.645      6.874
REMARK INTER + INTRA:          -8.907
REMARK INTER:                  -5.612
REMARK INTRA:                  -3.295
REMARK UNBOUND:                -3.390
REMARK SMILES CCCCCC=CCC=CCCCCCCCCOC(C)=O
REMARK SMILES IDX 12 1 11 2 10 3 9 4 8 5 7 6 6 7 5 8 4 9 3 10 2 11 1 12 13 13
REMARK SMILES IDX 14 14 15 15 16 16 17 17 18 18 19 19 20 20 22 21 21 22
REMARK H PARENT
REMARK Flexibility Score: inf
ROOT
ATOM      1  C   UNL     1     104.968  81.691  19.820  1.00  0.00     0.004 C 
ENDROOT
BRANCH   1   2
ATOM      2  C   UNL     1     105.628  82.539  20.916  1.00  0.00     0.027 C 
BRANCH   2   3
ATOM      3  C   UNL     1     105.032  82.257  22.269  1.00  0.00    -0.031 C 
ATOM      4  C   UNL     1     105.068  83.164  23.257  1.00  0.00    -0.027 C 
BRANCH   4   5
ATOM      5  C   UNL     1     104.423  82.896  24.585  1.00  0.00     0.054 C 
BRANCH   5   6
ATOM      6  C   UNL     1     103.474  81.728  24.473  1.00  0.00    -0.027 C 
ATOM      7  C   UNL     1     102.147  81.825  24.268  1.00  0.00    -0.031 C 
BRANCH   7   8
ATOM      8  C   UNL     1     101.389  83.119  24.121  1.00  0.00     0.027 C 
BRANCH   8   9
ATOM      9  C   UNL     1     101.302  83.548  22.650  1.00  0.00     0.004 C 
BRANCH   9  10
ATOM     10  C   UNL     1     101.964  84.918  22.438  1.00  0.00     0.000 C 
BRANCH  10  11
ATOM     11  C   UNL     1     102.516  85.094  21.015  1.00  0.00    -0.003 C 
ATOM     12  C   UNL     1     103.859  85.825  20.988  1.00  0.00     0.004 C 
ENDBRANCH  10  11
ENDBRANCH   9  10
ENDBRANCH   8   9
ENDBRANCH   7   8
ENDBRANCH   5   6
ENDBRANCH   4   5
ENDBRANCH   2   3
ENDBRANCH   1   2
BRANCH   1  13
ATOM     13  C   UNL     1     103.597  81.145  20.257  1.00  0.00     0.000 C 
BRANCH  13  14
ATOM     14  C   UNL     1     102.440  81.726  19.427  1.00  0.00     0.000 C 
BRANCH  14  15
ATOM     15  C   UNL     1     102.919  82.753  18.386  1.00  0.00     0.000 C 
BRANCH  15  16
ATOM     16  C   UNL     1     102.619  82.316  16.944  1.00  0.00     0.003 C 
BRANCH  16  17
ATOM     17  C   UNL     1     103.479  81.121  16.499  1.00  0.00     0.042 C 
BRANCH  17  18
ATOM     18  C   UNL     1     104.868  81.568  16.042  1.00  0.00     0.233 C 
BRANCH  18  19
ATOM     19  O   UNL     1     104.781  82.816  15.360  1.00  0.00    -0.466 OA
BRANCH  19  20
ATOM     20  C   UNL     1     105.572  83.917  15.700  1.00  0.00     0.302 C 
ATOM     21  O   UNL     1     105.748  84.861  14.883  1.00  0.00    -0.253 OA
ATOM     22  C   UNL     1     106.172  83.998  17.062  1.00  0.00     0.139 C 
ENDBRANCH  19  20
ENDBRANCH  18  19
ENDBRANCH  17  18
ENDBRANCH  16  17
ENDBRANCH  15  16
ENDBRANCH  14  15
ENDBRANCH  13  14
ENDBRANCH   1  13
TORSDOF 16
ENDMDL
MODEL 7
REMARK VINA RESULT:    -2.838      3.184      6.710
REMARK INTER + INTRA:          -8.882
REMARK INTER:                  -5.876
REMARK INTRA:                  -3.007
REMARK UNBOUND:                -3.390
REMARK SMILES CCCCCC=CCC=CCCCCCCCCOC(C)=O
REMARK SMILES IDX 12 1 11 2 10 3 9 4 8 5 7 6 6 7 5 8 4 9 3 10 2 11 1 12 13 13
REMARK SMILES IDX 14 14 15 15 16 16 17 17 18 18 19 19 20 20 22 21 21 22
REMARK H PARENT
REMARK Flexibility Score: inf
ROOT
ATOM      1  C   UNL     1     106.490  80.376  20.619  1.00  0.00     0.004 C 
ENDROOT
BRANCH   1   2
ATOM      2  C   UNL     1     106.675  81.374  21.770  1.00  0.00     0.027 C 
BRANCH   2   3
ATOM      3  C   UNL     1     105.378  82.046  22.134  1.00  0.00    -0.031 C 
ATOM      4  C   UNL     1     105.262  83.382  22.159  1.00  0.00    -0.027 C 
BRANCH   4   5
ATOM      5  C   UNL     1     103.951  84.044  22.469  1.00  0.00     0.054 C 
BRANCH   5   6
ATOM      6  C   UNL     1     102.824  83.048  22.339  1.00  0.00    -0.027 C 
ATOM      7  C   UNL     1     101.982  82.698  23.329  1.00  0.00    -0.031 C 
BRANCH   7   8
ATOM      8  C   UNL     1     102.028  83.243  24.734  1.00  0.00     0.027 C 
BRANCH   8   9
ATOM      9  C   UNL     1     102.327  82.134  25.751  1.00  0.00     0.004 C 
BRANCH   9  10
ATOM     10  C   UNL     1     103.795  81.691  25.665  1.00  0.00     0.000 C 
BRANCH  10  11
ATOM     11  C   UNL     1     104.777  82.844  25.922  1.00  0.00    -0.003 C 
ATOM     12  C   UNL     1     104.884  83.211  27.403  1.00  0.00     0.004 C 
ENDBRANCH  10  11
ENDBRANCH   9  10
ENDBRANCH   8   9
ENDBRANCH   7   8
ENDBRANCH   5   6
ENDBRANCH   4   5
ENDBRANCH   2   3
ENDBRANCH   1   2
BRANCH   1  13
ATOM     13  C   UNL     1     105.022  80.279  20.166  1.00  0.00     0.000 C 
BRANCH  13  14
ATOM     14  C   UNL     1     104.879  80.227  18.637  1.00  0.00     0.000 C 
BRANCH  14  15
ATOM     15  C   UNL     1     103.455  80.572  18.165  1.00  0.00     0.000 C 
BRANCH  15  16
ATOM     16  C   UNL     1     102.699  81.456  19.170  1.00  0.00     0.003 C 
BRANCH  16  17
ATOM     17  C   UNL     1     102.162  82.747  18.531  1.00  0.00     0.042 C 
BRANCH  17  18
ATOM     18  C   UNL     1     102.621  82.888  17.079  1.00  0.00     0.233 C 
BRANCH  18  19
ATOM     19  O   UNL     1     103.540  83.970  16.958  1.00  0.00    -0.466 OA
BRANCH  19  20
ATOM     20  C   UNL     1     104.923  83.799  17.056  1.00  0.00     0.302 C 
ATOM     21  O   UNL     1     105.626  83.623  16.024  1.00  0.00    -0.253 OA
ATOM     22  C   UNL     1     105.580  83.876  18.393  1.00  0.00     0.139 C 
ENDBRANCH  19  20
ENDBRANCH  18  19
ENDBRANCH  17  18
ENDBRANCH  16  17
ENDBRANCH  15  16
ENDBRANCH  14  15
ENDBRANCH  13  14
ENDBRANCH   1  13
TORSDOF 16
ENDMDL
MODEL 8
REMARK VINA RESULT:    -2.796      2.384      4.651
REMARK INTER + INTRA:          -8.801
REMARK INTER:                  -5.380
REMARK INTRA:                  -3.420
REMARK UNBOUND:                -3.390
REMARK SMILES CCCCCC=CCC=CCCCCCCCCOC(C)=O
REMARK SMILES IDX 12 1 11 2 10 3 9 4 8 5 7 6 6 7 5 8 4 9 3 10 2 11 1 12 13 13
REMARK SMILES IDX 14 14 15 15 16 16 17 17 18 18 19 19 20 20 22 21 21 22
REMARK H PARENT
REMARK Flexibility Score: inf
ROOT
ATOM      1  C   UNL     1     105.608  80.021  22.566  1.00  0.00     0.004 C 
ENDROOT
BRANCH   1   2
ATOM      2  C   UNL     1     106.505  81.047  21.861  1.00  0.00     0.027 C 
BRANCH   2   3
ATOM      3  C   UNL     1     105.705  82.197  21.310  1.00  0.00    -0.031 C 
ATOM      4  C   UNL     1     105.289  83.203  22.093  1.00  0.00    -0.027 C 
BRANCH   4   5
ATOM      5  C   UNL     1     104.540  84.373  21.526  1.00  0.00     0.054 C 
BRANCH   5   6
ATOM      6  C   UNL     1     103.395  84.746  22.436  1.00  0.00    -0.027 C 
ATOM      7  C   UNL     1     102.145  84.253  22.350  1.00  0.00    -0.031 C 
BRANCH   7   8
ATOM      8  C   UNL     1     101.683  83.248  21.326  1.00  0.00     0.027 C 
BRANCH   8   9
ATOM      9  C   UNL     1     101.618  81.835  21.923  1.00  0.00     0.004 C 
BRANCH   9  10
ATOM     10  C   UNL     1     102.292  80.816  20.993  1.00  0.00     0.000 C 
BRANCH  10  11
ATOM     11  C   UNL     1     102.545  81.375  19.585  1.00  0.00    -0.003 C 
ATOM     12  C   UNL     1     103.490  80.500  18.761  1.00  0.00     0.004 C 
ENDBRANCH  10  11
ENDBRANCH   9  10
ENDBRANCH   8   9
ENDBRANCH   7   8
ENDBRANCH   5   6
ENDBRANCH   4   5
ENDBRANCH   2   3
ENDBRANCH   1   2
BRANCH   1  13
ATOM     13  C   UNL     1     105.951  79.880  24.060  1.00  0.00     0.000 C 
BRANCH  13  14
ATOM     14  C   UNL     1     104.734  80.111  24.969  1.00  0.00     0.000 C 
BRANCH  14  15
ATOM     15  C   UNL     1     104.488  81.603  25.256  1.00  0.00     0.000 C 
BRANCH  15  16
ATOM     16  C   UNL     1     102.993  81.963  25.267  1.00  0.00     0.003 C 
BRANCH  16  17
ATOM     17  C   UNL     1     102.620  82.893  26.433  1.00  0.00     0.042 C 
BRANCH  17  18
ATOM     18  C   UNL     1     101.190  82.642  26.914  1.00  0.00     0.233 C 
BRANCH  18  19
ATOM     19  O   UNL     1     100.395  83.808  26.717  1.00  0.00    -0.466 OA
BRANCH  19  20
ATOM     20  C   UNL     1      99.950  84.212  25.455  1.00  0.00     0.302 C 
ATOM     21  O   UNL     1     100.105  85.401  25.066  1.00  0.00    -0.253 OA
ATOM     22  C   UNL     1      99.330  83.211  24.540  1.00  0.00     0.139 C 
ENDBRANCH  19  20
ENDBRANCH  18  19
ENDBRANCH  17  18
ENDBRANCH  16  17
ENDBRANCH  15  16
ENDBRANCH  14  15
ENDBRANCH  13  14
ENDBRANCH   1  13
TORSDOF 16
ENDMDL
MODEL 9
REMARK VINA RESULT:    -2.780      3.399      6.343
REMARK INTER + INTRA:          -8.770
REMARK INTER:                  -5.445
REMARK INTRA:                  -3.325
REMARK UNBOUND:                -3.390
REMARK SMILES CCCCCC=CCC=CCCCCCCCCOC(C)=O
REMARK SMILES IDX 12 1 11 2 10 3 9 4 8 5 7 6 6 7 5 8 4 9 3 10 2 11 1 12 13 13
REMARK SMILES IDX 14 14 15 15 16 16 17 17 18 18 19 19 20 20 22 21 21 22
REMARK H PARENT
REMARK Flexibility Score: inf
ROOT
ATOM      1  C   UNL     1     101.736  85.980  20.276  1.00  0.00     0.004 C 
ENDROOT
BRANCH   1   2
ATOM      2  C   UNL     1     100.997  84.692  19.889  1.00  0.00     0.027 C 
BRANCH   2   3
ATOM      3  C   UNL     1     101.473  83.516  20.699  1.00  0.00    -0.031 C 
ATOM      4  C   UNL     1     101.867  82.374  20.115  1.00  0.00    -0.027 C 
BRANCH   4   5
ATOM      5  C   UNL     1     102.393  81.226  20.926  1.00  0.00     0.054 C 
BRANCH   5   6
ATOM      6  C   UNL     1     101.795  81.254  22.312  1.00  0.00    -0.027 C 
ATOM      7  C   UNL     1     102.495  81.379  23.455  1.00  0.00    -0.031 C 
BRANCH   7   8
ATOM      8  C   UNL     1     103.994  81.508  23.539  1.00  0.00     0.027 C 
BRANCH   8   9
ATOM      9  C   UNL     1     104.433  82.975  23.430  1.00  0.00     0.004 C 
BRANCH   9  10
ATOM     10  C   UNL     1     105.472  83.155  22.314  1.00  0.00     0.000 C 
BRANCH  10  11
ATOM     11  C   UNL     1     106.111  81.827  21.880  1.00  0.00    -0.003 C 
ATOM     12  C   UNL     1     106.061  81.613  20.367  1.00  0.00     0.004 C 
ENDBRANCH  10  11
ENDBRANCH   9  10
ENDBRANCH   8   9
ENDBRANCH   7   8
ENDBRANCH   5   6
ENDBRANCH   4   5
ENDBRANCH   2   3
ENDBRANCH   1   2
BRANCH   1  13
ATOM     13  C   UNL     1     103.157  85.700  20.796  1.00  0.00     0.000 C 
BRANCH  13  14
ATOM     14  C   UNL     1     104.235  85.952  19.731  1.00  0.00     0.000 C 
BRANCH  14  15
ATOM     15  C   UNL     1     104.619  84.673  18.966  1.00  0.00     0.000 C 
BRANCH  15  16
ATOM     16  C   UNL     1     104.344  84.783  17.457  1.00  0.00     0.003 C 
BRANCH  16  17
ATOM     17  C   UNL     1     103.234  83.828  16.989  1.00  0.00     0.042 C 
BRANCH  17  18
ATOM     18  C   UNL     1     103.392  83.464  15.512  1.00  0.00     0.233 C 
BRANCH  18  19
ATOM     19  O   UNL     1     104.464  82.540  15.348  1.00  0.00    -0.466 OA
BRANCH  19  20
ATOM     20  C   UNL     1     104.526  81.328  16.041  1.00  0.00     0.302 C 
ATOM     21  O   UNL     1     103.566  80.512  16.001  1.00  0.00    -0.253 OA
ATOM     22  C   UNL     1     105.764  80.975  16.794  1.00  0.00     0.139 C 
ENDBRANCH  19  20
ENDBRANCH  18  19
ENDBRANCH  17  18
ENDBRANCH  16  17
ENDBRANCH  15  16
ENDBRANCH  14  15
ENDBRANCH  13  14
ENDBRANCH   1  13
TORSDOF 16
ENDMDL
