MODEL 1
REMARK VINA RESULT:    -7.360      0.000      0.000
REMARK INTER + INTRA:          -8.784
REMARK INTER:                  -8.866
REMARK INTRA:                   0.082
REMARK UNBOUND:                 0.082
REMARK SMILES O=c1c(O)c(-c2ccc(O)c(O)c2)oc2cc(O)cc(O)c12
REMARK SMILES IDX 5 1 3 2 2 3 1 4 22 5 20 6 19 7 17 8 16 9 15 10 14 11 6 12
REMARK SMILES IDX 7 13 8 14 9 15 13 16 11 17 10 18 12 20 4 22 21 24 18 26
REMARK H PARENT 10 19 12 21 4 23 21 25 18 27
REMARK Flexibility Score: inf
ROOT
ATOM      1  C   UNL     1      59.466  -1.697   4.392  1.00  0.00     0.180 A 
ATOM      2  C   UNL     1      59.852  -2.258   3.163  1.00  0.00     0.208 A 
ATOM      3  C   UNL     1      60.964  -1.726   2.491  1.00  0.00     0.238 A 
ATOM      4  O   UNL     1      61.273  -2.198   1.366  1.00  0.00    -0.285 OA
ATOM      5  C   UNL     1      61.686  -0.652   3.064  1.00  0.00     0.111 A 
ATOM      6  C   UNL     1      62.852  -0.061   2.491  1.00  0.00     0.134 A 
ATOM      7  C   UNL     1      63.407   1.082   3.078  1.00  0.00     0.093 A 
ATOM      8  C   UNL     1      62.878   1.616   4.255  1.00  0.00     0.123 A 
ATOM      9  C   UNL     1      61.776   1.011   4.855  1.00  0.00     0.094 A 
ATOM     10  C   UNL     1      61.178  -0.108   4.272  1.00  0.00     0.146 A 
ATOM     11  O   UNL     1      60.123  -0.647   4.872  1.00  0.00    -0.452 OA
ENDROOT
BRANCH   1  12
ATOM     12  C   UNL     1      58.320  -2.219   5.172  1.00  0.00     0.025 A 
ATOM     13  C   UNL     1      58.416  -2.441   6.557  1.00  0.00     0.016 A 
ATOM     14  C   UNL     1      57.314  -2.911   7.275  1.00  0.00     0.051 A 
ATOM     15  C   UNL     1      56.098  -3.155   6.625  1.00  0.00     0.157 A 
ATOM     16  C   UNL     1      57.092  -2.446   4.529  1.00  0.00     0.062 A 
ATOM     17  C   UNL     1      55.986  -2.917   5.244  1.00  0.00     0.158 A 
BRANCH  15  18
ATOM     18  O   UNL     1      55.001  -3.626   7.345  1.00  0.00    -0.504 OA
ATOM     19  H   UNL     1      55.103  -4.324   8.072  1.00  0.00     0.293 HD
ENDBRANCH  15  18
BRANCH  17  20
ATOM     20  O   UNL     1      54.787  -3.144   4.570  1.00  0.00    -0.504 OA
ATOM     21  H   UNL     1      54.647  -3.952   3.977  1.00  0.00     0.293 HD
ENDBRANCH  17  20
ENDBRANCH   1  12
BRANCH   2  22
ATOM     22  O   UNL     1      59.113  -3.305   2.605  1.00  0.00    -0.502 OA
ATOM     23  H   UNL     1      58.496  -3.889   3.156  1.00  0.00     0.293 HD
ENDBRANCH   2  22
BRANCH   6  24
ATOM     24  O   UNL     1      63.513  -0.571   1.370  1.00  0.00    -0.507 OA
ATOM     25  H   UNL     1      64.412  -0.254   1.039  1.00  0.00     0.293 HD
ENDBRANCH   6  24
BRANCH   8  26
ATOM     26  O   UNL     1      63.446   2.745   4.842  1.00  0.00    -0.508 OA
ATOM     27  H   UNL     1      62.877   3.461   5.276  1.00  0.00     0.293 HD
ENDBRANCH   8  26
TORSDOF 6
ENDMDL
MODEL 2
REMARK VINA RESULT:    -7.167      1.410      6.619
REMARK INTER + INTRA:          -8.552
REMARK INTER:                  -8.281
REMARK INTRA:                  -0.271
REMARK UNBOUND:                 0.082
REMARK SMILES O=c1c(O)c(-c2ccc(O)c(O)c2)oc2cc(O)cc(O)c12
REMARK SMILES IDX 5 1 3 2 2 3 1 4 22 5 20 6 19 7 17 8 16 9 15 10 14 11 6 12
REMARK SMILES IDX 7 13 8 14 9 15 13 16 11 17 10 18 12 20 4 22 21 24 18 26
REMARK H PARENT 10 19 12 21 4 23 21 25 18 27
REMARK Flexibility Score: inf
ROOT
ATOM      1  C   UNL     1      59.972  -1.626   4.275  1.00  0.00     0.180 A 
ATOM      2  C   UNL     1      59.634  -2.162   3.020  1.00  0.00     0.208 A 
ATOM      3  C   UNL     1      58.369  -2.746   2.848  1.00  0.00     0.238 A 
ATOM      4  O   UNL     1      58.092  -3.272   1.738  1.00  0.00    -0.285 OA
ATOM      5  C   UNL     1      57.453  -2.773   3.926  1.00  0.00     0.111 A 
ATOM      6  C   UNL     1      56.130  -3.303   3.853  1.00  0.00     0.134 A 
ATOM      7  C   UNL     1      55.357  -3.396   5.017  1.00  0.00     0.093 A 
ATOM      8  C   UNL     1      55.835  -2.917   6.239  1.00  0.00     0.123 A 
ATOM      9  C   UNL     1      57.103  -2.343   6.309  1.00  0.00     0.094 A 
ATOM     10  C   UNL     1      57.911  -2.270   5.172  1.00  0.00     0.146 A 
ATOM     11  O   UNL     1      59.116  -1.725   5.285  1.00  0.00    -0.452 OA
ENDROOT
BRANCH   1  12
ATOM     12  C   UNL     1      61.277  -0.971   4.527  1.00  0.00     0.025 A 
ATOM     13  C   UNL     1      62.453  -1.723   4.692  1.00  0.00     0.016 A 
ATOM     14  C   UNL     1      63.677  -1.083   4.904  1.00  0.00     0.051 A 
ATOM     15  C   UNL     1      63.746   0.316   4.942  1.00  0.00     0.157 A 
ATOM     16  C   UNL     1      61.355   0.431   4.544  1.00  0.00     0.062 A 
ATOM     17  C   UNL     1      62.578   1.076   4.757  1.00  0.00     0.158 A 
BRANCH  15  18
ATOM     18  O   UNL     1      64.968   0.951   5.156  1.00  0.00    -0.504 OA
ATOM     19  H   UNL     1      65.062   1.958   5.087  1.00  0.00     0.293 HD
ENDBRANCH  15  18
BRANCH  17  20
ATOM     20  O   UNL     1      62.616   2.469   4.782  1.00  0.00    -0.504 OA
ATOM     21  H   UNL     1      62.227   3.032   4.036  1.00  0.00     0.293 HD
ENDBRANCH  17  20
ENDBRANCH   1  12
BRANCH   2  22
ATOM     22  O   UNL     1      60.562  -2.144   1.975  1.00  0.00    -0.502 OA
ATOM     23  H   UNL     1      61.170  -1.354   1.801  1.00  0.00     0.293 HD
ENDBRANCH   2  22
BRANCH   6  24
ATOM     24  O   UNL     1      55.523  -3.723   2.666  1.00  0.00    -0.507 OA
ATOM     25  H   UNL     1      55.945  -3.665   1.752  1.00  0.00     0.293 HD
ENDBRANCH   6  24
BRANCH   8  26
ATOM     26  O   UNL     1      55.054  -3.000   7.389  1.00  0.00    -0.508 OA
ATOM     27  H   UNL     1      55.471  -3.057   8.311  1.00  0.00     0.293 HD
ENDBRANCH   8  26
TORSDOF 6
ENDMDL
MODEL 3
REMARK VINA RESULT:    -7.149      2.207      7.250
REMARK INTER + INTRA:          -8.529
REMARK INTER:                  -8.239
REMARK INTRA:                  -0.290
REMARK UNBOUND:                 0.082
REMARK SMILES O=c1c(O)c(-c2ccc(O)c(O)c2)oc2cc(O)cc(O)c12
REMARK SMILES IDX 5 1 3 2 2 3 1 4 22 5 20 6 19 7 17 8 16 9 15 10 14 11 6 12
REMARK SMILES IDX 7 13 8 14 9 15 13 16 11 17 10 18 12 20 4 22 21 24 18 26
REMARK H PARENT 10 19 12 21 4 23 21 25 18 27
REMARK Flexibility Score: inf
ROOT
ATOM      1  C   UNL     1      59.845  -2.257   3.051  1.00  0.00     0.180 A 
ATOM      2  C   UNL     1      60.116  -2.130   4.425  1.00  0.00     0.208 A 
ATOM      3  C   UNL     1      59.075  -2.331   5.346  1.00  0.00     0.238 A 
ATOM      4  O   UNL     1      59.311  -2.164   6.571  1.00  0.00    -0.285 OA
ATOM      5  C   UNL     1      57.782  -2.672   4.884  1.00  0.00     0.111 A 
ATOM      6  C   UNL     1      56.663  -2.938   5.728  1.00  0.00     0.134 A 
ATOM      7  C   UNL     1      55.399  -3.137   5.159  1.00  0.00     0.093 A 
ATOM      8  C   UNL     1      55.227  -3.146   3.773  1.00  0.00     0.123 A 
ATOM      9  C   UNL     1      56.324  -2.947   2.938  1.00  0.00     0.094 A 
ATOM     10  C   UNL     1      57.590  -2.708   3.477  1.00  0.00     0.146 A 
ATOM     11  O   UNL     1      58.607  -2.513   2.646  1.00  0.00    -0.452 OA
ENDROOT
BRANCH   1  12
ATOM     12  C   UNL     1      60.896  -2.085   2.022  1.00  0.00     0.025 A 
ATOM     13  C   UNL     1      61.326  -0.808   1.622  1.00  0.00     0.016 A 
ATOM     14  C   UNL     1      62.336  -0.670   0.666  1.00  0.00     0.051 A 
ATOM     15  C   UNL     1      62.939  -1.803   0.106  1.00  0.00     0.157 A 
ATOM     16  C   UNL     1      61.517  -3.218   1.472  1.00  0.00     0.062 A 
ATOM     17  C   UNL     1      62.529  -3.084   0.514  1.00  0.00     0.158 A 
BRANCH  15  18
ATOM     18  O   UNL     1      63.945  -1.663  -0.849  1.00  0.00    -0.504 OA
ATOM     19  H   UNL     1      64.925  -1.719  -0.599  1.00  0.00     0.293 HD
ENDBRANCH  15  18
BRANCH  17  20
ATOM     20  O   UNL     1      63.114  -4.232  -0.020  1.00  0.00    -0.504 OA
ATOM     21  H   UNL     1      63.075  -4.446  -1.008  1.00  0.00     0.293 HD
ENDBRANCH  17  20
ENDBRANCH   1  12
BRANCH   2  22
ATOM     22  O   UNL     1      61.395  -1.772   4.859  1.00  0.00    -0.502 OA
ATOM     23  H   UNL     1      61.745  -0.824   4.794  1.00  0.00     0.293 HD
ENDBRANCH   2  22
BRANCH   6  24
ATOM     24  O   UNL     1      56.744  -3.043   7.120  1.00  0.00    -0.507 OA
ATOM     25  H   UNL     1      56.851  -2.263   7.750  1.00  0.00     0.293 HD
ENDBRANCH   6  24
BRANCH   8  26
ATOM     26  O   UNL     1      53.968  -3.360   3.215  1.00  0.00    -0.508 OA
ATOM     27  H   UNL     1      53.521  -4.269   3.248  1.00  0.00     0.293 HD
ENDBRANCH   8  26
TORSDOF 6
ENDMDL
MODEL 4
REMARK VINA RESULT:    -7.129      4.019      6.558
REMARK INTER + INTRA:          -8.505
REMARK INTER:                  -8.201
REMARK INTRA:                  -0.304
REMARK UNBOUND:                 0.082
REMARK SMILES O=c1c(O)c(-c2ccc(O)c(O)c2)oc2cc(O)cc(O)c12
REMARK SMILES IDX 5 1 3 2 2 3 1 4 22 5 20 6 19 7 17 8 16 9 15 10 14 11 6 12
REMARK SMILES IDX 7 13 8 14 9 15 13 16 11 17 10 18 12 20 4 22 21 24 18 26
REMARK H PARENT 10 19 12 21 4 23 21 25 18 27
REMARK Flexibility Score: inf
ROOT
ATOM      1  C   UNL     1      62.058   2.069   4.086  1.00  0.00     0.180 A 
ATOM      2  C   UNL     1      62.270   2.804   2.907  1.00  0.00     0.208 A 
ATOM      3  C   UNL     1      62.174   2.148   1.669  1.00  0.00     0.238 A 
ATOM      4  O   UNL     1      62.416   2.798   0.619  1.00  0.00    -0.285 OA
ATOM      5  C   UNL     1      61.852   0.770   1.625  1.00  0.00     0.111 A 
ATOM      6  C   UNL     1      61.689   0.013   0.426  1.00  0.00     0.134 A 
ATOM      7  C   UNL     1      61.500  -1.372   0.504  1.00  0.00     0.093 A 
ATOM      8  C   UNL     1      61.402  -2.017   1.739  1.00  0.00     0.123 A 
ATOM      9  C   UNL     1      61.499  -1.278   2.916  1.00  0.00     0.094 A 
ATOM     10  C   UNL     1      61.725   0.100   2.870  1.00  0.00     0.146 A 
ATOM     11  O   UNL     1      61.823   0.765   4.015  1.00  0.00    -0.452 OA
ENDROOT
BRANCH   1  12
ATOM     12  C   UNL     1      62.117   2.697   5.426  1.00  0.00     0.025 A 
ATOM     13  C   UNL     1      61.045   3.456   5.927  1.00  0.00     0.016 A 
ATOM     14  C   UNL     1      61.115   4.019   7.205  1.00  0.00     0.051 A 
ATOM     15  C   UNL     1      62.247   3.820   8.004  1.00  0.00     0.157 A 
ATOM     16  C   UNL     1      63.242   2.484   6.240  1.00  0.00     0.062 A 
ATOM     17  C   UNL     1      63.315   3.045   7.520  1.00  0.00     0.158 A 
BRANCH  15  18
ATOM     18  O   UNL     1      62.314   4.384   9.278  1.00  0.00    -0.504 OA
ATOM     19  H   UNL     1      61.508   4.825   9.705  1.00  0.00     0.293 HD
ENDBRANCH  15  18
BRANCH  17  20
ATOM     20  O   UNL     1      64.453   2.823   8.294  1.00  0.00    -0.504 OA
ATOM     21  H   UNL     1      65.024   3.583   8.642  1.00  0.00     0.293 HD
ENDBRANCH  17  20
ENDBRANCH   1  12
BRANCH   2  22
ATOM     22  O   UNL     1      62.608   4.158   2.973  1.00  0.00    -0.502 OA
ATOM     23  H   UNL     1      62.508   4.783   2.182  1.00  0.00     0.293 HD
ENDBRANCH   2  22
BRANCH   6  24
ATOM     24  O   UNL     1      61.678   0.573  -0.854  1.00  0.00    -0.507 OA
ATOM     25  H   UNL     1      62.386   1.192  -1.217  1.00  0.00     0.293 HD
ENDBRANCH   6  24
BRANCH   8  26
ATOM     26  O   UNL     1      61.198  -3.394   1.808  1.00  0.00    -0.508 OA
ATOM     27  H   UNL     1      61.510  -3.938   2.603  1.00  0.00     0.293 HD
ENDBRANCH   8  26
TORSDOF 6
ENDMDL
MODEL 5
REMARK VINA RESULT:    -6.890      4.158      6.286
REMARK INTER + INTRA:          -8.217
REMARK INTER:                  -7.896
REMARK INTRA:                  -0.321
REMARK UNBOUND:                 0.082
REMARK SMILES O=c1c(O)c(-c2ccc(O)c(O)c2)oc2cc(O)cc(O)c12
REMARK SMILES IDX 5 1 3 2 2 3 1 4 22 5 20 6 19 7 17 8 16 9 15 10 14 11 6 12
REMARK SMILES IDX 7 13 8 14 9 15 13 16 11 17 10 18 12 20 4 22 21 24 18 26
REMARK H PARENT 10 19 12 21 4 23 21 25 18 27
REMARK Flexibility Score: inf
ROOT
ATOM      1  C   UNL     1      62.251   1.879   3.980  1.00  0.00     0.180 A 
ATOM      2  C   UNL     1      61.610   0.648   3.759  1.00  0.00     0.208 A 
ATOM      3  C   UNL     1      61.564   0.129   2.455  1.00  0.00     0.238 A 
ATOM      4  O   UNL     1      60.944  -0.948   2.254  1.00  0.00    -0.285 OA
ATOM      5  C   UNL     1      62.172   0.839   1.392  1.00  0.00     0.111 A 
ATOM      6  C   UNL     1      62.221   0.388   0.039  1.00  0.00     0.134 A 
ATOM      7  C   UNL     1      62.733   1.233  -0.953  1.00  0.00     0.093 A 
ATOM      8  C   UNL     1      63.259   2.486  -0.630  1.00  0.00     0.123 A 
ATOM      9  C   UNL     1      63.270   2.911   0.697  1.00  0.00     0.094 A 
ATOM     10  C   UNL     1      62.733   2.106   1.703  1.00  0.00     0.146 A 
ATOM     11  O   UNL     1      62.754   2.553   2.953  1.00  0.00    -0.452 OA
ENDROOT
BRANCH   1  12
ATOM     12  C   UNL     1      62.362   2.478   5.330  1.00  0.00     0.025 A 
ATOM     13  C   UNL     1      61.395   3.378   5.814  1.00  0.00     0.016 A 
ATOM     14  C   UNL     1      61.509   3.911   7.100  1.00  0.00     0.051 A 
ATOM     15  C   UNL     1      62.579   3.545   7.926  1.00  0.00     0.157 A 
ATOM     16  C   UNL     1      63.422   2.099   6.170  1.00  0.00     0.062 A 
ATOM     17  C   UNL     1      63.539   2.631   7.458  1.00  0.00     0.158 A 
BRANCH  15  18
ATOM     18  O   UNL     1      62.690   4.081   9.208  1.00  0.00    -0.504 OA
ATOM     19  H   UNL     1      63.364   4.807   9.424  1.00  0.00     0.293 HD
ENDBRANCH  15  18
BRANCH  17  20
ATOM     20  O   UNL     1      64.612   2.242   8.259  1.00  0.00    -0.504 OA
ATOM     21  H   UNL     1      64.913   1.278   8.324  1.00  0.00     0.293 HD
ENDBRANCH  17  20
ENDBRANCH   1  12
BRANCH   2  22
ATOM     22  O   UNL     1      60.998  -0.027   4.818  1.00  0.00    -0.502 OA
ATOM     23  H   UNL     1      60.172   0.329   5.284  1.00  0.00     0.293 HD
ENDBRANCH   2  22
BRANCH   6  24
ATOM     24  O   UNL     1      61.808  -0.881  -0.376  1.00  0.00    -0.507 OA
ATOM     25  H   UNL     1      62.412  -1.686  -0.454  1.00  0.00     0.293 HD
ENDBRANCH   6  24
BRANCH   8  26
ATOM     26  O   UNL     1      63.781   3.315  -1.621  1.00  0.00    -0.508 OA
ATOM     27  H   UNL     1      64.199   4.210  -1.398  1.00  0.00     0.293 HD
ENDBRANCH   8  26
TORSDOF 6
ENDMDL
MODEL 6
REMARK VINA RESULT:    -6.883      2.330      3.097
REMARK INTER + INTRA:          -8.209
REMARK INTER:                  -8.046
REMARK INTRA:                  -0.163
REMARK UNBOUND:                 0.082
REMARK SMILES O=c1c(O)c(-c2ccc(O)c(O)c2)oc2cc(O)cc(O)c12
REMARK SMILES IDX 5 1 3 2 2 3 1 4 22 5 20 6 19 7 17 8 16 9 15 10 14 11 6 12
REMARK SMILES IDX 7 13 8 14 9 15 13 16 11 17 10 18 12 20 4 22 21 24 18 26
REMARK H PARENT 10 19 12 21 4 23 21 25 18 27
REMARK Flexibility Score: inf
ROOT
ATOM      1  C   UNL     1      60.897  -1.567   2.224  1.00  0.00     0.180 A 
ATOM      2  C   UNL     1      61.524  -2.522   1.404  1.00  0.00     0.208 A 
ATOM      3  C   UNL     1      62.379  -2.085   0.380  1.00  0.00     0.238 A 
ATOM      4  O   UNL     1      62.895  -2.942  -0.384  1.00  0.00    -0.285 OA
ATOM      5  C   UNL     1      62.610  -0.700   0.198  1.00  0.00     0.111 A 
ATOM      6  C   UNL     1      63.487  -0.146  -0.781  1.00  0.00     0.134 A 
ATOM      7  C   UNL     1      63.538   1.242  -0.957  1.00  0.00     0.093 A 
ATOM      8  C   UNL     1      62.792   2.099  -0.145  1.00  0.00     0.123 A 
ATOM      9  C   UNL     1      61.978   1.570   0.854  1.00  0.00     0.094 A 
ATOM     10  C   UNL     1      61.878   0.188   1.030  1.00  0.00     0.146 A 
ATOM     11  O   UNL     1      61.082  -0.274   1.986  1.00  0.00    -0.452 OA
ENDROOT
BRANCH   1  12
ATOM     12  C   UNL     1      60.002  -1.952   3.340  1.00  0.00     0.025 A 
ATOM     13  C   UNL     1      60.333  -1.663   4.676  1.00  0.00     0.016 A 
ATOM     14  C   UNL     1      59.461  -2.015   5.710  1.00  0.00     0.051 A 
ATOM     15  C   UNL     1      58.244  -2.646   5.425  1.00  0.00     0.157 A 
ATOM     16  C   UNL     1      58.771  -2.566   3.058  1.00  0.00     0.062 A 
ATOM     17  C   UNL     1      57.896  -2.920   4.091  1.00  0.00     0.158 A 
BRANCH  15  18
ATOM     18  O   UNL     1      57.377  -2.996   6.460  1.00  0.00    -0.504 OA
ATOM     19  H   UNL     1      57.723  -3.356   7.342  1.00  0.00     0.293 HD
ENDBRANCH  15  18
BRANCH  17  20
ATOM     20  O   UNL     1      56.689  -3.541   3.775  1.00  0.00    -0.504 OA
ATOM     21  H   UNL     1      56.523  -4.522   3.959  1.00  0.00     0.293 HD
ENDBRANCH  17  20
ENDBRANCH   1  12
BRANCH   2  22
ATOM     22  O   UNL     1      61.265  -3.883   1.587  1.00  0.00    -0.502 OA
ATOM     23  H   UNL     1      60.381  -4.226   1.943  1.00  0.00     0.293 HD
ENDBRANCH   2  22
BRANCH   6  24
ATOM     24  O   UNL     1      64.343  -0.908  -1.581  1.00  0.00    -0.507 OA
ATOM     25  H   UNL     1      65.004  -0.528  -2.242  1.00  0.00     0.293 HD
ENDBRANCH   6  24
BRANCH   8  26
ATOM     26  O   UNL     1      62.860   3.480  -0.317  1.00  0.00    -0.508 OA
ATOM     27  H   UNL     1      62.173   4.100   0.094  1.00  0.00     0.293 HD
ENDBRANCH   8  26
TORSDOF 6
ENDMDL
MODEL 7
REMARK VINA RESULT:    -6.805      4.230      6.142
REMARK INTER + INTRA:          -8.115
REMARK INTER:                  -7.788
REMARK INTRA:                  -0.326
REMARK UNBOUND:                 0.082
REMARK SMILES O=c1c(O)c(-c2ccc(O)c(O)c2)oc2cc(O)cc(O)c12
REMARK SMILES IDX 5 1 3 2 2 3 1 4 22 5 20 6 19 7 17 8 16 9 15 10 14 11 6 12
REMARK SMILES IDX 7 13 8 14 9 15 13 16 11 17 10 18 12 20 4 22 21 24 18 26
REMARK H PARENT 10 19 12 21 4 23 21 25 18 27
REMARK Flexibility Score: inf
ROOT
ATOM      1  C   UNL     1      62.440   1.690   3.769  1.00  0.00     0.180 A 
ATOM      2  C   UNL     1      61.792   0.467   3.529  1.00  0.00     0.208 A 
ATOM      3  C   UNL     1      61.725  -0.023   2.215  1.00  0.00     0.238 A 
ATOM      4  O   UNL     1      61.097  -1.092   1.999  1.00  0.00    -0.285 OA
ATOM      5  C   UNL     1      62.320   0.709   1.160  1.00  0.00     0.111 A 
ATOM      6  C   UNL     1      62.348   0.289  -0.204  1.00  0.00     0.134 A 
ATOM      7  C   UNL     1      62.848   1.155  -1.183  1.00  0.00     0.093 A 
ATOM      8  C   UNL     1      63.383   2.398  -0.840  1.00  0.00     0.123 A 
ATOM      9  C   UNL     1      63.416   2.793   0.495  1.00  0.00     0.094 A 
ATOM     10  C   UNL     1      62.890   1.967   1.491  1.00  0.00     0.146 A 
ATOM     11  O   UNL     1      62.931   2.386   2.750  1.00  0.00    -0.452 OA
ENDROOT
BRANCH   1  12
ATOM     12  C   UNL     1      62.574   2.258   5.131  1.00  0.00     0.025 A 
ATOM     13  C   UNL     1      63.710   2.009   5.920  1.00  0.00     0.016 A 
ATOM     14  C   UNL     1      63.824   2.575   7.192  1.00  0.00     0.051 A 
ATOM     15  C   UNL     1      62.814   3.408   7.689  1.00  0.00     0.157 A 
ATOM     16  C   UNL     1      61.573   3.110   5.625  1.00  0.00     0.062 A 
ATOM     17  C   UNL     1      61.683   3.679   6.899  1.00  0.00     0.158 A 
BRANCH  15  18
ATOM     18  O   UNL     1      62.930   3.969   8.960  1.00  0.00    -0.504 OA
ATOM     19  H   UNL     1      62.147   3.997   9.601  1.00  0.00     0.293 HD
ENDBRANCH  15  18
BRANCH  17  20
ATOM     20  O   UNL     1      60.664   4.509   7.363  1.00  0.00    -0.504 OA
ATOM     21  H   UNL     1      60.853   5.344   7.902  1.00  0.00     0.293 HD
ENDBRANCH  17  20
ENDBRANCH   1  12
BRANCH   2  22
ATOM     22  O   UNL     1      61.192  -0.230   4.583  1.00  0.00    -0.502 OA
ATOM     23  H   UNL     1      61.492  -0.125   5.544  1.00  0.00     0.293 HD
ENDBRANCH   2  22
BRANCH   6  24
ATOM     24  O   UNL     1      61.923  -0.969  -0.641  1.00  0.00    -0.507 OA
ATOM     25  H   UNL     1      60.982  -1.321  -0.553  1.00  0.00     0.293 HD
ENDBRANCH   6  24
BRANCH   8  26
ATOM     26  O   UNL     1      63.894   3.247  -1.820  1.00  0.00    -0.508 OA
ATOM     27  H   UNL     1      63.508   4.171  -1.975  1.00  0.00     0.293 HD
ENDBRANCH   8  26
TORSDOF 6
ENDMDL
MODEL 8
REMARK VINA RESULT:    -6.762      1.462      6.750
REMARK INTER + INTRA:          -8.063
REMARK INTER:                  -7.738
REMARK INTRA:                  -0.326
REMARK UNBOUND:                 0.082
REMARK SMILES O=c1c(O)c(-c2ccc(O)c(O)c2)oc2cc(O)cc(O)c12
REMARK SMILES IDX 5 1 3 2 2 3 1 4 22 5 20 6 19 7 17 8 16 9 15 10 14 11 6 12
REMARK SMILES IDX 7 13 8 14 9 15 13 16 11 17 10 18 12 20 4 22 21 24 18 26
REMARK H PARENT 10 19 12 21 4 23 21 25 18 27
REMARK Flexibility Score: inf
ROOT
ATOM      1  C   UNL     1      61.131   0.084   4.326  1.00  0.00     0.180 A 
ATOM      2  C   UNL     1      61.285  -0.682   3.158  1.00  0.00     0.208 A 
ATOM      3  C   UNL     1      60.461  -1.802   2.964  1.00  0.00     0.238 A 
ATOM      4  O   UNL     1      60.639  -2.515   1.942  1.00  0.00    -0.285 OA
ATOM      5  C   UNL     1      59.483  -2.133   3.932  1.00  0.00     0.111 A 
ATOM      6  C   UNL     1      58.566  -3.221   3.820  1.00  0.00     0.134 A 
ATOM      7  C   UNL     1      57.730  -3.534   4.898  1.00  0.00     0.093 A 
ATOM      8  C   UNL     1      57.730  -2.756   6.059  1.00  0.00     0.123 A 
ATOM      9  C   UNL     1      58.578  -1.655   6.154  1.00  0.00     0.094 A 
ATOM     10  C   UNL     1      59.450  -1.341   5.110  1.00  0.00     0.146 A 
ATOM     11  O   UNL     1      60.250  -0.290   5.247  1.00  0.00    -0.452 OA
ENDROOT
BRANCH   1  12
ATOM     12  C   UNL     1      61.946   1.293   4.590  1.00  0.00     0.025 A 
ATOM     13  C   UNL     1      61.493   2.574   4.227  1.00  0.00     0.016 A 
ATOM     14  C   UNL     1      62.269   3.701   4.507  1.00  0.00     0.051 A 
ATOM     15  C   UNL     1      63.498   3.569   5.164  1.00  0.00     0.157 A 
ATOM     16  C   UNL     1      63.170   1.167   5.266  1.00  0.00     0.062 A 
ATOM     17  C   UNL     1      63.949   2.295   5.548  1.00  0.00     0.158 A 
BRANCH  15  18
ATOM     18  O   UNL     1      64.270   4.697   5.440  1.00  0.00    -0.504 OA
ATOM     19  H   UNL     1      64.404   5.429   4.753  1.00  0.00     0.293 HD
ENDBRANCH  15  18
BRANCH  17  20
ATOM     20  O   UNL     1      65.166   2.131   6.209  1.00  0.00    -0.504 OA
ATOM     21  H   UNL     1      65.997   1.801   5.735  1.00  0.00     0.293 HD
ENDBRANCH  17  20
ENDBRANCH   1  12
BRANCH   2  22
ATOM     22  O   UNL     1      62.272  -0.351   2.225  1.00  0.00    -0.502 OA
ATOM     23  H   UNL     1      63.039  -0.973   2.000  1.00  0.00     0.293 HD
ENDBRANCH   2  22
BRANCH   6  24
ATOM     24  O   UNL     1      58.421  -4.003   2.671  1.00  0.00    -0.507 OA
ATOM     25  H   UNL     1      58.820  -4.921   2.545  1.00  0.00     0.293 HD
ENDBRANCH   6  24
BRANCH   8  26
ATOM     26  O   UNL     1      56.882  -3.065   7.121  1.00  0.00    -0.508 OA
ATOM     27  H   UNL     1      56.880  -2.519   7.974  1.00  0.00     0.293 HD
ENDBRANCH   8  26
TORSDOF 6
ENDMDL
MODEL 9
REMARK VINA RESULT:    -6.534      5.609      7.086
REMARK INTER + INTRA:          -7.789
REMARK INTER:                  -7.648
REMARK INTRA:                  -0.141
REMARK UNBOUND:                 0.082
REMARK SMILES O=c1c(O)c(-c2ccc(O)c(O)c2)oc2cc(O)cc(O)c12
REMARK SMILES IDX 5 1 3 2 2 3 1 4 22 5 20 6 19 7 17 8 16 9 15 10 14 11 6 12
REMARK SMILES IDX 7 13 8 14 9 15 13 16 11 17 10 18 12 20 4 22 21 24 18 26
REMARK H PARENT 10 19 12 21 4 23 21 25 18 27
REMARK Flexibility Score: inf
ROOT
ATOM      1  C   UNL     1      63.196   3.247   3.187  1.00  0.00     0.180 A 
ATOM      2  C   UNL     1      62.760   2.082   2.533  1.00  0.00     0.208 A 
ATOM      3  C   UNL     1      62.859   2.008   1.134  1.00  0.00     0.238 A 
ATOM      4  O   UNL     1      62.419   0.984   0.550  1.00  0.00    -0.285 OA
ATOM      5  C   UNL     1      63.409   3.092   0.409  1.00  0.00     0.111 A 
ATOM      6  C   UNL     1      63.596   3.110  -1.006  1.00  0.00     0.134 A 
ATOM      7  C   UNL     1      64.026   4.286  -1.631  1.00  0.00     0.093 A 
ATOM      8  C   UNL     1      64.341   5.425  -0.886  1.00  0.00     0.123 A 
ATOM      9  C   UNL     1      64.219   5.398   0.502  1.00  0.00     0.094 A 
ATOM     10  C   UNL     1      63.756   4.252   1.151  1.00  0.00     0.146 A 
ATOM     11  O   UNL     1      63.645   4.273   2.474  1.00  0.00    -0.452 OA
ENDROOT
BRANCH   1  12
ATOM     12  C   UNL     1      63.145   3.390   4.660  1.00  0.00     0.025 A 
ATOM     13  C   UNL     1      64.316   3.561   5.420  1.00  0.00     0.016 A 
ATOM     14  C   UNL     1      64.242   3.718   6.806  1.00  0.00     0.051 A 
ATOM     15  C   UNL     1      62.999   3.719   7.452  1.00  0.00     0.157 A 
ATOM     16  C   UNL     1      61.901   3.412   5.311  1.00  0.00     0.062 A 
ATOM     17  C   UNL     1      61.822   3.568   6.699  1.00  0.00     0.158 A 
BRANCH  15  18
ATOM     18  O   UNL     1      62.929   3.874   8.836  1.00  0.00    -0.504 OA
ATOM     19  H   UNL     1      62.894   4.790   9.266  1.00  0.00     0.293 HD
ENDBRANCH  15  18
BRANCH  17  20
ATOM     20  O   UNL     1      60.570   3.572   7.312  1.00  0.00    -0.504 OA
ATOM     21  H   UNL     1      59.817   2.971   7.002  1.00  0.00     0.293 HD
ENDBRANCH  17  20
ENDBRANCH   1  12
BRANCH   2  22
ATOM     22  O   UNL     1      62.200   1.032   3.266  1.00  0.00    -0.502 OA
ATOM     23  H   UNL     1      61.590   0.341   2.847  1.00  0.00     0.293 HD
ENDBRANCH   2  22
BRANCH   6  24
ATOM     24  O   UNL     1      63.399   1.999  -1.832  1.00  0.00    -0.507 OA
ATOM     25  H   UNL     1      63.124   1.084  -1.510  1.00  0.00     0.293 HD
ENDBRANCH   6  24
BRANCH   8  26
ATOM     26  O   UNL     1      64.784   6.586  -1.515  1.00  0.00    -0.508 OA
ATOM     27  H   UNL     1      65.550   7.133  -1.141  1.00  0.00     0.293 HD
ENDBRANCH   8  26
TORSDOF 6
ENDMDL
