MODEL 1
REMARK VINA RESULT:    -5.172      0.000      0.000
REMARK INTER + INTRA:          -7.894
REMARK INTER:                  -6.533
REMARK INTRA:                  -1.361
REMARK UNBOUND:                -1.361
REMARK SMILES O=C(C=Cc1ccc(O)cc1)c1ccc(O)cc1O
REMARK SMILES IDX 4 1 3 2 5 3 6 4 7 5 8 6 11 7 10 8 9 9 2 11 1 12 12 13 18 14
REMARK SMILES IDX 13 15 17 16 14 17 15 18 19 19 16 21
REMARK H PARENT 9 10 19 20 16 22
REMARK Flexibility Score: inf
ROOT
ATOM      1  C   UNL     1      22.372   4.852  28.293  1.00  0.00     0.012 C 
ATOM      2  C   UNL     1      21.673   5.449  27.315  1.00  0.00     0.053 C 
ENDROOT
BRANCH   1   3
ATOM      3  C   UNL     1      23.045   3.543  28.191  1.00  0.00    -0.025 A 
ATOM      4  C   UNL     1      22.281   2.368  28.252  1.00  0.00     0.012 A 
ATOM      5  C   UNL     1      22.893   1.119  28.105  1.00  0.00     0.047 A 
ATOM      6  C   UNL     1      24.269   1.033  27.873  1.00  0.00     0.115 A 
ATOM      7  C   UNL     1      24.423   3.454  27.927  1.00  0.00     0.012 A 
ATOM      8  C   UNL     1      25.033   2.204  27.781  1.00  0.00     0.047 A 
BRANCH   6   9
ATOM      9  O   UNL     1      24.866  -0.217  27.732  1.00  0.00    -0.508 OA
ATOM     10  H   UNL     1      24.637  -0.987  28.350  1.00  0.00     0.293 HD
ENDBRANCH   6   9
ENDBRANCH   1   3
BRANCH   2  11
ATOM     11  C   UNL     1      21.595   4.992  25.904  1.00  0.00     0.189 C 
ATOM     12  O   UNL     1      20.512   4.566  25.423  1.00  0.00    -0.289 OA
BRANCH  11  13
ATOM     13  C   UNL     1      22.791   5.020  25.036  1.00  0.00     0.064 A 
ATOM     14  C   UNL     1      23.367   3.839  24.520  1.00  0.00     0.130 A 
ATOM     15  C   UNL     1      23.350   6.263  24.691  1.00  0.00     0.020 A 
ATOM     16  C   UNL     1      24.510   3.916  23.710  1.00  0.00     0.093 A 
ATOM     17  C   UNL     1      24.485   6.329  23.879  1.00  0.00     0.047 A 
ATOM     18  C   UNL     1      25.070   5.156  23.391  1.00  0.00     0.119 A 
BRANCH  14  19
ATOM     19  O   UNL     1      22.790   2.597  24.787  1.00  0.00    -0.507 OA
ATOM     20  H   UNL     1      22.331   2.058  24.062  1.00  0.00     0.293 HD
ENDBRANCH  14  19
BRANCH  18  21
ATOM     21  O   UNL     1      26.204   5.210  22.583  1.00  0.00    -0.508 OA
ATOM     22  H   UNL     1      26.631   4.368  22.215  1.00  0.00     0.293 HD
ENDBRANCH  18  21
ENDBRANCH  11  13
ENDBRANCH   2  11
TORSDOF 6
ENDMDL
MODEL 2
REMARK VINA RESULT:    -5.049      0.681      1.304
REMARK INTER + INTRA:          -7.737
REMARK INTER:                  -6.415
REMARK INTRA:                  -1.323
REMARK UNBOUND:                -1.361
REMARK SMILES O=C(C=Cc1ccc(O)cc1)c1ccc(O)cc1O
REMARK SMILES IDX 4 1 3 2 5 3 6 4 7 5 8 6 11 7 10 8 9 9 2 11 1 12 12 13 18 14
REMARK SMILES IDX 13 15 17 16 14 17 15 18 19 19 16 21
REMARK H PARENT 9 10 19 20 16 22
REMARK Flexibility Score: inf
ROOT
ATOM      1  C   UNL     1      22.840   5.329  27.858  1.00  0.00     0.012 C 
ATOM      2  C   UNL     1      22.232   6.011  26.874  1.00  0.00     0.053 C 
ENDROOT
BRANCH   1   3
ATOM      3  C   UNL     1      23.317   3.936  27.768  1.00  0.00    -0.025 A 
ATOM      4  C   UNL     1      24.692   3.683  27.655  1.00  0.00     0.012 A 
ATOM      5  C   UNL     1      25.169   2.369  27.620  1.00  0.00     0.047 A 
ATOM      6  C   UNL     1      24.278   1.295  27.720  1.00  0.00     0.115 A 
ATOM      7  C   UNL     1      22.428   2.854  27.899  1.00  0.00     0.012 A 
ATOM      8  C   UNL     1      22.906   1.541  27.863  1.00  0.00     0.047 A 
BRANCH   6   9
ATOM      9  O   UNL     1      24.766  -0.008  27.681  1.00  0.00    -0.508 OA
ATOM     10  H   UNL     1      24.231  -0.786  28.052  1.00  0.00     0.293 HD
ENDBRANCH   6   9
ENDBRANCH   1   3
BRANCH   2  11
ATOM     11  C   UNL     1      22.087   5.556  25.468  1.00  0.00     0.189 C 
ATOM     12  O   UNL     1      20.962   5.213  25.015  1.00  0.00    -0.289 OA
BRANCH  11  13
ATOM     13  C   UNL     1      23.260   5.489  24.572  1.00  0.00     0.064 A 
ATOM     14  C   UNL     1      23.756   4.261  24.083  1.00  0.00     0.130 A 
ATOM     15  C   UNL     1      23.880   6.686  24.175  1.00  0.00     0.020 A 
ATOM     16  C   UNL     1      24.882   4.248  23.245  1.00  0.00     0.093 A 
ATOM     17  C   UNL     1      24.996   6.663  23.335  1.00  0.00     0.047 A 
ATOM     18  C   UNL     1      25.502   5.443  22.872  1.00  0.00     0.119 A 
BRANCH  14  19
ATOM     19  O   UNL     1      23.118   3.063  24.403  1.00  0.00    -0.507 OA
ATOM     20  H   UNL     1      23.057   2.300  23.739  1.00  0.00     0.293 HD
ENDBRANCH  14  19
BRANCH  18  21
ATOM     21  O   UNL     1      26.617   5.407  22.038  1.00  0.00    -0.508 OA
ATOM     22  H   UNL     1      26.537   5.159  21.058  1.00  0.00     0.293 HD
ENDBRANCH  18  21
ENDBRANCH  11  13
ENDBRANCH   2  11
TORSDOF 6
ENDMDL
MODEL 3
REMARK VINA RESULT:    -4.940      1.676      3.265
REMARK INTER + INTRA:          -7.601
REMARK INTER:                  -6.191
REMARK INTRA:                  -1.409
REMARK UNBOUND:                -1.361
REMARK SMILES O=C(C=Cc1ccc(O)cc1)c1ccc(O)cc1O
REMARK SMILES IDX 4 1 3 2 5 3 6 4 7 5 8 6 11 7 10 8 9 9 2 11 1 12 12 13 18 14
REMARK SMILES IDX 13 15 17 16 14 17 15 18 19 19 16 21
REMARK H PARENT 9 10 19 20 16 22
REMARK Flexibility Score: inf
ROOT
ATOM      1  C   UNL     1      25.409   3.965  27.550  1.00  0.00     0.012 C 
ATOM      2  C   UNL     1      25.426   4.508  26.322  1.00  0.00     0.053 C 
ENDROOT
BRANCH   1   3
ATOM      3  C   UNL     1      24.407   3.003  28.048  1.00  0.00    -0.025 A 
ATOM      4  C   UNL     1      23.218   3.479  28.620  1.00  0.00     0.012 A 
ATOM      5  C   UNL     1      22.233   2.585  29.051  1.00  0.00     0.047 A 
ATOM      6  C   UNL     1      22.417   1.207  28.893  1.00  0.00     0.115 A 
ATOM      7  C   UNL     1      24.575   1.619  27.863  1.00  0.00     0.012 A 
ATOM      8  C   UNL     1      23.589   0.726  28.295  1.00  0.00     0.047 A 
BRANCH   6   9
ATOM      9  O   UNL     1      21.429   0.328  29.329  1.00  0.00    -0.508 OA
ATOM     10  H   UNL     1      20.523   0.283  28.878  1.00  0.00     0.293 HD
ENDBRANCH   6   9
ENDBRANCH   1   3
BRANCH   2  11
ATOM     11  C   UNL     1      24.554   4.112  25.188  1.00  0.00     0.189 C 
ATOM     12  O   UNL     1      24.996   3.388  24.257  1.00  0.00    -0.289 OA
BRANCH  11  13
ATOM     13  C   UNL     1      23.149   4.566  25.124  1.00  0.00     0.064 A 
ATOM     14  C   UNL     1      22.070   3.655  25.119  1.00  0.00     0.130 A 
ATOM     15  C   UNL     1      22.882   5.946  25.097  1.00  0.00     0.020 A 
ATOM     16  C   UNL     1      20.753   4.134  25.044  1.00  0.00     0.093 A 
ATOM     17  C   UNL     1      21.567   6.413  25.028  1.00  0.00     0.047 A 
ATOM     18  C   UNL     1      20.500   5.508  24.996  1.00  0.00     0.119 A 
BRANCH  14  19
ATOM     19  O   UNL     1      22.303   2.284  25.217  1.00  0.00    -0.507 OA
ATOM     20  H   UNL     1      22.039   1.758  26.042  1.00  0.00     0.293 HD
ENDBRANCH  14  19
BRANCH  18  21
ATOM     21  O   UNL     1      19.185   5.962  24.924  1.00  0.00    -0.508 OA
ATOM     22  H   UNL     1      18.942   6.918  25.155  1.00  0.00     0.293 HD
ENDBRANCH  18  21
ENDBRANCH  11  13
ENDBRANCH   2  11
TORSDOF 6
ENDMDL
MODEL 4
REMARK VINA RESULT:    -4.813      2.608      5.415
REMARK INTER + INTRA:          -7.440
REMARK INTER:                  -6.467
REMARK INTRA:                  -0.973
REMARK UNBOUND:                -1.361
REMARK SMILES O=C(C=Cc1ccc(O)cc1)c1ccc(O)cc1O
REMARK SMILES IDX 4 1 3 2 5 3 6 4 7 5 8 6 11 7 10 8 9 9 2 11 1 12 12 13 18 14
REMARK SMILES IDX 13 15 17 16 14 17 15 18 19 19 16 21
REMARK H PARENT 9 10 19 20 16 22
REMARK Flexibility Score: inf
ROOT
ATOM      1  C   UNL     1      23.968   4.512  23.842  1.00  0.00     0.012 C 
ATOM      2  C   UNL     1      24.852   3.735  24.486  1.00  0.00     0.053 C 
ENDROOT
BRANCH   1   3
ATOM      3  C   UNL     1      22.645   4.915  24.358  1.00  0.00    -0.025 A 
ATOM      4  C   UNL     1      22.359   6.277  24.533  1.00  0.00     0.012 A 
ATOM      5  C   UNL     1      21.094   6.682  24.971  1.00  0.00     0.047 A 
ATOM      6  C   UNL     1      20.097   5.733  25.218  1.00  0.00     0.115 A 
ATOM      7  C   UNL     1      21.632   3.965  24.577  1.00  0.00     0.012 A 
ATOM      8  C   UNL     1      20.368   4.372  25.016  1.00  0.00     0.047 A 
BRANCH   6   9
ATOM      9  O   UNL     1      18.844   6.150  25.657  1.00  0.00    -0.508 OA
ATOM     10  H   UNL     1      18.733   6.686  26.510  1.00  0.00     0.293 HD
ENDBRANCH   6   9
ENDBRANCH   1   3
BRANCH   2  11
ATOM     11  C   UNL     1      24.743   3.285  25.897  1.00  0.00     0.189 C 
ATOM     12  O   UNL     1      24.082   2.254  26.195  1.00  0.00    -0.289 OA
BRANCH  11  13
ATOM     13  C   UNL     1      25.401   4.041  26.983  1.00  0.00     0.064 A 
ATOM     14  C   UNL     1      26.455   3.490  27.743  1.00  0.00     0.130 A 
ATOM     15  C   UNL     1      24.982   5.358  27.243  1.00  0.00     0.020 A 
ATOM     16  C   UNL     1      27.039   4.243  28.773  1.00  0.00     0.093 A 
ATOM     17  C   UNL     1      25.575   6.101  28.267  1.00  0.00     0.047 A 
ATOM     18  C   UNL     1      26.602   5.544  29.037  1.00  0.00     0.119 A 
BRANCH  14  19
ATOM     19  O   UNL     1      26.938   2.213  27.460  1.00  0.00    -0.507 OA
ATOM     20  H   UNL     1      26.353   1.507  27.029  1.00  0.00     0.293 HD
ENDBRANCH  14  19
BRANCH  18  21
ATOM     21  O   UNL     1      27.197   6.274  30.062  1.00  0.00    -0.508 OA
ATOM     22  H   UNL     1      28.118   6.038  30.414  1.00  0.00     0.293 HD
ENDBRANCH  18  21
ENDBRANCH  11  13
ENDBRANCH   2  11
TORSDOF 6
ENDMDL
MODEL 5
REMARK VINA RESULT:    -4.712      1.798      5.185
REMARK INTER + INTRA:          -7.313
REMARK INTER:                  -5.996
REMARK INTRA:                  -1.316
REMARK UNBOUND:                -1.361
REMARK SMILES O=C(C=Cc1ccc(O)cc1)c1ccc(O)cc1O
REMARK SMILES IDX 4 1 3 2 5 3 6 4 7 5 8 6 11 7 10 8 9 9 2 11 1 12 12 13 18 14
REMARK SMILES IDX 13 15 17 16 14 17 15 18 19 19 16 21
REMARK H PARENT 9 10 19 20 16 22
REMARK Flexibility Score: inf
ROOT
ATOM      1  C   UNL     1      22.397   6.282  24.974  1.00  0.00     0.012 C 
ATOM      2  C   UNL     1      22.440   6.380  26.312  1.00  0.00     0.053 C 
ENDROOT
BRANCH   1   3
ATOM      3  C   UNL     1      23.514   5.856  24.109  1.00  0.00    -0.025 A 
ATOM      4  C   UNL     1      24.493   6.789  23.736  1.00  0.00     0.012 A 
ATOM      5  C   UNL     1      25.586   6.394  22.960  1.00  0.00     0.047 A 
ATOM      6  C   UNL     1      25.725   5.058  22.568  1.00  0.00     0.115 A 
ATOM      7  C   UNL     1      23.672   4.508  23.739  1.00  0.00     0.012 A 
ATOM      8  C   UNL     1      24.766   4.115  22.962  1.00  0.00     0.047 A 
BRANCH   6   9
ATOM      9  O   UNL     1      26.817   4.679  21.792  1.00  0.00    -0.508 OA
ATOM     10  H   UNL     1      27.134   5.242  21.012  1.00  0.00     0.293 HD
ENDBRANCH   6   9
ENDBRANCH   1   3
BRANCH   2  11
ATOM     11  C   UNL     1      23.551   5.912  27.179  1.00  0.00     0.189 C 
ATOM     12  O   UNL     1      24.243   6.732  27.839  1.00  0.00    -0.289 OA
BRANCH  11  13
ATOM     13  C   UNL     1      23.874   4.473  27.279  1.00  0.00     0.064 A 
ATOM     14  C   UNL     1      25.160   3.975  26.979  1.00  0.00     0.130 A 
ATOM     15  C   UNL     1      22.877   3.583  27.715  1.00  0.00     0.020 A 
ATOM     16  C   UNL     1      25.415   2.598  27.077  1.00  0.00     0.093 A 
ATOM     17  C   UNL     1      23.143   2.215  27.815  1.00  0.00     0.047 A 
ATOM     18  C   UNL     1      24.411   1.719  27.492  1.00  0.00     0.119 A 
BRANCH  14  19
ATOM     19  O   UNL     1      26.188   4.844  26.614  1.00  0.00    -0.507 OA
ATOM     20  H   UNL     1      26.036   5.843  26.537  1.00  0.00     0.293 HD
ENDBRANCH  14  19
BRANCH  18  21
ATOM     21  O   UNL     1      24.686   0.357  27.585  1.00  0.00    -0.508 OA
ATOM     22  H   UNL     1      25.191  -0.132  26.854  1.00  0.00     0.293 HD
ENDBRANCH  18  21
ENDBRANCH  11  13
ENDBRANCH   2  11
TORSDOF 6
ENDMDL
MODEL 6
REMARK VINA RESULT:    -4.583      2.152      3.921
REMARK INTER + INTRA:          -7.149
REMARK INTER:                  -5.948
REMARK INTRA:                  -1.201
REMARK UNBOUND:                -1.361
REMARK SMILES O=C(C=Cc1ccc(O)cc1)c1ccc(O)cc1O
REMARK SMILES IDX 4 1 3 2 5 3 6 4 7 5 8 6 11 7 10 8 9 9 2 11 1 12 12 13 18 14
REMARK SMILES IDX 13 15 17 16 14 17 15 18 19 19 16 21
REMARK H PARENT 9 10 19 20 16 22
REMARK Flexibility Score: inf
ROOT
ATOM      1  C   UNL     1      25.940   6.239  25.525  1.00  0.00     0.012 C 
ATOM      2  C   UNL     1      25.376   6.062  24.320  1.00  0.00     0.053 C 
ENDROOT
BRANCH   1   3
ATOM      3  C   UNL     1      25.527   5.567  26.772  1.00  0.00    -0.025 A 
ATOM      4  C   UNL     1      24.535   6.149  27.574  1.00  0.00     0.012 A 
ATOM      5  C   UNL     1      24.093   5.503  28.733  1.00  0.00     0.047 A 
ATOM      6  C   UNL     1      24.622   4.258  29.089  1.00  0.00     0.115 A 
ATOM      7  C   UNL     1      26.034   4.301  27.116  1.00  0.00     0.012 A 
ATOM      8  C   UNL     1      25.592   3.657  28.276  1.00  0.00     0.047 A 
BRANCH   6   9
ATOM      9  O   UNL     1      24.175   3.627  30.247  1.00  0.00    -0.508 OA
ATOM     10  H   UNL     1      24.816   3.150  30.871  1.00  0.00     0.293 HD
ENDBRANCH   6   9
ENDBRANCH   1   3
BRANCH   2  11
ATOM     11  C   UNL     1      24.359   5.034  23.983  1.00  0.00     0.189 C 
ATOM     12  O   UNL     1      24.673   4.009  23.321  1.00  0.00    -0.289 OA
BRANCH  11  13
ATOM     13  C   UNL     1      22.953   5.195  24.411  1.00  0.00     0.064 A 
ATOM     14  C   UNL     1      22.158   4.092  24.791  1.00  0.00     0.130 A 
ATOM     15  C   UNL     1      22.406   6.488  24.468  1.00  0.00     0.020 A 
ATOM     16  C   UNL     1      20.824   4.295  25.178  1.00  0.00     0.093 A 
ATOM     17  C   UNL     1      21.078   6.679  24.860  1.00  0.00     0.047 A 
ATOM     18  C   UNL     1      20.283   5.583  25.211  1.00  0.00     0.119 A 
BRANCH  14  19
ATOM     19  O   UNL     1      22.697   2.806  24.813  1.00  0.00    -0.507 OA
ATOM     20  H   UNL     1      23.558   2.600  25.305  1.00  0.00     0.293 HD
ENDBRANCH  14  19
BRANCH  18  21
ATOM     21  O   UNL     1      18.958   5.761  25.600  1.00  0.00    -0.508 OA
ATOM     22  H   UNL     1      18.613   5.401  26.483  1.00  0.00     0.293 HD
ENDBRANCH  18  21
ENDBRANCH  11  13
ENDBRANCH   2  11
TORSDOF 6
ENDMDL
MODEL 7
REMARK VINA RESULT:    -4.570      1.708      5.229
REMARK INTER + INTRA:          -7.133
REMARK INTER:                  -5.822
REMARK INTRA:                  -1.311
REMARK UNBOUND:                -1.361
REMARK SMILES O=C(C=Cc1ccc(O)cc1)c1ccc(O)cc1O
REMARK SMILES IDX 4 1 3 2 5 3 6 4 7 5 8 6 11 7 10 8 9 9 2 11 1 12 12 13 18 14
REMARK SMILES IDX 13 15 17 16 14 17 15 18 19 19 16 21
REMARK H PARENT 9 10 19 20 16 22
REMARK Flexibility Score: inf
ROOT
ATOM      1  C   UNL     1      23.691   6.840  25.188  1.00  0.00     0.012 C 
ATOM      2  C   UNL     1      24.551   5.936  24.691  1.00  0.00     0.053 C 
ENDROOT
BRANCH   1   3
ATOM      3  C   UNL     1      22.255   6.609  25.439  1.00  0.00    -0.025 A 
ATOM      4  C   UNL     1      21.830   6.245  26.726  1.00  0.00     0.012 A 
ATOM      5  C   UNL     1      20.469   6.072  26.997  1.00  0.00     0.047 A 
ATOM      6  C   UNL     1      19.519   6.283  25.993  1.00  0.00     0.115 A 
ATOM      7  C   UNL     1      21.296   6.849  24.440  1.00  0.00     0.012 A 
ATOM      8  C   UNL     1      19.936   6.674  24.713  1.00  0.00     0.047 A 
BRANCH   6   9
ATOM      9  O   UNL     1      18.168   6.104  26.276  1.00  0.00    -0.508 OA
ATOM     10  H   UNL     1      17.550   6.893  26.431  1.00  0.00     0.293 HD
ENDBRANCH   6   9
ENDBRANCH   1   3
BRANCH   2  11
ATOM     11  C   UNL     1      24.262   4.496  24.471  1.00  0.00     0.189 C 
ATOM     12  O   UNL     1      24.156   4.032  23.304  1.00  0.00    -0.289 OA
BRANCH  11  13
ATOM     13  C   UNL     1      24.086   3.579  25.616  1.00  0.00     0.064 A 
ATOM     14  C   UNL     1      22.871   2.898  25.845  1.00  0.00     0.130 A 
ATOM     15  C   UNL     1      25.171   3.358  26.481  1.00  0.00     0.020 A 
ATOM     16  C   UNL     1      22.748   2.046  26.954  1.00  0.00     0.093 A 
ATOM     17  C   UNL     1      25.040   2.503  27.579  1.00  0.00     0.047 A 
ATOM     18  C   UNL     1      23.826   1.849  27.820  1.00  0.00     0.119 A 
BRANCH  14  19
ATOM     19  O   UNL     1      21.801   3.042  24.962  1.00  0.00    -0.507 OA
ATOM     20  H   UNL     1      21.822   2.641  24.032  1.00  0.00     0.293 HD
ENDBRANCH  14  19
BRANCH  18  21
ATOM     21  O   UNL     1      23.683   0.998  28.913  1.00  0.00    -0.508 OA
ATOM     22  H   UNL     1      22.779   0.622  29.176  1.00  0.00     0.293 HD
ENDBRANCH  18  21
ENDBRANCH  11  13
ENDBRANCH   2  11
TORSDOF 6
ENDMDL
MODEL 8
REMARK VINA RESULT:    -4.569     11.281     13.826
REMARK INTER + INTRA:          -7.131
REMARK INTER:                  -6.158
REMARK INTRA:                  -0.973
REMARK UNBOUND:                -1.361
REMARK SMILES O=C(C=Cc1ccc(O)cc1)c1ccc(O)cc1O
REMARK SMILES IDX 4 1 3 2 5 3 6 4 7 5 8 6 11 7 10 8 9 9 2 11 1 12 12 13 18 14
REMARK SMILES IDX 13 15 17 16 14 17 15 18 19 19 16 21
REMARK H PARENT 9 10 19 20 16 22
REMARK Flexibility Score: inf
ROOT
ATOM      1  C   UNL     1      16.094  -7.308  28.630  1.00  0.00     0.012 C 
ATOM      2  C   UNL     1      15.469  -7.955  27.634  1.00  0.00     0.053 C 
ENDROOT
BRANCH   1   3
ATOM      3  C   UNL     1      17.326  -6.507  28.491  1.00  0.00    -0.025 A 
ATOM      4  C   UNL     1      17.231  -5.115  28.344  1.00  0.00     0.012 A 
ATOM      5  C   UNL     1      18.387  -4.332  28.263  1.00  0.00     0.047 A 
ATOM      6  C   UNL     1      19.648  -4.930  28.350  1.00  0.00     0.115 A 
ATOM      7  C   UNL     1      18.595  -7.101  28.609  1.00  0.00     0.012 A 
ATOM      8  C   UNL     1      19.750  -6.317  28.526  1.00  0.00     0.047 A 
BRANCH   6   9
ATOM      9  O   UNL     1      20.791  -4.139  28.264  1.00  0.00    -0.508 OA
ATOM     10  H   UNL     1      20.919  -3.473  27.511  1.00  0.00     0.293 HD
ENDBRANCH   6   9
ENDBRANCH   1   3
BRANCH   2  11
ATOM     11  C   UNL     1      15.794  -7.843  26.190  1.00  0.00     0.189 C 
ATOM     12  O   UNL     1      15.639  -6.753  25.577  1.00  0.00    -0.289 OA
BRANCH  11  13
ATOM     13  C   UNL     1      16.300  -9.011  25.438  1.00  0.00     0.064 A 
ATOM     14  C   UNL     1      16.011  -9.198  24.069  1.00  0.00     0.130 A 
ATOM     15  C   UNL     1      17.116  -9.943  26.102  1.00  0.00     0.020 A 
ATOM     16  C   UNL     1      16.503 -10.330  23.401  1.00  0.00     0.093 A 
ATOM     17  C   UNL     1      17.606 -11.064  25.426  1.00  0.00     0.047 A 
ATOM     18  C   UNL     1      17.297 -11.262  24.075  1.00  0.00     0.119 A 
BRANCH  14  19
ATOM     19  O   UNL     1      15.264  -8.252  23.368  1.00  0.00    -0.507 OA
ATOM     20  H   UNL     1      14.990  -8.400  22.404  1.00  0.00     0.293 HD
ENDBRANCH  14  19
BRANCH  18  21
ATOM     21  O   UNL     1      17.777 -12.377  23.393  1.00  0.00    -0.508 OA
ATOM     22  H   UNL     1      18.067 -13.215  23.885  1.00  0.00     0.293 HD
ENDBRANCH  18  21
ENDBRANCH  11  13
ENDBRANCH   2  11
TORSDOF 6
ENDMDL
MODEL 9
REMARK VINA RESULT:    -4.563      2.005      6.019
REMARK INTER + INTRA:          -7.124
REMARK INTER:                  -6.189
REMARK INTRA:                  -0.936
REMARK UNBOUND:                -1.361
REMARK SMILES O=C(C=Cc1ccc(O)cc1)c1ccc(O)cc1O
REMARK SMILES IDX 4 1 3 2 5 3 6 4 7 5 8 6 11 7 10 8 9 9 2 11 1 12 12 13 18 14
REMARK SMILES IDX 13 15 17 16 14 17 15 18 19 19 16 21
REMARK H PARENT 9 10 19 20 16 22
REMARK Flexibility Score: inf
ROOT
ATOM      1  C   UNL     1      24.021   3.623  24.459  1.00  0.00     0.012 C 
ATOM      2  C   UNL     1      24.714   3.012  25.433  1.00  0.00     0.053 C 
ENDROOT
BRANCH   1   3
ATOM      3  C   UNL     1      22.867   4.519  24.660  1.00  0.00    -0.025 A 
ATOM      4  C   UNL     1      23.038   5.905  24.526  1.00  0.00     0.012 A 
ATOM      5  C   UNL     1      21.946   6.768  24.662  1.00  0.00     0.047 A 
ATOM      6  C   UNL     1      20.670   6.254  24.912  1.00  0.00     0.115 A 
ATOM      7  C   UNL     1      21.577   4.004  24.881  1.00  0.00     0.012 A 
ATOM      8  C   UNL     1      20.487   4.869  25.018  1.00  0.00     0.047 A 
BRANCH   6   9
ATOM      9  O   UNL     1      19.592   7.125  25.049  1.00  0.00    -0.508 OA
ATOM     10  H   UNL     1      19.018   7.130  25.884  1.00  0.00     0.293 HD
ENDBRANCH   6   9
ENDBRANCH   1   3
BRANCH   2  11
ATOM     11  C   UNL     1      24.564   3.261  26.889  1.00  0.00     0.189 C 
ATOM     12  O   UNL     1      25.240   4.156  27.462  1.00  0.00    -0.289 OA
BRANCH  11  13
ATOM     13  C   UNL     1      23.622   2.459  27.698  1.00  0.00     0.064 A 
ATOM     14  C   UNL     1      23.838   1.087  27.950  1.00  0.00     0.130 A 
ATOM     15  C   UNL     1      22.497   3.091  28.254  1.00  0.00     0.020 A 
ATOM     16  C   UNL     1      22.908   0.364  28.714  1.00  0.00     0.093 A 
ATOM     17  C   UNL     1      21.580   2.364  29.018  1.00  0.00     0.047 A 
ATOM     18  C   UNL     1      21.781   0.998  29.245  1.00  0.00     0.119 A 
BRANCH  14  19
ATOM     19  O   UNL     1      24.983   0.451  27.471  1.00  0.00    -0.507 OA
ATOM     20  H   UNL     1      24.929  -0.411  26.942  1.00  0.00     0.293 HD
ENDBRANCH  14  19
BRANCH  18  21
ATOM     21  O   UNL     1      20.873   0.262  30.002  1.00  0.00    -0.508 OA
ATOM     22  H   UNL     1      19.963   0.006  29.634  1.00  0.00     0.293 HD
ENDBRANCH  18  21
ENDBRANCH  11  13
ENDBRANCH   2  11
TORSDOF 6
ENDMDL
