MODEL 1
REMARK VINA RESULT:    -5.854      0.000      0.000
REMARK INTER + INTRA:          -7.096
REMARK INTER:                  -6.880
REMARK INTRA:                  -0.216
REMARK UNBOUND:                -0.216
REMARK SMILES C=CC(C)=CCC=C(C)C
REMARK SMILES IDX 5 1 3 2 4 3 6 4 7 5 9 6 8 7 10 8 2 9 1 10
REMARK H PARENT
REMARK Flexibility Score: inf
ROOT
ATOM      1  C   UNL     1      17.780  29.223  25.192  1.00  0.00    -0.020 C 
ATOM      2  C   UNL     1      18.667  29.380  26.196  1.00  0.00    -0.055 C 
ATOM      3  C   UNL     1      18.902  30.719  26.857  1.00  0.00     0.044 C 
ENDROOT
BRANCH   1   4
ATOM      4  C   UNL     1      16.952  30.328  24.589  1.00  0.00     0.055 C 
BRANCH   4   5
ATOM      5  C   UNL     1      15.822  29.786  23.749  1.00  0.00    -0.024 C 
ATOM      6  C   UNL     1      14.132  29.806  21.940  1.00  0.00     0.039 C 
ATOM      7  C   UNL     1      15.234  30.459  22.733  1.00  0.00    -0.080 C 
ATOM      8  C   UNL     1      15.680  31.839  22.321  1.00  0.00     0.039 C 
ENDBRANCH   4   5
ENDBRANCH   1   4
BRANCH   2   9
ATOM      9  C   UNL     1      19.361  28.166  26.702  1.00  0.00    -0.005 C 
ATOM     10  C   UNL     1      19.789  27.178  25.916  1.00  0.00     0.009 C 
ENDBRANCH   2   9
TORSDOF 3
ENDMDL
MODEL 2
REMARK VINA RESULT:    -5.655      0.479      5.336
REMARK INTER + INTRA:          -6.863
REMARK INTER:                  -6.639
REMARK INTRA:                  -0.224
REMARK UNBOUND:                -0.216
REMARK SMILES C=CC(C)=CCC=C(C)C
REMARK SMILES IDX 5 1 3 2 4 3 6 4 7 5 9 6 8 7 10 8 2 9 1 10
REMARK H PARENT
REMARK Flexibility Score: inf
ROOT
ATOM      1  C   UNL     1      15.676  29.729  23.672  1.00  0.00    -0.020 C 
ATOM      2  C   UNL     1      15.135  30.456  22.673  1.00  0.00    -0.055 C 
ATOM      3  C   UNL     1      15.596  31.862  22.364  1.00  0.00     0.044 C 
ENDROOT
BRANCH   1   4
ATOM      4  C   UNL     1      16.754  30.211  24.607  1.00  0.00     0.055 C 
BRANCH   4   5
ATOM      5  C   UNL     1      17.625  29.078  25.092  1.00  0.00    -0.024 C 
ATOM      6  C   UNL     1      19.380  27.993  26.459  1.00  0.00     0.039 C 
ATOM      7  C   UNL     1      18.592  29.203  26.029  1.00  0.00    -0.080 C 
ATOM      8  C   UNL     1      18.883  30.516  26.710  1.00  0.00     0.039 C 
ENDBRANCH   4   5
ENDBRANCH   1   4
BRANCH   2   9
ATOM      9  C   UNL     1      14.114  29.800  21.814  1.00  0.00    -0.005 C 
ATOM     10  C   UNL     1      14.165  28.517  21.455  1.00  0.00     0.009 C 
ENDBRANCH   2   9
TORSDOF 3
ENDMDL
MODEL 3
REMARK VINA RESULT:    -5.436      1.056      2.148
REMARK INTER + INTRA:          -6.605
REMARK INTER:                  -6.428
REMARK INTRA:                  -0.177
REMARK UNBOUND:                -0.216
REMARK SMILES C=CC(C)=CCC=C(C)C
REMARK SMILES IDX 5 1 3 2 4 3 6 4 7 5 9 6 8 7 10 8 2 9 1 10
REMARK H PARENT
REMARK Flexibility Score: inf
ROOT
ATOM      1  C   UNL     1      17.180  30.138  24.860  1.00  0.00    -0.020 C 
ATOM      2  C   UNL     1      18.103  29.543  25.642  1.00  0.00    -0.055 C 
ATOM      3  C   UNL     1      18.253  28.039  25.702  1.00  0.00     0.044 C 
ENDROOT
BRANCH   1   4
ATOM      4  C   UNL     1      16.183  29.415  23.993  1.00  0.00     0.055 C 
BRANCH   4   5
ATOM      5  C   UNL     1      15.244  30.372  23.300  1.00  0.00    -0.024 C 
ATOM      6  C   UNL     1      13.517  31.070  21.670  1.00  0.00     0.039 C 
ATOM      7  C   UNL     1      14.439  30.038  22.265  1.00  0.00    -0.080 C 
ATOM      8  C   UNL     1      14.387  28.637  21.709  1.00  0.00     0.039 C 
ENDBRANCH   4   5
ENDBRANCH   1   4
BRANCH   2   9
ATOM      9  C   UNL     1      19.042  30.417  26.393  1.00  0.00    -0.005 C 
ATOM     10  C   UNL     1      19.462  30.158  27.631  1.00  0.00     0.009 C 
ENDBRANCH   2   9
TORSDOF 3
ENDMDL
MODEL 4
REMARK VINA RESULT:    -5.394      1.269      5.107
REMARK INTER + INTRA:          -6.555
REMARK INTER:                  -6.075
REMARK INTRA:                  -0.480
REMARK UNBOUND:                -0.216
REMARK SMILES C=CC(C)=CCC=C(C)C
REMARK SMILES IDX 5 1 3 2 4 3 6 4 7 5 9 6 8 7 10 8 2 9 1 10
REMARK H PARENT
REMARK Flexibility Score: inf
ROOT
ATOM      1  C   UNL     1      16.913  29.014  24.737  1.00  0.00    -0.020 C 
ATOM      2  C   UNL     1      16.563  30.145  24.091  1.00  0.00    -0.055 C 
ATOM      3  C   UNL     1      17.522  31.303  23.923  1.00  0.00     0.044 C 
ENDROOT
BRANCH   1   4
ATOM      4  C   UNL     1      18.248  28.768  25.389  1.00  0.00     0.055 C 
BRANCH   4   5
ATOM      5  C   UNL     1      18.136  28.703  26.892  1.00  0.00    -0.024 C 
ATOM      6  C   UNL     1      18.388  29.504  29.221  1.00  0.00     0.039 C 
ATOM      7  C   UNL     1      18.583  29.662  27.735  1.00  0.00    -0.080 C 
ATOM      8  C   UNL     1      19.232  30.928  27.236  1.00  0.00     0.039 C 
ENDBRANCH   4   5
ENDBRANCH   1   4
BRANCH   2   9
ATOM      9  C   UNL     1      15.217  30.195  23.462  1.00  0.00    -0.005 C 
ATOM     10  C   UNL     1      14.797  29.322  22.546  1.00  0.00     0.009 C 
ENDBRANCH   2   9
TORSDOF 3
ENDMDL
MODEL 5
REMARK VINA RESULT:    -5.333      1.671      2.534
REMARK INTER + INTRA:          -6.484
REMARK INTER:                  -6.000
REMARK INTRA:                  -0.485
REMARK UNBOUND:                -0.216
REMARK SMILES C=CC(C)=CCC=C(C)C
REMARK SMILES IDX 5 1 3 2 4 3 6 4 7 5 9 6 8 7 10 8 2 9 1 10
REMARK H PARENT
REMARK Flexibility Score: inf
ROOT
ATOM      1  C   UNL     1      18.178  28.712  26.905  1.00  0.00    -0.020 C 
ATOM      2  C   UNL     1      18.609  29.670  27.751  1.00  0.00    -0.055 C 
ATOM      3  C   UNL     1      19.264  30.941  27.258  1.00  0.00     0.044 C 
ENDROOT
BRANCH   1   4
ATOM      4  C   UNL     1      18.313  28.758  25.406  1.00  0.00     0.055 C 
BRANCH   4   5
ATOM      5  C   UNL     1      16.980  28.968  24.729  1.00  0.00    -0.024 C 
ATOM      6  C   UNL     1      15.270  30.190  23.421  1.00  0.00     0.039 C 
ATOM      7  C   UNL     1      16.618  30.104  24.090  1.00  0.00    -0.080 C 
ATOM      8  C   UNL     1      17.544  31.288  23.972  1.00  0.00     0.039 C 
ENDBRANCH   4   5
ENDBRANCH   1   4
BRANCH   2   9
ATOM      9  C   UNL     1      18.346  29.481  29.202  1.00  0.00    -0.005 C 
ATOM     10  C   UNL     1      17.125  29.485  29.738  1.00  0.00     0.009 C 
ENDBRANCH   2   9
TORSDOF 3
ENDMDL
MODEL 6
REMARK VINA RESULT:    -5.265      0.979      5.758
REMARK INTER + INTRA:          -6.404
REMARK INTER:                  -6.221
REMARK INTRA:                  -0.184
REMARK UNBOUND:                -0.216
REMARK SMILES C=CC(C)=CCC=C(C)C
REMARK SMILES IDX 5 1 3 2 4 3 6 4 7 5 9 6 8 7 10 8 2 9 1 10
REMARK H PARENT
REMARK Flexibility Score: inf
ROOT
ATOM      1  C   UNL     1      17.101  31.040  23.890  1.00  0.00    -0.020 C 
ATOM      2  C   UNL     1      15.992  31.104  23.125  1.00  0.00    -0.055 C 
ATOM      3  C   UNL     1      15.047  29.932  22.984  1.00  0.00     0.044 C 
ENDROOT
BRANCH   1   4
ATOM      4  C   UNL     1      17.555  29.826  24.658  1.00  0.00     0.055 C 
BRANCH   4   5
ATOM      5  C   UNL     1      18.295  30.203  25.917  1.00  0.00    -0.024 C 
ATOM      6  C   UNL     1      19.735  29.833  27.897  1.00  0.00     0.039 C 
ATOM      7  C   UNL     1      19.008  29.337  26.673  1.00  0.00    -0.080 C 
ATOM      8  C   UNL     1      19.150  27.881  26.306  1.00  0.00     0.039 C 
ENDBRANCH   4   5
ENDBRANCH   1   4
BRANCH   2   9
ATOM      9  C   UNL     1      15.670  32.403  22.479  1.00  0.00    -0.005 C 
ATOM     10  C   UNL     1      14.746  32.547  21.530  1.00  0.00     0.009 C 
ENDBRANCH   2   9
TORSDOF 3
ENDMDL
MODEL 7
REMARK VINA RESULT:    -5.050      6.511      8.030
REMARK INTER + INTRA:          -6.151
REMARK INTER:                  -5.911
REMARK INTRA:                  -0.240
REMARK UNBOUND:                -0.216
REMARK SMILES C=CC(C)=CCC=C(C)C
REMARK SMILES IDX 5 1 3 2 4 3 6 4 7 5 9 6 8 7 10 8 2 9 1 10
REMARK H PARENT
REMARK Flexibility Score: inf
ROOT
ATOM      1  C   UNL     1      11.173  33.111  23.409  1.00  0.00    -0.020 C 
ATOM      2  C   UNL     1      10.107  33.770  23.906  1.00  0.00    -0.055 C 
ATOM      3  C   UNL     1       9.168  34.560  23.022  1.00  0.00     0.044 C 
ENDROOT
BRANCH   1   4
ATOM      4  C   UNL     1      11.583  33.097  21.959  1.00  0.00     0.055 C 
BRANCH   4   5
ATOM      5  C   UNL     1      13.082  33.158  21.799  1.00  0.00    -0.024 C 
ATOM      6  C   UNL     1      15.221  33.582  20.628  1.00  0.00     0.039 C 
ATOM      7  C   UNL     1      13.716  33.528  20.663  1.00  0.00    -0.080 C 
ATOM      8  C   UNL     1      12.963  33.948  19.426  1.00  0.00     0.039 C 
ENDBRANCH   4   5
ENDBRANCH   1   4
BRANCH   2   9
ATOM      9  C   UNL     1       9.823  33.630  25.359  1.00  0.00    -0.005 C 
ATOM     10  C   UNL     1      10.412  32.728  26.143  1.00  0.00     0.009 C 
ENDBRANCH   2   9
TORSDOF 3
ENDMDL
MODEL 8
REMARK VINA RESULT:    -5.016      6.517      7.804
REMARK INTER + INTRA:          -6.111
REMARK INTER:                  -5.910
REMARK INTRA:                  -0.202
REMARK UNBOUND:                -0.216
REMARK SMILES C=CC(C)=CCC=C(C)C
REMARK SMILES IDX 5 1 3 2 4 3 6 4 7 5 9 6 8 7 10 8 2 9 1 10
REMARK H PARENT
REMARK Flexibility Score: inf
ROOT
ATOM      1  C   UNL     1      12.821  33.133  22.128  1.00  0.00    -0.020 C 
ATOM      2  C   UNL     1      13.340  33.463  20.928  1.00  0.00    -0.055 C 
ATOM      3  C   UNL     1      12.472  33.912  19.774  1.00  0.00     0.044 C 
ENDROOT
BRANCH   1   4
ATOM      4  C   UNL     1      11.353  33.136  22.466  1.00  0.00     0.055 C 
BRANCH   4   5
ATOM      5  C   UNL     1      11.092  32.564  23.838  1.00  0.00    -0.024 C 
ATOM      6  C   UNL     1      10.117  32.481  26.111  1.00  0.00     0.039 C 
ATOM      7  C   UNL     1      10.335  33.162  24.785  1.00  0.00    -0.080 C 
ATOM      8  C   UNL     1       9.644  34.481  24.544  1.00  0.00     0.039 C 
ENDBRANCH   4   5
ENDBRANCH   1   4
BRANCH   2   9
ATOM      9  C   UNL     1      14.820  33.453  20.788  1.00  0.00    -0.005 C 
ATOM     10  C   UNL     1      15.470  34.034  19.779  1.00  0.00     0.009 C 
ENDBRANCH   2   9
TORSDOF 3
ENDMDL
MODEL 9
REMARK VINA RESULT:    -4.930      7.223      9.225
REMARK INTER + INTRA:          -6.010
REMARK INTER:                  -5.549
REMARK INTRA:                  -0.461
REMARK UNBOUND:                -0.216
REMARK SMILES C=CC(C)=CCC=C(C)C
REMARK SMILES IDX 5 1 3 2 4 3 6 4 7 5 9 6 8 7 10 8 2 9 1 10
REMARK H PARENT
REMARK Flexibility Score: inf
ROOT
ATOM      1  C   UNL     1       8.205  33.050  24.082  1.00  0.00    -0.020 C 
ATOM      2  C   UNL     1       8.410  32.217  25.123  1.00  0.00    -0.055 C 
ATOM      3  C   UNL     1       9.581  32.384  26.065  1.00  0.00     0.044 C 
ENDROOT
BRANCH   1   4
ATOM      4  C   UNL     1       9.100  34.202  23.706  1.00  0.00     0.055 C 
BRANCH   4   5
ATOM      5  C   UNL     1       9.573  34.102  22.276  1.00  0.00    -0.024 C 
ATOM      6  C   UNL     1      11.081  33.439  20.429  1.00  0.00     0.039 C 
ATOM      7  C   UNL     1      10.725  33.507  21.892  1.00  0.00    -0.080 C 
ATOM      8  C   UNL     1      11.657  32.852  22.879  1.00  0.00     0.039 C 
ENDBRANCH   4   5
ENDBRANCH   1   4
BRANCH   2   9
ATOM      9  C   UNL     1       7.393  31.163  25.376  1.00  0.00    -0.005 C 
ATOM     10  C   UNL     1       7.012  30.269  24.464  1.00  0.00     0.009 C 
ENDBRANCH   2   9
TORSDOF 3
ENDMDL
