MODEL 1
REMARK VINA RESULT:    -4.251      0.000      0.000
REMARK INTER + INTRA:         -12.491
REMARK INTER:                  -9.717
REMARK INTRA:                  -2.774
REMARK UNBOUND:                -2.774
REMARK SMILES CCCCCCCCCCCCCCCCCCCCCCCC(=O)[O-]
REMARK SMILES IDX 13 1 14 2 15 3 16 4 17 5 18 6 19 7 20 8 21 9 22 10 23 11
REMARK SMILES IDX 24 12 25 13 26 14 12 15 11 16 10 17 9 18 8 19 7 20 6 21 5 22
REMARK SMILES IDX 4 23 3 24 2 25 1 26
REMARK H PARENT
REMARK Flexibility Score: inf
ROOT
ATOM      1  C   UNL     1       2.001 -34.009  23.342  1.00  0.00     0.000 C 
ENDROOT
BRANCH   1   2
ATOM      2  C   UNL     1       1.788 -32.780  24.245  1.00  0.00     0.000 C 
BRANCH   2   3
ATOM      3  C   UNL     1       0.375 -32.164  24.185  1.00  0.00     0.000 C 
BRANCH   3   4
ATOM      4  C   UNL     1      -0.678 -33.016  23.449  1.00  0.00     0.000 C 
BRANCH   4   5
ATOM      5  C   UNL     1      -2.138 -32.746  23.863  1.00  0.00     0.000 C 
BRANCH   5   6
ATOM      6  C   UNL     1      -3.160 -33.790  23.372  1.00  0.00     0.000 C 
BRANCH   6   7
ATOM      7  C   UNL     1      -2.554 -35.087  22.804  1.00  0.00     0.000 C 
BRANCH   7   8
ATOM      8  C   UNL     1      -3.560 -35.905  21.978  1.00  0.00     0.000 C 
BRANCH   8   9
ATOM      9  C   UNL     1      -2.975 -37.235  21.466  1.00  0.00     0.000 C 
BRANCH   9  10
ATOM     10  C   UNL     1      -3.908 -38.057  20.555  1.00  0.00     0.006 C 
BRANCH  10  11
ATOM     11  C   UNL     1      -3.470 -38.124  19.084  1.00  0.00     0.053 C 
BRANCH  11  12
ATOM     12  C   UNL     1      -4.330 -37.270  18.204  1.00  0.00     0.041 C 
ATOM     13  O   UNL     1      -4.986 -37.789  17.263  1.00  0.00    -0.550 OA
ATOM     14  O   UNL     1      -4.381 -35.895  18.402  1.00  0.00    -0.550 OA
ENDBRANCH  11  12
ENDBRANCH  10  11
ENDBRANCH   9  10
ENDBRANCH   8   9
ENDBRANCH   7   8
ENDBRANCH   6   7
ENDBRANCH   5   6
ENDBRANCH   4   5
ENDBRANCH   3   4
ENDBRANCH   2   3
ENDBRANCH   1   2
BRANCH   1  15
ATOM     15  C   UNL     1       3.299 -34.793  23.610  1.00  0.00     0.000 C 
BRANCH  15  16
ATOM     16  C   UNL     1       3.864 -35.503  22.361  1.00  0.00     0.000 C 
BRANCH  16  17
ATOM     17  C   UNL     1       4.121 -37.001  22.602  1.00  0.00     0.000 C 
BRANCH  17  18
ATOM     18  C   UNL     1       4.257 -37.793  21.292  1.00  0.00    -0.000 C 
BRANCH  18  19
ATOM     19  C   UNL     1       5.622 -37.583  20.612  1.00  0.00    -0.000 C 
BRANCH  19  20
ATOM     20  C   UNL     1       5.497 -37.426  19.081  1.00  0.00    -0.000 C 
BRANCH  20  21
ATOM     21  C   UNL     1       4.456 -36.375  18.649  1.00  0.00    -0.000 C 
BRANCH  21  22
ATOM     22  C   UNL     1       3.270 -36.927  17.835  1.00  0.00    -0.000 C 
BRANCH  22  23
ATOM     23  C   UNL     1       1.910 -36.889  18.558  1.00  0.00    -0.000 C 
BRANCH  23  24
ATOM     24  C   UNL     1       1.833 -35.788  19.629  1.00  0.00    -0.000 C 
BRANCH  24  25
ATOM     25  C   UNL     1       0.508 -35.816  20.406  1.00  0.00    -0.003 C 
ATOM     26  C   UNL     1       0.475 -36.900  21.484  1.00  0.00     0.004 C 
ENDBRANCH  24  25
ENDBRANCH  23  24
ENDBRANCH  22  23
ENDBRANCH  21  22
ENDBRANCH  20  21
ENDBRANCH  19  20
ENDBRANCH  18  19
ENDBRANCH  17  18
ENDBRANCH  16  17
ENDBRANCH  15  16
ENDBRANCH   1  15
TORSDOF 22
ENDMDL
MODEL 2
REMARK VINA RESULT:    -4.027     20.883     23.391
REMARK INTER + INTRA:         -11.980
REMARK INTER:                  -9.300
REMARK INTRA:                  -2.680
REMARK UNBOUND:                -2.774
REMARK SMILES CCCCCCCCCCCCCCCCCCCCCCCC(=O)[O-]
REMARK SMILES IDX 13 1 14 2 15 3 16 4 17 5 18 6 19 7 20 8 21 9 22 10 23 11
REMARK SMILES IDX 24 12 25 13 26 14 12 15 11 16 10 17 9 18 8 19 7 20 6 21 5 22
REMARK SMILES IDX 4 23 3 24 2 25 1 26
REMARK H PARENT
REMARK Flexibility Score: inf
ROOT
ATOM      1  C   UNL     1     -12.508 -21.917  34.919  1.00  0.00     0.000 C 
ENDROOT
BRANCH   1   2
ATOM      2  C   UNL     1     -11.702 -23.191  35.230  1.00  0.00     0.000 C 
BRANCH   2   3
ATOM      3  C   UNL     1     -10.191 -22.970  35.448  1.00  0.00     0.000 C 
BRANCH   3   4
ATOM      4  C   UNL     1      -9.502 -22.084  34.391  1.00  0.00     0.000 C 
BRANCH   4   5
ATOM      5  C   UNL     1      -8.153 -21.479  34.829  1.00  0.00     0.000 C 
BRANCH   5   6
ATOM      6  C   UNL     1      -7.247 -21.002  33.677  1.00  0.00     0.000 C 
BRANCH   6   7
ATOM      7  C   UNL     1      -7.525 -19.575  33.170  1.00  0.00     0.000 C 
BRANCH   7   8
ATOM      8  C   UNL     1      -6.328 -18.961  32.426  1.00  0.00     0.000 C 
BRANCH   8   9
ATOM      9  C   UNL     1      -4.971 -19.470  32.949  1.00  0.00     0.000 C 
BRANCH   9  10
ATOM     10  C   UNL     1      -4.343 -18.628  34.078  1.00  0.00     0.006 C 
BRANCH  10  11
ATOM     11  C   UNL     1      -4.516 -19.216  35.486  1.00  0.00     0.053 C 
BRANCH  11  12
ATOM     12  C   UNL     1      -3.779 -20.510  35.648  1.00  0.00     0.041 C 
ATOM     13  O   UNL     1      -2.531 -20.512  35.819  1.00  0.00    -0.550 OA
ATOM     14  O   UNL     1      -4.465 -21.716  35.576  1.00  0.00    -0.550 OA
ENDBRANCH  11  12
ENDBRANCH  10  11
ENDBRANCH   9  10
ENDBRANCH   8   9
ENDBRANCH   7   8
ENDBRANCH   6   7
ENDBRANCH   5   6
ENDBRANCH   4   5
ENDBRANCH   3   4
ENDBRANCH   2   3
ENDBRANCH   1   2
BRANCH   1  15
ATOM     15  C   UNL     1     -12.723 -20.976  36.119  1.00  0.00     0.000 C 
BRANCH  15  16
ATOM     16  C   UNL     1     -11.782 -19.753  36.124  1.00  0.00     0.000 C 
BRANCH  16  17
ATOM     17  C   UNL     1     -12.459 -18.487  35.570  1.00  0.00     0.000 C 
BRANCH  17  18
ATOM     18  C   UNL     1     -11.748 -17.935  34.324  1.00  0.00    -0.000 C 
BRANCH  18  19
ATOM     19  C   UNL     1     -12.629 -17.996  33.064  1.00  0.00    -0.000 C 
BRANCH  19  20
ATOM     20  C   UNL     1     -12.900 -19.445  32.606  1.00  0.00    -0.000 C 
BRANCH  20  21
ATOM     21  C   UNL     1     -11.672 -20.138  31.986  1.00  0.00    -0.000 C 
BRANCH  21  22
ATOM     22  C   UNL     1     -11.181 -19.533  30.656  1.00  0.00    -0.000 C 
BRANCH  22  23
ATOM     23  C   UNL     1      -9.811 -18.832  30.726  1.00  0.00    -0.000 C 
BRANCH  23  24
ATOM     24  C   UNL     1      -9.083 -18.807  29.371  1.00  0.00    -0.000 C 
BRANCH  24  25
ATOM     25  C   UNL     1      -9.784 -19.671  28.311  1.00  0.00    -0.003 C 
ATOM     26  C   UNL     1      -9.793 -19.021  26.927  1.00  0.00     0.004 C 
ENDBRANCH  24  25
ENDBRANCH  23  24
ENDBRANCH  22  23
ENDBRANCH  21  22
ENDBRANCH  20  21
ENDBRANCH  19  20
ENDBRANCH  18  19
ENDBRANCH  17  18
ENDBRANCH  16  17
ENDBRANCH  15  16
ENDBRANCH   1  15
TORSDOF 22
ENDMDL
MODEL 3
REMARK VINA RESULT:    -3.622     21.210     23.583
REMARK INTER + INTRA:         -11.054
REMARK INTER:                  -9.296
REMARK INTRA:                  -1.758
REMARK UNBOUND:                -2.774
REMARK SMILES CCCCCCCCCCCCCCCCCCCCCCCC(=O)[O-]
REMARK SMILES IDX 13 1 14 2 15 3 16 4 17 5 18 6 19 7 20 8 21 9 22 10 23 11
REMARK SMILES IDX 24 12 25 13 26 14 12 15 11 16 10 17 9 18 8 19 7 20 6 21 5 22
REMARK SMILES IDX 4 23 3 24 2 25 1 26
REMARK H PARENT
REMARK Flexibility Score: inf
ROOT
ATOM      1  C   UNL     1      -9.754 -21.872  34.004  1.00  0.00     0.000 C 
ENDROOT
BRANCH   1   2
ATOM      2  C   UNL     1      -8.969 -20.548  34.000  1.00  0.00     0.000 C 
BRANCH   2   3
ATOM      3  C   UNL     1      -9.837 -19.275  34.084  1.00  0.00     0.000 C 
BRANCH   3   4
ATOM      4  C   UNL     1      -9.241 -18.032  33.395  1.00  0.00     0.000 C 
BRANCH   4   5
ATOM      5  C   UNL     1      -7.703 -17.934  33.447  1.00  0.00     0.000 C 
BRANCH   5   6
ATOM      6  C   UNL     1      -6.975 -18.406  32.173  1.00  0.00     0.000 C 
BRANCH   6   7
ATOM      7  C   UNL     1      -5.693 -19.224  32.414  1.00  0.00     0.000 C 
BRANCH   7   8
ATOM      8  C   UNL     1      -5.777 -20.112  33.666  1.00  0.00     0.000 C 
BRANCH   8   9
ATOM      9  C   UNL     1      -5.352 -19.379  34.951  1.00  0.00     0.000 C 
BRANCH   9  10
ATOM     10  C   UNL     1      -4.668 -20.259  36.017  1.00  0.00     0.006 C 
BRANCH  10  11
ATOM     11  C   UNL     1      -3.454 -21.051  35.509  1.00  0.00     0.053 C 
BRANCH  11  12
ATOM     12  C   UNL     1      -2.434 -20.162  34.866  1.00  0.00     0.041 C 
ATOM     13  O   UNL     1      -1.268 -20.585  34.654  1.00  0.00    -0.550 OA
ATOM     14  O   UNL     1      -2.763 -18.854  34.530  1.00  0.00    -0.550 OA
ENDBRANCH  11  12
ENDBRANCH  10  11
ENDBRANCH   9  10
ENDBRANCH   8   9
ENDBRANCH   7   8
ENDBRANCH   6   7
ENDBRANCH   5   6
ENDBRANCH   4   5
ENDBRANCH   3   4
ENDBRANCH   2   3
ENDBRANCH   1   2
BRANCH   1  15
ATOM     15  C   UNL     1      -9.795 -22.599  35.361  1.00  0.00     0.000 C 
BRANCH  15  16
ATOM     16  C   UNL     1     -11.224 -22.904  35.859  1.00  0.00     0.000 C 
BRANCH  16  17
ATOM     17  C   UNL     1     -12.299 -22.136  35.068  1.00  0.00     0.000 C 
BRANCH  17  18
ATOM     18  C   UNL     1     -13.090 -21.156  35.949  1.00  0.00    -0.000 C 
BRANCH  18  19
ATOM     19  C   UNL     1     -12.596 -19.705  35.814  1.00  0.00    -0.000 C 
BRANCH  19  20
ATOM     20  C   UNL     1     -13.599 -18.811  35.055  1.00  0.00    -0.000 C 
BRANCH  20  21
ATOM     21  C   UNL     1     -13.894 -19.290  33.621  1.00  0.00    -0.000 C 
BRANCH  21  22
ATOM     22  C   UNL     1     -12.762 -19.045  32.604  1.00  0.00    -0.000 C 
BRANCH  22  23
ATOM     23  C   UNL     1     -12.522 -20.194  31.606  1.00  0.00    -0.000 C 
BRANCH  23  24
ATOM     24  C   UNL     1     -11.109 -20.174  30.999  1.00  0.00    -0.000 C 
BRANCH  24  25
ATOM     25  C   UNL     1     -10.865 -18.938  30.120  1.00  0.00    -0.003 C 
ATOM     26  C   UNL     1      -9.454 -18.898  29.532  1.00  0.00     0.004 C 
ENDBRANCH  24  25
ENDBRANCH  23  24
ENDBRANCH  22  23
ENDBRANCH  21  22
ENDBRANCH  20  21
ENDBRANCH  19  20
ENDBRANCH  18  19
ENDBRANCH  17  18
ENDBRANCH  16  17
ENDBRANCH  15  16
ENDBRANCH   1  15
TORSDOF 22
ENDMDL
MODEL 4
REMARK VINA RESULT:    -3.422     20.684     23.293
REMARK INTER + INTRA:         -10.597
REMARK INTER:                  -8.468
REMARK INTRA:                  -2.129
REMARK UNBOUND:                -2.774
REMARK SMILES CCCCCCCCCCCCCCCCCCCCCCCC(=O)[O-]
REMARK SMILES IDX 13 1 14 2 15 3 16 4 17 5 18 6 19 7 20 8 21 9 22 10 23 11
REMARK SMILES IDX 24 12 25 13 26 14 12 15 11 16 10 17 9 18 8 19 7 20 6 21 5 22
REMARK SMILES IDX 4 23 3 24 2 25 1 26
REMARK H PARENT
REMARK Flexibility Score: inf
ROOT
ATOM      1  C   UNL     1      -7.183 -19.385  31.600  1.00  0.00     0.000 C 
ENDROOT
BRANCH   1   2
ATOM      2  C   UNL     1      -5.991 -18.925  32.458  1.00  0.00     0.000 C 
BRANCH   2   3
ATOM      3  C   UNL     1      -6.370 -18.189  33.760  1.00  0.00     0.000 C 
BRANCH   3   4
ATOM      4  C   UNL     1      -5.240 -18.082  34.803  1.00  0.00     0.000 C 
BRANCH   4   5
ATOM      5  C   UNL     1      -3.821 -18.318  34.250  1.00  0.00     0.000 C 
BRANCH   5   6
ATOM      6  C   UNL     1      -3.197 -19.680  34.611  1.00  0.00     0.000 C 
BRANCH   6   7
ATOM      7  C   UNL     1      -3.600 -20.244  35.986  1.00  0.00     0.000 C 
BRANCH   7   8
ATOM      8  C   UNL     1      -5.068 -20.698  36.038  1.00  0.00     0.000 C 
BRANCH   8   9
ATOM      9  C   UNL     1      -5.292 -22.081  35.399  1.00  0.00     0.000 C 
BRANCH   9  10
ATOM     10  C   UNL     1      -6.481 -22.170  34.421  1.00  0.00     0.006 C 
BRANCH  10  11
ATOM     11  C   UNL     1      -7.801 -21.603  34.965  1.00  0.00     0.053 C 
BRANCH  11  12
ATOM     12  C   UNL     1      -8.748 -21.235  33.864  1.00  0.00     0.041 C 
ATOM     13  O   UNL     1      -9.375 -20.144  33.905  1.00  0.00    -0.550 OA
ATOM     14  O   UNL     1      -8.964 -22.112  32.808  1.00  0.00    -0.550 OA
ENDBRANCH  11  12
ENDBRANCH  10  11
ENDBRANCH   9  10
ENDBRANCH   8   9
ENDBRANCH   7   8
ENDBRANCH   6   7
ENDBRANCH   5   6
ENDBRANCH   4   5
ENDBRANCH   3   4
ENDBRANCH   2   3
ENDBRANCH   1   2
BRANCH   1  15
ATOM     15  C   UNL     1      -8.049 -18.248  31.028  1.00  0.00     0.000 C 
BRANCH  15  16
ATOM     16  C   UNL     1      -9.191 -18.737  30.111  1.00  0.00     0.000 C 
BRANCH  16  17
ATOM     17  C   UNL     1     -10.569 -18.648  30.790  1.00  0.00     0.000 C 
BRANCH  17  18
ATOM     18  C   UNL     1     -11.350 -19.970  30.713  1.00  0.00    -0.000 C 
BRANCH  18  19
ATOM     19  C   UNL     1     -11.951 -20.383  32.067  1.00  0.00    -0.000 C 
BRANCH  19  20
ATOM     20  C   UNL     1     -13.103 -19.455  32.507  1.00  0.00    -0.000 C 
BRANCH  20  21
ATOM     21  C   UNL     1     -12.828 -18.708  33.827  1.00  0.00    -0.000 C 
BRANCH  21  22
ATOM     22  C   UNL     1     -13.955 -18.794  34.874  1.00  0.00    -0.000 C 
BRANCH  22  23
ATOM     23  C   UNL     1     -13.620 -19.631  36.124  1.00  0.00    -0.000 C 
BRANCH  23  24
ATOM     24  C   UNL     1     -12.316 -20.434  35.974  1.00  0.00    -0.000 C 
BRANCH  24  25
ATOM     25  C   UNL     1     -12.568 -21.890  35.555  1.00  0.00    -0.003 C 
ATOM     26  C   UNL     1     -11.390 -22.811  35.872  1.00  0.00     0.004 C 
ENDBRANCH  24  25
ENDBRANCH  23  24
ENDBRANCH  22  23
ENDBRANCH  21  22
ENDBRANCH  20  21
ENDBRANCH  19  20
ENDBRANCH  18  19
ENDBRANCH  17  18
ENDBRANCH  16  17
ENDBRANCH  15  16
ENDBRANCH   1  15
TORSDOF 22
ENDMDL
MODEL 5
REMARK VINA RESULT:    -3.277      1.239      2.288
REMARK INTER + INTRA:         -10.266
REMARK INTER:                  -8.268
REMARK INTRA:                  -1.998
REMARK UNBOUND:                -2.774
REMARK SMILES CCCCCCCCCCCCCCCCCCCCCCCC(=O)[O-]
REMARK SMILES IDX 13 1 14 2 15 3 16 4 17 5 18 6 19 7 20 8 21 9 22 10 23 11
REMARK SMILES IDX 24 12 25 13 26 14 12 15 11 16 10 17 9 18 8 19 7 20 6 21 5 22
REMARK SMILES IDX 4 23 3 24 2 25 1 26
REMARK H PARENT
REMARK Flexibility Score: inf
ROOT
ATOM      1  C   UNL     1       1.448 -33.577  23.608  1.00  0.00     0.000 C 
ENDROOT
BRANCH   1   2
ATOM      2  C   UNL     1       1.496 -32.232  24.355  1.00  0.00     0.000 C 
BRANCH   2   3
ATOM      3  C   UNL     1       0.119 -31.641  24.724  1.00  0.00     0.000 C 
BRANCH   3   4
ATOM      4  C   UNL     1      -1.007 -31.927  23.711  1.00  0.00     0.000 C 
BRANCH   4   5
ATOM      5  C   UNL     1      -2.215 -32.696  24.282  1.00  0.00     0.000 C 
BRANCH   5   6
ATOM      6  C   UNL     1      -2.678 -33.902  23.442  1.00  0.00     0.000 C 
BRANCH   6   7
ATOM      7  C   UNL     1      -1.666 -34.402  22.395  1.00  0.00     0.000 C 
BRANCH   7   8
ATOM      8  C   UNL     1      -2.185 -35.602  21.587  1.00  0.00     0.000 C 
BRANCH   8   9
ATOM      9  C   UNL     1      -1.163 -36.751  21.494  1.00  0.00     0.000 C 
BRANCH   9  10
ATOM     10  C   UNL     1      -1.733 -38.103  21.021  1.00  0.00     0.006 C 
BRANCH  10  11
ATOM     11  C   UNL     1      -2.415 -38.064  19.645  1.00  0.00     0.053 C 
BRANCH  11  12
ATOM     12  C   UNL     1      -3.887 -37.808  19.756  1.00  0.00     0.041 C 
ATOM     13  O   UNL     1      -4.513 -37.282  18.799  1.00  0.00    -0.550 OA
ATOM     14  O   UNL     1      -4.561 -38.119  20.931  1.00  0.00    -0.550 OA
ENDBRANCH  11  12
ENDBRANCH  10  11
ENDBRANCH   9  10
ENDBRANCH   8   9
ENDBRANCH   7   8
ENDBRANCH   6   7
ENDBRANCH   5   6
ENDBRANCH   4   5
ENDBRANCH   3   4
ENDBRANCH   2   3
ENDBRANCH   1   2
BRANCH   1  15
ATOM     15  C   UNL     1       2.730 -34.424  23.711  1.00  0.00     0.000 C 
BRANCH  15  16
ATOM     16  C   UNL     1       3.215 -34.983  22.357  1.00  0.00     0.000 C 
BRANCH  16  17
ATOM     17  C   UNL     1       2.326 -36.130  21.843  1.00  0.00     0.000 C 
BRANCH  17  18
ATOM     18  C   UNL     1       2.921 -37.516  22.143  1.00  0.00    -0.000 C 
BRANCH  18  19
ATOM     19  C   UNL     1       4.069 -37.459  23.166  1.00  0.00    -0.000 C 
BRANCH  19  20
ATOM     20  C   UNL     1       5.391 -38.018  22.597  1.00  0.00    -0.000 C 
BRANCH  20  21
ATOM     21  C   UNL     1       5.904 -37.256  21.360  1.00  0.00    -0.000 C 
BRANCH  21  22
ATOM     22  C   UNL     1       5.645 -37.952  20.010  1.00  0.00    -0.000 C 
BRANCH  22  23
ATOM     23  C   UNL     1       5.793 -37.047  18.772  1.00  0.00    -0.000 C 
BRANCH  23  24
ATOM     24  C   UNL     1       4.441 -36.662  18.148  1.00  0.00    -0.000 C 
BRANCH  24  25
ATOM     25  C   UNL     1       3.269 -37.447  18.755  1.00  0.00    -0.003 C 
ATOM     26  C   UNL     1       1.909 -36.983  18.232  1.00  0.00     0.004 C 
ENDBRANCH  24  25
ENDBRANCH  23  24
ENDBRANCH  22  23
ENDBRANCH  21  22
ENDBRANCH  20  21
ENDBRANCH  19  20
ENDBRANCH  18  19
ENDBRANCH  17  18
ENDBRANCH  16  17
ENDBRANCH  15  16
ENDBRANCH   1  15
TORSDOF 22
ENDMDL
MODEL 6
REMARK VINA RESULT:    -3.262      1.804      5.895
REMARK INTER + INTRA:         -10.232
REMARK INTER:                  -8.237
REMARK INTRA:                  -1.995
REMARK UNBOUND:                -2.774
REMARK SMILES CCCCCCCCCCCCCCCCCCCCCCCC(=O)[O-]
REMARK SMILES IDX 13 1 14 2 15 3 16 4 17 5 18 6 19 7 20 8 21 9 22 10 23 11
REMARK SMILES IDX 24 12 25 13 26 14 12 15 11 16 10 17 9 18 8 19 7 20 6 21 5 22
REMARK SMILES IDX 4 23 3 24 2 25 1 26
REMARK H PARENT
REMARK Flexibility Score: inf
ROOT
ATOM      1  C   UNL     1       6.050 -37.646  20.379  1.00  0.00     0.000 C 
ENDROOT
BRANCH   1   2
ATOM      2  C   UNL     1       5.315 -36.761  19.356  1.00  0.00     0.000 C 
BRANCH   2   3
ATOM      3  C   UNL     1       4.481 -37.528  18.310  1.00  0.00     0.000 C 
BRANCH   3   4
ATOM      4  C   UNL     1       3.246 -36.774  17.778  1.00  0.00     0.000 C 
BRANCH   4   5
ATOM      5  C   UNL     1       1.889 -37.358  18.219  1.00  0.00     0.000 C 
BRANCH   5   6
ATOM      6  C   UNL     1       1.564 -37.198  19.717  1.00  0.00     0.000 C 
BRANCH   6   7
ATOM      7  C   UNL     1       0.910 -35.860  20.108  1.00  0.00     0.000 C 
BRANCH   7   8
ATOM      8  C   UNL     1      -0.225 -36.026  21.132  1.00  0.00     0.000 C 
BRANCH   8   9
ATOM      9  C   UNL     1      -0.666 -37.490  21.306  1.00  0.00     0.000 C 
BRANCH   9  10
ATOM     10  C   UNL     1      -2.154 -37.769  21.012  1.00  0.00     0.006 C 
BRANCH  10  11
ATOM     11  C   UNL     1      -3.010 -36.513  20.795  1.00  0.00     0.053 C 
BRANCH  11  12
ATOM     12  C   UNL     1      -3.589 -36.001  22.078  1.00  0.00     0.041 C 
ATOM     13  O   UNL     1      -4.710 -36.411  22.476  1.00  0.00    -0.550 OA
ATOM     14  O   UNL     1      -2.903 -35.045  22.819  1.00  0.00    -0.550 OA
ENDBRANCH  11  12
ENDBRANCH  10  11
ENDBRANCH   9  10
ENDBRANCH   8   9
ENDBRANCH   7   8
ENDBRANCH   6   7
ENDBRANCH   5   6
ENDBRANCH   4   5
ENDBRANCH   3   4
ENDBRANCH   2   3
ENDBRANCH   1   2
BRANCH   1  15
ATOM     15  C   UNL     1       5.912 -37.196  21.846  1.00  0.00     0.000 C 
BRANCH  15  16
ATOM     16  C   UNL     1       4.751 -37.879  22.598  1.00  0.00     0.000 C 
BRANCH  16  17
ATOM     17  C   UNL     1       3.464 -37.034  22.586  1.00  0.00     0.000 C 
BRANCH  17  18
ATOM     18  C   UNL     1       3.731 -35.550  22.884  1.00  0.00    -0.000 C 
BRANCH  18  19
ATOM     19  C   UNL     1       2.440 -34.715  22.939  1.00  0.00    -0.000 C 
BRANCH  19  20
ATOM     20  C   UNL     1       2.584 -33.468  23.838  1.00  0.00    -0.000 C 
BRANCH  20  21
ATOM     21  C   UNL     1       1.263 -33.020  24.493  1.00  0.00    -0.000 C 
BRANCH  21  22
ATOM     22  C   UNL     1       0.968 -31.511  24.404  1.00  0.00    -0.000 C 
BRANCH  22  23
ATOM     23  C   UNL     1      -0.475 -31.151  24.002  1.00  0.00    -0.000 C 
BRANCH  23  24
ATOM     24  C   UNL     1      -1.387 -32.384  23.884  1.00  0.00    -0.000 C 
BRANCH  24  25
ATOM     25  C   UNL     1      -2.736 -32.187  24.593  1.00  0.00    -0.003 C 
ATOM     26  C   UNL     1      -3.630 -31.164  23.892  1.00  0.00     0.004 C 
ENDBRANCH  24  25
ENDBRANCH  23  24
ENDBRANCH  22  23
ENDBRANCH  21  22
ENDBRANCH  20  21
ENDBRANCH  19  20
ENDBRANCH  18  19
ENDBRANCH  17  18
ENDBRANCH  16  17
ENDBRANCH  15  16
ENDBRANCH   1  15
TORSDOF 22
ENDMDL
MODEL 7
REMARK VINA RESULT:    -3.258      2.935      8.141
REMARK INTER + INTRA:         -10.222
REMARK INTER:                  -9.088
REMARK INTRA:                  -1.134
REMARK UNBOUND:                -2.774
REMARK SMILES CCCCCCCCCCCCCCCCCCCCCCCC(=O)[O-]
REMARK SMILES IDX 13 1 14 2 15 3 16 4 17 5 18 6 19 7 20 8 21 9 22 10 23 11
REMARK SMILES IDX 24 12 25 13 26 14 12 15 11 16 10 17 9 18 8 19 7 20 6 21 5 22
REMARK SMILES IDX 4 23 3 24 2 25 1 26
REMARK H PARENT
REMARK Flexibility Score: inf
ROOT
ATOM      1  C   UNL     1       0.143 -35.758  20.847  1.00  0.00     0.000 C 
ENDROOT
BRANCH   1   2
ATOM      2  C   UNL     1       1.562 -35.915  20.272  1.00  0.00     0.000 C 
BRANCH   2   3
ATOM      3  C   UNL     1       1.919 -37.338  19.796  1.00  0.00     0.000 C 
BRANCH   3   4
ATOM      4  C   UNL     1       2.057 -37.500  18.269  1.00  0.00     0.000 C 
BRANCH   4   5
ATOM      5  C   UNL     1       3.507 -37.517  17.746  1.00  0.00     0.000 C 
BRANCH   5   6
ATOM      6  C   UNL     1       4.398 -36.364  18.248  1.00  0.00     0.000 C 
BRANCH   6   7
ATOM      7  C   UNL     1       5.757 -36.789  18.834  1.00  0.00     0.000 C 
BRANCH   7   8
ATOM      8  C   UNL     1       5.689 -38.125  19.592  1.00  0.00     0.000 C 
BRANCH   8   9
ATOM      9  C   UNL     1       5.231 -37.963  21.053  1.00  0.00     0.000 C 
BRANCH   9  10
ATOM     10  C   UNL     1       5.889 -36.803  21.826  1.00  0.00     0.006 C 
BRANCH  10  11
ATOM     11  C   UNL     1       4.934 -35.660  22.201  1.00  0.00     0.053 C 
BRANCH  11  12
ATOM     12  C   UNL     1       3.796 -36.137  23.050  1.00  0.00     0.041 C 
ATOM     13  O   UNL     1       3.063 -35.309  23.652  1.00  0.00    -0.550 OA
ATOM     14  O   UNL     1       3.565 -37.499  23.204  1.00  0.00    -0.550 OA
ENDBRANCH  11  12
ENDBRANCH  10  11
ENDBRANCH   9  10
ENDBRANCH   8   9
ENDBRANCH   7   8
ENDBRANCH   6   7
ENDBRANCH   5   6
ENDBRANCH   4   5
ENDBRANCH   3   4
ENDBRANCH   2   3
ENDBRANCH   1   2
BRANCH   1  15
ATOM     15  C   UNL     1      -0.420 -37.012  21.540  1.00  0.00     0.000 C 
BRANCH  15  16
ATOM     16  C   UNL     1      -0.872 -38.114  20.558  1.00  0.00     0.000 C 
BRANCH  16  17
ATOM     17  C   UNL     1      -2.377 -38.041  20.245  1.00  0.00     0.000 C 
BRANCH  17  18
ATOM     18  C   UNL     1      -2.987 -36.675  20.596  1.00  0.00    -0.000 C 
BRANCH  18  19
ATOM     19  C   UNL     1      -3.978 -36.753  21.770  1.00  0.00    -0.000 C 
BRANCH  19  20
ATOM     20  C   UNL     1      -3.953 -35.482  22.647  1.00  0.00    -0.000 C 
BRANCH  20  21
ATOM     21  C   UNL     1      -2.539 -35.065  23.093  1.00  0.00    -0.000 C 
BRANCH  21  22
ATOM     22  C   UNL     1      -2.228 -33.562  22.959  1.00  0.00    -0.000 C 
BRANCH  22  23
ATOM     23  C   UNL     1      -1.714 -32.886  24.245  1.00  0.00    -0.000 C 
BRANCH  23  24
ATOM     24  C   UNL     1      -1.105 -31.497  23.988  1.00  0.00    -0.000 C 
BRANCH  24  25
ATOM     25  C   UNL     1       0.270 -31.326  24.651  1.00  0.00    -0.003 C 
ATOM     26  C   UNL     1       1.234 -32.466  24.322  1.00  0.00     0.004 C 
ENDBRANCH  24  25
ENDBRANCH  23  24
ENDBRANCH  22  23
ENDBRANCH  21  22
ENDBRANCH  20  21
ENDBRANCH  19  20
ENDBRANCH  18  19
ENDBRANCH  17  18
ENDBRANCH  16  17
ENDBRANCH  15  16
ENDBRANCH   1  15
TORSDOF 22
ENDMDL
MODEL 8
REMARK VINA RESULT:    -3.217      1.017      3.219
REMARK INTER + INTRA:         -10.129
REMARK INTER:                  -7.575
REMARK INTRA:                  -2.554
REMARK UNBOUND:                -2.774
REMARK SMILES CCCCCCCCCCCCCCCCCCCCCCCC(=O)[O-]
REMARK SMILES IDX 13 1 14 2 15 3 16 4 17 5 18 6 19 7 20 8 21 9 22 10 23 11
REMARK SMILES IDX 24 12 25 13 26 14 12 15 11 16 10 17 9 18 8 19 7 20 6 21 5 22
REMARK SMILES IDX 4 23 3 24 2 25 1 26
REMARK H PARENT
REMARK Flexibility Score: inf
ROOT
ATOM      1  C   UNL     1      -1.033 -31.559  24.405  1.00  0.00     0.000 C 
ENDROOT
BRANCH   1   2
ATOM      2  C   UNL     1      -1.680 -32.955  24.475  1.00  0.00     0.000 C 
BRANCH   2   3
ATOM      3  C   UNL     1      -2.436 -33.387  23.202  1.00  0.00     0.000 C 
BRANCH   3   4
ATOM      4  C   UNL     1      -2.012 -34.750  22.621  1.00  0.00     0.000 C 
BRANCH   4   5
ATOM      5  C   UNL     1      -0.670 -34.744  21.863  1.00  0.00     0.000 C 
BRANCH   5   6
ATOM      6  C   UNL     1      -0.411 -35.982  20.981  1.00  0.00     0.000 C 
BRANCH   6   7
ATOM      7  C   UNL     1      -0.487 -37.336  21.711  1.00  0.00     0.000 C 
BRANCH   7   8
ATOM      8  C   UNL     1      -1.829 -38.054  21.500  1.00  0.00     0.000 C 
BRANCH   8   9
ATOM      9  C   UNL     1      -2.247 -38.125  20.020  1.00  0.00     0.000 C 
BRANCH   9  10
ATOM     10  C   UNL     1      -3.722 -37.779  19.734  1.00  0.00     0.006 C 
BRANCH  10  11
ATOM     11  C   UNL     1      -4.127 -37.878  18.256  1.00  0.00     0.053 C 
BRANCH  11  12
ATOM     12  C   UNL     1      -4.750 -36.608  17.759  1.00  0.00     0.041 C 
ATOM     13  O   UNL     1      -4.417 -35.502  18.260  1.00  0.00    -0.550 OA
ATOM     14  O   UNL     1      -5.720 -36.650  16.766  1.00  0.00    -0.550 OA
ENDBRANCH  11  12
ENDBRANCH  10  11
ENDBRANCH   9  10
ENDBRANCH   8   9
ENDBRANCH   7   8
ENDBRANCH   6   7
ENDBRANCH   5   6
ENDBRANCH   4   5
ENDBRANCH   3   4
ENDBRANCH   2   3
ENDBRANCH   1   2
BRANCH   1  15
ATOM     15  C   UNL     1       0.482 -31.559  24.131  1.00  0.00     0.000 C 
BRANCH  15  16
ATOM     16  C   UNL     1       1.180 -32.886  24.501  1.00  0.00     0.000 C 
BRANCH  16  17
ATOM     17  C   UNL     1       2.115 -33.389  23.387  1.00  0.00     0.000 C 
BRANCH  17  18
ATOM     18  C   UNL     1       2.761 -34.742  23.726  1.00  0.00    -0.000 C 
BRANCH  18  19
ATOM     19  C   UNL     1       3.124 -35.556  22.471  1.00  0.00    -0.000 C 
BRANCH  19  20
ATOM     20  C   UNL     1       4.261 -36.566  22.735  1.00  0.00    -0.000 C 
BRANCH  20  21
ATOM     21  C   UNL     1       5.361 -36.556  21.656  1.00  0.00    -0.000 C 
BRANCH  21  22
ATOM     22  C   UNL     1       5.062 -37.411  20.410  1.00  0.00    -0.000 C 
BRANCH  22  23
ATOM     23  C   UNL     1       5.338 -36.717  19.062  1.00  0.00    -0.000 C 
BRANCH  23  24
ATOM     24  C   UNL     1       4.106 -36.688  18.141  1.00  0.00    -0.000 C 
BRANCH  24  25
ATOM     25  C   UNL     1       2.800 -36.450  18.915  1.00  0.00    -0.003 C 
ATOM     26  C   UNL     1       1.663 -37.362  18.454  1.00  0.00     0.004 C 
ENDBRANCH  24  25
ENDBRANCH  23  24
ENDBRANCH  22  23
ENDBRANCH  21  22
ENDBRANCH  20  21
ENDBRANCH  19  20
ENDBRANCH  18  19
ENDBRANCH  17  18
ENDBRANCH  16  17
ENDBRANCH  15  16
ENDBRANCH   1  15
TORSDOF 22
ENDMDL
