MODEL 1
REMARK VINA RESULT:    -3.815      0.000      0.000
REMARK INTER + INTRA:          -9.364
REMARK INTER:                  -6.938
REMARK INTRA:                  -2.426
REMARK UNBOUND:                -2.426
REMARK SMILES CCCCCCCCCCCCCC[C@H](C)C(=O)[O-]
REMARK SMILES IDX 9 1 10 2 11 3 12 4 13 5 14 6 15 7 16 8 17 9 18 10 19 11 8 12
REMARK SMILES IDX 7 13 6 14 5 15 4 16 3 17 2 18 1 19
REMARK H PARENT
REMARK Flexibility Score: inf
ROOT
ATOM      1  C   UNL     1      -5.900   3.501  -1.428  1.00  0.00     0.000 C 
ENDROOT
BRANCH   1   2
ATOM      2  C   UNL     1      -4.479   3.969  -1.066  1.00  0.00     0.000 C 
BRANCH   2   3
ATOM      3  C   UNL     1      -3.475   2.844  -0.754  1.00  0.00     0.000 C 
BRANCH   3   4
ATOM      4  C   UNL     1      -3.028   2.828   0.715  1.00  0.00     0.000 C 
BRANCH   4   5
ATOM      5  C   UNL     1      -3.590   4.034   1.476  1.00  0.00     0.001 C 
BRANCH   5   6
ATOM      6  C   UNL     1      -4.454   3.579   2.666  1.00  0.00     0.009 C 
BRANCH   6   7
ATOM      7  C   UNL     1      -5.549   4.587   3.080  1.00  0.00     0.032 C 
ATOM      8  C   UNL     1      -6.179   5.303   1.879  1.00  0.00     0.014 C 
BRANCH   7   9
ATOM      9  C   UNL     1      -5.044   5.565   4.109  1.00  0.00     0.044 C 
ATOM     10  O   UNL     1      -4.129   5.223   4.903  1.00  0.00    -0.550 OA
ATOM     11  O   UNL     1      -5.541   6.863   4.160  1.00  0.00    -0.550 OA
ENDBRANCH   7   9
ENDBRANCH   6   7
ENDBRANCH   5   6
ENDBRANCH   4   5
ENDBRANCH   3   4
ENDBRANCH   2   3
ENDBRANCH   1   2
BRANCH   1  12
ATOM     12  C   UNL     1      -6.179   2.049  -1.004  1.00  0.00     0.000 C 
BRANCH  12  13
ATOM     13  C   UNL     1      -6.918   1.947   0.342  1.00  0.00    -0.000 C 
BRANCH  13  14
ATOM     14  C   UNL     1      -6.453   0.804   1.269  1.00  0.00    -0.000 C 
BRANCH  14  15
ATOM     15  C   UNL     1      -5.231   0.012   0.767  1.00  0.00    -0.000 C 
BRANCH  15  16
ATOM     16  C   UNL     1      -5.476  -1.496   0.568  1.00  0.00    -0.000 C 
BRANCH  16  17
ATOM     17  C   UNL     1      -6.940  -1.925   0.806  1.00  0.00    -0.000 C 
BRANCH  17  18
ATOM     18  C   UNL     1      -7.696  -2.195  -0.503  1.00  0.00    -0.003 C 
ATOM     19  C   UNL     1      -7.176  -3.456  -1.189  1.00  0.00     0.004 C 
ENDBRANCH  17  18
ENDBRANCH  16  17
ENDBRANCH  15  16
ENDBRANCH  14  15
ENDBRANCH  13  14
ENDBRANCH  12  13
ENDBRANCH   1  12
TORSDOF 14
ENDMDL
MODEL 2
REMARK VINA RESULT:    -3.617      3.955      6.895
REMARK INTER + INTRA:          -9.002
REMARK INTER:                  -6.587
REMARK INTRA:                  -2.415
REMARK UNBOUND:                -2.426
REMARK SMILES CCCCCCCCCCCCCC[C@H](C)C(=O)[O-]
REMARK SMILES IDX 9 1 10 2 11 3 12 4 13 5 14 6 15 7 16 8 17 9 18 10 19 11 8 12
REMARK SMILES IDX 7 13 6 14 5 15 4 16 3 17 2 18 1 19
REMARK H PARENT
REMARK Flexibility Score: inf
ROOT
ATOM      1  C   UNL     1      -6.924   1.841  -0.972  1.00  0.00     0.000 C 
ENDROOT
BRANCH   1   2
ATOM      2  C   UNL     1      -6.936   1.990   0.560  1.00  0.00     0.000 C 
BRANCH   2   3
ATOM      3  C   UNL     1      -6.290   0.828   1.338  1.00  0.00     0.000 C 
BRANCH   3   4
ATOM      4  C   UNL     1      -5.315   0.002   0.486  1.00  0.00     0.000 C 
BRANCH   4   5
ATOM      5  C   UNL     1      -5.306  -1.466   0.927  1.00  0.00     0.001 C 
BRANCH   5   6
ATOM      6  C   UNL     1      -6.733  -2.044   0.940  1.00  0.00     0.009 C 
BRANCH   6   7
ATOM      7  C   UNL     1      -7.391  -2.147  -0.454  1.00  0.00     0.032 C 
ATOM      8  C   UNL     1      -8.773  -1.482  -0.507  1.00  0.00     0.014 C 
BRANCH   7   9
ATOM      9  C   UNL     1      -7.442  -3.573  -0.940  1.00  0.00     0.044 C 
ATOM     10  O   UNL     1      -6.626  -3.966  -1.815  1.00  0.00    -0.550 OA
ATOM     11  O   UNL     1      -8.348  -4.478  -0.398  1.00  0.00    -0.550 OA
ENDBRANCH   7   9
ENDBRANCH   6   7
ENDBRANCH   5   6
ENDBRANCH   4   5
ENDBRANCH   3   4
ENDBRANCH   2   3
ENDBRANCH   1   2
BRANCH   1  12
ATOM     12  C   UNL     1      -6.577   3.151  -1.700  1.00  0.00     0.000 C 
BRANCH  12  13
ATOM     13  C   UNL     1      -5.804   4.144  -0.814  1.00  0.00    -0.000 C 
BRANCH  13  14
ATOM     14  C   UNL     1      -4.289   4.241  -1.095  1.00  0.00    -0.000 C 
BRANCH  14  15
ATOM     15  C   UNL     1      -3.490   2.953  -0.822  1.00  0.00    -0.000 C 
BRANCH  15  16
ATOM     16  C   UNL     1      -3.130   2.716   0.656  1.00  0.00    -0.000 C 
BRANCH  16  17
ATOM     17  C   UNL     1      -3.355   3.950   1.557  1.00  0.00    -0.000 C 
BRANCH  17  18
ATOM     18  C   UNL     1      -4.208   3.630   2.793  1.00  0.00    -0.003 C 
ATOM     19  C   UNL     1      -5.456   4.508   2.844  1.00  0.00     0.004 C 
ENDBRANCH  17  18
ENDBRANCH  16  17
ENDBRANCH  15  16
ENDBRANCH  14  15
ENDBRANCH  13  14
ENDBRANCH  12  13
ENDBRANCH   1  12
TORSDOF 14
ENDMDL
MODEL 3
REMARK VINA RESULT:    -3.529      1.340      2.073
REMARK INTER + INTRA:          -8.843
REMARK INTER:                  -6.503
REMARK INTRA:                  -2.340
REMARK UNBOUND:                -2.426
REMARK SMILES CCCCCCCCCCCCCC[C@H](C)C(=O)[O-]
REMARK SMILES IDX 9 1 10 2 11 3 12 4 13 5 14 6 15 7 16 8 17 9 18 10 19 11 8 12
REMARK SMILES IDX 7 13 6 14 5 15 4 16 3 17 2 18 1 19
REMARK H PARENT
REMARK Flexibility Score: inf
ROOT
ATOM      1  C   UNL     1      -5.167   4.100  -2.157  1.00  0.00     0.000 C 
ENDROOT
BRANCH   1   2
ATOM      2  C   UNL     1      -4.009   4.235  -1.152  1.00  0.00     0.000 C 
BRANCH   2   3
ATOM      3  C   UNL     1      -3.375   2.907  -0.697  1.00  0.00     0.000 C 
BRANCH   3   4
ATOM      4  C   UNL     1      -3.152   2.837   0.821  1.00  0.00     0.000 C 
BRANCH   4   5
ATOM      5  C   UNL     1      -3.708   4.084   1.518  1.00  0.00     0.001 C 
BRANCH   5   6
ATOM      6  C   UNL     1      -4.273   3.732   2.906  1.00  0.00     0.009 C 
BRANCH   6   7
ATOM      7  C   UNL     1      -5.814   3.640   2.962  1.00  0.00     0.032 C 
ATOM      8  C   UNL     1      -6.501   4.616   1.999  1.00  0.00     0.014 C 
BRANCH   7   9
ATOM      9  C   UNL     1      -6.329   3.793   4.370  1.00  0.00     0.044 C 
ATOM     10  O   UNL     1      -7.270   3.061   4.776  1.00  0.00    -0.550 OA
ATOM     11  O   UNL     1      -5.745   4.700   5.246  1.00  0.00    -0.550 OA
ENDBRANCH   7   9
ENDBRANCH   6   7
ENDBRANCH   5   6
ENDBRANCH   4   5
ENDBRANCH   3   4
ENDBRANCH   2   3
ENDBRANCH   1   2
BRANCH   1  12
ATOM     12  C   UNL     1      -6.542   4.380  -1.528  1.00  0.00     0.000 C 
BRANCH  12  13
ATOM     13  C   UNL     1      -7.454   3.140  -1.498  1.00  0.00    -0.000 C 
BRANCH  13  14
ATOM     14  C   UNL     1      -6.783   1.836  -1.018  1.00  0.00    -0.000 C 
BRANCH  14  15
ATOM     15  C   UNL     1      -7.424   1.189   0.223  1.00  0.00    -0.000 C 
BRANCH  15  16
ATOM     16  C   UNL     1      -6.423   0.607   1.239  1.00  0.00    -0.000 C 
BRANCH  16  17
ATOM     17  C   UNL     1      -5.191  -0.056   0.587  1.00  0.00    -0.000 C 
BRANCH  17  18
ATOM     18  C   UNL     1      -5.302  -1.586   0.538  1.00  0.00    -0.003 C 
ATOM     19  C   UNL     1      -6.409  -2.089   1.461  1.00  0.00     0.004 C 
ENDBRANCH  17  18
ENDBRANCH  16  17
ENDBRANCH  15  16
ENDBRANCH  14  15
ENDBRANCH  13  14
ENDBRANCH  12  13
ENDBRANCH   1  12
TORSDOF 14
ENDMDL
MODEL 4
REMARK VINA RESULT:    -3.462      2.167      4.693
REMARK INTER + INTRA:          -8.722
REMARK INTER:                  -6.282
REMARK INTRA:                  -2.440
REMARK UNBOUND:                -2.426
REMARK SMILES CCCCCCCCCCCCCC[C@H](C)C(=O)[O-]
REMARK SMILES IDX 9 1 10 2 11 3 12 4 13 5 14 6 15 7 16 8 17 9 18 10 19 11 8 12
REMARK SMILES IDX 7 13 6 14 5 15 4 16 3 17 2 18 1 19
REMARK H PARENT
REMARK Flexibility Score: inf
ROOT
ATOM      1  C   UNL     1      -5.877   1.549  -0.403  1.00  0.00     0.000 C 
ENDROOT
BRANCH   1   2
ATOM      2  C   UNL     1      -4.706   1.363   0.579  1.00  0.00     0.000 C 
BRANCH   2   3
ATOM      3  C   UNL     1      -3.470   2.237   0.300  1.00  0.00     0.000 C 
BRANCH   3   4
ATOM      4  C   UNL     1      -3.171   3.234   1.430  1.00  0.00     0.000 C 
BRANCH   4   5
ATOM      5  C   UNL     1      -3.752   4.617   1.112  1.00  0.00     0.001 C 
BRANCH   5   6
ATOM      6  C   UNL     1      -4.895   4.969   2.081  1.00  0.00     0.009 C 
BRANCH   6   7
ATOM      7  C   UNL     1      -4.908   4.134   3.380  1.00  0.00     0.032 C 
ATOM      8  C   UNL     1      -6.111   3.184   3.462  1.00  0.00     0.014 C 
BRANCH   7   9
ATOM      9  C   UNL     1      -4.806   5.007   4.604  1.00  0.00     0.044 C 
ATOM     10  O   UNL     1      -3.985   5.962   4.626  1.00  0.00    -0.550 OA
ATOM     11  O   UNL     1      -5.644   4.805   5.695  1.00  0.00    -0.550 OA
ENDBRANCH   7   9
ENDBRANCH   6   7
ENDBRANCH   5   6
ENDBRANCH   4   5
ENDBRANCH   3   4
ENDBRANCH   2   3
ENDBRANCH   1   2
BRANCH   1  12
ATOM     12  C   UNL     1      -6.881   2.620   0.057  1.00  0.00     0.000 C 
BRANCH  12  13
ATOM     13  C   UNL     1      -6.908   3.853  -0.864  1.00  0.00    -0.000 C 
BRANCH  13  14
ATOM     14  C   UNL     1      -5.999   3.771  -2.108  1.00  0.00    -0.000 C 
BRANCH  14  15
ATOM     15  C   UNL     1      -4.991   4.926  -2.258  1.00  0.00    -0.000 C 
BRANCH  15  16
ATOM     16  C   UNL     1      -3.554   4.489  -2.602  1.00  0.00    -0.000 C 
BRANCH  16  17
ATOM     17  C   UNL     1      -2.957   5.223  -3.822  1.00  0.00    -0.000 C 
BRANCH  17  18
ATOM     18  C   UNL     1      -3.000   4.374  -5.100  1.00  0.00    -0.003 C 
ATOM     19  C   UNL     1      -4.219   4.719  -5.951  1.00  0.00     0.004 C 
ENDBRANCH  17  18
ENDBRANCH  16  17
ENDBRANCH  15  16
ENDBRANCH  14  15
ENDBRANCH  13  14
ENDBRANCH  12  13
ENDBRANCH   1  12
TORSDOF 14
ENDMDL
MODEL 5
REMARK VINA RESULT:    -3.417      3.685      5.691
REMARK INTER + INTRA:          -8.639
REMARK INTER:                  -6.115
REMARK INTRA:                  -2.524
REMARK UNBOUND:                -2.426
REMARK SMILES CCCCCCCCCCCCCC[C@H](C)C(=O)[O-]
REMARK SMILES IDX 9 1 10 2 11 3 12 4 13 5 14 6 15 7 16 8 17 9 18 10 19 11 8 12
REMARK SMILES IDX 7 13 6 14 5 15 4 16 3 17 2 18 1 19
REMARK H PARENT
REMARK Flexibility Score: inf
ROOT
ATOM      1  C   UNL     1      -6.294   4.956   1.650  1.00  0.00     0.000 C 
ENDROOT
BRANCH   1   2
ATOM      2  C   UNL     1      -7.457   4.445   0.782  1.00  0.00     0.000 C 
BRANCH   2   3
ATOM      3  C   UNL     1      -7.097   4.132  -0.682  1.00  0.00     0.000 C 
BRANCH   3   4
ATOM      4  C   UNL     1      -5.931   4.981  -1.209  1.00  0.00     0.000 C 
BRANCH   4   5
ATOM      5  C   UNL     1      -5.303   4.342  -2.454  1.00  0.00     0.001 C 
BRANCH   5   6
ATOM      6  C   UNL     1      -3.785   4.595  -2.495  1.00  0.00     0.009 C 
BRANCH   6   7
ATOM      7  C   UNL     1      -3.244   4.990  -3.887  1.00  0.00     0.032 C 
ATOM      8  C   UNL     1      -4.353   5.118  -4.940  1.00  0.00     0.014 C 
BRANCH   7   9
ATOM      9  C   UNL     1      -2.150   4.059  -4.343  1.00  0.00     0.044 C 
ATOM     10  O   UNL     1      -1.816   4.030  -5.557  1.00  0.00    -0.550 OA
ATOM     11  O   UNL     1      -1.467   3.264  -3.430  1.00  0.00    -0.550 OA
ENDBRANCH   7   9
ENDBRANCH   6   7
ENDBRANCH   5   6
ENDBRANCH   4   5
ENDBRANCH   3   4
ENDBRANCH   2   3
ENDBRANCH   1   2
BRANCH   1  12
ATOM     12  C   UNL     1      -5.840   3.936   2.708  1.00  0.00     0.000 C 
BRANCH  12  13
ATOM     13  C   UNL     1      -4.311   3.773   2.769  1.00  0.00    -0.000 C 
BRANCH  13  14
ATOM     14  C   UNL     1      -3.572   3.953   1.426  1.00  0.00    -0.000 C 
BRANCH  14  15
ATOM     15  C   UNL     1      -3.103   2.647   0.758  1.00  0.00    -0.000 C 
BRANCH  15  16
ATOM     16  C   UNL     1      -4.178   1.924  -0.074  1.00  0.00    -0.000 C 
BRANCH  16  17
ATOM     17  C   UNL     1      -4.894   0.788   0.688  1.00  0.00    -0.000 C 
BRANCH  17  18
ATOM     18  C   UNL     1      -6.366   0.640   0.279  1.00  0.00    -0.003 C 
ATOM     19  C   UNL     1      -7.288   0.739   1.491  1.00  0.00     0.004 C 
ENDBRANCH  17  18
ENDBRANCH  16  17
ENDBRANCH  15  16
ENDBRANCH  14  15
ENDBRANCH  13  14
ENDBRANCH  12  13
ENDBRANCH   1  12
TORSDOF 14
ENDMDL
MODEL 6
REMARK VINA RESULT:    -3.413      1.279      2.342
REMARK INTER + INTRA:          -8.632
REMARK INTER:                  -6.601
REMARK INTRA:                  -2.031
REMARK UNBOUND:                -2.426
REMARK SMILES CCCCCCCCCCCCCC[C@H](C)C(=O)[O-]
REMARK SMILES IDX 9 1 10 2 11 3 12 4 13 5 14 6 15 7 16 8 17 9 18 10 19 11 8 12
REMARK SMILES IDX 7 13 6 14 5 15 4 16 3 17 2 18 1 19
REMARK H PARENT
REMARK Flexibility Score: inf
ROOT
ATOM      1  C   UNL     1      -4.038   4.457  -1.204  1.00  0.00     0.000 C 
ENDROOT
BRANCH   1   2
ATOM      2  C   UNL     1      -3.341   3.087  -1.117  1.00  0.00     0.000 C 
BRANCH   2   3
ATOM      3  C   UNL     1      -3.434   2.388   0.252  1.00  0.00     0.000 C 
BRANCH   3   4
ATOM      4  C   UNL     1      -3.540   3.374   1.424  1.00  0.00     0.000 C 
BRANCH   4   5
ATOM      5  C   UNL     1      -4.811   3.120   2.244  1.00  0.00     0.001 C 
BRANCH   5   6
ATOM      6  C   UNL     1      -5.350   4.432   2.843  1.00  0.00     0.009 C 
BRANCH   6   7
ATOM      7  C   UNL     1      -5.316   4.487   4.387  1.00  0.00     0.032 C 
ATOM      8  C   UNL     1      -6.665   4.127   5.023  1.00  0.00     0.014 C 
BRANCH   7   9
ATOM      9  C   UNL     1      -4.805   5.815   4.884  1.00  0.00     0.044 C 
ATOM     10  O   UNL     1      -5.190   6.258   5.998  1.00  0.00    -0.550 OA
ATOM     11  O   UNL     1      -3.870   6.537   4.150  1.00  0.00    -0.550 OA
ENDBRANCH   7   9
ENDBRANCH   6   7
ENDBRANCH   5   6
ENDBRANCH   4   5
ENDBRANCH   3   4
ENDBRANCH   2   3
ENDBRANCH   1   2
BRANCH   1  12
ATOM     12  C   UNL     1      -5.437   4.380  -1.837  1.00  0.00     0.000 C 
BRANCH  12  13
ATOM     13  C   UNL     1      -6.568   4.670  -0.833  1.00  0.00    -0.000 C 
BRANCH  13  14
ATOM     14  C   UNL     1      -7.371   3.437  -0.368  1.00  0.00    -0.000 C 
BRANCH  14  15
ATOM     15  C   UNL     1      -7.114   2.148  -1.169  1.00  0.00    -0.000 C 
BRANCH  15  16
ATOM     16  C   UNL     1      -7.426   0.843  -0.413  1.00  0.00    -0.000 C 
BRANCH  16  17
ATOM     17  C   UNL     1      -6.222   0.274   0.369  1.00  0.00    -0.000 C 
BRANCH  17  18
ATOM     18  C   UNL     1      -6.234  -1.259   0.436  1.00  0.00    -0.003 C 
ATOM     19  C   UNL     1      -5.008  -1.789   1.176  1.00  0.00     0.004 C 
ENDBRANCH  17  18
ENDBRANCH  16  17
ENDBRANCH  15  16
ENDBRANCH  14  15
ENDBRANCH  13  14
ENDBRANCH  12  13
ENDBRANCH   1  12
TORSDOF 14
ENDMDL
MODEL 7
REMARK VINA RESULT:    -3.411      1.540      2.922
REMARK INTER + INTRA:          -8.629
REMARK INTER:                  -7.425
REMARK INTRA:                  -1.203
REMARK UNBOUND:                -2.426
REMARK SMILES CCCCCCCCCCCCCC[C@H](C)C(=O)[O-]
REMARK SMILES IDX 9 1 10 2 11 3 12 4 13 5 14 6 15 7 16 8 17 9 18 10 19 11 8 12
REMARK SMILES IDX 7 13 6 14 5 15 4 16 3 17 2 18 1 19
REMARK H PARENT
REMARK Flexibility Score: inf
ROOT
ATOM      1  C   UNL     1      -5.796   0.615   0.914  1.00  0.00     0.000 C 
ENDROOT
BRANCH   1   2
ATOM      2  C   UNL     1      -5.779   1.463  -0.370  1.00  0.00     0.000 C 
BRANCH   2   3
ATOM      3  C   UNL     1      -4.911   2.734  -0.307  1.00  0.00     0.000 C 
BRANCH   3   4
ATOM      4  C   UNL     1      -3.447   2.446   0.057  1.00  0.00     0.000 C 
BRANCH   4   5
ATOM      5  C   UNL     1      -3.065   3.122   1.379  1.00  0.00     0.001 C 
BRANCH   5   6
ATOM      6  C   UNL     1      -4.149   4.122   1.818  1.00  0.00     0.009 C 
BRANCH   6   7
ATOM      7  C   UNL     1      -4.684   3.894   3.250  1.00  0.00     0.032 C 
ATOM      8  C   UNL     1      -6.080   3.259   3.267  1.00  0.00     0.014 C 
BRANCH   7   9
ATOM      9  C   UNL     1      -4.639   5.159   4.068  1.00  0.00     0.044 C 
ATOM     10  O   UNL     1      -4.132   5.142   5.220  1.00  0.00    -0.550 OA
ATOM     11  O   UNL     1      -5.107   6.360   3.547  1.00  0.00    -0.550 OA
ENDBRANCH   7   9
ENDBRANCH   6   7
ENDBRANCH   5   6
ENDBRANCH   4   5
ENDBRANCH   3   4
ENDBRANCH   2   3
ENDBRANCH   1   2
BRANCH   1  12
ATOM     12  C   UNL     1      -5.226  -0.799   0.707  1.00  0.00     0.000 C 
BRANCH  12  13
ATOM     13  C   UNL     1      -6.277  -1.905   0.902  1.00  0.00    -0.000 C 
BRANCH  13  14
ATOM     14  C   UNL     1      -7.294  -2.063  -0.248  1.00  0.00    -0.000 C 
BRANCH  14  15
ATOM     15  C   UNL     1      -7.176  -3.371  -1.051  1.00  0.00    -0.000 C 
BRANCH  15  16
ATOM     16  C   UNL     1      -5.761  -3.683  -1.574  1.00  0.00    -0.000 C 
BRANCH  16  17
ATOM     17  C   UNL     1      -5.741  -4.652  -2.776  1.00  0.00    -0.000 C 
BRANCH  17  18
ATOM     18  C   UNL     1      -6.306  -6.036  -2.428  1.00  0.00    -0.003 C 
ATOM     19  C   UNL     1      -6.795  -6.763  -3.677  1.00  0.00     0.004 C 
ENDBRANCH  17  18
ENDBRANCH  16  17
ENDBRANCH  15  16
ENDBRANCH  14  15
ENDBRANCH  13  14
ENDBRANCH  12  13
ENDBRANCH   1  12
TORSDOF 14
ENDMDL
MODEL 8
REMARK VINA RESULT:    -3.295      1.471      2.447
REMARK INTER + INTRA:          -8.417
REMARK INTER:                  -6.120
REMARK INTRA:                  -2.298
REMARK UNBOUND:                -2.426
REMARK SMILES CCCCCCCCCCCCCC[C@H](C)C(=O)[O-]
REMARK SMILES IDX 9 1 10 2 11 3 12 4 13 5 14 6 15 7 16 8 17 9 18 10 19 11 8 12
REMARK SMILES IDX 7 13 6 14 5 15 4 16 3 17 2 18 1 19
REMARK H PARENT
REMARK Flexibility Score: inf
ROOT
ATOM      1  C   UNL     1      -5.622   1.834   1.360  1.00  0.00     0.000 C 
ENDROOT
BRANCH   1   2
ATOM      2  C   UNL     1      -4.519   1.406   0.376  1.00  0.00     0.000 C 
BRANCH   2   3
ATOM      3  C   UNL     1      -3.366   2.413   0.204  1.00  0.00     0.000 C 
BRANCH   3   4
ATOM      4  C   UNL     1      -3.388   3.126  -1.156  1.00  0.00     0.000 C 
BRANCH   4   5
ATOM      5  C   UNL     1      -4.320   4.344  -1.125  1.00  0.00     0.001 C 
BRANCH   5   6
ATOM      6  C   UNL     1      -3.926   5.307   0.009  1.00  0.00     0.009 C 
BRANCH   6   7
ATOM      7  C   UNL     1      -4.957   5.396   1.156  1.00  0.00     0.032 C 
ATOM      8  C   UNL     1      -5.993   6.507   0.937  1.00  0.00     0.014 C 
BRANCH   7   9
ATOM      9  C   UNL     1      -4.285   5.520   2.499  1.00  0.00     0.044 C 
ATOM     10  O   UNL     1      -4.131   4.499   3.219  1.00  0.00    -0.550 OA
ATOM     11  O   UNL     1      -3.786   6.742   2.935  1.00  0.00    -0.550 OA
ENDBRANCH   7   9
ENDBRANCH   6   7
ENDBRANCH   5   6
ENDBRANCH   4   5
ENDBRANCH   3   4
ENDBRANCH   2   3
ENDBRANCH   1   2
BRANCH   1  12
ATOM     12  C   UNL     1      -6.891   2.341   0.655  1.00  0.00     0.000 C 
BRANCH  12  13
ATOM     13  C   UNL     1      -7.071   1.753  -0.756  1.00  0.00    -0.000 C 
BRANCH  13  14
ATOM     14  C   UNL     1      -8.463   1.154  -1.051  1.00  0.00    -0.000 C 
BRANCH  14  15
ATOM     15  C   UNL     1      -8.592  -0.358  -0.791  1.00  0.00    -0.000 C 
BRANCH  15  16
ATOM     16  C   UNL     1      -8.822  -0.744   0.682  1.00  0.00    -0.000 C 
BRANCH  16  17
ATOM     17  C   UNL     1      -7.598  -1.410   1.348  1.00  0.00    -0.000 C 
BRANCH  17  18
ATOM     18  C   UNL     1      -6.572  -1.916   0.325  1.00  0.00    -0.003 C 
ATOM     19  C   UNL     1      -5.158  -1.879   0.897  1.00  0.00     0.004 C 
ENDBRANCH  17  18
ENDBRANCH  16  17
ENDBRANCH  15  16
ENDBRANCH  14  15
ENDBRANCH  13  14
ENDBRANCH  12  13
ENDBRANCH   1  12
TORSDOF 14
ENDMDL
MODEL 9
REMARK VINA RESULT:    -3.255      2.953      5.867
REMARK INTER + INTRA:          -8.345
REMARK INTER:                  -5.954
REMARK INTRA:                  -2.391
REMARK UNBOUND:                -2.426
REMARK SMILES CCCCCCCCCCCCCC[C@H](C)C(=O)[O-]
REMARK SMILES IDX 9 1 10 2 11 3 12 4 13 5 14 6 15 7 16 8 17 9 18 10 19 11 8 12
REMARK SMILES IDX 7 13 6 14 5 15 4 16 3 17 2 18 1 19
REMARK H PARENT
REMARK Flexibility Score: inf
ROOT
ATOM      1  C   UNL     1      -3.946   4.073  -1.187  1.00  0.00     0.000 C 
ENDROOT
BRANCH   1   2
ATOM      2  C   UNL     1      -5.462   4.289  -1.346  1.00  0.00     0.000 C 
BRANCH   2   3
ATOM      3  C   UNL     1      -6.304   3.002  -1.430  1.00  0.00     0.000 C 
BRANCH   3   4
ATOM      4  C   UNL     1      -7.660   3.122  -0.720  1.00  0.00     0.000 C 
BRANCH   4   5
ATOM      5  C   UNL     1      -8.074   1.785  -0.093  1.00  0.00     0.001 C 
BRANCH   5   6
ATOM      6  C   UNL     1      -7.003   0.707  -0.341  1.00  0.00     0.009 C 
BRANCH   6   7
ATOM      7  C   UNL     1      -6.524  -0.019   0.936  1.00  0.00     0.032 C 
ATOM      8  C   UNL     1      -5.218  -0.796   0.720  1.00  0.00     0.014 C 
BRANCH   7   9
ATOM      9  C   UNL     1      -7.603  -0.897   1.514  1.00  0.00     0.044 C 
ATOM     10  O   UNL     1      -8.132  -0.596   2.617  1.00  0.00    -0.550 OA
ATOM     11  O   UNL     1      -8.062  -2.011   0.820  1.00  0.00    -0.550 OA
ENDBRANCH   7   9
ENDBRANCH   6   7
ENDBRANCH   5   6
ENDBRANCH   4   5
ENDBRANCH   3   4
ENDBRANCH   2   3
ENDBRANCH   1   2
BRANCH   1  12
ATOM     12  C   UNL     1      -3.586   2.643  -0.750  1.00  0.00     0.000 C 
BRANCH  12  13
ATOM     13  C   UNL     1      -3.393   2.510   0.771  1.00  0.00    -0.000 C 
BRANCH  13  14
ATOM     14  C   UNL     1      -3.337   3.841   1.550  1.00  0.00    -0.000 C 
BRANCH  14  15
ATOM     15  C   UNL     1      -4.547   4.117   2.461  1.00  0.00    -0.000 C 
BRANCH  15  16
ATOM     16  C   UNL     1      -5.683   3.082   2.359  1.00  0.00    -0.000 C 
BRANCH  16  17
ATOM     17  C   UNL     1      -6.555   2.989   3.630  1.00  0.00    -0.000 C 
BRANCH  17  18
ATOM     18  C   UNL     1      -6.789   4.357   4.286  1.00  0.00    -0.003 C 
ATOM     19  C   UNL     1      -6.168   4.414   5.679  1.00  0.00     0.004 C 
ENDBRANCH  17  18
ENDBRANCH  16  17
ENDBRANCH  15  16
ENDBRANCH  14  15
ENDBRANCH  13  14
ENDBRANCH  12  13
ENDBRANCH   1  12
TORSDOF 14
ENDMDL
