MODEL 1
REMARK VINA RESULT:    -2.323      0.000      0.000
REMARK INTER + INTRA:          -2.526
REMARK INTER:                  -2.526
REMARK INTRA:                   0.000
REMARK UNBOUND:                 0.000
REMARK SMILES [NH3+]CC(=O)[O-]
REMARK SMILES IDX 2 1 1 2 3 6 4 7 5 8
REMARK H PARENT 1 3 1 4 1 5
REMARK Flexibility Score: inf
ROOT
ATOM      1  C   UNL     1       6.969  -2.240   1.677  1.00  0.00     0.312 C 
ENDROOT
BRANCH   1   2
ATOM      2  N   UNL     1       6.239  -1.790   2.860  1.00  0.00    -0.353 N 
ATOM      3  H   UNL     1       6.628  -0.879   3.197  1.00  0.00     0.344 HD
ATOM      4  H   UNL     1       5.233  -1.658   2.612  1.00  0.00     0.344 HD
ATOM      5  H   UNL     1       6.310  -2.507   3.619  1.00  0.00     0.344 HD
ENDBRANCH   1   2
BRANCH   1   6
ATOM      6  C   UNL     1       7.186  -1.104   0.726  1.00  0.00     0.096 C 
ATOM      7  O   UNL     1       8.131  -1.144  -0.104  1.00  0.00    -0.544 OA
ATOM      8  O   UNL     1       6.313  -0.024   0.723  1.00  0.00    -0.544 OA
ENDBRANCH   1   6
TORSDOF 2
ENDMDL
MODEL 2
REMARK VINA RESULT:    -2.292      2.266      2.436
REMARK INTER + INTRA:          -2.493
REMARK INTER:                  -2.493
REMARK INTRA:                   0.000
REMARK UNBOUND:                 0.000
REMARK SMILES [NH3+]CC(=O)[O-]
REMARK SMILES IDX 2 1 1 2 3 6 4 7 5 8
REMARK H PARENT 1 3 1 4 1 5
REMARK Flexibility Score: inf
ROOT
ATOM      1  C   UNL     1       7.755  -1.046   0.004  1.00  0.00     0.312 C 
ENDROOT
BRANCH   1   2
ATOM      2  N   UNL     1       7.000  -0.006  -0.692  1.00  0.00    -0.353 N 
ATOM      3  H   UNL     1       7.657   0.666  -1.154  1.00  0.00     0.344 HD
ATOM      4  H   UNL     1       6.401  -0.450  -1.424  1.00  0.00     0.344 HD
ATOM      5  H   UNL     1       6.388   0.506  -0.016  1.00  0.00     0.344 HD
ENDBRANCH   1   2
BRANCH   1   6
ATOM      6  C   UNL     1       7.009  -1.522   1.212  1.00  0.00     0.096 C 
ATOM      7  O   UNL     1       7.294  -2.631   1.735  1.00  0.00    -0.544 OA
ATOM      8  O   UNL     1       6.035  -0.718   1.789  1.00  0.00    -0.544 OA
ENDBRANCH   1   6
TORSDOF 2
ENDMDL
MODEL 3
REMARK VINA RESULT:    -2.233      2.715      3.001
REMARK INTER + INTRA:          -2.428
REMARK INTER:                  -2.428
REMARK INTRA:                   0.000
REMARK UNBOUND:                 0.000
REMARK SMILES [NH3+]CC(=O)[O-]
REMARK SMILES IDX 2 1 1 2 3 6 4 7 5 8
REMARK H PARENT 1 3 1 4 1 5
REMARK Flexibility Score: inf
ROOT
ATOM      1  C   UNL     1       6.319   0.601  -0.559  1.00  0.00     0.312 C 
ENDROOT
BRANCH   1   2
ATOM      2  N   UNL     1       6.998   0.847  -1.829  1.00  0.00    -0.353 N 
ATOM      3  H   UNL     1       7.872   0.273  -1.886  1.00  0.00     0.344 HD
ATOM      4  H   UNL     1       6.365   0.577  -2.614  1.00  0.00     0.344 HD
ATOM      5  H   UNL     1       7.236   1.862  -1.918  1.00  0.00     0.344 HD
ENDBRANCH   1   2
BRANCH   1   6
ATOM      6  C   UNL     1       7.049  -0.434   0.240  1.00  0.00     0.096 C 
ATOM      7  O   UNL     1       8.031  -1.043  -0.259  1.00  0.00    -0.544 OA
ATOM      8  O   UNL     1       6.675  -0.690   1.553  1.00  0.00    -0.544 OA
ENDBRANCH   1   6
TORSDOF 2
ENDMDL
MODEL 4
REMARK VINA RESULT:    -2.206      1.783      2.193
REMARK INTER + INTRA:          -2.399
REMARK INTER:                  -2.399
REMARK INTRA:                   0.000
REMARK UNBOUND:                 0.000
REMARK SMILES [NH3+]CC(=O)[O-]
REMARK SMILES IDX 2 1 1 2 3 6 4 7 5 8
REMARK H PARENT 1 3 1 4 1 5
REMARK Flexibility Score: inf
ROOT
ATOM      1  C   UNL     1       7.717  -1.117   0.062  1.00  0.00     0.312 C 
ENDROOT
BRANCH   1   2
ATOM      2  N   UNL     1       7.209  -1.868   1.208  1.00  0.00    -0.353 N 
ATOM      3  H   UNL     1       7.883  -2.624   1.469  1.00  0.00     0.344 HD
ATOM      4  H   UNL     1       7.097  -1.220   2.020  1.00  0.00     0.344 HD
ATOM      5  H   UNL     1       6.279  -2.288   0.978  1.00  0.00     0.344 HD
ENDBRANCH   1   2
BRANCH   1   6
ATOM      6  C   UNL     1       6.777  -0.010  -0.305  1.00  0.00     0.096 C 
ATOM      7  O   UNL     1       5.907   0.380   0.516  1.00  0.00    -0.544 OA
ATOM      8  O   UNL     1       6.896   0.624  -1.535  1.00  0.00    -0.544 OA
ENDBRANCH   1   6
TORSDOF 2
ENDMDL
MODEL 5
REMARK VINA RESULT:    -2.192      2.666      3.243
REMARK INTER + INTRA:          -2.384
REMARK INTER:                  -2.384
REMARK INTRA:                   0.000
REMARK UNBOUND:                 0.000
REMARK SMILES [NH3+]CC(=O)[O-]
REMARK SMILES IDX 2 1 1 2 3 6 4 7 5 8
REMARK H PARENT 1 3 1 4 1 5
REMARK Flexibility Score: inf
ROOT
ATOM      1  C   UNL     1       6.254   0.505  -0.550  1.00  0.00     0.312 C 
ENDROOT
BRANCH   1   2
ATOM      2  N   UNL     1       6.982   0.746  -1.794  1.00  0.00    -0.353 N 
ATOM      3  H   UNL     1       6.783  -0.020  -2.479  1.00  0.00     0.344 HD
ATOM      4  H   UNL     1       6.669   1.655  -2.203  1.00  0.00     0.344 HD
ATOM      5  H   UNL     1       8.010   0.793  -1.605  1.00  0.00     0.344 HD
ENDBRANCH   1   2
BRANCH   1   6
ATOM      6  C   UNL     1       6.973  -0.498   0.298  1.00  0.00     0.096 C 
ATOM      7  O   UNL     1       6.662  -0.644   1.508  1.00  0.00    -0.544 OA
ATOM      8  O   UNL     1       7.951  -1.309  -0.264  1.00  0.00    -0.544 OA
ENDBRANCH   1   6
TORSDOF 2
ENDMDL
MODEL 6
REMARK VINA RESULT:    -2.046      6.161      6.613
REMARK INTER + INTRA:          -2.225
REMARK INTER:                  -2.225
REMARK INTRA:                   0.000
REMARK UNBOUND:                 0.000
REMARK SMILES [NH3+]CC(=O)[O-]
REMARK SMILES IDX 2 1 1 2 3 6 4 7 5 8
REMARK H PARENT 1 3 1 4 1 5
REMARK Flexibility Score: inf
ROOT
ATOM      1  C   UNL     1       1.831   3.057   2.801  1.00  0.00     0.312 C 
ENDROOT
BRANCH   1   2
ATOM      2  N   UNL     1       1.318   4.124   1.944  1.00  0.00    -0.353 N 
ATOM      3  H   UNL     1       1.618   5.056   2.314  1.00  0.00     0.344 HD
ATOM      4  H   UNL     1       1.702   4.003   0.980  1.00  0.00     0.344 HD
ATOM      5  H   UNL     1       0.274   4.080   1.903  1.00  0.00     0.344 HD
ENDBRANCH   1   2
BRANCH   1   6
ATOM      6  C   UNL     1       3.329   3.056   2.805  1.00  0.00     0.096 C 
ATOM      7  O   UNL     1       3.959   3.151   3.890  1.00  0.00    -0.544 OA
ATOM      8  O   UNL     1       4.026   2.898   1.615  1.00  0.00    -0.544 OA
ENDBRANCH   1   6
TORSDOF 2
ENDMDL
MODEL 7
REMARK VINA RESULT:    -1.967      7.083      7.240
REMARK INTER + INTRA:          -2.139
REMARK INTER:                  -2.139
REMARK INTRA:                   0.000
REMARK UNBOUND:                 0.000
REMARK SMILES [NH3+]CC(=O)[O-]
REMARK SMILES IDX 2 1 1 2 3 6 4 7 5 8
REMARK H PARENT 1 3 1 4 1 5
REMARK Flexibility Score: inf
ROOT
ATOM      1  C   UNL     1       3.390  -3.562  -4.979  1.00  0.00     0.312 C 
ENDROOT
BRANCH   1   2
ATOM      2  N   UNL     1       4.545  -2.952  -5.635  1.00  0.00    -0.353 N 
ATOM      3  H   UNL     1       4.544  -3.189  -6.654  1.00  0.00     0.344 HD
ATOM      4  H   UNL     1       4.491  -1.915  -5.529  1.00  0.00     0.344 HD
ATOM      5  H   UNL     1       5.430  -3.294  -5.194  1.00  0.00     0.344 HD
ENDBRANCH   1   2
BRANCH   1   6
ATOM      6  C   UNL     1       3.802  -4.251  -3.715  1.00  0.00     0.096 C 
ATOM      7  O   UNL     1       4.109  -3.578  -2.697  1.00  0.00    -0.544 OA
ATOM      8  O   UNL     1       3.797  -5.638  -3.647  1.00  0.00    -0.544 OA
ENDBRANCH   1   6
TORSDOF 2
ENDMDL
MODEL 8
REMARK VINA RESULT:    -1.897      8.930      9.449
REMARK INTER + INTRA:          -2.063
REMARK INTER:                  -2.063
REMARK INTRA:                   0.000
REMARK UNBOUND:                 0.000
REMARK SMILES [NH3+]CC(=O)[O-]
REMARK SMILES IDX 2 1 1 2 3 6 4 7 5 8
REMARK H PARENT 1 3 1 4 1 5
REMARK Flexibility Score: inf
ROOT
ATOM      1  C   UNL     1       6.045   6.356  -5.275  1.00  0.00     0.312 C 
ENDROOT
BRANCH   1   2
ATOM      2  N   UNL     1       7.437   5.909  -5.302  1.00  0.00    -0.353 N 
ATOM      3  H   UNL     1       7.485   4.880  -5.120  1.00  0.00     0.344 HD
ATOM      4  H   UNL     1       7.842   6.106  -6.244  1.00  0.00     0.344 HD
ATOM      5  H   UNL     1       7.992   6.422  -4.579  1.00  0.00     0.344 HD
ENDBRANCH   1   2
BRANCH   1   6
ATOM      6  C   UNL     1       5.202   5.415  -4.474  1.00  0.00     0.096 C 
ATOM      7  O   UNL     1       4.234   5.850  -3.797  1.00  0.00    -0.544 OA
ATOM      8  O   UNL     1       5.454   4.049  -4.515  1.00  0.00    -0.544 OA
ENDBRANCH   1   6
TORSDOF 2
ENDMDL
MODEL 9
REMARK VINA RESULT:    -1.875      8.857      9.079
REMARK INTER + INTRA:          -2.039
REMARK INTER:                  -2.039
REMARK INTRA:                   0.000
REMARK UNBOUND:                 0.000
REMARK SMILES [NH3+]CC(=O)[O-]
REMARK SMILES IDX 2 1 1 2 3 6 4 7 5 8
REMARK H PARENT 1 3 1 4 1 5
REMARK Flexibility Score: inf
ROOT
ATOM      1  C   UNL     1       5.911   4.413  -4.945  1.00  0.00     0.312 C 
ENDROOT
BRANCH   1   2
ATOM      2  N   UNL     1       4.972   3.619  -4.155  1.00  0.00    -0.353 N 
ATOM      3  H   UNL     1       4.339   3.077  -4.789  1.00  0.00     0.344 HD
ATOM      4  H   UNL     1       5.507   2.949  -3.559  1.00  0.00     0.344 HD
ATOM      5  H   UNL     1       4.403   4.244  -3.539  1.00  0.00     0.344 HD
ENDBRANCH   1   2
BRANCH   1   6
ATOM      6  C   UNL     1       5.590   5.872  -4.838  1.00  0.00     0.096 C 
ATOM      7  O   UNL     1       6.451   6.734  -5.151  1.00  0.00    -0.544 OA
ATOM      8  O   UNL     1       4.322   6.277  -4.441  1.00  0.00    -0.544 OA
ENDBRANCH   1   6
TORSDOF 2
ENDMDL
