MODEL 1
REMARK VINA RESULT:    -4.956      0.000      0.000
REMARK INTER + INTRA:         -10.750
REMARK INTER:                  -8.723
REMARK INTRA:                  -2.027
REMARK UNBOUND:                -2.027
REMARK SMILES CCCCCCCCCCCCCCC(=O)[O-]
REMARK SMILES IDX 9 1 10 2 11 3 12 4 13 5 14 6 15 7 16 8 17 9 8 10 7 11 6 12
REMARK SMILES IDX 5 13 4 14 3 15 2 16 1 17
REMARK H PARENT
REMARK Flexibility Score: inf
ROOT
ATOM      1  C   UNL     1      12.365  16.119  72.010  1.00  0.00     0.000 C 
ENDROOT
BRANCH   1   2
ATOM      2  C   UNL     1      10.921  16.644  72.120  1.00  0.00     0.000 C 
BRANCH   2   3
ATOM      3  C   UNL     1      10.203  16.701  70.761  1.00  0.00     0.000 C 
BRANCH   3   4
ATOM      4  C   UNL     1       9.993  18.141  70.264  1.00  0.00     0.000 C 
BRANCH   4   5
ATOM      5  C   UNL     1      10.561  18.369  68.852  1.00  0.00     0.006 C 
BRANCH   5   6
ATOM      6  C   UNL     1      10.902  17.049  68.147  1.00  0.00     0.053 C 
BRANCH   6   7
ATOM      7  C   UNL     1      11.786  17.265  66.957  1.00  0.00     0.041 C 
ATOM      8  O   UNL     1      11.724  18.343  66.309  1.00  0.00    -0.550 OA
ATOM      9  O   UNL     1      12.658  16.264  66.545  1.00  0.00    -0.550 OA
ENDBRANCH   6   7
ENDBRANCH   5   6
ENDBRANCH   4   5
ENDBRANCH   3   4
ENDBRANCH   2   3
ENDBRANCH   1   2
BRANCH   1  10
ATOM     10  C   UNL     1      13.261  16.866  71.001  1.00  0.00     0.000 C 
BRANCH  10  11
ATOM     11  C   UNL     1      14.075  15.962  70.058  1.00  0.00    -0.000 C 
BRANCH  11  12
ATOM     12  C   UNL     1      14.389  14.587  70.674  1.00  0.00    -0.000 C 
BRANCH  12  13
ATOM     13  C   UNL     1      13.854  13.426  69.810  1.00  0.00    -0.000 C 
BRANCH  13  14
ATOM     14  C   UNL     1      12.531  13.751  69.094  1.00  0.00    -0.000 C 
BRANCH  14  15
ATOM     15  C   UNL     1      11.294  13.368  69.924  1.00  0.00    -0.000 C 
BRANCH  15  16
ATOM     16  C   UNL     1      10.028  13.232  69.066  1.00  0.00    -0.003 C 
ATOM     17  C   UNL     1      10.268  12.438  67.782  1.00  0.00     0.004 C 
ENDBRANCH  15  16
ENDBRANCH  14  15
ENDBRANCH  13  14
ENDBRANCH  12  13
ENDBRANCH  11  12
ENDBRANCH  10  11
ENDBRANCH   1  10
TORSDOF 13
ENDMDL
MODEL 2
REMARK VINA RESULT:    -4.842      1.081      3.212
REMARK INTER + INTRA:         -10.549
REMARK INTER:                  -8.324
REMARK INTRA:                  -2.224
REMARK UNBOUND:                -2.027
REMARK SMILES CCCCCCCCCCCCCCC(=O)[O-]
REMARK SMILES IDX 9 1 10 2 11 3 12 4 13 5 14 6 15 7 16 8 17 9 8 10 7 11 6 12
REMARK SMILES IDX 5 13 4 14 3 15 2 16 1 17
REMARK H PARENT
REMARK Flexibility Score: inf
ROOT
ATOM      1  C   UNL     1      11.983  12.908  68.906  1.00  0.00     0.000 C 
ENDROOT
BRANCH   1   2
ATOM      2  C   UNL     1      10.735  13.155  68.039  1.00  0.00     0.000 C 
BRANCH   2   3
ATOM      3  C   UNL     1       9.538  13.677  68.851  1.00  0.00     0.000 C 
BRANCH   3   4
ATOM      4  C   UNL     1       9.370  15.202  68.741  1.00  0.00     0.000 C 
BRANCH   4   5
ATOM      5  C   UNL     1      10.049  15.783  67.489  1.00  0.00     0.006 C 
BRANCH   5   6
ATOM      6  C   UNL     1      10.628  17.182  67.742  1.00  0.00     0.053 C 
BRANCH   6   7
ATOM      7  C   UNL     1      11.718  17.519  66.772  1.00  0.00     0.041 C 
ATOM      8  O   UNL     1      11.809  18.682  66.299  1.00  0.00    -0.550 OA
ATOM      9  O   UNL     1      12.617  16.539  66.366  1.00  0.00    -0.550 OA
ENDBRANCH   6   7
ENDBRANCH   5   6
ENDBRANCH   4   5
ENDBRANCH   3   4
ENDBRANCH   2   3
ENDBRANCH   1   2
BRANCH   1  10
ATOM     10  C   UNL     1      13.098  13.964  68.770  1.00  0.00     0.000 C 
BRANCH  10  11
ATOM     11  C   UNL     1      14.253  13.827  69.777  1.00  0.00    -0.000 C 
BRANCH  11  12
ATOM     12  C   UNL     1      14.631  15.165  70.437  1.00  0.00    -0.000 C 
BRANCH  12  13
ATOM     13  C   UNL     1      13.709  16.317  69.986  1.00  0.00    -0.000 C 
BRANCH  13  14
ATOM     14  C   UNL     1      12.888  16.933  71.133  1.00  0.00    -0.000 C 
BRANCH  14  15
ATOM     15  C   UNL     1      11.462  16.364  71.218  1.00  0.00    -0.000 C 
BRANCH  15  16
ATOM     16  C   UNL     1      11.247  15.498  72.468  1.00  0.00    -0.003 C 
ATOM     17  C   UNL     1      11.112  14.011  72.140  1.00  0.00     0.004 C 
ENDBRANCH  15  16
ENDBRANCH  14  15
ENDBRANCH  13  14
ENDBRANCH  12  13
ENDBRANCH  11  12
ENDBRANCH  10  11
ENDBRANCH   1  10
TORSDOF 13
ENDMDL
MODEL 3
REMARK VINA RESULT:    -4.806      2.217      4.702
REMARK INTER + INTRA:         -10.486
REMARK INTER:                  -8.204
REMARK INTRA:                  -2.283
REMARK UNBOUND:                -2.027
REMARK SMILES CCCCCCCCCCCCCCC(=O)[O-]
REMARK SMILES IDX 9 1 10 2 11 3 12 4 13 5 14 6 15 7 16 8 17 9 8 10 7 11 6 12
REMARK SMILES IDX 5 13 4 14 3 15 2 16 1 17
REMARK H PARENT
REMARK Flexibility Score: inf
ROOT
ATOM      1  C   UNL     1      14.388  15.071  69.480  1.00  0.00     0.000 C 
ENDROOT
BRANCH   1   2
ATOM      2  C   UNL     1      13.538  15.328  68.222  1.00  0.00     0.000 C 
BRANCH   2   3
ATOM      3  C   UNL     1      12.357  14.352  68.091  1.00  0.00     0.000 C 
BRANCH   3   4
ATOM      4  C   UNL     1      12.354  13.278  69.191  1.00  0.00     0.000 C 
BRANCH   4   5
ATOM      5  C   UNL     1      11.018  13.215  69.953  1.00  0.00     0.006 C 
BRANCH   5   6
ATOM      6  C   UNL     1       9.816  13.123  69.004  1.00  0.00     0.053 C 
BRANCH   6   7
ATOM      7  C   UNL     1       9.803  11.831  68.245  1.00  0.00     0.041 C 
ATOM      8  O   UNL     1       9.404  10.774  68.801  1.00  0.00    -0.550 OA
ATOM      9  O   UNL     1      10.259  11.789  66.933  1.00  0.00    -0.550 OA
ENDBRANCH   6   7
ENDBRANCH   5   6
ENDBRANCH   4   5
ENDBRANCH   3   4
ENDBRANCH   2   3
ENDBRANCH   1   2
BRANCH   1  10
ATOM     10  C   UNL     1      14.458  16.246  70.478  1.00  0.00     0.000 C 
BRANCH  10  11
ATOM     11  C   UNL     1      13.098  16.856  70.862  1.00  0.00    -0.000 C 
BRANCH  11  12
ATOM     12  C   UNL     1      12.275  15.944  71.789  1.00  0.00    -0.000 C 
BRANCH  12  13
ATOM     13  C   UNL     1      10.823  16.440  71.954  1.00  0.00    -0.000 C 
BRANCH  13  14
ATOM     14  C   UNL     1      10.373  17.405  70.843  1.00  0.00    -0.000 C 
BRANCH  14  15
ATOM     15  C   UNL     1       9.534  16.712  69.756  1.00  0.00    -0.000 C 
BRANCH  15  16
ATOM     16  C   UNL     1      10.131  16.885  68.352  1.00  0.00    -0.003 C 
ATOM     17  C   UNL     1      10.951  18.167  68.213  1.00  0.00     0.004 C 
ENDBRANCH  15  16
ENDBRANCH  14  15
ENDBRANCH  13  14
ENDBRANCH  12  13
ENDBRANCH  11  12
ENDBRANCH  10  11
ENDBRANCH   1  10
TORSDOF 13
ENDMDL
MODEL 4
REMARK VINA RESULT:    -4.791      2.687      4.686
REMARK INTER + INTRA:         -10.459
REMARK INTER:                  -8.743
REMARK INTRA:                  -1.716
REMARK UNBOUND:                -2.027
REMARK SMILES CCCCCCCCCCCCCCC(=O)[O-]
REMARK SMILES IDX 9 1 10 2 11 3 12 4 13 5 14 6 15 7 16 8 17 9 8 10 7 11 6 12
REMARK SMILES IDX 5 13 4 14 3 15 2 16 1 17
REMARK H PARENT
REMARK Flexibility Score: inf
ROOT
ATOM      1  C   UNL     1       9.407  15.724  68.113  1.00  0.00     0.000 C 
ENDROOT
BRANCH   1   2
ATOM      2  C   UNL     1      10.625  16.560  67.676  1.00  0.00     0.000 C 
BRANCH   2   3
ATOM      3  C   UNL     1      11.320  17.262  68.854  1.00  0.00     0.000 C 
BRANCH   3   4
ATOM      4  C   UNL     1      10.356  18.139  69.670  1.00  0.00     0.000 C 
BRANCH   4   5
ATOM      5  C   UNL     1      10.047  17.546  71.057  1.00  0.00     0.006 C 
BRANCH   5   6
ATOM      6  C   UNL     1      11.198  16.678  71.583  1.00  0.00     0.053 C 
BRANCH   6   7
ATOM      7  C   UNL     1      10.736  15.722  72.640  1.00  0.00     0.041 C 
ATOM      8  O   UNL     1      10.055  16.135  73.615  1.00  0.00    -0.550 OA
ATOM      9  O   UNL     1      11.084  14.379  72.565  1.00  0.00    -0.550 OA
ENDBRANCH   6   7
ENDBRANCH   5   6
ENDBRANCH   4   5
ENDBRANCH   3   4
ENDBRANCH   2   3
ENDBRANCH   1   2
BRANCH   1  10
ATOM     10  C   UNL     1       9.736  14.470  68.949  1.00  0.00     0.000 C 
BRANCH  10  11
ATOM     11  C   UNL     1      10.158  13.235  68.133  1.00  0.00    -0.000 C 
BRANCH  11  12
ATOM     12  C   UNL     1      11.581  12.755  68.471  1.00  0.00    -0.000 C 
BRANCH  12  13
ATOM     13  C   UNL     1      12.303  13.713  69.441  1.00  0.00    -0.000 C 
BRANCH  13  14
ATOM     14  C   UNL     1      13.498  14.446  68.806  1.00  0.00    -0.000 C 
BRANCH  14  15
ATOM     15  C   UNL     1      14.376  15.166  69.843  1.00  0.00    -0.000 C 
BRANCH  15  16
ATOM     16  C   UNL     1      15.512  14.278  70.371  1.00  0.00    -0.003 C 
ATOM     17  C   UNL     1      16.864  14.612  69.739  1.00  0.00     0.004 C 
ENDBRANCH  15  16
ENDBRANCH  14  15
ENDBRANCH  13  14
ENDBRANCH  12  13
ENDBRANCH  11  12
ENDBRANCH  10  11
ENDBRANCH   1  10
TORSDOF 13
ENDMDL
MODEL 5
REMARK VINA RESULT:    -4.765      2.068      4.693
REMARK INTER + INTRA:         -10.413
REMARK INTER:                  -8.479
REMARK INTRA:                  -1.934
REMARK UNBOUND:                -2.027
REMARK SMILES CCCCCCCCCCCCCCC(=O)[O-]
REMARK SMILES IDX 9 1 10 2 11 3 12 4 13 5 14 6 15 7 16 8 17 9 8 10 7 11 6 12
REMARK SMILES IDX 5 13 4 14 3 15 2 16 1 17
REMARK H PARENT
REMARK Flexibility Score: inf
ROOT
ATOM      1  C   UNL     1      13.264  16.887  71.284  1.00  0.00     0.000 C 
ENDROOT
BRANCH   1   2
ATOM      2  C   UNL     1      13.888  15.997  70.193  1.00  0.00     0.000 C 
BRANCH   2   3
ATOM      3  C   UNL     1      14.198  14.575  70.689  1.00  0.00     0.000 C 
BRANCH   3   4
ATOM      4  C   UNL     1      13.656  13.489  69.745  1.00  0.00     0.000 C 
BRANCH   4   5
ATOM      5  C   UNL     1      12.118  13.455  69.703  1.00  0.00     0.006 C 
BRANCH   5   6
ATOM      6  C   UNL     1      11.590  12.722  68.462  1.00  0.00     0.053 C 
BRANCH   6   7
ATOM      7  C   UNL     1      10.111  12.490  68.539  1.00  0.00     0.041 C 
ATOM      8  O   UNL     1       9.328  13.457  68.731  1.00  0.00    -0.550 OA
ATOM      9  O   UNL     1       9.601  11.202  68.430  1.00  0.00    -0.550 OA
ENDBRANCH   6   7
ENDBRANCH   5   6
ENDBRANCH   4   5
ENDBRANCH   3   4
ENDBRANCH   2   3
ENDBRANCH   1   2
BRANCH   1  10
ATOM     10  C   UNL     1      12.102  16.247  72.070  1.00  0.00     0.000 C 
BRANCH  10  11
ATOM     11  C   UNL     1      10.711  16.835  71.771  1.00  0.00    -0.000 C 
BRANCH  11  12
ATOM     12  C   UNL     1      10.122  16.327  70.443  1.00  0.00    -0.000 C 
BRANCH  12  13
ATOM     13  C   UNL     1       9.730  17.484  69.500  1.00  0.00    -0.000 C 
BRANCH  13  14
ATOM     14  C   UNL     1      10.936  18.258  68.942  1.00  0.00    -0.000 C 
BRANCH  14  15
ATOM     15  C   UNL     1      11.290  17.852  67.501  1.00  0.00    -0.000 C 
BRANCH  15  16
ATOM     16  C   UNL     1      11.386  16.329  67.326  1.00  0.00    -0.003 C 
ATOM     17  C   UNL     1      12.753  15.879  66.813  1.00  0.00     0.004 C 
ENDBRANCH  15  16
ENDBRANCH  14  15
ENDBRANCH  13  14
ENDBRANCH  12  13
ENDBRANCH  11  12
ENDBRANCH  10  11
ENDBRANCH   1  10
TORSDOF 13
ENDMDL
MODEL 6
REMARK VINA RESULT:    -4.751      2.932      4.835
REMARK INTER + INTRA:         -10.389
REMARK INTER:                  -8.143
REMARK INTRA:                  -2.246
REMARK UNBOUND:                -2.027
REMARK SMILES CCCCCCCCCCCCCCC(=O)[O-]
REMARK SMILES IDX 9 1 10 2 11 3 12 4 13 5 14 6 15 7 16 8 17 9 8 10 7 11 6 12
REMARK SMILES IDX 5 13 4 14 3 15 2 16 1 17
REMARK H PARENT
REMARK Flexibility Score: inf
ROOT
ATOM      1  C   UNL     1      13.254  14.480  70.514  1.00  0.00     0.000 C 
ENDROOT
BRANCH   1   2
ATOM      2  C   UNL     1      13.349  16.016  70.586  1.00  0.00     0.000 C 
BRANCH   2   3
ATOM      3  C   UNL     1      12.345  16.629  71.577  1.00  0.00     0.000 C 
BRANCH   3   4
ATOM      4  C   UNL     1      11.583  15.562  72.382  1.00  0.00     0.000 C 
BRANCH   4   5
ATOM      5  C   UNL     1      10.292  16.109  73.015  1.00  0.00     0.006 C 
BRANCH   5   6
ATOM      6  C   UNL     1       9.663  17.227  72.171  1.00  0.00     0.053 C 
BRANCH   6   7
ATOM      7  C   UNL     1       8.352  17.682  72.736  1.00  0.00     0.041 C 
ATOM      8  O   UNL     1       8.170  17.697  73.982  1.00  0.00    -0.550 OA
ATOM      9  O   UNL     1       7.321  18.061  71.886  1.00  0.00    -0.550 OA
ENDBRANCH   6   7
ENDBRANCH   5   6
ENDBRANCH   4   5
ENDBRANCH   3   4
ENDBRANCH   2   3
ENDBRANCH   1   2
BRANCH   1  10
ATOM     10  C   UNL     1      13.222  13.890  69.089  1.00  0.00     0.000 C 
BRANCH  10  11
ATOM     11  C   UNL     1      11.995  13.016  68.773  1.00  0.00    -0.000 C 
BRANCH  11  12
ATOM     12  C   UNL     1      10.771  13.374  69.635  1.00  0.00    -0.000 C 
BRANCH  12  13
ATOM     13  C   UNL     1       9.675  14.091  68.820  1.00  0.00    -0.000 C 
BRANCH  13  14
ATOM     14  C   UNL     1       9.721  15.624  68.944  1.00  0.00    -0.000 C 
BRANCH  14  15
ATOM     15  C   UNL     1      10.138  16.316  67.635  1.00  0.00    -0.000 C 
BRANCH  15  16
ATOM     16  C   UNL     1      11.234  17.370  67.850  1.00  0.00    -0.003 C 
ATOM     17  C   UNL     1      10.804  18.480  68.810  1.00  0.00     0.004 C 
ENDBRANCH  15  16
ENDBRANCH  14  15
ENDBRANCH  13  14
ENDBRANCH  12  13
ENDBRANCH  11  12
ENDBRANCH  10  11
ENDBRANCH   1  10
TORSDOF 13
ENDMDL
MODEL 7
REMARK VINA RESULT:    -4.737      2.363      4.901
REMARK INTER + INTRA:         -10.365
REMARK INTER:                  -8.283
REMARK INTRA:                  -2.082
REMARK UNBOUND:                -2.027
REMARK SMILES CCCCCCCCCCCCCCC(=O)[O-]
REMARK SMILES IDX 9 1 10 2 11 3 12 4 13 5 14 6 15 7 16 8 17 9 8 10 7 11 6 12
REMARK SMILES IDX 5 13 4 14 3 15 2 16 1 17
REMARK H PARENT
REMARK Flexibility Score: inf
ROOT
ATOM      1  C   UNL     1       9.519  15.729  68.302  1.00  0.00     0.000 C 
ENDROOT
BRANCH   1   2
ATOM      2  C   UNL     1      10.096  14.417  68.864  1.00  0.00     0.000 C 
BRANCH   2   3
ATOM      3  C   UNL     1      11.247  13.858  68.010  1.00  0.00     0.000 C 
BRANCH   3   4
ATOM      4  C   UNL     1      12.569  13.765  68.790  1.00  0.00     0.000 C 
BRANCH   4   5
ATOM      5  C   UNL     1      13.514  14.944  68.496  1.00  0.00     0.006 C 
BRANCH   5   6
ATOM      6  C   UNL     1      14.148  15.509  69.774  1.00  0.00     0.053 C 
BRANCH   6   7
ATOM      7  C   UNL     1      15.352  14.723  70.193  1.00  0.00     0.041 C 
ATOM      8  O   UNL     1      15.283  13.930  71.168  1.00  0.00    -0.550 OA
ATOM      9  O   UNL     1      16.560  14.890  69.527  1.00  0.00    -0.550 OA
ENDBRANCH   6   7
ENDBRANCH   5   6
ENDBRANCH   4   5
ENDBRANCH   3   4
ENDBRANCH   2   3
ENDBRANCH   1   2
BRANCH   1  10
ATOM     10  C   UNL     1      10.486  16.550  67.425  1.00  0.00     0.000 C 
BRANCH  10  11
ATOM     11  C   UNL     1      10.852  17.938  67.981  1.00  0.00    -0.000 C 
BRANCH  11  12
ATOM     12  C   UNL     1      11.275  17.894  69.461  1.00  0.00    -0.000 C 
BRANCH  12  13
ATOM     13  C   UNL     1      10.116  18.269  70.408  1.00  0.00    -0.000 C 
BRANCH  13  14
ATOM     14  C   UNL     1       9.958  17.305  71.597  1.00  0.00    -0.000 C 
BRANCH  14  15
ATOM     15  C   UNL     1      11.170  16.375  71.776  1.00  0.00    -0.000 C 
BRANCH  15  16
ATOM     16  C   UNL     1      10.889  15.224  72.753  1.00  0.00    -0.003 C 
ATOM     17  C   UNL     1      11.277  13.859  72.183  1.00  0.00     0.004 C 
ENDBRANCH  15  16
ENDBRANCH  14  15
ENDBRANCH  13  14
ENDBRANCH  12  13
ENDBRANCH  11  12
ENDBRANCH  10  11
ENDBRANCH   1  10
TORSDOF 13
ENDMDL
MODEL 8
REMARK VINA RESULT:    -4.736      2.208      5.114
REMARK INTER + INTRA:         -10.362
REMARK INTER:                  -8.274
REMARK INTRA:                  -2.088
REMARK UNBOUND:                -2.027
REMARK SMILES CCCCCCCCCCCCCCC(=O)[O-]
REMARK SMILES IDX 9 1 10 2 11 3 12 4 13 5 14 6 15 7 16 8 17 9 8 10 7 11 6 12
REMARK SMILES IDX 5 13 4 14 3 15 2 16 1 17
REMARK H PARENT
REMARK Flexibility Score: inf
ROOT
ATOM      1  C   UNL     1      13.418  15.013  68.011  1.00  0.00     0.000 C 
ENDROOT
BRANCH   1   2
ATOM      2  C   UNL     1      13.521  15.657  69.406  1.00  0.00     0.000 C 
BRANCH   2   3
ATOM      3  C   UNL     1      13.132  14.692  70.538  1.00  0.00     0.000 C 
BRANCH   3   4
ATOM      4  C   UNL     1      12.383  13.451  70.025  1.00  0.00     0.000 C 
BRANCH   4   5
ATOM      5  C   UNL     1      10.892  13.459  70.407  1.00  0.00     0.006 C 
BRANCH   5   6
ATOM      6  C   UNL     1       9.981  13.593  69.179  1.00  0.00     0.053 C 
BRANCH   6   7
ATOM      7  C   UNL     1      10.057  12.386  68.294  1.00  0.00     0.041 C 
ATOM      8  O   UNL     1      10.496  12.489  67.119  1.00  0.00    -0.550 OA
ATOM      9  O   UNL     1       9.614  11.153  68.758  1.00  0.00    -0.550 OA
ENDBRANCH   6   7
ENDBRANCH   5   6
ENDBRANCH   4   5
ENDBRANCH   3   4
ENDBRANCH   2   3
ENDBRANCH   1   2
BRANCH   1  10
ATOM     10  C   UNL     1      12.676  15.854  66.952  1.00  0.00     0.000 C 
BRANCH  10  11
ATOM     11  C   UNL     1      11.298  16.384  67.388  1.00  0.00    -0.000 C 
BRANCH  11  12
ATOM     12  C   UNL     1      11.257  17.919  67.495  1.00  0.00    -0.000 C 
BRANCH  12  13
ATOM     13  C   UNL     1      10.722  18.393  68.863  1.00  0.00    -0.000 C 
BRANCH  13  14
ATOM     14  C   UNL     1      10.042  17.278  69.676  1.00  0.00    -0.000 C 
BRANCH  14  15
ATOM     15  C   UNL     1      10.411  17.319  71.169  1.00  0.00    -0.000 C 
BRANCH  15  16
ATOM     16  C   UNL     1       9.181  17.470  72.076  1.00  0.00    -0.003 C 
ATOM     17  C   UNL     1       8.501  18.831  71.925  1.00  0.00     0.004 C 
ENDBRANCH  15  16
ENDBRANCH  14  15
ENDBRANCH  13  14
ENDBRANCH  12  13
ENDBRANCH  11  12
ENDBRANCH  10  11
ENDBRANCH   1  10
TORSDOF 13
ENDMDL
MODEL 9
REMARK VINA RESULT:    -4.713      3.324      4.430
REMARK INTER + INTRA:         -10.322
REMARK INTER:                  -8.429
REMARK INTRA:                  -1.893
REMARK UNBOUND:                -2.027
REMARK SMILES CCCCCCCCCCCCCCC(=O)[O-]
REMARK SMILES IDX 9 1 10 2 11 3 12 4 13 5 14 6 15 7 16 8 17 9 8 10 7 11 6 12
REMARK SMILES IDX 5 13 4 14 3 15 2 16 1 17
REMARK H PARENT
REMARK Flexibility Score: inf
ROOT
ATOM      1  C   UNL     1      11.014  16.610  67.714  1.00  0.00     0.000 C 
ENDROOT
BRANCH   1   2
ATOM      2  C   UNL     1      10.945  18.085  68.151  1.00  0.00     0.000 C 
BRANCH   2   3
ATOM      3  C   UNL     1      10.791  18.249  69.672  1.00  0.00     0.000 C 
BRANCH   3   4
ATOM      4  C   UNL     1      10.111  17.038  70.331  1.00  0.00     0.000 C 
BRANCH   4   5
ATOM      5  C   UNL     1       9.922  17.218  71.848  1.00  0.00     0.006 C 
BRANCH   5   6
ATOM      6  C   UNL     1       8.502  17.683  72.202  1.00  0.00     0.053 C 
BRANCH   6   7
ATOM      7  C   UNL     1       8.241  17.603  73.675  1.00  0.00     0.041 C 
ATOM      8  O   UNL     1       8.262  16.491  74.264  1.00  0.00    -0.550 OA
ATOM      9  O   UNL     1       7.944  18.756  74.393  1.00  0.00    -0.550 OA
ENDBRANCH   6   7
ENDBRANCH   5   6
ENDBRANCH   4   5
ENDBRANCH   3   4
ENDBRANCH   2   3
ENDBRANCH   1   2
BRANCH   1  10
ATOM     10  C   UNL     1      12.358  16.169  67.098  1.00  0.00     0.000 C 
BRANCH  10  11
ATOM     11  C   UNL     1      13.156  15.153  67.934  1.00  0.00    -0.000 C 
BRANCH  11  12
ATOM     12  C   UNL     1      13.512  15.682  69.335  1.00  0.00    -0.000 C 
BRANCH  12  13
ATOM     13  C   UNL     1      13.168  14.667  70.445  1.00  0.00    -0.000 C 
BRANCH  13  14
ATOM     14  C   UNL     1      12.418  13.426  69.932  1.00  0.00    -0.000 C 
BRANCH  14  15
ATOM     15  C   UNL     1      10.934  13.417  70.337  1.00  0.00    -0.000 C 
BRANCH  15  16
ATOM     16  C   UNL     1       9.993  13.518  69.127  1.00  0.00    -0.003 C 
ATOM     17  C   UNL     1       9.984  12.246  68.280  1.00  0.00     0.004 C 
ENDBRANCH  15  16
ENDBRANCH  14  15
ENDBRANCH  13  14
ENDBRANCH  12  13
ENDBRANCH  11  12
ENDBRANCH  10  11
ENDBRANCH   1  10
TORSDOF 13
ENDMDL
