MODEL 1
REMARK VINA RESULT:    -6.510      0.000      0.000
REMARK INTER + INTRA:          -7.190
REMARK INTER:                  -7.081
REMARK INTRA:                  -0.109
REMARK UNBOUND:                -0.109
REMARK SMILES CC(=O)[C@@H]1CC[C@H]2[C@H]3CC=C4C[C@H](O)CC[C@]4(C)[C@H]3CC[C@]12C
REMARK SMILES IDX 4 1 5 2 6 3 7 4 22 5 21 6 20 7 19 8 8 9 9 10 10 11 11 12
REMARK SMILES IDX 17 13 16 14 15 15 13 16 12 17 18 18 23 19 2 20 1 21 3 22
REMARK SMILES IDX 14 23
REMARK H PARENT 14 24
REMARK Flexibility Score: inf
ROOT
ATOM      1  C   UNL     1     145.813 128.772 116.918  1.00  0.00     0.062 C 
ATOM      2  C   UNL     1     145.734 130.280 117.291  1.00  0.00     0.012 C 
ATOM      3  C   UNL     1     144.342 130.789 116.870  1.00  0.00     0.005 C 
ATOM      4  C   UNL     1     143.588 129.521 116.507  1.00  0.00    -0.001 C 
ATOM      5  C   UNL     1     144.634 128.560 115.916  1.00  0.00    -0.020 C 
ATOM      6  C   UNL     1     143.999 127.146 115.850  1.00  0.00     0.008 C 
ATOM      7  C   UNL     1     142.640 127.156 115.093  1.00  0.00     0.005 C 
ATOM      8  C   UNL     1     141.611 128.175 115.689  1.00  0.00     0.003 C 
ATOM      9  C   UNL     1     142.222 129.602 115.785  1.00  0.00     0.000 C 
ATOM     10  C   UNL     1     142.230 130.286 114.413  1.00  0.00     0.031 C 
ATOM     11  C   UNL     1     140.843 130.353 113.865  1.00  0.00    -0.027 C 
ATOM     12  C   UNL     1     139.926 129.387 114.074  1.00  0.00    -0.065 C 
ATOM     13  C   UNL     1     140.158 128.195 115.026  1.00  0.00    -0.008 C 
ATOM     14  C   UNL     1     139.109 128.333 116.177  1.00  0.00     0.014 C 
ATOM     15  C   UNL     1     137.662 128.566 115.699  1.00  0.00     0.033 C 
ATOM     16  C   UNL     1     137.550 129.766 114.740  1.00  0.00     0.118 C 
ATOM     17  C   UNL     1     138.517 129.614 113.559  1.00  0.00     0.063 C 
ATOM     18  C   UNL     1     139.878 126.875 114.258  1.00  0.00     0.016 C 
ATOM     19  C   UNL     1     145.174 128.949 114.501  1.00  0.00     0.012 C 
ENDROOT
BRANCH   1  20
ATOM     20  C   UNL     1     145.758 127.881 118.153  1.00  0.00     0.133 C 
ATOM     21  C   UNL     1     144.814 128.182 119.279  1.00  0.00     0.088 C 
ATOM     22  O   UNL     1     146.487 126.904 118.246  1.00  0.00    -0.300 OA
ENDBRANCH   1  20
BRANCH  16  23
ATOM     23  O   UNL     1     137.827 130.963 115.421  1.00  0.00    -0.393 OA
ATOM     24  H   UNL     1     136.955 131.342 115.703  1.00  0.00     0.210 HD
ENDBRANCH  16  23
TORSDOF 2
ENDMDL
MODEL 2
REMARK VINA RESULT:    -5.980      1.195      6.624
REMARK INTER + INTRA:          -6.613
REMARK INTER:                  -6.480
REMARK INTRA:                  -0.133
REMARK UNBOUND:                -0.109
REMARK SMILES CC(=O)[C@@H]1CC[C@H]2[C@H]3CC=C4C[C@H](O)CC[C@]4(C)[C@H]3CC[C@]12C
REMARK SMILES IDX 4 1 5 2 6 3 7 4 22 5 21 6 20 7 19 8 8 9 9 10 10 11 11 12
REMARK SMILES IDX 17 13 16 14 15 15 13 16 12 17 18 18 23 19 2 20 1 21 3 22
REMARK SMILES IDX 14 23
REMARK H PARENT 14 24
REMARK Flexibility Score: inf
ROOT
ATOM      1  C   UNL     1     137.312 129.089 115.129  1.00  0.00     0.062 C 
ATOM      2  C   UNL     1     137.097 127.787 115.950  1.00  0.00     0.012 C 
ATOM      3  C   UNL     1     138.488 127.245 116.330  1.00  0.00     0.005 C 
ATOM      4  C   UNL     1     139.434 128.368 115.939  1.00  0.00    -0.001 C 
ATOM      5  C   UNL     1     138.812 129.033 114.699  1.00  0.00    -0.020 C 
ATOM      6  C   UNL     1     139.540 130.383 114.466  1.00  0.00     0.008 C 
ATOM      7  C   UNL     1     141.083 130.203 114.390  1.00  0.00     0.005 C 
ATOM      8  C   UNL     1     141.683 129.485 115.646  1.00  0.00     0.003 C 
ATOM      9  C   UNL     1     140.962 128.133 115.918  1.00  0.00     0.000 C 
ATOM     10  C   UNL     1     141.459 127.046 114.958  1.00  0.00     0.031 C 
ATOM     11  C   UNL     1     142.937 126.881 115.089  1.00  0.00    -0.027 C 
ATOM     12  C   UNL     1     143.768 127.911 115.349  1.00  0.00    -0.065 C 
ATOM     13  C   UNL     1     143.271 129.330 115.692  1.00  0.00    -0.008 C 
ATOM     14  C   UNL     1     143.737 129.624 117.156  1.00  0.00     0.014 C 
ATOM     15  C   UNL     1     145.227 129.327 117.424  1.00  0.00     0.033 C 
ATOM     16  C   UNL     1     145.617 127.891 117.026  1.00  0.00     0.118 C 
ATOM     17  C   UNL     1     145.238 127.606 115.568  1.00  0.00     0.063 C 
ATOM     18  C   UNL     1     143.958 130.348 114.742  1.00  0.00     0.016 C 
ATOM     19  C   UNL     1     138.870 128.183 113.387  1.00  0.00     0.012 C 
ENDROOT
BRANCH   1  20
ATOM     20  C   UNL     1     136.933 130.331 115.928  1.00  0.00     0.133 C 
ATOM     21  C   UNL     1     137.157 130.392 117.410  1.00  0.00     0.088 C 
ATOM     22  O   UNL     1     136.436 131.299 115.371  1.00  0.00    -0.300 OA
ENDBRANCH   1  20
BRANCH  16  23
ATOM     23  O   UNL     1     144.980 126.962 117.865  1.00  0.00    -0.393 OA
ATOM     24  H   UNL     1     144.336 127.472 118.422  1.00  0.00     0.210 HD
ENDBRANCH  16  23
TORSDOF 2
ENDMDL
MODEL 3
REMARK VINA RESULT:    -5.808      2.886      3.886
REMARK INTER + INTRA:          -6.426
REMARK INTER:                  -6.287
REMARK INTRA:                  -0.139
REMARK UNBOUND:                -0.109
REMARK SMILES CC(=O)[C@@H]1CC[C@H]2[C@H]3CC=C4C[C@H](O)CC[C@]4(C)[C@H]3CC[C@]12C
REMARK SMILES IDX 4 1 5 2 6 3 7 4 22 5 21 6 20 7 19 8 8 9 9 10 10 11 11 12
REMARK SMILES IDX 17 13 16 14 15 15 13 16 12 17 18 18 23 19 2 20 1 21 3 22
REMARK SMILES IDX 14 23
REMARK H PARENT 14 24
REMARK Flexibility Score: inf
ROOT
ATOM      1  C   UNL     1     145.021 128.980 114.888  1.00  0.00     0.062 C 
ATOM      2  C   UNL     1     145.692 130.014 115.835  1.00  0.00     0.012 C 
ATOM      3  C   UNL     1     144.760 130.206 117.047  1.00  0.00     0.005 C 
ATOM      4  C   UNL     1     143.723 129.108 116.883  1.00  0.00    -0.001 C 
ATOM      5  C   UNL     1     143.536 128.924 115.367  1.00  0.00    -0.020 C 
ATOM      6  C   UNL     1     142.761 127.599 115.140  1.00  0.00     0.008 C 
ATOM      7  C   UNL     1     141.439 127.554 115.958  1.00  0.00     0.005 C 
ATOM      8  C   UNL     1     141.655 127.787 117.491  1.00  0.00     0.003 C 
ATOM      9  C   UNL     1     142.445 129.101 117.755  1.00  0.00     0.000 C 
ATOM     10  C   UNL     1     141.533 130.325 117.614  1.00  0.00     0.031 C 
ATOM     11  C   UNL     1     140.380 130.217 118.555  1.00  0.00    -0.027 C 
ATOM     12  C   UNL     1     139.801 129.041 118.871  1.00  0.00    -0.065 C 
ATOM     13  C   UNL     1     140.362 127.676 118.422  1.00  0.00    -0.008 C 
ATOM     14  C   UNL     1     140.774 126.913 119.723  1.00  0.00     0.014 C 
ATOM     15  C   UNL     1     139.691 126.889 120.820  1.00  0.00     0.033 C 
ATOM     16  C   UNL     1     139.188 128.301 121.176  1.00  0.00     0.118 C 
ATOM     17  C   UNL     1     138.706 129.041 119.922  1.00  0.00     0.063 C 
ATOM     18  C   UNL     1     139.235 126.875 117.715  1.00  0.00     0.016 C 
ATOM     19  C   UNL     1     142.787 130.090 114.642  1.00  0.00     0.012 C 
ENDROOT
BRANCH   1  20
ATOM     20  C   UNL     1     145.742 127.637 114.916  1.00  0.00     0.133 C 
ATOM     21  C   UNL     1     146.004 126.876 113.650  1.00  0.00     0.088 C 
ATOM     22  O   UNL     1     146.118 127.157 115.975  1.00  0.00    -0.300 OA
ENDBRANCH   1  20
BRANCH  16  23
ATOM     23  O   UNL     1     140.211 129.042 121.792  1.00  0.00    -0.393 OA
ATOM     24  H   UNL     1     139.777 129.616 122.476  1.00  0.00     0.210 HD
ENDBRANCH  16  23
TORSDOF 2
ENDMDL
MODEL 4
REMARK VINA RESULT:    -5.799      1.834      2.810
REMARK INTER + INTRA:          -6.416
REMARK INTER:                  -6.411
REMARK INTRA:                  -0.005
REMARK UNBOUND:                -0.109
REMARK SMILES CC(=O)[C@@H]1CC[C@H]2[C@H]3CC=C4C[C@H](O)CC[C@]4(C)[C@H]3CC[C@]12C
REMARK SMILES IDX 4 1 5 2 6 3 7 4 22 5 21 6 20 7 19 8 8 9 9 10 10 11 11 12
REMARK SMILES IDX 17 13 16 14 15 15 13 16 12 17 18 18 23 19 2 20 1 21 3 22
REMARK SMILES IDX 14 23
REMARK H PARENT 14 24
REMARK Flexibility Score: inf
ROOT
ATOM      1  C   UNL     1     145.010 129.513 116.434  1.00  0.00     0.062 C 
ATOM      2  C   UNL     1     144.912 128.897 117.858  1.00  0.00     0.012 C 
ATOM      3  C   UNL     1     143.432 128.556 118.114  1.00  0.00     0.005 C 
ATOM      4  C   UNL     1     142.776 128.750 116.758  1.00  0.00    -0.001 C 
ATOM      5  C   UNL     1     143.540 129.899 116.078  1.00  0.00    -0.020 C 
ATOM      6  C   UNL     1     143.148 129.911 114.577  1.00  0.00     0.008 C 
ATOM      7  C   UNL     1     141.605 129.964 114.382  1.00  0.00     0.005 C 
ATOM      8  C   UNL     1     140.851 128.808 115.121  1.00  0.00     0.003 C 
ATOM      9  C   UNL     1     141.235 128.757 116.627  1.00  0.00     0.000 C 
ATOM     10  C   UNL     1     140.501 129.849 117.414  1.00  0.00     0.031 C 
ATOM     11  C   UNL     1     139.025 129.697 117.251  1.00  0.00    -0.027 C 
ATOM     12  C   UNL     1     138.457 129.265 116.107  1.00  0.00    -0.065 C 
ATOM     13  C   UNL     1     139.270 128.735 114.908  1.00  0.00    -0.008 C 
ATOM     14  C   UNL     1     138.880 127.230 114.736  1.00  0.00     0.014 C 
ATOM     15  C   UNL     1     137.362 126.961 114.716  1.00  0.00     0.033 C 
ATOM     16  C   UNL     1     136.648 127.551 115.948  1.00  0.00     0.118 C 
ATOM     17  C   UNL     1     136.955 129.046 116.093  1.00  0.00     0.063 C 
ATOM     18  C   UNL     1     138.843 129.505 113.630  1.00  0.00     0.016 C 
ATOM     19  C   UNL     1     143.290 131.318 116.687  1.00  0.00     0.012 C 
ENDROOT
BRANCH   1  20
ATOM     20  C   UNL     1     145.666 128.555 115.447  1.00  0.00     0.133 C 
ATOM     21  C   UNL     1     145.950 127.132 115.827  1.00  0.00     0.088 C 
ATOM     22  O   UNL     1     145.973 128.933 114.326  1.00  0.00    -0.300 OA
ENDBRANCH   1  20
BRANCH  16  23
ATOM     23  O   UNL     1     137.049 126.876 117.113  1.00  0.00    -0.393 OA
ATOM     24  H   UNL     1     137.102 125.912 116.883  1.00  0.00     0.210 HD
ENDBRANCH  16  23
TORSDOF 2
ENDMDL
MODEL 5
REMARK VINA RESULT:    -5.756      3.330      6.008
REMARK INTER + INTRA:          -6.369
REMARK INTER:                  -6.251
REMARK INTRA:                  -0.118
REMARK UNBOUND:                -0.109
REMARK SMILES CC(=O)[C@@H]1CC[C@H]2[C@H]3CC=C4C[C@H](O)CC[C@]4(C)[C@H]3CC[C@]12C
REMARK SMILES IDX 4 1 5 2 6 3 7 4 22 5 21 6 20 7 19 8 8 9 9 10 10 11 11 12
REMARK SMILES IDX 17 13 16 14 15 15 13 16 12 17 18 18 23 19 2 20 1 21 3 22
REMARK SMILES IDX 14 23
REMARK H PARENT 14 24
REMARK Flexibility Score: inf
ROOT
ATOM      1  C   UNL     1     143.956 127.919 116.301  1.00  0.00     0.062 C 
ATOM      2  C   UNL     1     142.925 127.936 115.138  1.00  0.00     0.012 C 
ATOM      3  C   UNL     1     142.704 129.407 114.736  1.00  0.00     0.005 C 
ATOM      4  C   UNL     1     143.786 130.155 115.496  1.00  0.00    -0.001 C 
ATOM      5  C   UNL     1     143.981 129.392 116.817  1.00  0.00    -0.020 C 
ATOM      6  C   UNL     1     145.294 129.898 117.471  1.00  0.00     0.008 C 
ATOM      7  C   UNL     1     145.308 131.447 117.618  1.00  0.00     0.005 C 
ATOM      8  C   UNL     1     145.063 132.196 116.265  1.00  0.00     0.003 C 
ATOM      9  C   UNL     1     143.762 131.700 115.574  1.00  0.00     0.000 C 
ATOM     10  C   UNL     1     142.523 132.318 116.234  1.00  0.00     0.031 C 
ATOM     11  C   UNL     1     142.601 133.807 116.181  1.00  0.00    -0.027 C 
ATOM     12  C   UNL     1     143.764 134.483 116.283  1.00  0.00    -0.065 C 
ATOM     13  C   UNL     1     145.143 133.791 116.306  1.00  0.00    -0.008 C 
ATOM     14  C   UNL     1     145.900 134.264 115.022  1.00  0.00     0.014 C 
ATOM     15  C   UNL     1     145.894 135.791 114.803  1.00  0.00     0.033 C 
ATOM     16  C   UNL     1     144.470 136.378 114.819  1.00  0.00     0.118 C 
ATOM     17  C   UNL     1     143.734 135.989 116.107  1.00  0.00     0.063 C 
ATOM     18  C   UNL     1     145.931 134.278 117.552  1.00  0.00     0.016 C 
ATOM     19  C   UNL     1     142.809 129.527 117.845  1.00  0.00     0.012 C 
ENDROOT
BRANCH   1  20
ATOM     20  C   UNL     1     145.311 127.388 115.848  1.00  0.00     0.133 C 
ATOM     21  C   UNL     1     145.733 127.479 114.411  1.00  0.00     0.088 C 
ATOM     22  O   UNL     1     146.077 126.876 116.651  1.00  0.00    -0.300 OA
ENDBRANCH   1  20
BRANCH  16  23
ATOM     23  O   UNL     1     143.742 135.921 113.708  1.00  0.00    -0.393 OA
ATOM     24  H   UNL     1     142.998 135.367 114.061  1.00  0.00     0.210 HD
ENDBRANCH  16  23
TORSDOF 2
ENDMDL
MODEL 6
REMARK VINA RESULT:    -5.744      3.295      6.042
REMARK INTER + INTRA:          -6.356
REMARK INTER:                  -6.227
REMARK INTRA:                  -0.129
REMARK UNBOUND:                -0.109
REMARK SMILES CC(=O)[C@@H]1CC[C@H]2[C@H]3CC=C4C[C@H](O)CC[C@]4(C)[C@H]3CC[C@]12C
REMARK SMILES IDX 4 1 5 2 6 3 7 4 22 5 21 6 20 7 19 8 8 9 9 10 10 11 11 12
REMARK SMILES IDX 17 13 16 14 15 15 13 16 12 17 18 18 23 19 2 20 1 21 3 22
REMARK SMILES IDX 14 23
REMARK H PARENT 14 24
REMARK Flexibility Score: inf
ROOT
ATOM      1  C   UNL     1     143.854 127.550 116.335  1.00  0.00     0.062 C 
ATOM      2  C   UNL     1     145.276 127.257 116.893  1.00  0.00     0.012 C 
ATOM      3  C   UNL     1     145.988 128.611 117.078  1.00  0.00     0.005 C 
ATOM      4  C   UNL     1     144.884 129.632 116.866  1.00  0.00    -0.001 C 
ATOM      5  C   UNL     1     143.936 129.021 115.819  1.00  0.00    -0.020 C 
ATOM      6  C   UNL     1     142.627 129.852 115.819  1.00  0.00     0.008 C 
ATOM      7  C   UNL     1     142.904 131.370 115.621  1.00  0.00     0.005 C 
ATOM      8  C   UNL     1     143.905 131.955 116.673  1.00  0.00     0.003 C 
ATOM      9  C   UNL     1     145.225 131.133 116.712  1.00  0.00     0.000 C 
ATOM     10  C   UNL     1     146.129 131.496 115.529  1.00  0.00     0.031 C 
ATOM     11  C   UNL     1     146.430 132.959 115.541  1.00  0.00    -0.027 C 
ATOM     12  C   UNL     1     145.540 133.885 115.953  1.00  0.00    -0.065 C 
ATOM     13  C   UNL     1     144.186 133.525 116.598  1.00  0.00    -0.008 C 
ATOM     14  C   UNL     1     144.231 134.073 118.063  1.00  0.00     0.014 C 
ATOM     15  C   UNL     1     144.688 135.541 118.182  1.00  0.00     0.033 C 
ATOM     16  C   UNL     1     146.039 135.791 117.486  1.00  0.00     0.118 C 
ATOM     17  C   UNL     1     145.994 135.331 116.024  1.00  0.00     0.063 C 
ATOM     18  C   UNL     1     143.052 134.258 115.832  1.00  0.00     0.016 C 
ATOM     19  C   UNL     1     144.505 128.954 114.364  1.00  0.00     0.012 C 
ENDROOT
BRANCH   1  20
ATOM     20  C   UNL     1     142.775 127.310 117.385  1.00  0.00     0.133 C 
ATOM     21  C   UNL     1     143.060 127.513 118.844  1.00  0.00     0.088 C 
ATOM     22  O   UNL     1     141.657 126.946 117.053  1.00  0.00    -0.300 OA
ENDBRANCH   1  20
BRANCH  16  23
ATOM     23  O   UNL     1     147.068 135.110 118.158  1.00  0.00    -0.393 OA
ATOM     24  H   UNL     1     147.053 135.424 119.100  1.00  0.00     0.210 HD
ENDBRANCH  16  23
TORSDOF 2
ENDMDL
MODEL 7
REMARK VINA RESULT:    -5.720      1.900      6.315
REMARK INTER + INTRA:          -6.330
REMARK INTER:                  -6.183
REMARK INTRA:                  -0.147
REMARK UNBOUND:                -0.109
REMARK SMILES CC(=O)[C@@H]1CC[C@H]2[C@H]3CC=C4C[C@H](O)CC[C@]4(C)[C@H]3CC[C@]12C
REMARK SMILES IDX 4 1 5 2 6 3 7 4 22 5 21 6 20 7 19 8 8 9 9 10 10 11 11 12
REMARK SMILES IDX 17 13 16 14 15 15 13 16 12 17 18 18 23 19 2 20 1 21 3 22
REMARK SMILES IDX 14 23
REMARK H PARENT 14 24
REMARK Flexibility Score: inf
ROOT
ATOM      1  C   UNL     1     137.865 129.207 116.020  1.00  0.00     0.062 C 
ATOM      2  C   UNL     1     137.769 128.874 114.504  1.00  0.00     0.012 C 
ATOM      3  C   UNL     1     139.206 128.691 113.979  1.00  0.00     0.005 C 
ATOM      4  C   UNL     1     140.052 128.674 115.240  1.00  0.00    -0.001 C 
ATOM      5  C   UNL     1     139.355 129.620 116.232  1.00  0.00    -0.020 C 
ATOM      6  C   UNL     1     139.971 129.379 117.635  1.00  0.00     0.008 C 
ATOM      7  C   UNL     1     141.522 129.501 117.616  1.00  0.00     0.005 C 
ATOM      8  C   UNL     1     142.201 128.558 116.567  1.00  0.00     0.003 C 
ATOM      9  C   UNL     1     141.594 128.763 115.149  1.00  0.00     0.000 C 
ATOM     10  C   UNL     1     142.154 130.030 114.493  1.00  0.00     0.031 C 
ATOM     11  C   UNL     1     143.642 129.953 114.412  1.00  0.00    -0.027 C 
ATOM     12  C   UNL     1     144.396 129.356 115.358  1.00  0.00    -0.065 C 
ATOM     13  C   UNL     1     143.798 128.557 116.534  1.00  0.00    -0.008 C 
ATOM     14  C   UNL     1     144.270 127.077 116.353  1.00  0.00     0.014 C 
ATOM     15  C   UNL     1     145.784 126.915 116.104  1.00  0.00     0.033 C 
ATOM     16  C   UNL     1     146.276 127.771 114.922  1.00  0.00     0.118 C 
ATOM     17  C   UNL     1     145.890 129.243 115.116  1.00  0.00     0.063 C 
ATOM     18  C   UNL     1     144.383 129.103 117.864  1.00  0.00     0.016 C 
ATOM     19  C   UNL     1     139.452 131.142 115.881  1.00  0.00     0.012 C 
ENDROOT
BRANCH   1  20
ATOM     20  C   UNL     1     137.407 128.038 116.885  1.00  0.00     0.133 C 
ATOM     21  C   UNL     1     136.687 128.272 118.179  1.00  0.00     0.088 C 
ATOM     22  O   UNL     1     137.622 126.886 116.535  1.00  0.00    -0.300 OA
ENDBRANCH   1  20
BRANCH  16  23
ATOM     23  O   UNL     1     145.730 127.299 113.716  1.00  0.00    -0.393 OA
ATOM     24  H   UNL     1     145.386 126.386 113.895  1.00  0.00     0.210 HD
ENDBRANCH  16  23
TORSDOF 2
ENDMDL
MODEL 8
REMARK VINA RESULT:    -5.675      1.430      2.206
REMARK INTER + INTRA:          -6.282
REMARK INTER:                  -6.155
REMARK INTRA:                  -0.126
REMARK UNBOUND:                -0.109
REMARK SMILES CC(=O)[C@@H]1CC[C@H]2[C@H]3CC=C4C[C@H](O)CC[C@]4(C)[C@H]3CC[C@]12C
REMARK SMILES IDX 4 1 5 2 6 3 7 4 22 5 21 6 20 7 19 8 8 9 9 10 10 11 11 12
REMARK SMILES IDX 17 13 16 14 15 15 13 16 12 17 18 18 23 19 2 20 1 21 3 22
REMARK SMILES IDX 14 23
REMARK H PARENT 14 24
REMARK Flexibility Score: inf
ROOT
ATOM      1  C   UNL     1     145.095 129.167 116.300  1.00  0.00     0.062 C 
ATOM      2  C   UNL     1     144.984 130.205 115.148  1.00  0.00     0.012 C 
ATOM      3  C   UNL     1     143.497 130.309 114.759  1.00  0.00     0.005 C 
ATOM      4  C   UNL     1     142.783 129.530 115.851  1.00  0.00    -0.001 C 
ATOM      5  C   UNL     1     143.739 128.395 116.257  1.00  0.00    -0.020 C 
ATOM      6  C   UNL     1     143.221 127.787 117.586  1.00  0.00     0.008 C 
ATOM      7  C   UNL     1     141.728 127.361 117.485  1.00  0.00     0.005 C 
ATOM      8  C   UNL     1     140.785 128.524 117.029  1.00  0.00     0.003 C 
ATOM      9  C   UNL     1     141.286 129.169 115.705  1.00  0.00     0.000 C 
ATOM     10  C   UNL     1     140.924 128.293 114.500  1.00  0.00     0.031 C 
ATOM     11  C   UNL     1     139.448 128.079 114.445  1.00  0.00    -0.027 C 
ATOM     12  C   UNL     1     138.683 127.966 115.550  1.00  0.00    -0.065 C 
ATOM     13  C   UNL     1     139.222 128.200 116.976  1.00  0.00    -0.008 C 
ATOM     14  C   UNL     1     138.458 129.442 117.542  1.00  0.00     0.014 C 
ATOM     15  C   UNL     1     136.925 129.376 117.383  1.00  0.00     0.033 C 
ATOM     16  C   UNL     1     136.501 129.118 115.925  1.00  0.00     0.118 C 
ATOM     17  C   UNL     1     137.180 127.860 115.372  1.00  0.00     0.063 C 
ATOM     18  C   UNL     1     138.879 126.966 117.854  1.00  0.00     0.016 C 
ATOM     19  C   UNL     1     143.907 127.255 115.199  1.00  0.00     0.012 C 
ENDROOT
BRANCH   1  20
ATOM     20  C   UNL     1     145.396 129.836 117.636  1.00  0.00     0.133 C 
ATOM     21  C   UNL     1     144.969 131.249 117.905  1.00  0.00     0.088 C 
ATOM     22  O   UNL     1     145.995 129.230 118.512  1.00  0.00    -0.300 OA
ENDBRANCH   1  20
BRANCH  16  23
ATOM     23  O   UNL     1     136.831 130.220 115.118  1.00  0.00    -0.393 OA
ATOM     24  H   UNL     1     137.820 130.297 115.128  1.00  0.00     0.210 HD
ENDBRANCH  16  23
TORSDOF 2
ENDMDL
MODEL 9
REMARK VINA RESULT:    -5.655     10.533     13.463
REMARK INTER + INTRA:          -6.259
REMARK INTER:                  -6.106
REMARK INTRA:                  -0.153
REMARK UNBOUND:                -0.109
REMARK SMILES CC(=O)[C@@H]1CC[C@H]2[C@H]3CC=C4C[C@H](O)CC[C@]4(C)[C@H]3CC[C@]12C
REMARK SMILES IDX 4 1 5 2 6 3 7 4 22 5 21 6 20 7 19 8 8 9 9 10 10 11 11 12
REMARK SMILES IDX 17 13 16 14 15 15 13 16 12 17 18 18 23 19 2 20 1 21 3 22
REMARK SMILES IDX 14 23
REMARK H PARENT 14 24
REMARK Flexibility Score: inf
ROOT
ATOM      1  C   UNL     1     128.942 130.651 121.890  1.00  0.00     0.062 C 
ATOM      2  C   UNL     1     129.823 129.553 122.549  1.00  0.00     0.012 C 
ATOM      3  C   UNL     1     130.430 128.705 121.415  1.00  0.00     0.005 C 
ATOM      4  C   UNL     1     130.088 129.485 120.157  1.00  0.00    -0.001 C 
ATOM      5  C   UNL     1     128.727 130.150 120.427  1.00  0.00    -0.020 C 
ATOM      6  C   UNL     1     128.495 131.223 119.331  1.00  0.00     0.008 C 
ATOM      7  C   UNL     1     128.645 130.631 117.900  1.00  0.00     0.005 C 
ATOM      8  C   UNL     1     130.022 129.923 117.668  1.00  0.00     0.003 C 
ATOM      9  C   UNL     1     130.295 128.851 118.761  1.00  0.00     0.000 C 
ATOM     10  C   UNL     1     129.497 127.572 118.483  1.00  0.00     0.031 C 
ATOM     11  C   UNL     1     129.842 127.034 117.134  1.00  0.00    -0.027 C 
ATOM     12  C   UNL     1     130.134 127.828 116.083  1.00  0.00    -0.065 C 
ATOM     13  C   UNL     1     130.297 129.357 116.201  1.00  0.00    -0.008 C 
ATOM     14  C   UNL     1     131.784 129.676 115.837  1.00  0.00     0.014 C 
ATOM     15  C   UNL     1     132.275 129.025 114.528  1.00  0.00     0.033 C 
ATOM     16  C   UNL     1     132.046 127.502 114.511  1.00  0.00     0.118 C 
ATOM     17  C   UNL     1     130.575 127.168 114.790  1.00  0.00     0.063 C 
ATOM     18  C   UNL     1     129.375 130.044 115.157  1.00  0.00     0.016 C 
ATOM     19  C   UNL     1     127.504 129.175 120.463  1.00  0.00     0.012 C 
ENDROOT
BRANCH   1  20
ATOM     20  C   UNL     1     129.585 132.029 121.996  1.00  0.00     0.133 C 
ATOM     21  C   UNL     1     128.753 133.250 122.256  1.00  0.00     0.088 C 
ATOM     22  O   UNL     1     130.793 132.161 121.868  1.00  0.00    -0.300 OA
ENDBRANCH   1  20
BRANCH  16  23
ATOM     23  O   UNL     1     132.858 126.875 115.471  1.00  0.00    -0.393 OA
ATOM     24  H   UNL     1     133.671 126.560 114.997  1.00  0.00     0.210 HD
ENDBRANCH  16  23
TORSDOF 2
ENDMDL
