MODEL 1
REMARK VINA RESULT:    -4.803      0.000      0.000
REMARK INTER + INTRA:          -5.115
REMARK INTER:                  -5.084
REMARK INTRA:                  -0.032
REMARK UNBOUND:                -0.032
REMARK SMILES COc1ccc2ccc(=O)oc2c1
REMARK SMILES IDX 3 1 13 2 12 3 6 4 5 5 4 6 7 7 8 8 9 9 10 10 11 11 2 12 1 13
REMARK H PARENT
REMARK Flexibility Score: inf
ROOT
ATOM      1  C   UNL     1      12.381  36.246  48.466  1.00  0.00     0.122 A 
ATOM      2  C   UNL     1      13.678  36.556  48.037  1.00  0.00     0.094 A 
ATOM      3  C   UNL     1      14.618  37.079  48.932  1.00  0.00     0.142 A 
ATOM      4  C   UNL     1      14.256  37.298  50.279  1.00  0.00     0.018 A 
ATOM      5  C   UNL     1      12.960  36.991  50.713  1.00  0.00     0.016 A 
ATOM      6  C   UNL     1      12.027  36.468  49.812  1.00  0.00     0.047 A 
ATOM      7  C   UNL     1      15.216  37.823  51.150  1.00  0.00     0.019 A 
ATOM      8  C   UNL     1      16.492  38.112  50.667  1.00  0.00     0.094 A 
ATOM      9  C   UNL     1      16.779  37.869  49.319  1.00  0.00     0.336 A 
ATOM     10  O   UNL     1      17.925  38.123  48.866  1.00  0.00    -0.246 OA
ATOM     11  O   UNL     1      15.847  37.369  48.512  1.00  0.00    -0.423 OA
ENDROOT
BRANCH   1  12
ATOM     12  O   UNL     1      11.478  35.724  47.528  1.00  0.00    -0.497 OA
ATOM     13  C   UNL     1      10.172  36.241  47.295  1.00  0.00     0.278 C 
ENDBRANCH   1  12
TORSDOF 1
ENDMDL
MODEL 2
REMARK VINA RESULT:    -4.669      0.977      4.733
REMARK INTER + INTRA:          -4.974
REMARK INTER:                  -4.940
REMARK INTRA:                  -0.033
REMARK UNBOUND:                -0.032
REMARK SMILES COc1ccc2ccc(=O)oc2c1
REMARK SMILES IDX 3 1 13 2 12 3 6 4 5 5 4 6 7 7 8 8 9 9 10 10 11 11 2 12 1 13
REMARK H PARENT
REMARK Flexibility Score: inf
ROOT
ATOM      1  C   UNL     1      16.137  37.704  49.468  1.00  0.00     0.122 A 
ATOM      2  C   UNL     1      15.213  37.248  48.520  1.00  0.00     0.094 A 
ATOM      3  C   UNL     1      13.908  36.917  48.900  1.00  0.00     0.142 A 
ATOM      4  C   UNL     1      13.518  37.044  50.251  1.00  0.00     0.018 A 
ATOM      5  C   UNL     1      14.439  37.500  51.204  1.00  0.00     0.016 A 
ATOM      6  C   UNL     1      15.741  37.828  50.816  1.00  0.00     0.047 A 
ATOM      7  C   UNL     1      12.208  36.706  50.602  1.00  0.00     0.019 A 
ATOM      8  C   UNL     1      11.330  36.257  49.616  1.00  0.00     0.094 A 
ATOM      9  C   UNL     1      11.786  36.156  48.297  1.00  0.00     0.336 A 
ATOM     10  O   UNL     1      11.008  35.753  47.393  1.00  0.00    -0.246 OA
ATOM     11  O   UNL     1      13.038  36.484  47.990  1.00  0.00    -0.423 OA
ENDROOT
BRANCH   1  12
ATOM     12  O   UNL     1      17.433  38.022  49.033  1.00  0.00    -0.497 OA
ATOM     13  C   UNL     1      18.480  37.072  48.866  1.00  0.00     0.278 C 
ENDBRANCH   1  12
TORSDOF 1
ENDMDL
MODEL 3
REMARK VINA RESULT:    -4.407      1.547      2.273
REMARK INTER + INTRA:          -4.696
REMARK INTER:                  -4.663
REMARK INTRA:                  -0.033
REMARK UNBOUND:                -0.032
REMARK SMILES COc1ccc2ccc(=O)oc2c1
REMARK SMILES IDX 3 1 13 2 12 3 6 4 5 5 4 6 7 7 8 8 9 9 10 10 11 11 2 12 1 13
REMARK H PARENT
REMARK Flexibility Score: inf
ROOT
ATOM      1  C   UNL     1      11.575  36.165  48.706  1.00  0.00     0.122 A 
ATOM      2  C   UNL     1      12.290  36.572  49.840  1.00  0.00     0.094 A 
ATOM      3  C   UNL     1      13.622  36.985  49.731  1.00  0.00     0.142 A 
ATOM      4  C   UNL     1      14.253  36.990  48.468  1.00  0.00     0.018 A 
ATOM      5  C   UNL     1      13.543  36.583  47.331  1.00  0.00     0.016 A 
ATOM      6  C   UNL     1      12.211  36.173  47.448  1.00  0.00     0.047 A 
ATOM      7  C   UNL     1      15.586  37.406  48.389  1.00  0.00     0.019 A 
ATOM      8  C   UNL     1      16.248  37.801  49.551  1.00  0.00     0.094 A 
ATOM      9  C   UNL     1      15.559  37.770  50.769  1.00  0.00     0.336 A 
ATOM     10  O   UNL     1      16.140  38.123  51.828  1.00  0.00    -0.246 OA
ATOM     11  O   UNL     1      14.292  37.370  50.815  1.00  0.00    -0.423 OA
ENDROOT
BRANCH   1  12
ATOM     12  O   UNL     1      10.241  35.761  48.871  1.00  0.00    -0.497 OA
ATOM     13  C   UNL     1       9.112  36.540  48.489  1.00  0.00     0.278 C 
ENDBRANCH   1  12
TORSDOF 1
ENDMDL
MODEL 4
REMARK VINA RESULT:    -4.124      1.729      4.342
REMARK INTER + INTRA:          -4.396
REMARK INTER:                  -4.353
REMARK INTRA:                  -0.043
REMARK UNBOUND:                -0.032
REMARK SMILES COc1ccc2ccc(=O)oc2c1
REMARK SMILES IDX 3 1 13 2 12 3 6 4 5 5 4 6 7 7 8 8 9 9 10 10 11 11 2 12 1 13
REMARK H PARENT
REMARK Flexibility Score: inf
ROOT
ATOM      1  C   UNL     1      15.726  36.782  47.247  1.00  0.00     0.122 A 
ATOM      2  C   UNL     1      14.366  36.450  47.221  1.00  0.00     0.094 A 
ATOM      3  C   UNL     1      13.583  36.565  48.374  1.00  0.00     0.142 A 
ATOM      4  C   UNL     1      14.169  37.018  49.576  1.00  0.00     0.018 A 
ATOM      5  C   UNL     1      15.530  37.350  49.608  1.00  0.00     0.016 A 
ATOM      6  C   UNL     1      16.305  37.233  48.450  1.00  0.00     0.047 A 
ATOM      7  C   UNL     1      13.363  37.123  50.714  1.00  0.00     0.019 A 
ATOM      8  C   UNL     1      12.014  36.779  50.629  1.00  0.00     0.094 A 
ATOM      9  C   UNL     1      11.502  36.338  49.404  1.00  0.00     0.336 A 
ATOM     10  O   UNL     1      10.287  36.024  49.308  1.00  0.00    -0.246 OA
ATOM     11  O   UNL     1      12.291  36.248  48.337  1.00  0.00    -0.423 OA
ENDROOT
BRANCH   1  12
ATOM     12  O   UNL     1      16.466  36.648  46.061  1.00  0.00    -0.497 OA
ATOM     13  C   UNL     1      15.905  36.309  44.798  1.00  0.00     0.278 C 
ENDBRANCH   1  12
TORSDOF 1
ENDMDL
MODEL 5
REMARK VINA RESULT:    -3.912      2.424      3.319
REMARK INTER + INTRA:          -4.172
REMARK INTER:                  -4.134
REMARK INTRA:                  -0.039
REMARK UNBOUND:                -0.032
REMARK SMILES COc1ccc2ccc(=O)oc2c1
REMARK SMILES IDX 3 1 13 2 12 3 6 4 5 5 4 6 7 7 8 8 9 9 10 10 11 11 2 12 1 13
REMARK H PARENT
REMARK Flexibility Score: inf
ROOT
ATOM      1  C   UNL     1      13.766  35.200  51.351  1.00  0.00     0.122 A 
ATOM      2  C   UNL     1      15.144  35.114  51.116  1.00  0.00     0.094 A 
ATOM      3  C   UNL     1      15.762  35.957  50.186  1.00  0.00     0.142 A 
ATOM      4  C   UNL     1      14.990  36.902  49.477  1.00  0.00     0.018 A 
ATOM      5  C   UNL     1      13.611  36.992  49.708  1.00  0.00     0.016 A 
ATOM      6  C   UNL     1      13.001  36.146  50.639  1.00  0.00     0.047 A 
ATOM      7  C   UNL     1      15.634  37.731  48.553  1.00  0.00     0.019 A 
ATOM      8  C   UNL     1      17.009  37.601  48.361  1.00  0.00     0.094 A 
ATOM      9  C   UNL     1      17.710  36.641  49.100  1.00  0.00     0.336 A 
ATOM     10  O   UNL     1      18.951  36.509  48.940  1.00  0.00    -0.246 OA
ATOM     11  O   UNL     1      17.072  35.866  49.972  1.00  0.00    -0.423 OA
ENDROOT
BRANCH   1  12
ATOM     12  O   UNL     1      13.197  34.331  52.295  1.00  0.00    -0.497 OA
ATOM     13  C   UNL     1      13.773  34.030  53.561  1.00  0.00     0.278 C 
ENDBRANCH   1  12
TORSDOF 1
ENDMDL
MODEL 6
REMARK VINA RESULT:    -3.855      1.376      5.306
REMARK INTER + INTRA:          -4.112
REMARK INTER:                  -4.069
REMARK INTRA:                  -0.043
REMARK UNBOUND:                -0.032
REMARK SMILES COc1ccc2ccc(=O)oc2c1
REMARK SMILES IDX 3 1 13 2 12 3 6 4 5 5 4 6 7 7 8 8 9 9 10 10 11 11 2 12 1 13
REMARK H PARENT
REMARK Flexibility Score: inf
ROOT
ATOM      1  C   UNL     1      15.151  37.343  49.155  1.00  0.00     0.122 A 
ATOM      2  C   UNL     1      13.884  36.967  49.619  1.00  0.00     0.094 A 
ATOM      3  C   UNL     1      12.877  36.600  48.720  1.00  0.00     0.142 A 
ATOM      4  C   UNL     1      13.139  36.608  47.333  1.00  0.00     0.018 A 
ATOM      5  C   UNL     1      14.404  36.984  46.864  1.00  0.00     0.016 A 
ATOM      6  C   UNL     1      15.405  37.349  47.769  1.00  0.00     0.047 A 
ATOM      7  C   UNL     1      12.113  36.237  46.459  1.00  0.00     0.019 A 
ATOM      8  C   UNL     1      10.871  35.871  46.977  1.00  0.00     0.094 A 
ATOM      9  C   UNL     1      10.684  35.887  48.364  1.00  0.00     0.336 A 
ATOM     10  O   UNL     1       9.570  35.560  48.850  1.00  0.00    -0.246 OA
ATOM     11  O   UNL     1      11.677  36.244  49.173  1.00  0.00    -0.423 OA
ENDROOT
BRANCH   1  12
ATOM     12  O   UNL     1      16.125  37.702  50.100  1.00  0.00    -0.497 OA
ATOM     13  C   UNL     1      15.928  37.673  51.509  1.00  0.00     0.278 C 
ENDBRANCH   1  12
TORSDOF 1
ENDMDL
MODEL 7
REMARK VINA RESULT:    -3.849      2.494      5.216
REMARK INTER + INTRA:          -4.106
REMARK INTER:                  -4.062
REMARK INTRA:                  -0.043
REMARK UNBOUND:                -0.032
REMARK SMILES COc1ccc2ccc(=O)oc2c1
REMARK SMILES IDX 3 1 13 2 12 3 6 4 5 5 4 6 7 7 8 8 9 9 10 10 11 11 2 12 1 13
REMARK H PARENT
REMARK Flexibility Score: inf
ROOT
ATOM      1  C   UNL     1      17.801  36.471  49.088  1.00  0.00     0.122 A 
ATOM      2  C   UNL     1      17.075  35.624  49.935  1.00  0.00     0.094 A 
ATOM      3  C   UNL     1      15.710  35.838  50.156  1.00  0.00     0.142 A 
ATOM      4  C   UNL     1      15.058  36.917  49.521  1.00  0.00     0.018 A 
ATOM      5  C   UNL     1      15.780  37.768  48.674  1.00  0.00     0.016 A 
ATOM      6  C   UNL     1      17.144  37.548  48.458  1.00  0.00     0.047 A 
ATOM      7  C   UNL     1      13.694  37.107  49.761  1.00  0.00     0.019 A 
ATOM      8  C   UNL     1      13.021  36.232  50.613  1.00  0.00     0.094 A 
ATOM      9  C   UNL     1      13.733  35.183  51.208  1.00  0.00     0.336 A 
ATOM     10  O   UNL     1      13.143  34.383  51.980  1.00  0.00    -0.246 OA
ATOM     11  O   UNL     1      15.030  35.026  50.962  1.00  0.00    -0.423 OA
ENDROOT
BRANCH   1  12
ATOM     12  O   UNL     1      19.167  36.212  48.901  1.00  0.00    -0.497 OA
ATOM     13  C   UNL     1      19.865  35.116  49.483  1.00  0.00     0.278 C 
ENDBRANCH   1  12
TORSDOF 1
ENDMDL
