MODEL 1
REMARK VINA RESULT:    -3.980      0.000      0.000
REMARK INTER + INTRA:          -4.261
REMARK INTER:                  -5.609
REMARK INTRA:                   1.348
REMARK UNBOUND:                 1.348
REMARK SMILES C=C(CC[C@H](C(=O)[O-])[C@H]1[C@H](O)C[C@]2(C)C3=C(CC[C@]12C)[C@@]1(C)CC[C@@H](O)C(C)(C)[C@@H]1CC3)C(C)C
REMARK SMILES IDX 4 1 5 2 6 3 7 4 8 5 9 6 10 7 19 8 12 9 13 10 18 11 20 12
REMARK SMILES IDX 14 13 15 14 17 15 16 16 32 17 21 18 31 19 30 20 23 21 22 22
REMARK SMILES IDX 27 23 24 24 25 25 28 26 29 27 11 28 26 30 3 32 2 33 1 34
REMARK SMILES IDX 33 35 34 36 35 37
REMARK H PARENT 11 29 26 31
REMARK Flexibility Score: inf
ROOT
ATOM      1  C   UNL     1      37.638  13.635 103.858  1.00  0.00     0.014 C 
ENDROOT
BRANCH   1   2
ATOM      2  C   UNL     1      36.633  13.315 104.995  1.00  0.00     0.042 C 
BRANCH   2   3
ATOM      3  C   UNL     1      37.193  13.789 106.321  1.00  0.00     0.045 C 
ATOM      4  O   UNL     1      38.436  13.779 106.522  1.00  0.00    -0.550 OA
ATOM      5  O   UNL     1      36.350  14.125 107.374  1.00  0.00    -0.550 OA
ENDBRANCH   2   3
BRANCH   2   6
ATOM      6  C   UNL     1      36.179  11.802 104.944  1.00  0.00     0.033 C 
ATOM      7  C   UNL     1      37.287  10.769 105.266  1.00  0.00     0.119 C 
ATOM      8  C   UNL     1      34.902  11.353 105.768  1.00  0.00    -0.017 C 
ATOM      9  C   UNL     1      36.611   9.640 106.035  1.00  0.00     0.043 C 
ATOM     10  C   UNL     1      35.424  10.271 106.783  1.00  0.00    -0.003 C 
ATOM     11  C   UNL     1      33.923  10.672 104.774  1.00  0.00     0.012 C 
ATOM     12  C   UNL     1      34.134  12.516 106.463  1.00  0.00     0.013 C 
ATOM     13  C   UNL     1      35.957  10.923 108.092  1.00  0.00     0.017 C 
ATOM     14  C   UNL     1      34.395   9.175 107.165  1.00  0.00    -0.064 C 
ATOM     15  C   UNL     1      32.740  10.009 105.460  1.00  0.00     0.032 C 
ATOM     16  C   UNL     1      33.137   9.110 106.613  1.00  0.00    -0.064 C 
ATOM     17  C   UNL     1      34.837   8.153 108.233  1.00  0.00     0.032 C 
ATOM     18  C   UNL     1      32.112   8.121 107.210  1.00  0.00    -0.008 C 
ATOM     19  C   UNL     1      33.996   6.859 108.377  1.00  0.00     0.009 C 
ATOM     20  C   UNL     1      32.883   6.757 107.319  1.00  0.00     0.007 C 
ATOM     21  C   UNL     1      30.803   7.931 106.364  1.00  0.00     0.014 C 
ATOM     22  C   UNL     1      31.667   8.722 108.578  1.00  0.00     0.016 C 
ATOM     23  C   UNL     1      31.986   5.460 107.343  1.00  0.00    -0.006 C 
ATOM     24  C   UNL     1      30.922   6.798 105.346  1.00  0.00     0.033 C 
ATOM     25  C   UNL     1      31.082   5.423 106.036  1.00  0.00     0.120 C 
ATOM     26  C   UNL     1      31.079   5.391 108.600  1.00  0.00     0.014 C 
ATOM     27  C   UNL     1      32.896   4.200 107.399  1.00  0.00     0.014 C 
BRANCH   7  28
ATOM     28  O   UNL     1      37.866  10.256 104.092  1.00  0.00    -0.393 OA
ATOM     29  H   UNL     1      38.629  10.846 103.859  1.00  0.00     0.210 HD
ENDBRANCH   7  28
BRANCH  25  30
ATOM     30  O   UNL     1      31.594   4.534 105.072  1.00  0.00    -0.393 OA
ATOM     31  H   UNL     1      30.905   4.429 104.365  1.00  0.00     0.210 HD
ENDBRANCH  25  30
ENDBRANCH   2   6
ENDBRANCH   1   2
BRANCH   1  32
ATOM     32  C   UNL     1      39.001  14.121 104.387  1.00  0.00     0.031 C 
BRANCH  32  33
ATOM     33  C   UNL     1      40.139  13.378 103.717  1.00  0.00    -0.075 C 
ATOM     34  C   UNL     1      40.955  14.044 102.879  1.00  0.00     0.008 C 
BRANCH  33  35
ATOM     35  C   UNL     1      40.334  11.892 103.985  1.00  0.00     0.008 C 
ATOM     36  C   UNL     1      41.157  11.221 102.877  1.00  0.00     0.012 C 
ATOM     37  C   UNL     1      40.967  11.659 105.363  1.00  0.00     0.012 C 
ENDBRANCH  33  35
ENDBRANCH  32  33
ENDBRANCH   1  32
TORSDOF 8
ENDMDL
MODEL 2
REMARK VINA RESULT:    -1.030      2.254      8.534
REMARK INTER + INTRA:          -0.104
REMARK INTER:                  -2.989
REMARK INTRA:                   2.885
REMARK UNBOUND:                 1.348
REMARK SMILES C=C(CC[C@H](C(=O)[O-])[C@H]1[C@H](O)C[C@]2(C)C3=C(CC[C@]12C)[C@@]1(C)CC[C@@H](O)C(C)(C)[C@@H]1CC3)C(C)C
REMARK SMILES IDX 4 1 5 2 6 3 7 4 8 5 9 6 10 7 19 8 12 9 13 10 18 11 20 12
REMARK SMILES IDX 14 13 15 14 17 15 16 16 32 17 21 18 31 19 30 20 23 21 22 22
REMARK SMILES IDX 27 23 24 24 25 25 28 26 29 27 11 28 26 30 3 32 2 33 1 34
REMARK SMILES IDX 33 35 34 36 35 37
REMARK H PARENT 11 29 26 31
REMARK Flexibility Score: inf
ROOT
ATOM      1  C   UNL     1      31.934  10.732 105.060  1.00  0.00     0.014 C 
ENDROOT
BRANCH   1   2
ATOM      2  C   UNL     1      32.776  11.844 105.737  1.00  0.00     0.042 C 
BRANCH   2   3
ATOM      3  C   UNL     1      32.710  13.112 104.908  1.00  0.00     0.045 C 
ATOM      4  O   UNL     1      31.832  13.981 105.151  1.00  0.00    -0.550 OA
ATOM      5  O   UNL     1      33.528  13.282 103.798  1.00  0.00    -0.550 OA
ENDBRANCH   2   3
BRANCH   2   6
ATOM      6  C   UNL     1      34.228  11.327 106.083  1.00  0.00     0.033 C 
ATOM      7  C   UNL     1      34.598   9.946 105.486  1.00  0.00     0.119 C 
ATOM      8  C   UNL     1      35.470  12.275 105.807  1.00  0.00    -0.017 C 
ATOM      9  C   UNL     1      36.074  10.021 105.113  1.00  0.00     0.043 C 
ATOM     10  C   UNL     1      36.365  11.494 104.778  1.00  0.00    -0.003 C 
ATOM     11  C   UNL     1      36.252  12.416 107.141  1.00  0.00     0.012 C 
ATOM     12  C   UNL     1      35.099  13.708 105.325  1.00  0.00     0.013 C 
ATOM     13  C   UNL     1      35.919  11.764 103.310  1.00  0.00     0.017 C 
ATOM     14  C   UNL     1      37.888  11.771 104.885  1.00  0.00    -0.064 C 
ATOM     15  C   UNL     1      37.581  13.135 106.980  1.00  0.00     0.032 C 
ATOM     16  C   UNL     1      38.429  12.590 105.848  1.00  0.00    -0.064 C 
ATOM     17  C   UNL     1      38.789  11.100 103.828  1.00  0.00     0.032 C 
ATOM     18  C   UNL     1      39.921  12.976 105.744  1.00  0.00    -0.008 C 
ATOM     19  C   UNL     1      40.313  11.059 104.108  1.00  0.00     0.009 C 
ATOM     20  C   UNL     1      40.673  11.620 105.496  1.00  0.00     0.007 C 
ATOM     21  C   UNL     1      40.510  13.692 107.011  1.00  0.00     0.014 C 
ATOM     22  C   UNL     1      40.028  13.998 104.573  1.00  0.00     0.016 C 
ATOM     23  C   UNL     1      42.196  11.593 105.908  1.00  0.00    -0.006 C 
ATOM     24  C   UNL     1      41.098  12.707 108.021  1.00  0.00     0.033 C 
ATOM     25  C   UNL     1      42.328  11.966 107.448  1.00  0.00     0.120 C 
ATOM     26  C   UNL     1      43.055  12.571 105.064  1.00  0.00     0.014 C 
ATOM     27  C   UNL     1      42.778  10.174 105.651  1.00  0.00     0.014 C 
BRANCH   7  28
ATOM     28  O   UNL     1      34.403   8.916 106.422  1.00  0.00    -0.393 OA
ATOM     29  H   UNL     1      34.125   9.342 107.274  1.00  0.00     0.210 HD
ENDBRANCH   7  28
BRANCH  25  30
ATOM     30  O   UNL     1      42.531  10.824 108.247  1.00  0.00    -0.393 OA
ATOM     31  H   UNL     1      41.658  10.585 108.656  1.00  0.00     0.210 HD
ENDBRANCH  25  30
ENDBRANCH   2   6
ENDBRANCH   1   2
BRANCH   1  32
ATOM     32  C   UNL     1      31.113   9.908 106.069  1.00  0.00     0.031 C 
BRANCH  32  33
ATOM     33  C   UNL     1      31.086   8.444 105.678  1.00  0.00    -0.075 C 
ATOM     34  C   UNL     1      30.569   8.091 104.488  1.00  0.00     0.008 C 
BRANCH  33  35
ATOM     35  C   UNL     1      31.628   7.394 106.640  1.00  0.00     0.008 C 
ATOM     36  C   UNL     1      31.483   7.839 108.101  1.00  0.00     0.012 C 
ATOM     37  C   UNL     1      30.959   6.034 106.405  1.00  0.00     0.012 C 
ENDBRANCH  33  35
ENDBRANCH  32  33
ENDBRANCH   1  32
TORSDOF 8
ENDMDL
