MODEL 1
REMARK VINA RESULT:    -4.481      0.000      0.000
REMARK INTER + INTRA:          -9.179
REMARK INTER:                  -8.149
REMARK INTRA:                  -1.031
REMARK UNBOUND:                -1.031
REMARK SMILES CCCCCCCCCCCCCCCC(=O)[O-]
REMARK SMILES IDX 9 1 10 2 11 3 12 4 13 5 14 6 15 7 16 8 17 9 18 10 8 11 7 12
REMARK SMILES IDX 6 13 5 14 4 15 3 16 2 17 1 18
REMARK H PARENT
REMARK Flexibility Score: inf
ROOT
ATOM      1  C   UNL     1      23.768  -2.809  36.092  1.00  0.00     0.000 C 
ENDROOT
BRANCH   1   2
ATOM      2  C   UNL     1      24.085  -1.329  36.387  1.00  0.00     0.000 C 
BRANCH   2   3
ATOM      3  C   UNL     1      25.411  -1.081  37.133  1.00  0.00     0.000 C 
BRANCH   3   4
ATOM      4  C   UNL     1      25.625   0.366  37.618  1.00  0.00     0.000 C 
BRANCH   4   5
ATOM      5  C   UNL     1      26.597   0.517  38.803  1.00  0.00     0.000 C 
BRANCH   5   6
ATOM      6  C   UNL     1      26.779   1.976  39.245  1.00  0.00     0.006 C 
BRANCH   6   7
ATOM      7  C   UNL     1      25.573   2.459  40.056  1.00  0.00     0.053 C 
BRANCH   7   8
ATOM      8  C   UNL     1      26.013   2.988  41.385  1.00  0.00     0.041 C 
ATOM      9  O   UNL     1      26.639   4.079  41.455  1.00  0.00    -0.550 OA
ATOM     10  O   UNL     1      25.780   2.251  42.538  1.00  0.00    -0.550 OA
ENDBRANCH   7   8
ENDBRANCH   6   7
ENDBRANCH   5   6
ENDBRANCH   4   5
ENDBRANCH   3   4
ENDBRANCH   2   3
ENDBRANCH   1   2
BRANCH   1  11
ATOM     11  C   UNL     1      22.540  -3.371  36.832  1.00  0.00     0.000 C 
BRANCH  11  12
ATOM     12  C   UNL     1      22.057  -4.711  36.256  1.00  0.00    -0.000 C 
BRANCH  12  13
ATOM     13  C   UNL     1      22.666  -4.964  34.872  1.00  0.00    -0.000 C 
BRANCH  13  14
ATOM     14  C   UNL     1      23.016  -6.446  34.688  1.00  0.00    -0.000 C 
BRANCH  14  15
ATOM     15  C   UNL     1      24.077  -6.630  33.592  1.00  0.00    -0.000 C 
BRANCH  15  16
ATOM     16  C   UNL     1      25.315  -5.738  33.823  1.00  0.00    -0.000 C 
BRANCH  16  17
ATOM     17  C   UNL     1      26.251  -6.258  34.926  1.00  0.00    -0.003 C 
ATOM     18  C   UNL     1      26.267  -5.369  36.168  1.00  0.00     0.004 C 
ENDBRANCH  16  17
ENDBRANCH  15  16
ENDBRANCH  14  15
ENDBRANCH  13  14
ENDBRANCH  12  13
ENDBRANCH  11  12
ENDBRANCH   1  11
TORSDOF 14
ENDMDL
MODEL 2
REMARK VINA RESULT:    -4.454      6.082      8.211
REMARK INTER + INTRA:          -9.130
REMARK INTER:                  -7.997
REMARK INTRA:                  -1.134
REMARK UNBOUND:                -1.031
REMARK SMILES CCCCCCCCCCCCCCCC(=O)[O-]
REMARK SMILES IDX 9 1 10 2 11 3 12 4 13 5 14 6 15 7 16 8 17 9 18 10 8 11 7 12
REMARK SMILES IDX 6 13 5 14 4 15 3 16 2 17 1 18
REMARK H PARENT
REMARK Flexibility Score: inf
ROOT
ATOM      1  C   UNL     1      27.650  -1.494  43.081  1.00  0.00     0.000 C 
ENDROOT
BRANCH   1   2
ATOM      2  C   UNL     1      26.365  -0.643  43.116  1.00  0.00     0.000 C 
BRANCH   2   3
ATOM      3  C   UNL     1      26.523   0.753  43.751  1.00  0.00     0.000 C 
BRANCH   3   4
ATOM      4  C   UNL     1      25.465   1.788  43.320  1.00  0.00     0.000 C 
BRANCH   4   5
ATOM      5  C   UNL     1      25.946   2.815  42.279  1.00  0.00     0.000 C 
BRANCH   5   6
ATOM      6  C   UNL     1      25.272   2.639  40.910  1.00  0.00     0.006 C 
BRANCH   6   7
ATOM      7  C   UNL     1      26.229   1.991  39.906  1.00  0.00     0.053 C 
BRANCH   7   8
ATOM      8  C   UNL     1      25.533   1.741  38.605  1.00  0.00     0.041 C 
ATOM      9  O   UNL     1      24.668   2.552  38.184  1.00  0.00    -0.550 OA
ATOM     10  O   UNL     1      25.800   0.583  37.886  1.00  0.00    -0.550 OA
ENDBRANCH   7   8
ENDBRANCH   6   7
ENDBRANCH   5   6
ENDBRANCH   4   5
ENDBRANCH   3   4
ENDBRANCH   2   3
ENDBRANCH   1   2
BRANCH   1  11
ATOM     11  C   UNL     1      28.240  -1.838  44.461  1.00  0.00     0.000 C 
BRANCH  11  12
ATOM     12  C   UNL     1      27.566  -3.055  45.113  1.00  0.00    -0.000 C 
BRANCH  12  13
ATOM     13  C   UNL     1      28.150  -4.363  44.568  1.00  0.00    -0.000 C 
BRANCH  13  14
ATOM     14  C   UNL     1      27.152  -5.067  43.640  1.00  0.00    -0.000 C 
BRANCH  14  15
ATOM     15  C   UNL     1      25.733  -5.031  44.226  1.00  0.00    -0.000 C 
BRANCH  15  16
ATOM     16  C   UNL     1      25.448  -6.242  45.140  1.00  0.00    -0.000 C 
BRANCH  16  17
ATOM     17  C   UNL     1      24.954  -5.852  46.542  1.00  0.00    -0.003 C 
ATOM     18  C   UNL     1      26.076  -5.379  47.464  1.00  0.00     0.004 C 
ENDBRANCH  16  17
ENDBRANCH  15  16
ENDBRANCH  14  15
ENDBRANCH  13  14
ENDBRANCH  12  13
ENDBRANCH  11  12
ENDBRANCH   1  11
TORSDOF 14
ENDMDL
MODEL 3
REMARK VINA RESULT:    -4.390      5.729      8.153
REMARK INTER + INTRA:          -9.014
REMARK INTER:                  -7.826
REMARK INTRA:                  -1.188
REMARK UNBOUND:                -1.031
REMARK SMILES CCCCCCCCCCCCCCCC(=O)[O-]
REMARK SMILES IDX 9 1 10 2 11 3 12 4 13 5 14 6 15 7 16 8 17 9 18 10 8 11 7 12
REMARK SMILES IDX 6 13 5 14 4 15 3 16 2 17 1 18
REMARK H PARENT
REMARK Flexibility Score: inf
ROOT
ATOM      1  C   UNL     1      26.743   0.157  43.934  1.00  0.00     0.000 C 
ENDROOT
BRANCH   1   2
ATOM      2  C   UNL     1      25.598   1.156  43.675  1.00  0.00     0.000 C 
BRANCH   2   3
ATOM      3  C   UNL     1      25.999   2.418  42.886  1.00  0.00     0.000 C 
BRANCH   3   4
ATOM      4  C   UNL     1      24.898   2.990  41.969  1.00  0.00     0.000 C 
BRANCH   4   5
ATOM      5  C   UNL     1      25.045   2.633  40.479  1.00  0.00     0.000 C 
BRANCH   5   6
ATOM      6  C   UNL     1      26.470   2.852  39.949  1.00  0.00     0.006 C 
BRANCH   6   7
ATOM      7  C   UNL     1      26.636   2.242  38.554  1.00  0.00     0.053 C 
BRANCH   7   8
ATOM      8  C   UNL     1      26.648   0.748  38.634  1.00  0.00     0.041 C 
ATOM      9  O   UNL     1      25.768   0.075  38.035  1.00  0.00    -0.550 OA
ATOM     10  O   UNL     1      27.597   0.101  39.414  1.00  0.00    -0.550 OA
ENDBRANCH   7   8
ENDBRANCH   6   7
ENDBRANCH   5   6
ENDBRANCH   4   5
ENDBRANCH   3   4
ENDBRANCH   2   3
ENDBRANCH   1   2
BRANCH   1  11
ATOM     11  C   UNL     1      26.666  -1.147  43.120  1.00  0.00     0.000 C 
BRANCH  11  12
ATOM     12  C   UNL     1      27.858  -2.082  43.374  1.00  0.00    -0.000 C 
BRANCH  12  13
ATOM     13  C   UNL     1      28.458  -1.841  44.764  1.00  0.00    -0.000 C 
BRANCH  13  14
ATOM     14  C   UNL     1      28.253  -3.061  45.671  1.00  0.00    -0.000 C 
BRANCH  14  15
ATOM     15  C   UNL     1      28.315  -4.367  44.862  1.00  0.00    -0.000 C 
BRANCH  15  16
ATOM     16  C   UNL     1      27.362  -5.445  45.422  1.00  0.00    -0.000 C 
BRANCH  16  17
ATOM     17  C   UNL     1      25.874  -5.092  45.264  1.00  0.00    -0.003 C 
ATOM     18  C   UNL     1      25.475  -4.806  43.818  1.00  0.00     0.004 C 
ENDBRANCH  16  17
ENDBRANCH  15  16
ENDBRANCH  14  15
ENDBRANCH  13  14
ENDBRANCH  12  13
ENDBRANCH  11  12
ENDBRANCH   1  11
TORSDOF 14
ENDMDL
MODEL 4
REMARK VINA RESULT:    -4.383      6.718      9.882
REMARK INTER + INTRA:          -9.001
REMARK INTER:                  -7.767
REMARK INTRA:                  -1.234
REMARK UNBOUND:                -1.031
REMARK SMILES CCCCCCCCCCCCCCCC(=O)[O-]
REMARK SMILES IDX 9 1 10 2 11 3 12 4 13 5 14 6 15 7 16 8 17 9 18 10 8 11 7 12
REMARK SMILES IDX 6 13 5 14 4 15 3 16 2 17 1 18
REMARK H PARENT
REMARK Flexibility Score: inf
ROOT
ATOM      1  C   UNL     1      27.802  -1.465  42.949  1.00  0.00     0.000 C 
ENDROOT
BRANCH   1   2
ATOM      2  C   UNL     1      28.037  -1.841  44.425  1.00  0.00     0.000 C 
BRANCH   2   3
ATOM      3  C   UNL     1      27.577  -3.258  44.820  1.00  0.00     0.000 C 
BRANCH   3   4
ATOM      4  C   UNL     1      26.899  -4.061  43.691  1.00  0.00     0.000 C 
BRANCH   4   5
ATOM      5  C   UNL     1      25.693  -4.910  44.132  1.00  0.00     0.000 C 
BRANCH   5   6
ATOM      6  C   UNL     1      26.039  -5.904  45.251  1.00  0.00     0.006 C 
BRANCH   6   7
ATOM      7  C   UNL     1      24.862  -6.075  46.216  1.00  0.00     0.053 C 
BRANCH   7   8
ATOM      8  C   UNL     1      25.236  -5.607  47.587  1.00  0.00     0.041 C 
ATOM      9  O   UNL     1      24.611  -6.032  48.594  1.00  0.00    -0.550 OA
ATOM     10  O   UNL     1      26.239  -4.660  47.748  1.00  0.00    -0.550 OA
ENDBRANCH   7   8
ENDBRANCH   6   7
ENDBRANCH   5   6
ENDBRANCH   4   5
ENDBRANCH   3   4
ENDBRANCH   2   3
ENDBRANCH   1   2
BRANCH   1  11
ATOM     11  C   UNL     1      26.747  -0.368  42.717  1.00  0.00     0.000 C 
BRANCH  11  12
ATOM     12  C   UNL     1      26.437   0.442  43.985  1.00  0.00    -0.000 C 
BRANCH  12  13
ATOM     13  C   UNL     1      26.420   1.945  43.686  1.00  0.00    -0.000 C 
BRANCH  13  14
ATOM     14  C   UNL     1      25.528   2.256  42.477  1.00  0.00    -0.000 C 
BRANCH  14  15
ATOM     15  C   UNL     1      26.091   3.430  41.662  1.00  0.00    -0.000 C 
BRANCH  15  16
ATOM     16  C   UNL     1      26.486   3.010  40.230  1.00  0.00    -0.000 C 
BRANCH  16  17
ATOM     17  C   UNL     1      26.016   1.595  39.853  1.00  0.00    -0.003 C 
ATOM     18  C   UNL     1      27.085   0.784  39.122  1.00  0.00     0.004 C 
ENDBRANCH  16  17
ENDBRANCH  15  16
ENDBRANCH  14  15
ENDBRANCH  13  14
ENDBRANCH  12  13
ENDBRANCH  11  12
ENDBRANCH   1  11
TORSDOF 14
ENDMDL
MODEL 5
REMARK VINA RESULT:    -4.331      8.806     11.101
REMARK INTER + INTRA:          -8.907
REMARK INTER:                  -7.587
REMARK INTRA:                  -1.320
REMARK UNBOUND:                -1.031
REMARK SMILES CCCCCCCCCCCCCCCC(=O)[O-]
REMARK SMILES IDX 9 1 10 2 11 3 12 4 13 5 14 6 15 7 16 8 17 9 18 10 8 11 7 12
REMARK SMILES IDX 6 13 5 14 4 15 3 16 2 17 1 18
REMARK H PARENT
REMARK Flexibility Score: inf
ROOT
ATOM      1  C   UNL     1      25.761  -4.847  44.042  1.00  0.00     0.000 C 
ENDROOT
BRANCH   1   2
ATOM      2  C   UNL     1      24.981  -6.144  44.335  1.00  0.00     0.000 C 
BRANCH   2   3
ATOM      3  C   UNL     1      25.376  -6.865  45.639  1.00  0.00     0.000 C 
BRANCH   3   4
ATOM      4  C   UNL     1      24.784  -6.256  46.925  1.00  0.00     0.000 C 
BRANCH   4   5
ATOM      5  C   UNL     1      25.740  -5.339  47.710  1.00  0.00     0.000 C 
BRANCH   5   6
ATOM      6  C   UNL     1      25.251  -5.044  49.135  1.00  0.00     0.006 C 
BRANCH   6   7
ATOM      7  C   UNL     1      24.113  -5.990  49.531  1.00  0.00     0.053 C 
BRANCH   7   8
ATOM      8  C   UNL     1      22.995  -5.227  50.170  1.00  0.00     0.041 C 
ATOM      9  O   UNL     1      22.157  -4.616  49.456  1.00  0.00    -0.550 OA
ATOM     10  O   UNL     1      22.912  -5.146  51.553  1.00  0.00    -0.550 OA
ENDBRANCH   7   8
ENDBRANCH   6   7
ENDBRANCH   5   6
ENDBRANCH   4   5
ENDBRANCH   3   4
ENDBRANCH   2   3
ENDBRANCH   1   2
BRANCH   1  11
ATOM     11  C   UNL     1      27.221  -5.052  43.597  1.00  0.00     0.000 C 
BRANCH  11  12
ATOM     12  C   UNL     1      28.229  -4.324  44.499  1.00  0.00    -0.000 C 
BRANCH  12  13
ATOM     13  C   UNL     1      27.587  -3.099  45.162  1.00  0.00    -0.000 C 
BRANCH  13  14
ATOM     14  C   UNL     1      28.200  -1.799  44.627  1.00  0.00    -0.000 C 
BRANCH  14  15
ATOM     15  C   UNL     1      27.802  -1.562  43.162  1.00  0.00    -0.000 C 
BRANCH  15  16
ATOM     16  C   UNL     1      26.564  -0.650  43.035  1.00  0.00    -0.000 C 
BRANCH  16  17
ATOM     17  C   UNL     1      26.578   0.544  44.003  1.00  0.00    -0.003 C 
ATOM     18  C   UNL     1      25.209   1.203  44.162  1.00  0.00     0.004 C 
ENDBRANCH  16  17
ENDBRANCH  15  16
ENDBRANCH  14  15
ENDBRANCH  13  14
ENDBRANCH  12  13
ENDBRANCH  11  12
ENDBRANCH   1  11
TORSDOF 14
ENDMDL
MODEL 6
REMARK VINA RESULT:    -4.311      1.353      2.598
REMARK INTER + INTRA:          -8.871
REMARK INTER:                  -8.026
REMARK INTRA:                  -0.845
REMARK UNBOUND:                -1.031
REMARK SMILES CCCCCCCCCCCCCCCC(=O)[O-]
REMARK SMILES IDX 9 1 10 2 11 3 12 4 13 5 14 6 15 7 16 8 17 9 18 10 8 11 7 12
REMARK SMILES IDX 6 13 5 14 4 15 3 16 2 17 1 18
REMARK H PARENT
REMARK Flexibility Score: inf
ROOT
ATOM      1  C   UNL     1      25.573  -0.888  37.087  1.00  0.00     0.000 C 
ENDROOT
BRANCH   1   2
ATOM      2  C   UNL     1      25.500   0.191  38.186  1.00  0.00     0.000 C 
BRANCH   2   3
ATOM      3  C   UNL     1      26.603   1.266  38.120  1.00  0.00     0.000 C 
BRANCH   3   4
ATOM      4  C   UNL     1      26.254   2.600  38.810  1.00  0.00     0.000 C 
BRANCH   4   5
ATOM      5  C   UNL     1      25.330   2.476  40.035  1.00  0.00     0.000 C 
BRANCH   5   6
ATOM      6  C   UNL     1      26.000   2.937  41.338  1.00  0.00     0.006 C 
BRANCH   6   7
ATOM      7  C   UNL     1      25.285   2.351  42.559  1.00  0.00     0.053 C 
BRANCH   7   8
ATOM      8  C   UNL     1      26.111   1.269  43.180  1.00  0.00     0.041 C 
ATOM      9  O   UNL     1      26.565   1.410  44.346  1.00  0.00    -0.550 OA
ATOM     10  O   UNL     1      26.425   0.130  42.451  1.00  0.00    -0.550 OA
ENDBRANCH   7   8
ENDBRANCH   6   7
ENDBRANCH   5   6
ENDBRANCH   4   5
ENDBRANCH   3   4
ENDBRANCH   2   3
ENDBRANCH   1   2
BRANCH   1  11
ATOM     11  C   UNL     1      24.221  -1.269  36.458  1.00  0.00     0.000 C 
BRANCH  11  12
ATOM     12  C   UNL     1      24.011  -2.789  36.366  1.00  0.00    -0.000 C 
BRANCH  12  13
ATOM     13  C   UNL     1      22.573  -3.168  36.739  1.00  0.00    -0.000 C 
BRANCH  13  14
ATOM     14  C   UNL     1      22.104  -4.395  35.947  1.00  0.00    -0.000 C 
BRANCH  14  15
ATOM     15  C   UNL     1      23.094  -4.737  34.823  1.00  0.00    -0.000 C 
BRANCH  15  16
ATOM     16  C   UNL     1      23.570  -6.204  34.892  1.00  0.00    -0.000 C 
BRANCH  16  17
ATOM     17  C   UNL     1      24.277  -6.559  36.211  1.00  0.00    -0.003 C 
ATOM     18  C   UNL     1      25.785  -6.320  36.166  1.00  0.00     0.004 C 
ENDBRANCH  16  17
ENDBRANCH  15  16
ENDBRANCH  14  15
ENDBRANCH  13  14
ENDBRANCH  12  13
ENDBRANCH  11  12
ENDBRANCH   1  11
TORSDOF 14
ENDMDL
MODEL 7
REMARK VINA RESULT:    -4.295      6.254      8.571
REMARK INTER + INTRA:          -8.841
REMARK INTER:                  -7.663
REMARK INTRA:                  -1.178
REMARK UNBOUND:                -1.031
REMARK SMILES CCCCCCCCCCCCCCCC(=O)[O-]
REMARK SMILES IDX 9 1 10 2 11 3 12 4 13 5 14 6 15 7 16 8 17 9 18 10 8 11 7 12
REMARK SMILES IDX 6 13 5 14 4 15 3 16 2 17 1 18
REMARK H PARENT
REMARK Flexibility Score: inf
ROOT
ATOM      1  C   UNL     1      26.760  -0.516  42.963  1.00  0.00     0.000 C 
ENDROOT
BRANCH   1   2
ATOM      2  C   UNL     1      25.895   0.368  43.884  1.00  0.00     0.000 C 
BRANCH   2   3
ATOM      3  C   UNL     1      26.331   1.845  43.969  1.00  0.00     0.000 C 
BRANCH   3   4
ATOM      4  C   UNL     1      26.348   2.598  42.624  1.00  0.00     0.000 C 
BRANCH   4   5
ATOM      5  C   UNL     1      24.968   2.785  41.967  1.00  0.00     0.000 C 
BRANCH   5   6
ATOM      6  C   UNL     1      25.027   2.753  40.433  1.00  0.00     0.006 C 
BRANCH   6   7
ATOM      7  C   UNL     1      26.472   2.627  39.942  1.00  0.00     0.053 C 
BRANCH   7   8
ATOM      8  C   UNL     1      26.647   1.374  39.144  1.00  0.00     0.041 C 
ATOM      9  O   UNL     1      25.654   0.831  38.593  1.00  0.00    -0.550 OA
ATOM     10  O   UNL     1      27.897   0.776  39.055  1.00  0.00    -0.550 OA
ENDBRANCH   7   8
ENDBRANCH   6   7
ENDBRANCH   5   6
ENDBRANCH   4   5
ENDBRANCH   3   4
ENDBRANCH   2   3
ENDBRANCH   1   2
BRANCH   1  11
ATOM     11  C   UNL     1      27.735  -1.457  43.693  1.00  0.00     0.000 C 
BRANCH  11  12
ATOM     12  C   UNL     1      27.888  -2.818  42.996  1.00  0.00    -0.000 C 
BRANCH  12  13
ATOM     13  C   UNL     1      27.437  -3.959  43.915  1.00  0.00    -0.000 C 
BRANCH  13  14
ATOM     14  C   UNL     1      27.177  -3.449  45.338  1.00  0.00    -0.000 C 
BRANCH  14  15
ATOM     15  C   UNL     1      27.766  -4.408  46.385  1.00  0.00    -0.000 C 
BRANCH  15  16
ATOM     16  C   UNL     1      29.032  -5.125  45.871  1.00  0.00    -0.000 C 
BRANCH  16  17
ATOM     17  C   UNL     1      30.296  -4.798  46.684  1.00  0.00    -0.003 C 
ATOM     18  C   UNL     1      30.507  -3.299  46.888  1.00  0.00     0.004 C 
ENDBRANCH  16  17
ENDBRANCH  15  16
ENDBRANCH  14  15
ENDBRANCH  13  14
ENDBRANCH  12  13
ENDBRANCH  11  12
ENDBRANCH   1  11
TORSDOF 14
ENDMDL
MODEL 8
REMARK VINA RESULT:    -4.272      4.660      6.455
REMARK INTER + INTRA:          -8.799
REMARK INTER:                  -6.992
REMARK INTRA:                  -1.807
REMARK UNBOUND:                -1.031
REMARK SMILES CCCCCCCCCCCCCCCC(=O)[O-]
REMARK SMILES IDX 9 1 10 2 11 3 12 4 13 5 14 6 15 7 16 8 17 9 18 10 8 11 7 12
REMARK SMILES IDX 6 13 5 14 4 15 3 16 2 17 1 18
REMARK H PARENT
REMARK Flexibility Score: inf
ROOT
ATOM      1  C   UNL     1      26.062  -5.838  36.223  1.00  0.00     0.000 C 
ENDROOT
BRANCH   1   2
ATOM      2  C   UNL     1      26.594  -5.262  34.895  1.00  0.00     0.000 C 
BRANCH   2   3
ATOM      3  C   UNL     1      28.067  -4.807  34.924  1.00  0.00     0.000 C 
BRANCH   3   4
ATOM      4  C   UNL     1      28.306  -3.410  35.529  1.00  0.00     0.000 C 
BRANCH   4   5
ATOM      5  C   UNL     1      28.780  -3.409  36.994  1.00  0.00     0.000 C 
BRANCH   5   6
ATOM      6  C   UNL     1      30.267  -3.055  37.141  1.00  0.00     0.006 C 
BRANCH   6   7
ATOM      7  C   UNL     1      31.139  -4.313  37.078  1.00  0.00     0.053 C 
BRANCH   7   8
ATOM      8  C   UNL     1      31.942  -4.330  35.815  1.00  0.00     0.041 C 
ATOM      9  O   UNL     1      32.687  -5.311  35.553  1.00  0.00    -0.550 OA
ATOM     10  O   UNL     1      31.910  -3.240  34.956  1.00  0.00    -0.550 OA
ENDBRANCH   7   8
ENDBRANCH   6   7
ENDBRANCH   5   6
ENDBRANCH   4   5
ENDBRANCH   3   4
ENDBRANCH   2   3
ENDBRANCH   1   2
BRANCH   1  11
ATOM     11  C   UNL     1      24.927  -6.868  36.076  1.00  0.00     0.000 C 
BRANCH  11  12
ATOM     12  C   UNL     1      24.236  -6.805  34.706  1.00  0.00    -0.000 C 
BRANCH  12  13
ATOM     13  C   UNL     1      22.779  -6.346  34.848  1.00  0.00    -0.000 C 
BRANCH  13  14
ATOM     14  C   UNL     1      22.687  -4.816  34.898  1.00  0.00    -0.000 C 
BRANCH  14  15
ATOM     15  C   UNL     1      22.209  -4.336  36.277  1.00  0.00    -0.000 C 
BRANCH  15  16
ATOM     16  C   UNL     1      22.864  -3.000  36.689  1.00  0.00    -0.000 C 
BRANCH  16  17
ATOM     17  C   UNL     1      24.129  -2.662  35.883  1.00  0.00    -0.003 C 
ATOM     18  C   UNL     1      25.176  -1.907  36.701  1.00  0.00     0.004 C 
ENDBRANCH  16  17
ENDBRANCH  15  16
ENDBRANCH  14  15
ENDBRANCH  13  14
ENDBRANCH  12  13
ENDBRANCH  11  12
ENDBRANCH   1  11
TORSDOF 14
ENDMDL
MODEL 9
REMARK VINA RESULT:    -4.186      7.803      9.401
REMARK INTER + INTRA:          -8.643
REMARK INTER:                  -7.130
REMARK INTRA:                  -1.513
REMARK UNBOUND:                -1.031
REMARK SMILES CCCCCCCCCCCCCCCC(=O)[O-]
REMARK SMILES IDX 9 1 10 2 11 3 12 4 13 5 14 6 15 7 16 8 17 9 18 10 8 11 7 12
REMARK SMILES IDX 6 13 5 14 4 15 3 16 2 17 1 18
REMARK H PARENT
REMARK Flexibility Score: inf
ROOT
ATOM      1  C   UNL     1      25.611  -4.881  44.169  1.00  0.00     0.000 C 
ENDROOT
BRANCH   1   2
ATOM      2  C   UNL     1      26.947  -5.258  43.498  1.00  0.00     0.000 C 
BRANCH   2   3
ATOM      3  C   UNL     1      27.878  -4.069  43.182  1.00  0.00     0.000 C 
BRANCH   3   4
ATOM      4  C   UNL     1      27.809  -2.903  44.188  1.00  0.00     0.000 C 
BRANCH   4   5
ATOM      5  C   UNL     1      27.786  -1.500  43.554  1.00  0.00     0.000 C 
BRANCH   5   6
ATOM      6  C   UNL     1      26.362  -0.971  43.324  1.00  0.00     0.006 C 
BRANCH   6   7
ATOM      7  C   UNL     1      26.391   0.436  42.720  1.00  0.00     0.053 C 
BRANCH   7   8
ATOM      8  C   UNL     1      26.036   1.457  43.754  1.00  0.00     0.041 C 
ATOM      9  O   UNL     1      25.058   1.265  44.523  1.00  0.00    -0.550 OA
ATOM     10  O   UNL     1      26.750   2.645  43.831  1.00  0.00    -0.550 OA
ENDBRANCH   7   8
ENDBRANCH   6   7
ENDBRANCH   5   6
ENDBRANCH   4   5
ENDBRANCH   3   4
ENDBRANCH   2   3
ENDBRANCH   1   2
BRANCH   1  11
ATOM     11  C   UNL     1      25.294  -5.652  45.464  1.00  0.00     0.000 C 
BRANCH  11  12
ATOM     12  C   UNL     1      26.406  -5.536  46.517  1.00  0.00    -0.000 C 
BRANCH  12  13
ATOM     13  C   UNL     1      26.754  -6.911  47.100  1.00  0.00    -0.000 C 
BRANCH  13  14
ATOM     14  C   UNL     1      28.271  -7.076  47.253  1.00  0.00    -0.000 C 
BRANCH  14  15
ATOM     15  C   UNL     1      29.023  -6.344  46.131  1.00  0.00    -0.000 C 
BRANCH  15  16
ATOM     16  C   UNL     1      30.097  -5.381  46.680  1.00  0.00    -0.000 C 
BRANCH  16  17
ATOM     17  C   UNL     1      29.654  -3.909  46.695  1.00  0.00    -0.003 C 
ATOM     18  C   UNL     1      30.796  -2.943  47.007  1.00  0.00     0.004 C 
ENDBRANCH  16  17
ENDBRANCH  15  16
ENDBRANCH  14  15
ENDBRANCH  13  14
ENDBRANCH  12  13
ENDBRANCH  11  12
ENDBRANCH   1  11
TORSDOF 14
ENDMDL
