MODEL 1
REMARK VINA RESULT:    -4.710      0.000      0.000
REMARK INTER + INTRA:          -4.986
REMARK INTER:                  -4.986
REMARK INTRA:                   0.000
REMARK UNBOUND:                 0.000
REMARK SMILES O=c1ccc2cc(O)c(O)cc2o1
REMARK SMILES IDX 4 1 3 2 2 3 1 4 13 5 12 6 11 7 9 8 7 9 6 10 5 11 8 12 10 14
REMARK H PARENT 8 13 10 15
REMARK Flexibility Score: inf
ROOT
ATOM      1  C   UNL     1      72.031  39.431  21.499  1.00  0.00     0.019 A 
ATOM      2  C   UNL     1      72.062  38.429  20.529  1.00  0.00     0.094 A 
ATOM      3  C   UNL     1      73.218  38.269  19.756  1.00  0.00     0.336 A 
ATOM      4  O   UNL     1      73.265  37.370  18.877  1.00  0.00    -0.246 OA
ATOM      5  O   UNL     1      74.270  39.061  19.946  1.00  0.00    -0.423 OA
ATOM      6  C   UNL     1      74.282  40.029  20.860  1.00  0.00     0.142 A 
ATOM      7  C   UNL     1      75.417  40.831  21.015  1.00  0.00     0.098 A 
ATOM      8  C   UNL     1      75.434  41.852  21.977  1.00  0.00     0.161 A 
ATOM      9  C   UNL     1      74.311  42.072  22.788  1.00  0.00     0.158 A 
ATOM     10  C   UNL     1      73.169  41.269  22.637  1.00  0.00     0.062 A 
ATOM     11  C   UNL     1      73.151  40.249  21.677  1.00  0.00     0.022 A 
ENDROOT
BRANCH   9  12
ATOM     12  O   UNL     1      74.337  43.087  23.741  1.00  0.00    -0.504 OA
ATOM     13  H   UNL     1      74.568  44.043  23.492  1.00  0.00     0.293 HD
ENDBRANCH   9  12
BRANCH   8  14
ATOM     14  O   UNL     1      76.564  42.653  22.132  1.00  0.00    -0.504 OA
ATOM     15  H   UNL     1      76.493  43.616  22.440  1.00  0.00     0.293 HD
ENDBRANCH   8  14
TORSDOF 2
ENDMDL
MODEL 2
REMARK VINA RESULT:    -4.704      1.157      2.259
REMARK INTER + INTRA:          -4.979
REMARK INTER:                  -4.979
REMARK INTRA:                   0.000
REMARK UNBOUND:                 0.000
REMARK SMILES O=c1ccc2cc(O)c(O)cc2o1
REMARK SMILES IDX 4 1 3 2 2 3 1 4 13 5 12 6 11 7 9 8 7 9 6 10 5 11 8 12 10 14
REMARK H PARENT 8 13 10 15
REMARK Flexibility Score: inf
ROOT
ATOM      1  C   UNL     1      74.291  39.030  19.946  1.00  0.00     0.019 A 
ATOM      2  C   UNL     1      73.145  38.245  19.816  1.00  0.00     0.094 A 
ATOM      3  C   UNL     1      72.059  38.483  20.667  1.00  0.00     0.336 A 
ATOM      4  O   UNL     1      71.017  37.786  20.565  1.00  0.00    -0.246 OA
ATOM      5  O   UNL     1      72.121  39.445  21.584  1.00  0.00    -0.423 OA
ATOM      6  C   UNL     1      73.195  40.217  21.741  1.00  0.00     0.142 A 
ATOM      7  C   UNL     1      73.203  41.212  22.723  1.00  0.00     0.098 A 
ATOM      8  C   UNL     1      74.331  42.028  22.892  1.00  0.00     0.161 A 
ATOM      9  C   UNL     1      75.458  41.846  22.076  1.00  0.00     0.158 A 
ATOM     10  C   UNL     1      75.455  40.848  21.089  1.00  0.00     0.062 A 
ATOM     11  C   UNL     1      74.328  40.033  20.919  1.00  0.00     0.022 A 
ENDROOT
BRANCH   9  12
ATOM     12  O   UNL     1      76.574  42.660  22.251  1.00  0.00    -0.504 OA
ATOM     13  H   UNL     1      76.557  43.457  22.877  1.00  0.00     0.293 HD
ENDBRANCH   9  12
BRANCH   8  14
ATOM     14  O   UNL     1      74.342  43.020  23.870  1.00  0.00    -0.504 OA
ATOM     15  H   UNL     1      75.132  43.144  24.493  1.00  0.00     0.293 HD
ENDBRANCH   8  14
TORSDOF 2
ENDMDL
MODEL 3
REMARK VINA RESULT:    -4.465      1.801      2.165
REMARK INTER + INTRA:          -4.726
REMARK INTER:                  -4.726
REMARK INTRA:                   0.000
REMARK UNBOUND:                 0.000
REMARK SMILES O=c1ccc2cc(O)c(O)cc2o1
REMARK SMILES IDX 4 1 3 2 2 3 1 4 13 5 12 6 11 7 9 8 7 9 6 10 5 11 8 12 10 14
REMARK H PARENT 8 13 10 15
REMARK Flexibility Score: inf
ROOT
ATOM      1  C   UNL     1      71.639  41.464  19.740  1.00  0.00     0.019 A 
ATOM      2  C   UNL     1      71.108  40.378  19.043  1.00  0.00     0.094 A 
ATOM      3  C   UNL     1      71.387  39.082  19.491  1.00  0.00     0.336 A 
ATOM      4  O   UNL     1      70.917  38.090  18.875  1.00  0.00    -0.246 OA
ATOM      5  O   UNL     1      72.147  38.891  20.566  1.00  0.00    -0.423 OA
ATOM      6  C   UNL     1      72.673  39.898  21.260  1.00  0.00     0.142 A 
ATOM      7  C   UNL     1      73.465  39.636  22.382  1.00  0.00     0.098 A 
ATOM      8  C   UNL     1      74.021  40.694  23.116  1.00  0.00     0.161 A 
ATOM      9  C   UNL     1      73.785  42.020  22.726  1.00  0.00     0.158 A 
ATOM     10  C   UNL     1      72.991  42.289  21.601  1.00  0.00     0.062 A 
ATOM     11  C   UNL     1      72.434  41.232  20.866  1.00  0.00     0.022 A 
ENDROOT
BRANCH   9  12
ATOM     12  O   UNL     1      74.341  43.064  23.461  1.00  0.00    -0.504 OA
ATOM     13  H   UNL     1      73.797  43.583  24.141  1.00  0.00     0.293 HD
ENDBRANCH   9  12
BRANCH   8  14
ATOM     14  O   UNL     1      74.811  40.435  24.235  1.00  0.00    -0.504 OA
ATOM     15  H   UNL     1      74.808  39.528  24.688  1.00  0.00     0.293 HD
ENDBRANCH   8  14
TORSDOF 2
ENDMDL
MODEL 4
REMARK VINA RESULT:    -4.269      1.085      4.503
REMARK INTER + INTRA:          -4.519
REMARK INTER:                  -4.519
REMARK INTRA:                   0.000
REMARK UNBOUND:                 0.000
REMARK SMILES O=c1ccc2cc(O)c(O)cc2o1
REMARK SMILES IDX 4 1 3 2 2 3 1 4 13 5 12 6 11 7 9 8 7 9 6 10 5 11 8 12 10 14
REMARK H PARENT 8 13 10 15
REMARK Flexibility Score: inf
ROOT
ATOM      1  C   UNL     1      73.587  41.497  22.956  1.00  0.00     0.019 A 
ATOM      2  C   UNL     1      74.648  42.401  23.003  1.00  0.00     0.094 A 
ATOM      3  C   UNL     1      75.656  42.317  22.036  1.00  0.00     0.336 A 
ATOM      4  O   UNL     1      76.620  43.124  22.063  1.00  0.00    -0.246 OA
ATOM      5  O   UNL     1      75.601  41.387  21.086  1.00  0.00    -0.423 OA
ATOM      6  C   UNL     1      74.607  40.505  21.003  1.00  0.00     0.142 A 
ATOM      7  C   UNL     1      74.602  39.550  19.983  1.00  0.00     0.098 A 
ATOM      8  C   UNL     1      73.558  38.618  19.892  1.00  0.00     0.161 A 
ATOM      9  C   UNL     1      72.513  38.642  20.827  1.00  0.00     0.158 A 
ATOM     10  C   UNL     1      72.512  39.598  21.854  1.00  0.00     0.062 A 
ATOM     11  C   UNL     1      73.556  40.530  21.945  1.00  0.00     0.022 A 
ENDROOT
BRANCH   9  12
ATOM     12  O   UNL     1      71.479  37.713  20.730  1.00  0.00    -0.504 OA
ATOM     13  H   UNL     1      70.534  37.994  20.494  1.00  0.00     0.293 HD
ENDBRANCH   9  12
BRANCH   8  14
ATOM     14  O   UNL     1      73.551  37.665  18.875  1.00  0.00    -0.504 OA
ATOM     15  H   UNL     1      72.685  37.320  18.478  1.00  0.00     0.293 HD
ENDBRANCH   8  14
TORSDOF 2
ENDMDL
MODEL 5
REMARK VINA RESULT:    -4.149      2.093      3.828
REMARK INTER + INTRA:          -4.392
REMARK INTER:                  -4.392
REMARK INTRA:                   0.000
REMARK UNBOUND:                 0.000
REMARK SMILES O=c1ccc2cc(O)c(O)cc2o1
REMARK SMILES IDX 4 1 3 2 2 3 1 4 13 5 12 6 11 7 9 8 7 9 6 10 5 11 8 12 10 14
REMARK H PARENT 8 13 10 15
REMARK Flexibility Score: inf
ROOT
ATOM      1  C   UNL     1      72.997  42.982  22.975  1.00  0.00     0.019 A 
ATOM      2  C   UNL     1      71.724  42.650  23.438  1.00  0.00     0.094 A 
ATOM      3  C   UNL     1      71.184  41.403  23.103  1.00  0.00     0.336 A 
ATOM      4  O   UNL     1      70.037  41.085  23.512  1.00  0.00    -0.246 OA
ATOM      5  O   UNL     1      71.877  40.548  22.355  1.00  0.00    -0.423 OA
ATOM      6  C   UNL     1      73.094  40.825  21.893  1.00  0.00     0.142 A 
ATOM      7  C   UNL     1      73.776  39.888  21.111  1.00  0.00     0.098 A 
ATOM      8  C   UNL     1      75.058  40.174  20.621  1.00  0.00     0.161 A 
ATOM      9  C   UNL     1      75.663  41.405  20.915  1.00  0.00     0.158 A 
ATOM     10  C   UNL     1      74.984  42.350  21.701  1.00  0.00     0.062 A 
ATOM     11  C   UNL     1      73.702  42.064  22.190  1.00  0.00     0.022 A 
ENDROOT
BRANCH   9  12
ATOM     12  O   UNL     1      76.937  41.682  20.426  1.00  0.00    -0.504 OA
ATOM     13  H   UNL     1      77.371  42.589  20.557  1.00  0.00     0.293 HD
ENDBRANCH   9  12
BRANCH   8  14
ATOM     14  O   UNL     1      75.739  39.242  19.841  1.00  0.00    -0.504 OA
ATOM     15  H   UNL     1      75.308  38.815  19.029  1.00  0.00     0.293 HD
ENDBRANCH   8  14
TORSDOF 2
ENDMDL
MODEL 6
REMARK VINA RESULT:    -4.119      1.624      3.866
REMARK INTER + INTRA:          -4.360
REMARK INTER:                  -4.360
REMARK INTRA:                   0.000
REMARK UNBOUND:                 0.000
REMARK SMILES O=c1ccc2cc(O)c(O)cc2o1
REMARK SMILES IDX 4 1 3 2 2 3 1 4 13 5 12 6 11 7 9 8 7 9 6 10 5 11 8 12 10 14
REMARK H PARENT 8 13 10 15
REMARK Flexibility Score: inf
ROOT
ATOM      1  C   UNL     1      71.790  40.275  21.826  1.00  0.00     0.019 A 
ATOM      2  C   UNL     1      71.085  41.108  22.694  1.00  0.00     0.094 A 
ATOM      3  C   UNL     1      71.706  42.264  23.179  1.00  0.00     0.336 A 
ATOM      4  O   UNL     1      71.086  43.029  23.963  1.00  0.00    -0.246 OA
ATOM      5  O   UNL     1      72.951  42.562  22.816  1.00  0.00    -0.423 OA
ATOM      6  C   UNL     1      73.660  41.795  21.991  1.00  0.00     0.142 A 
ATOM      7  C   UNL     1      74.965  42.158  21.644  1.00  0.00     0.098 A 
ATOM      8  C   UNL     1      75.715  41.352  20.775  1.00  0.00     0.161 A 
ATOM      9  C   UNL     1      75.157  40.177  20.250  1.00  0.00     0.158 A 
ATOM     10  C   UNL     1      73.848  39.808  20.594  1.00  0.00     0.062 A 
ATOM     11  C   UNL     1      73.097  40.612  21.462  1.00  0.00     0.022 A 
ENDROOT
BRANCH   9  12
ATOM     12  O   UNL     1      75.909  39.383  19.387  1.00  0.00    -0.504 OA
ATOM     13  H   UNL     1      76.257  39.741  18.505  1.00  0.00     0.293 HD
ENDBRANCH   9  12
BRANCH   8  14
ATOM     14  O   UNL     1      77.016  41.712  20.429  1.00  0.00    -0.504 OA
ATOM     15  H   UNL     1      77.232  42.632  20.063  1.00  0.00     0.293 HD
ENDBRANCH   8  14
TORSDOF 2
ENDMDL
MODEL 7
REMARK VINA RESULT:    -4.094      1.160      5.067
REMARK INTER + INTRA:          -4.333
REMARK INTER:                  -4.333
REMARK INTRA:                   0.000
REMARK UNBOUND:                 0.000
REMARK SMILES O=c1ccc2cc(O)c(O)cc2o1
REMARK SMILES IDX 4 1 3 2 2 3 1 4 13 5 12 6 11 7 9 8 7 9 6 10 5 11 8 12 10 14
REMARK H PARENT 8 13 10 15
REMARK Flexibility Score: inf
ROOT
ATOM      1  C   UNL     1      75.435  40.743  20.906  1.00  0.00     0.019 A 
ATOM      2  C   UNL     1      75.468  41.820  21.792  1.00  0.00     0.094 A 
ATOM      3  C   UNL     1      74.311  42.143  22.510  1.00  0.00     0.336 A 
ATOM      4  O   UNL     1      74.321  43.111  23.314  1.00  0.00    -0.246 OA
ATOM      5  O   UNL     1      73.198  41.433  22.348  1.00  0.00    -0.423 OA
ATOM      6  C   UNL     1      73.124  40.398  21.514  1.00  0.00     0.142 A 
ATOM      7  C   UNL     1      71.926  39.688  21.385  1.00  0.00     0.098 A 
ATOM      8  C   UNL     1      71.843  38.597  20.507  1.00  0.00     0.161 A 
ATOM      9  C   UNL     1      72.963  38.215  19.754  1.00  0.00     0.158 A 
ATOM     10  C   UNL     1      74.167  38.924  19.879  1.00  0.00     0.062 A 
ATOM     11  C   UNL     1      74.251  40.014  20.757  1.00  0.00     0.022 A 
ENDROOT
BRANCH   9  12
ATOM     12  O   UNL     1      72.871  37.131  18.884  1.00  0.00    -0.504 OA
ATOM     13  H   UNL     1      72.359  36.293  19.133  1.00  0.00     0.293 HD
ENDBRANCH   9  12
BRANCH   8  14
ATOM     14  O   UNL     1      70.650  37.888  20.377  1.00  0.00    -0.504 OA
ATOM     15  H   UNL     1      69.833  38.300  19.943  1.00  0.00     0.293 HD
ENDBRANCH   8  14
TORSDOF 2
ENDMDL
MODEL 8
REMARK VINA RESULT:    -4.009      1.640      2.501
REMARK INTER + INTRA:          -4.244
REMARK INTER:                  -4.244
REMARK INTRA:                   0.000
REMARK UNBOUND:                 0.000
REMARK SMILES O=c1ccc2cc(O)c(O)cc2o1
REMARK SMILES IDX 4 1 3 2 2 3 1 4 13 5 12 6 11 7 9 8 7 9 6 10 5 11 8 12 10 14
REMARK H PARENT 8 13 10 15
REMARK Flexibility Score: inf
ROOT
ATOM      1  C   UNL     1      72.531  38.601  20.473  1.00  0.00     0.019 A 
ATOM      2  C   UNL     1      73.610  38.348  19.627  1.00  0.00     0.094 A 
ATOM      3  C   UNL     1      74.697  39.230  19.632  1.00  0.00     0.336 A 
ATOM      4  O   UNL     1      75.680  39.019  18.875  1.00  0.00    -0.246 OA
ATOM      5  O   UNL     1      74.699  40.292  20.433  1.00  0.00    -0.423 OA
ATOM      6  C   UNL     1      73.690  40.569  21.257  1.00  0.00     0.142 A 
ATOM      7  C   UNL     1      73.747  41.700  22.077  1.00  0.00     0.098 A 
ATOM      8  C   UNL     1      72.687  41.997  22.945  1.00  0.00     0.161 A 
ATOM      9  C   UNL     1      71.563  41.159  22.994  1.00  0.00     0.158 A 
ATOM     10  C   UNL     1      71.500  40.022  22.174  1.00  0.00     0.062 A 
ATOM     11  C   UNL     1      72.560  39.725  21.305  1.00  0.00     0.022 A 
ENDROOT
BRANCH   9  12
ATOM     12  O   UNL     1      70.515  41.461  23.860  1.00  0.00    -0.504 OA
ATOM     13  H   UNL     1      70.600  42.186  24.564  1.00  0.00     0.293 HD
ENDBRANCH   9  12
BRANCH   8  14
ATOM     14  O   UNL     1      72.742  43.124  23.763  1.00  0.00    -0.504 OA
ATOM     15  H   UNL     1      72.764  44.060  23.376  1.00  0.00     0.293 HD
ENDBRANCH   8  14
TORSDOF 2
ENDMDL
