MODEL 1
REMARK VINA RESULT:    -5.612      0.000      0.000
REMARK INTER + INTRA:          -6.289
REMARK INTER:                  -6.104
REMARK INTRA:                  -0.184
REMARK UNBOUND:                -0.184
REMARK SMILES O=C([O-])c1ccccc1O
REMARK SMILES IDX 4 1 9 2 5 3 8 4 6 5 7 6 2 7 1 8 3 9 10 10
REMARK H PARENT 10 11
REMARK Flexibility Score: inf
ROOT
ATOM      1  C   UNL     1       0.496   0.982  24.260  1.00  0.00     0.039 A 
ATOM      2  C   UNL     1      -0.565   0.904  23.320  1.00  0.00     0.124 A 
ATOM      3  C   UNL     1       0.873  -0.178  24.959  1.00  0.00     0.014 A 
ATOM      4  C   UNL     1      -1.170  -0.333  23.061  1.00  0.00     0.047 A 
ATOM      5  C   UNL     1       0.245  -1.400  24.703  1.00  0.00     0.001 A 
ATOM      6  C   UNL     1      -0.767  -1.479  23.749  1.00  0.00     0.004 A 
ENDROOT
BRANCH   1   7
ATOM      7  C   UNL     1       1.249   2.231  24.518  1.00  0.00     0.075 C 
ATOM      8  O   UNL     1       1.913   2.785  23.603  1.00  0.00    -0.545 OA
ATOM      9  O   UNL     1       1.285   2.770  25.798  1.00  0.00    -0.545 OA
ENDBRANCH   1   7
BRANCH   2  10
ATOM     10  O   UNL     1      -1.067   2.023  22.654  1.00  0.00    -0.507 OA
ATOM     11  H   UNL     1      -2.037   2.303  22.685  1.00  0.00     0.293 HD
ENDBRANCH   2  10
TORSDOF 2
ENDMDL
MODEL 2
REMARK VINA RESULT:    -5.192      1.874      3.538
REMARK INTER + INTRA:          -5.832
REMARK INTER:                  -5.591
REMARK INTRA:                  -0.241
REMARK UNBOUND:                -0.184
REMARK SMILES O=C([O-])c1ccccc1O
REMARK SMILES IDX 4 1 9 2 5 3 8 4 6 5 7 6 2 7 1 8 3 9 10 10
REMARK H PARENT 10 11
REMARK Flexibility Score: inf
ROOT
ATOM      1  C   UNL     1       0.093   0.080  23.564  1.00  0.00     0.039 A 
ATOM      2  C   UNL     1      -0.037   1.462  23.268  1.00  0.00     0.124 A 
ATOM      3  C   UNL     1       1.304  -0.389  24.105  1.00  0.00     0.014 A 
ATOM      4  C   UNL     1       1.013   2.338  23.576  1.00  0.00     0.047 A 
ATOM      5  C   UNL     1       2.348   0.495  24.387  1.00  0.00     0.001 A 
ATOM      6  C   UNL     1       2.199   1.857  24.133  1.00  0.00     0.004 A 
ENDROOT
BRANCH   1   7
ATOM      7  C   UNL     1      -1.005  -0.891  23.358  1.00  0.00     0.075 C 
ATOM      8  O   UNL     1      -2.172  -0.642  23.761  1.00  0.00    -0.545 OA
ATOM      9  O   UNL     1      -0.742  -2.125  22.775  1.00  0.00    -0.545 OA
ENDBRANCH   1   7
BRANCH   2  10
ATOM     10  O   UNL     1      -1.165   1.997  22.643  1.00  0.00    -0.507 OA
ATOM     11  H   UNL     1      -1.122   2.700  21.919  1.00  0.00     0.293 HD
ENDBRANCH   2  10
TORSDOF 2
ENDMDL
MODEL 3
REMARK VINA RESULT:    -4.978      1.513      2.831
REMARK INTER + INTRA:          -5.599
REMARK INTER:                  -5.349
REMARK INTRA:                  -0.250
REMARK UNBOUND:                -0.184
REMARK SMILES O=C([O-])c1ccccc1O
REMARK SMILES IDX 4 1 9 2 5 3 8 4 6 5 7 6 2 7 1 8 3 9 10 10
REMARK H PARENT 10 11
REMARK Flexibility Score: inf
ROOT
ATOM      1  C   UNL     1       0.914   0.403  23.824  1.00  0.00     0.039 A 
ATOM      2  C   UNL     1       2.304   0.298  24.090  1.00  0.00     0.124 A 
ATOM      3  C   UNL     1       0.154  -0.774  23.699  1.00  0.00     0.014 A 
ATOM      4  C   UNL     1       2.878  -0.965  24.285  1.00  0.00     0.047 A 
ATOM      5  C   UNL     1       0.747  -2.026  23.877  1.00  0.00     0.001 A 
ATOM      6  C   UNL     1       2.104  -2.121  24.179  1.00  0.00     0.004 A 
ENDROOT
BRANCH   1   7
ATOM      7  C   UNL     1       0.216   1.703  23.702  1.00  0.00     0.075 C 
ATOM      8  O   UNL     1       0.519   2.672  24.447  1.00  0.00    -0.545 OA
ATOM      9  O   UNL     1      -0.834   1.847  22.803  1.00  0.00    -0.545 OA
ENDBRANCH   1   7
BRANCH   2  10
ATOM     10  O   UNL     1       3.150   1.409  24.134  1.00  0.00    -0.507 OA
ATOM     11  H   UNL     1       3.833   1.619  23.420  1.00  0.00     0.293 HD
ENDBRANCH   2  10
TORSDOF 2
ENDMDL
MODEL 4
REMARK VINA RESULT:    -4.788      1.252      2.176
REMARK INTER + INTRA:          -5.393
REMARK INTER:                  -5.186
REMARK INTRA:                  -0.207
REMARK UNBOUND:                -0.184
REMARK SMILES O=C([O-])c1ccccc1O
REMARK SMILES IDX 4 1 9 2 5 3 8 4 6 5 7 6 2 7 1 8 3 9 10 10
REMARK H PARENT 10 11
REMARK Flexibility Score: inf
ROOT
ATOM      1  C   UNL     1       0.739   0.779  24.007  1.00  0.00     0.039 A 
ATOM      2  C   UNL     1       1.594  -0.354  24.030  1.00  0.00     0.124 A 
ATOM      3  C   UNL     1      -0.621   0.599  23.698  1.00  0.00     0.014 A 
ATOM      4  C   UNL     1       1.058  -1.629  23.809  1.00  0.00     0.047 A 
ATOM      5  C   UNL     1      -1.134  -0.678  23.459  1.00  0.00     0.001 A 
ATOM      6  C   UNL     1      -0.298  -1.791  23.525  1.00  0.00     0.004 A 
ENDROOT
BRANCH   1   7
ATOM      7  C   UNL     1       1.209   2.146  24.326  1.00  0.00     0.075 C 
ATOM      8  O   UNL     1       2.069   2.718  23.606  1.00  0.00    -0.545 OA
ATOM      9  O   UNL     1       0.754   2.789  25.471  1.00  0.00    -0.545 OA
ENDBRANCH   1   7
BRANCH   2  10
ATOM     10  O   UNL     1       2.972  -0.255  24.233  1.00  0.00    -0.507 OA
ATOM     11  H   UNL     1       3.388   0.199  25.033  1.00  0.00     0.293 HD
ENDBRANCH   2  10
TORSDOF 2
ENDMDL
MODEL 5
REMARK VINA RESULT:    -4.687     18.182     18.498
REMARK INTER + INTRA:          -5.282
REMARK INTER:                  -5.055
REMARK INTRA:                  -0.228
REMARK UNBOUND:                -0.184
REMARK SMILES O=C([O-])c1ccccc1O
REMARK SMILES IDX 4 1 9 2 5 3 8 4 6 5 7 6 2 7 1 8 3 9 10 10
REMARK H PARENT 10 11
REMARK Flexibility Score: inf
ROOT
ATOM      1  C   UNL     1      -5.907  14.997  14.321  1.00  0.00     0.039 A 
ATOM      2  C   UNL     1      -7.273  14.685  14.548  1.00  0.00     0.124 A 
ATOM      3  C   UNL     1      -5.225  15.791  15.262  1.00  0.00     0.014 A 
ATOM      4  C   UNL     1      -7.895  15.116  15.727  1.00  0.00     0.047 A 
ATOM      5  C   UNL     1      -5.868  16.230  16.422  1.00  0.00     0.001 A 
ATOM      6  C   UNL     1      -7.196  15.884  16.659  1.00  0.00     0.004 A 
ENDROOT
BRANCH   1   7
ATOM      7  C   UNL     1      -5.153  14.497  13.149  1.00  0.00     0.075 C 
ATOM      8  O   UNL     1      -5.130  13.269  12.872  1.00  0.00    -0.545 OA
ATOM      9  O   UNL     1      -4.402  15.377  12.379  1.00  0.00    -0.545 OA
ENDBRANCH   1   7
BRANCH   2  10
ATOM     10  O   UNL     1      -8.050  13.985  13.623  1.00  0.00    -0.507 OA
ATOM     11  H   UNL     1      -8.776  13.333  13.882  1.00  0.00     0.293 HD
ENDBRANCH   2  10
TORSDOF 2
ENDMDL
MODEL 6
REMARK VINA RESULT:    -4.657     18.264     18.497
REMARK INTER + INTRA:          -5.250
REMARK INTER:                  -5.019
REMARK INTRA:                  -0.232
REMARK UNBOUND:                -0.184
REMARK SMILES O=C([O-])c1ccccc1O
REMARK SMILES IDX 4 1 9 2 5 3 8 4 6 5 7 6 2 7 1 8 3 9 10 10
REMARK H PARENT 10 11
REMARK Flexibility Score: inf
ROOT
ATOM      1  C   UNL     1      -6.354  15.662  15.400  1.00  0.00     0.039 A 
ATOM      2  C   UNL     1      -7.481  14.880  15.035  1.00  0.00     0.124 A 
ATOM      3  C   UNL     1      -5.154  15.502  14.684  1.00  0.00     0.014 A 
ATOM      4  C   UNL     1      -7.397  14.015  13.936  1.00  0.00     0.047 A 
ATOM      5  C   UNL     1      -5.082  14.620  13.603  1.00  0.00     0.001 A 
ATOM      6  C   UNL     1      -6.204  13.886  13.223  1.00  0.00     0.004 A 
ENDROOT
BRANCH   1   7
ATOM      7  C   UNL     1      -6.393  16.667  16.486  1.00  0.00     0.075 C 
ATOM      8  O   UNL     1      -7.489  17.129  16.901  1.00  0.00    -0.545 OA
ATOM      9  O   UNL     1      -5.209  17.165  17.016  1.00  0.00    -0.545 OA
ENDBRANCH   1   7
BRANCH   2  10
ATOM     10  O   UNL     1      -8.680  14.904  15.750  1.00  0.00    -0.507 OA
ATOM     11  H   UNL     1      -9.004  15.706  16.271  1.00  0.00     0.293 HD
ENDBRANCH   2  10
TORSDOF 2
ENDMDL
MODEL 7
REMARK VINA RESULT:    -4.540      1.779      2.156
REMARK INTER + INTRA:          -5.122
REMARK INTER:                  -4.893
REMARK INTRA:                  -0.229
REMARK UNBOUND:                -0.184
REMARK SMILES O=C([O-])c1ccccc1O
REMARK SMILES IDX 4 1 9 2 5 3 8 4 6 5 7 6 2 7 1 8 3 9 10 10
REMARK H PARENT 10 11
REMARK Flexibility Score: inf
ROOT
ATOM      1  C   UNL     1       0.692  -0.539  24.145  1.00  0.00     0.039 A 
ATOM      2  C   UNL     1      -0.225   0.397  23.602  1.00  0.00     0.124 A 
ATOM      3  C   UNL     1       0.213  -1.790  24.574  1.00  0.00     0.014 A 
ATOM      4  C   UNL     1      -1.570   0.039  23.445  1.00  0.00     0.047 A 
ATOM      5  C   UNL     1      -1.136  -2.124  24.430  1.00  0.00     0.001 A 
ATOM      6  C   UNL     1      -2.023  -1.215  23.857  1.00  0.00     0.004 A 
ENDROOT
BRANCH   1   7
ATOM      7  C   UNL     1       2.144  -0.271  24.253  1.00  0.00     0.075 C 
ATOM      8  O   UNL     1       2.581   0.908  24.307  1.00  0.00    -0.545 OA
ATOM      9  O   UNL     1       3.050  -1.325  24.227  1.00  0.00    -0.545 OA
ENDBRANCH   1   7
BRANCH   2  10
ATOM     10  O   UNL     1       0.146   1.694  23.240  1.00  0.00    -0.507 OA
ATOM     11  H   UNL     1      -0.516   2.436  23.064  1.00  0.00     0.293 HD
ENDBRANCH   2  10
TORSDOF 2
ENDMDL
MODEL 8
REMARK VINA RESULT:    -4.483     12.793     14.059
REMARK INTER + INTRA:          -5.060
REMARK INTER:                  -4.838
REMARK INTRA:                  -0.222
REMARK UNBOUND:                -0.184
REMARK SMILES O=C([O-])c1ccccc1O
REMARK SMILES IDX 4 1 9 2 5 3 8 4 6 5 7 6 2 7 1 8 3 9 10 10
REMARK H PARENT 10 11
REMARK Flexibility Score: inf
ROOT
ATOM      1  C   UNL     1     -12.073   4.251  18.904  1.00  0.00     0.039 A 
ATOM      2  C   UNL     1     -12.636   4.876  20.047  1.00  0.00     0.124 A 
ATOM      3  C   UNL     1     -10.933   3.443  19.062  1.00  0.00     0.014 A 
ATOM      4  C   UNL     1     -12.088   4.628  21.312  1.00  0.00     0.047 A 
ATOM      5  C   UNL     1     -10.387   3.223  20.329  1.00  0.00     0.001 A 
ATOM      6  C   UNL     1     -10.969   3.805  21.452  1.00  0.00     0.004 A 
ENDROOT
BRANCH   1   7
ATOM      7  C   UNL     1     -12.653   4.386  17.548  1.00  0.00     0.075 C 
ATOM      8  O   UNL     1     -13.457   5.317  17.278  1.00  0.00    -0.545 OA
ATOM      9  O   UNL     1     -12.366   3.440  16.571  1.00  0.00    -0.545 OA
ENDBRANCH   1   7
BRANCH   2  10
ATOM     10  O   UNL     1     -13.707   5.769  19.968  1.00  0.00    -0.507 OA
ATOM     11  H   UNL     1     -14.095   6.101  19.096  1.00  0.00     0.293 HD
ENDBRANCH   2  10
TORSDOF 2
ENDMDL
MODEL 9
REMARK VINA RESULT:    -4.091      2.597      4.095
REMARK INTER + INTRA:          -4.634
REMARK INTER:                  -4.394
REMARK INTRA:                  -0.240
REMARK UNBOUND:                -0.184
REMARK SMILES O=C([O-])c1ccccc1O
REMARK SMILES IDX 4 1 9 2 5 3 8 4 6 5 7 6 2 7 1 8 3 9 10 10
REMARK H PARENT 10 11
REMARK Flexibility Score: inf
ROOT
ATOM      1  C   UNL     1       0.030  -0.218  23.575  1.00  0.00     0.039 A 
ATOM      2  C   UNL     1       1.338  -0.627  23.941  1.00  0.00     0.124 A 
ATOM      3  C   UNL     1      -0.258   1.157  23.501  1.00  0.00     0.014 A 
ATOM      4  C   UNL     1       2.329   0.339  24.159  1.00  0.00     0.047 A 
ATOM      5  C   UNL     1       0.737   2.106  23.741  1.00  0.00     0.001 A 
ATOM      6  C   UNL     1       2.031   1.698  24.059  1.00  0.00     0.004 A 
ENDROOT
BRANCH   1   7
ATOM      7  C   UNL     1      -1.045  -1.178  23.235  1.00  0.00     0.075 C 
ATOM      8  O   UNL     1      -0.835  -2.125  22.432  1.00  0.00    -0.545 OA
ATOM      9  O   UNL     1      -2.324  -1.002  23.749  1.00  0.00    -0.545 OA
ENDBRANCH   1   7
BRANCH   2  10
ATOM     10  O   UNL     1       1.685  -1.966  24.133  1.00  0.00    -0.507 OA
ATOM     11  H   UNL     1       2.159  -2.526  23.438  1.00  0.00     0.293 HD
ENDBRANCH   2  10
TORSDOF 2
ENDMDL
