MODEL 1
REMARK VINA RESULT:     6.227      0.000      0.000
REMARK INTER + INTRA:          10.364
REMARK INTER:                  11.323
REMARK INTRA:                  -0.959
REMARK UNBOUND:                -0.959
REMARK SMILES CCCCCCCCCCCCCC[C@@H](C)C(=O)[O-]
REMARK SMILES IDX 9 1 10 2 11 3 12 4 13 5 14 6 15 7 16 8 17 9 18 10 19 11 8 12
REMARK SMILES IDX 7 13 6 14 5 15 4 16 3 17 2 18 1 19
REMARK H PARENT
REMARK Flexibility Score: inf
ROOT
ATOM      1  C   UNL     1      34.501  15.865  43.627  1.00  0.00     0.000 C 
ENDROOT
BRANCH   1   2
ATOM      2  C   UNL     1      35.822  15.205  44.053  1.00  0.00     0.000 C 
BRANCH   2   3
ATOM      3  C   UNL     1      36.151  14.005  43.157  1.00  0.00     0.000 C 
BRANCH   3   4
ATOM      4  C   UNL     1      34.877  13.428  42.520  1.00  0.00     0.000 C 
BRANCH   4   5
ATOM      5  C   UNL     1      34.924  13.439  40.984  1.00  0.00     0.001 C 
BRANCH   5   6
ATOM      6  C   UNL     1      33.863  12.514  40.355  1.00  0.00     0.009 C 
BRANCH   6   7
ATOM      7  C   UNL     1      33.568  11.237  41.174  1.00  0.00     0.032 C 
ATOM      8  C   UNL     1      32.290  11.353  42.017  1.00  0.00     0.014 C 
BRANCH   7   9
ATOM      9  C   UNL     1      33.548  10.010  40.301  1.00  0.00     0.044 C 
ATOM     10  O   UNL     1      32.447   9.506  39.954  1.00  0.00    -0.550 OA
ATOM     11  O   UNL     1      34.733   9.392  39.914  1.00  0.00    -0.550 OA
ENDBRANCH   7   9
ENDBRANCH   6   7
ENDBRANCH   5   6
ENDBRANCH   4   5
ENDBRANCH   3   4
ENDBRANCH   2   3
ENDBRANCH   1   2
BRANCH   1  12
ATOM     12  C   UNL     1      34.704  17.266  43.028  1.00  0.00     0.000 C 
BRANCH  12  13
ATOM     13  C   UNL     1      33.695  17.585  41.914  1.00  0.00    -0.000 C 
BRANCH  13  14
ATOM     14  C   UNL     1      34.155  17.002  40.572  1.00  0.00    -0.000 C 
BRANCH  14  15
ATOM     15  C   UNL     1      33.931  18.006  39.431  1.00  0.00    -0.000 C 
BRANCH  15  16
ATOM     16  C   UNL     1      32.452  18.391  39.261  1.00  0.00    -0.000 C 
BRANCH  16  17
ATOM     17  C   UNL     1      31.942  18.154  37.829  1.00  0.00    -0.000 C 
BRANCH  17  18
ATOM     18  C   UNL     1      30.984  19.260  37.355  1.00  0.00    -0.003 C 
ATOM     19  C   UNL     1      31.175  20.574  38.113  1.00  0.00     0.004 C 
ENDBRANCH  17  18
ENDBRANCH  16  17
ENDBRANCH  15  16
ENDBRANCH  14  15
ENDBRANCH  13  14
ENDBRANCH  12  13
ENDBRANCH   1  12
TORSDOF 14
ENDMDL
MODEL 2
REMARK VINA RESULT:     7.478      1.235      1.491
REMARK INTER + INTRA:          12.640
REMARK INTER:                  13.507
REMARK INTRA:                  -0.867
REMARK UNBOUND:                -0.959
REMARK SMILES CCCCCCCCCCCCCC[C@@H](C)C(=O)[O-]
REMARK SMILES IDX 9 1 10 2 11 3 12 4 13 5 14 6 15 7 16 8 17 9 18 10 19 11 8 12
REMARK SMILES IDX 7 13 6 14 5 15 4 16 3 17 2 18 1 19
REMARK H PARENT
REMARK Flexibility Score: inf
ROOT
ATOM      1  C   UNL     1      34.552  15.733  43.844  1.00  0.00     0.000 C 
ENDROOT
BRANCH   1   2
ATOM      2  C   UNL     1      35.857  14.942  43.666  1.00  0.00     0.000 C 
BRANCH   2   3
ATOM      3  C   UNL     1      35.605  13.626  42.921  1.00  0.00     0.000 C 
BRANCH   3   4
ATOM      4  C   UNL     1      34.943  13.883  41.557  1.00  0.00     0.000 C 
BRANCH   4   5
ATOM      5  C   UNL     1      35.020  12.666  40.622  1.00  0.00     0.001 C 
BRANCH   5   6
ATOM      6  C   UNL     1      33.667  12.351  39.953  1.00  0.00     0.009 C 
BRANCH   6   7
ATOM      7  C   UNL     1      32.999  11.050  40.453  1.00  0.00     0.032 C 
ATOM      8  C   UNL     1      33.806   9.793  40.099  1.00  0.00     0.014 C 
BRANCH   7   9
ATOM      9  C   UNL     1      32.691  11.115  41.927  1.00  0.00     0.044 C 
ATOM     10  O   UNL     1      31.538  11.445  42.311  1.00  0.00    -0.550 OA
ATOM     11  O   UNL     1      33.679  10.866  42.873  1.00  0.00    -0.550 OA
ENDBRANCH   7   9
ENDBRANCH   6   7
ENDBRANCH   5   6
ENDBRANCH   4   5
ENDBRANCH   3   4
ENDBRANCH   2   3
ENDBRANCH   1   2
BRANCH   1  12
ATOM     12  C   UNL     1      34.656  17.175  43.321  1.00  0.00     0.000 C 
BRANCH  12  13
ATOM     13  C   UNL     1      33.591  17.498  42.260  1.00  0.00    -0.000 C 
BRANCH  13  14
ATOM     14  C   UNL     1      34.243  17.958  40.950  1.00  0.00    -0.000 C 
BRANCH  14  15
ATOM     15  C   UNL     1      33.529  17.342  39.737  1.00  0.00    -0.000 C 
BRANCH  15  16
ATOM     16  C   UNL     1      33.140  18.391  38.681  1.00  0.00    -0.000 C 
BRANCH  16  17
ATOM     17  C   UNL     1      31.999  17.912  37.766  1.00  0.00    -0.000 C 
BRANCH  17  18
ATOM     18  C   UNL     1      30.839  18.918  37.697  1.00  0.00    -0.003 C 
ATOM     19  C   UNL     1      31.305  20.369  37.817  1.00  0.00     0.004 C 
ENDBRANCH  17  18
ENDBRANCH  16  17
ENDBRANCH  15  16
ENDBRANCH  14  15
ENDBRANCH  13  14
ENDBRANCH  12  13
ENDBRANCH   1  12
TORSDOF 14
ENDMDL
MODEL 3
REMARK VINA RESULT:     7.619      3.628      7.295
REMARK INTER + INTRA:          12.896
REMARK INTER:                  13.987
REMARK INTRA:                  -1.091
REMARK UNBOUND:                -0.959
REMARK SMILES CCCCCCCCCCCCCC[C@@H](C)C(=O)[O-]
REMARK SMILES IDX 9 1 10 2 11 3 12 4 13 5 14 6 15 7 16 8 17 9 18 10 19 11 8 12
REMARK SMILES IDX 7 13 6 14 5 15 4 16 3 17 2 18 1 19
REMARK H PARENT
REMARK Flexibility Score: inf
ROOT
ATOM      1  C   UNL     1      34.491  15.877  43.685  1.00  0.00     0.000 C 
ENDROOT
BRANCH   1   2
ATOM      2  C   UNL     1      34.699  17.300  43.144  1.00  0.00     0.000 C 
BRANCH   2   3
ATOM      3  C   UNL     1      33.698  17.614  42.025  1.00  0.00     0.000 C 
BRANCH   3   4
ATOM      4  C   UNL     1      34.066  16.868  40.732  1.00  0.00     0.000 C 
BRANCH   4   5
ATOM      5  C   UNL     1      33.997  17.769  39.488  1.00  0.00     0.001 C 
BRANCH   5   6
ATOM      6  C   UNL     1      32.643  18.494  39.360  1.00  0.00     0.009 C 
BRANCH   6   7
ATOM      7  C   UNL     1      32.066  18.512  37.927  1.00  0.00     0.032 C 
ATOM      8  C   UNL     1      31.441  17.170  37.519  1.00  0.00     0.014 C 
BRANCH   7   9
ATOM      9  C   UNL     1      31.104  19.655  37.730  1.00  0.00     0.044 C 
ATOM     10  O   UNL     1      31.527  20.841  37.752  1.00  0.00    -0.550 OA
ATOM     11  O   UNL     1      29.742  19.420  37.575  1.00  0.00    -0.550 OA
ENDBRANCH   7   9
ENDBRANCH   6   7
ENDBRANCH   5   6
ENDBRANCH   4   5
ENDBRANCH   3   4
ENDBRANCH   2   3
ENDBRANCH   1   2
BRANCH   1  12
ATOM     12  C   UNL     1      35.816  15.159  43.989  1.00  0.00     0.000 C 
BRANCH  12  13
ATOM     13  C   UNL     1      36.086  13.985  43.035  1.00  0.00    -0.000 C 
BRANCH  13  14
ATOM     14  C   UNL     1      34.774  13.399  42.500  1.00  0.00    -0.000 C 
BRANCH  14  15
ATOM     15  C   UNL     1      34.957  12.853  41.076  1.00  0.00    -0.000 C 
BRANCH  15  16
ATOM     16  C   UNL     1      33.639  12.366  40.451  1.00  0.00    -0.000 C 
BRANCH  16  17
ATOM     17  C   UNL     1      33.137  11.055  41.081  1.00  0.00    -0.000 C 
BRANCH  17  18
ATOM     18  C   UNL     1      32.912   9.950  40.036  1.00  0.00    -0.003 C 
ATOM     19  C   UNL     1      34.141   9.065  39.834  1.00  0.00     0.004 C 
ENDBRANCH  17  18
ENDBRANCH  16  17
ENDBRANCH  15  16
ENDBRANCH  14  15
ENDBRANCH  13  14
ENDBRANCH  12  13
ENDBRANCH   1  12
TORSDOF 14
ENDMDL
MODEL 4
REMARK VINA RESULT:     8.707      3.163      7.001
REMARK INTER + INTRA:          14.875
REMARK INTER:                  16.010
REMARK INTRA:                  -1.136
REMARK UNBOUND:                -0.959
REMARK SMILES CCCCCCCCCCCCCC[C@@H](C)C(=O)[O-]
REMARK SMILES IDX 9 1 10 2 11 3 12 4 13 5 14 6 15 7 16 8 17 9 18 10 19 11 8 12
REMARK SMILES IDX 7 13 6 14 5 15 4 16 3 17 2 18 1 19
REMARK H PARENT
REMARK Flexibility Score: inf
ROOT
ATOM      1  C   UNL     1      36.096  14.438  43.422  1.00  0.00     0.000 C 
ENDROOT
BRANCH   1   2
ATOM      2  C   UNL     1      35.787  15.866  43.898  1.00  0.00     0.000 C 
BRANCH   2   3
ATOM      3  C   UNL     1      34.302  16.198  43.711  1.00  0.00     0.000 C 
BRANCH   3   4
ATOM      4  C   UNL     1      34.124  17.471  42.868  1.00  0.00     0.000 C 
BRANCH   4   5
ATOM      5  C   UNL     1      33.958  17.172  41.370  1.00  0.00     0.001 C 
BRANCH   5   6
ATOM      6  C   UNL     1      32.944  18.113  40.690  1.00  0.00     0.009 C 
BRANCH   6   7
ATOM      7  C   UNL     1      33.361  18.585  39.279  1.00  0.00     0.032 C 
ATOM      8  C   UNL     1      34.531  17.775  38.702  1.00  0.00     0.014 C 
BRANCH   7   9
ATOM      9  C   UNL     1      32.188  18.617  38.335  1.00  0.00     0.044 C 
ATOM     10  O   UNL     1      31.492  19.662  38.234  1.00  0.00    -0.550 OA
ATOM     11  O   UNL     1      31.829  17.487  37.608  1.00  0.00    -0.550 OA
ENDBRANCH   7   9
ENDBRANCH   6   7
ENDBRANCH   5   6
ENDBRANCH   4   5
ENDBRANCH   3   4
ENDBRANCH   2   3
ENDBRANCH   1   2
BRANCH   1  12
ATOM     12  C   UNL     1      34.880  13.749  42.782  1.00  0.00     0.000 C 
BRANCH  12  13
ATOM     13  C   UNL     1      35.267  12.821  41.620  1.00  0.00    -0.000 C 
BRANCH  13  14
ATOM     14  C   UNL     1      34.579  13.253  40.319  1.00  0.00    -0.000 C 
BRANCH  14  15
ATOM     15  C   UNL     1      33.342  12.386  40.039  1.00  0.00    -0.000 C 
BRANCH  15  16
ATOM     16  C   UNL     1      33.181  11.236  41.047  1.00  0.00    -0.000 C 
BRANCH  16  17
ATOM     17  C   UNL     1      32.690   9.936  40.386  1.00  0.00    -0.000 C 
BRANCH  17  18
ATOM     18  C   UNL     1      33.806   9.210  39.618  1.00  0.00    -0.003 C 
ATOM     19  C   UNL     1      35.191   9.445  40.221  1.00  0.00     0.004 C 
ENDBRANCH  17  18
ENDBRANCH  16  17
ENDBRANCH  15  16
ENDBRANCH  14  15
ENDBRANCH  13  14
ENDBRANCH  12  13
ENDBRANCH   1  12
TORSDOF 14
ENDMDL
