MODEL 1
REMARK VINA RESULT:    -4.686      0.000      0.000
REMARK INTER + INTRA:          -5.955
REMARK INTER:                  -5.644
REMARK INTRA:                  -0.310
REMARK UNBOUND:                -0.310
REMARK SMILES O=c1c(O)c(-c2ccc(O)cc2O)oc2cc(O)cc(O)c12
REMARK SMILES IDX 5 1 3 2 2 3 1 4 22 5 20 6 19 7 17 8 16 9 15 10 14 11 6 12
REMARK SMILES IDX 8 13 7 14 9 15 11 16 12 17 10 18 13 20 4 22 21 24 18 26
REMARK H PARENT 10 19 13 21 4 23 21 25 18 27
REMARK Flexibility Score: inf
ROOT
ATOM      1  C   UNL     1     -14.219  15.036  11.235  1.00  0.00     0.184 A 
ATOM      2  C   UNL     1     -13.057  14.464  10.693  1.00  0.00     0.208 A 
ATOM      3  C   UNL     1     -12.945  14.340   9.299  1.00  0.00     0.238 A 
ATOM      4  O   UNL     1     -11.879  13.876   8.817  1.00  0.00    -0.285 OA
ATOM      5  C   UNL     1     -14.006  14.775   8.467  1.00  0.00     0.111 A 
ATOM      6  C   UNL     1     -14.018  14.661   7.045  1.00  0.00     0.134 A 
ATOM      7  C   UNL     1     -15.061  15.243   6.315  1.00  0.00     0.093 A 
ATOM      8  C   UNL     1     -16.125  15.876   6.957  1.00  0.00     0.123 A 
ATOM      9  C   UNL     1     -16.153  15.941   8.350  1.00  0.00     0.094 A 
ATOM     10  C   UNL     1     -15.108  15.402   9.105  1.00  0.00     0.146 A 
ATOM     11  O   UNL     1     -15.167  15.494  10.428  1.00  0.00    -0.451 OA
ENDROOT
BRANCH   1  12
ATOM     12  C   UNL     1     -14.406  15.180  12.694  1.00  0.00     0.063 A 
ATOM     13  C   UNL     1     -13.644  16.122  14.802  1.00  0.00     0.047 A 
ATOM     14  C   UNL     1     -13.493  15.959  13.423  1.00  0.00     0.020 A 
ATOM     15  C   UNL     1     -14.715  15.521  15.468  1.00  0.00     0.119 A 
ATOM     16  C   UNL     1     -15.645  14.760  14.746  1.00  0.00     0.093 A 
ATOM     17  C   UNL     1     -15.504  14.597  13.360  1.00  0.00     0.130 A 
BRANCH  15  18
ATOM     18  O   UNL     1     -14.849  15.688  16.844  1.00  0.00    -0.508 OA
ATOM     19  H   UNL     1     -14.682  16.584  17.288  1.00  0.00     0.293 HD
ENDBRANCH  15  18
BRANCH  17  20
ATOM     20  O   UNL     1     -16.462  13.879  12.645  1.00  0.00    -0.507 OA
ATOM     21  H   UNL     1     -17.004  13.140  13.077  1.00  0.00     0.293 HD
ENDBRANCH  17  20
ENDBRANCH   1  12
BRANCH   2  22
ATOM     22  O   UNL     1     -12.018  14.060  11.537  1.00  0.00    -0.502 OA
ATOM     23  H   UNL     1     -12.005  13.151  11.984  1.00  0.00     0.293 HD
ENDBRANCH   2  22
BRANCH   6  24
ATOM     24  O   UNL     1     -13.051  13.970   6.308  1.00  0.00    -0.507 OA
ATOM     25  H   UNL     1     -12.096  14.273   6.186  1.00  0.00     0.293 HD
ENDBRANCH   6  24
BRANCH   8  26
ATOM     26  O   UNL     1     -17.155  16.429   6.199  1.00  0.00    -0.508 OA
ATOM     27  H   UNL     1     -17.689  17.224   6.531  1.00  0.00     0.293 HD
ENDBRANCH   8  26
TORSDOF 6
ENDMDL
MODEL 2
REMARK VINA RESULT:    -4.538      1.584      2.356
REMARK INTER + INTRA:          -5.776
REMARK INTER:                  -5.369
REMARK INTRA:                  -0.408
REMARK UNBOUND:                -0.310
REMARK SMILES O=c1c(O)c(-c2ccc(O)cc2O)oc2cc(O)cc(O)c12
REMARK SMILES IDX 5 1 3 2 2 3 1 4 22 5 20 6 19 7 17 8 16 9 15 10 14 11 6 12
REMARK SMILES IDX 8 13 7 14 9 15 11 16 12 17 10 18 13 20 4 22 21 24 18 26
REMARK H PARENT 10 19 13 21 4 23 21 25 18 27
REMARK Flexibility Score: inf
ROOT
ATOM      1  C   UNL     1     -14.633  15.082  12.961  1.00  0.00     0.184 A 
ATOM      2  C   UNL     1     -13.597  14.460  12.247  1.00  0.00     0.208 A 
ATOM      3  C   UNL     1     -13.637  14.467  10.844  1.00  0.00     0.238 A 
ATOM      4  O   UNL     1     -12.678  13.955  10.209  1.00  0.00    -0.285 OA
ATOM      5  C   UNL     1     -14.722  15.083  10.174  1.00  0.00     0.111 A 
ATOM      6  C   UNL     1     -14.887  15.115   8.757  1.00  0.00     0.134 A 
ATOM      7  C   UNL     1     -15.930  15.864   8.200  1.00  0.00     0.093 A 
ATOM      8  C   UNL     1     -16.852  16.528   9.008  1.00  0.00     0.123 A 
ATOM      9  C   UNL     1     -16.736  16.455  10.397  1.00  0.00     0.094 A 
ATOM     10  C   UNL     1     -15.685  15.745  10.982  1.00  0.00     0.146 A 
ATOM     11  O   UNL     1     -15.603  15.708  12.307  1.00  0.00    -0.451 OA
ENDROOT
BRANCH   1  12
ATOM     12  C   UNL     1     -14.659  15.096  14.439  1.00  0.00     0.063 A 
ATOM     13  C   UNL     1     -15.260  13.983  16.516  1.00  0.00     0.047 A 
ATOM     14  C   UNL     1     -15.225  14.005  15.119  1.00  0.00     0.020 A 
ATOM     15  C   UNL     1     -14.718  15.042  17.249  1.00  0.00     0.119 A 
ATOM     16  C   UNL     1     -14.130  16.123  16.580  1.00  0.00     0.093 A 
ATOM     17  C   UNL     1     -14.085  16.151  15.178  1.00  0.00     0.130 A 
BRANCH  15  18
ATOM     18  O   UNL     1     -14.764  15.008  18.641  1.00  0.00    -0.508 OA
ATOM     19  H   UNL     1     -15.637  14.873  19.139  1.00  0.00     0.293 HD
ENDBRANCH  15  18
BRANCH  17  20
ATOM     20  O   UNL     1     -13.454  17.208  14.525  1.00  0.00    -0.507 OA
ATOM     21  H   UNL     1     -12.761  17.049  13.803  1.00  0.00     0.293 HD
ENDBRANCH  17  20
ENDBRANCH   1  12
BRANCH   2  22
ATOM     22  O   UNL     1     -12.529  13.875  12.934  1.00  0.00    -0.502 OA
ATOM     23  H   UNL     1     -11.687  13.564  12.463  1.00  0.00     0.293 HD
ENDBRANCH   2  22
BRANCH   6  24
ATOM     24  O   UNL     1     -14.075  14.412   7.861  1.00  0.00    -0.507 OA
ATOM     25  H   UNL     1     -13.845  13.433   7.940  1.00  0.00     0.293 HD
ENDBRANCH   6  24
BRANCH   8  26
ATOM     26  O   UNL     1     -17.888  17.250   8.419  1.00  0.00    -0.508 OA
ATOM     27  H   UNL     1     -17.743  17.791   7.574  1.00  0.00     0.293 HD
ENDBRANCH   8  26
TORSDOF 6
ENDMDL
MODEL 3
REMARK VINA RESULT:    -4.453     12.029     15.132
REMARK INTER + INTRA:          -5.674
REMARK INTER:                  -5.252
REMARK INTRA:                  -0.422
REMARK UNBOUND:                -0.310
REMARK SMILES O=c1c(O)c(-c2ccc(O)cc2O)oc2cc(O)cc(O)c12
REMARK SMILES IDX 5 1 3 2 2 3 1 4 22 5 20 6 19 7 17 8 16 9 15 10 14 11 6 12
REMARK SMILES IDX 8 13 7 14 9 15 11 16 12 17 10 18 13 20 4 22 21 24 18 26
REMARK H PARENT 10 19 13 21 4 23 21 25 18 27
REMARK Flexibility Score: inf
ROOT
ATOM      1  C   UNL     1     -26.264  15.595  18.916  1.00  0.00     0.184 A 
ATOM      2  C   UNL     1     -25.225  14.981  18.199  1.00  0.00     0.208 A 
ATOM      3  C   UNL     1     -23.917  15.470  18.342  1.00  0.00     0.238 A 
ATOM      4  O   UNL     1     -22.982  14.882  17.738  1.00  0.00    -0.285 OA
ATOM      5  C   UNL     1     -23.670  16.580  19.187  1.00  0.00     0.111 A 
ATOM      6  C   UNL     1     -22.391  17.185  19.374  1.00  0.00     0.134 A 
ATOM      7  C   UNL     1     -22.239  18.194  20.333  1.00  0.00     0.093 A 
ATOM      8  C   UNL     1     -23.330  18.665  21.063  1.00  0.00     0.123 A 
ATOM      9  C   UNL     1     -24.596  18.121  20.845  1.00  0.00     0.094 A 
ATOM     10  C   UNL     1     -24.773  17.088  19.921  1.00  0.00     0.146 A 
ATOM     11  O   UNL     1     -25.992  16.590  19.751  1.00  0.00    -0.451 OA
ENDROOT
BRANCH   1  12
ATOM     12  C   UNL     1     -27.665  15.139  18.799  1.00  0.00     0.063 A 
ATOM     13  C   UNL     1     -29.730  15.080  17.517  1.00  0.00     0.047 A 
ATOM     14  C   UNL     1     -28.405  15.501  17.662  1.00  0.00     0.020 A 
ATOM     15  C   UNL     1     -30.326  14.282  18.496  1.00  0.00     0.119 A 
ATOM     16  C   UNL     1     -29.588  13.896  19.623  1.00  0.00     0.093 A 
ATOM     17  C   UNL     1     -28.256  14.309  19.774  1.00  0.00     0.130 A 
BRANCH  15  18
ATOM     18  O   UNL     1     -31.649  13.875  18.340  1.00  0.00    -0.508 OA
ATOM     19  H   UNL     1     -32.241  13.679  19.139  1.00  0.00     0.293 HD
ENDBRANCH  15  18
BRANCH  17  20
ATOM     20  O   UNL     1     -27.516  13.877  20.875  1.00  0.00    -0.507 OA
ATOM     21  H   UNL     1     -27.944  13.749  21.785  1.00  0.00     0.293 HD
ENDBRANCH  17  20
ENDBRANCH   1  12
BRANCH   2  22
ATOM     22  O   UNL     1     -25.496  13.876  17.387  1.00  0.00    -0.502 OA
ATOM     23  H   UNL     1     -26.217  13.889  16.676  1.00  0.00     0.293 HD
ENDBRANCH   2  22
BRANCH   6  24
ATOM     24  O   UNL     1     -21.253  16.853  18.633  1.00  0.00    -0.507 OA
ATOM     25  H   UNL     1     -20.467  17.468  18.479  1.00  0.00     0.293 HD
ENDBRANCH   6  24
BRANCH   8  26
ATOM     26  O   UNL     1     -23.144  19.682  21.997  1.00  0.00    -0.508 OA
ATOM     27  H   UNL     1     -23.603  19.662  22.900  1.00  0.00     0.293 HD
ENDBRANCH   8  26
TORSDOF 6
ENDMDL
MODEL 4
REMARK VINA RESULT:    -4.289      1.610      3.291
REMARK INTER + INTRA:          -5.476
REMARK INTER:                  -5.178
REMARK INTRA:                  -0.298
REMARK UNBOUND:                -0.310
REMARK SMILES O=c1c(O)c(-c2ccc(O)cc2O)oc2cc(O)cc(O)c12
REMARK SMILES IDX 5 1 3 2 2 3 1 4 22 5 20 6 19 7 17 8 16 9 15 10 14 11 6 12
REMARK SMILES IDX 8 13 7 14 9 15 11 16 12 17 10 18 13 20 4 22 21 24 18 26
REMARK H PARENT 10 19 13 21 4 23 21 25 18 27
REMARK Flexibility Score: inf
ROOT
ATOM      1  C   UNL     1     -14.652  15.562  12.912  1.00  0.00     0.184 A 
ATOM      2  C   UNL     1     -15.896  16.073  12.508  1.00  0.00     0.208 A 
ATOM      3  C   UNL     1     -16.210  16.100  11.141  1.00  0.00     0.238 A 
ATOM      4  O   UNL     1     -17.348  16.510  10.789  1.00  0.00    -0.285 OA
ATOM      5  C   UNL     1     -15.267  15.631  10.193  1.00  0.00     0.111 A 
ATOM      6  C   UNL     1     -15.463  15.649   8.779  1.00  0.00     0.134 A 
ATOM      7  C   UNL     1     -14.518  15.040   7.945  1.00  0.00     0.093 A 
ATOM      8  C   UNL     1     -13.355  14.473   8.465  1.00  0.00     0.123 A 
ATOM      9  C   UNL     1     -13.126  14.502   9.841  1.00  0.00     0.094 A 
ATOM     10  C   UNL     1     -14.067  15.070  10.703  1.00  0.00     0.146 A 
ATOM     11  O   UNL     1     -13.817  15.069  12.007  1.00  0.00    -0.451 OA
ENDROOT
BRANCH   1  12
ATOM     12  C   UNL     1     -14.255  15.519  14.334  1.00  0.00     0.063 A 
ATOM     13  C   UNL     1     -12.838  16.364  16.120  1.00  0.00     0.047 A 
ATOM     14  C   UNL     1     -13.233  16.374  14.781  1.00  0.00     0.020 A 
ATOM     15  C   UNL     1     -13.465  15.512  17.033  1.00  0.00     0.119 A 
ATOM     16  C   UNL     1     -14.500  14.672  16.603  1.00  0.00     0.093 A 
ATOM     17  C   UNL     1     -14.909  14.680  15.260  1.00  0.00     0.130 A 
BRANCH  15  18
ATOM     18  O   UNL     1     -13.055  15.510  18.364  1.00  0.00    -0.508 OA
ATOM     19  H   UNL     1     -12.074  15.496  18.617  1.00  0.00     0.293 HD
ENDBRANCH  15  18
BRANCH  17  20
ATOM     20  O   UNL     1     -15.973  13.876  14.854  1.00  0.00    -0.507 OA
ATOM     21  H   UNL     1     -16.714  13.613  15.493  1.00  0.00     0.293 HD
ENDBRANCH  17  20
ENDBRANCH   1  12
BRANCH   2  22
ATOM     22  O   UNL     1     -16.815  16.512  13.466  1.00  0.00    -0.502 OA
ATOM     23  H   UNL     1     -17.323  17.383  13.371  1.00  0.00     0.293 HD
ENDBRANCH   2  22
BRANCH   6  24
ATOM     24  O   UNL     1     -16.545  16.270   8.149  1.00  0.00    -0.507 OA
ATOM     25  H   UNL     1     -17.515  16.055   8.326  1.00  0.00     0.293 HD
ENDBRANCH   6  24
BRANCH   8  26
ATOM     26  O   UNL     1     -12.429  13.890   7.602  1.00  0.00    -0.508 OA
ATOM     27  H   UNL     1     -11.827  13.134   7.905  1.00  0.00     0.293 HD
ENDBRANCH   8  26
TORSDOF 6
ENDMDL
MODEL 5
REMARK VINA RESULT:    -2.595      1.583      6.982
REMARK INTER + INTRA:          -3.436
REMARK INTER:                  -3.428
REMARK INTRA:                  -0.008
REMARK UNBOUND:                -0.310
REMARK SMILES O=c1c(O)c(-c2ccc(O)cc2O)oc2cc(O)cc(O)c12
REMARK SMILES IDX 5 1 3 2 2 3 1 4 22 5 20 6 19 7 17 8 16 9 15 10 14 11 6 12
REMARK SMILES IDX 8 13 7 14 9 15 11 16 12 17 10 18 13 20 4 22 21 24 18 26
REMARK H PARENT 10 19 13 21 4 23 21 25 18 27
REMARK Flexibility Score: inf
ROOT
ATOM      1  C   UNL     1     -14.183  15.167  11.520  1.00  0.00     0.184 A 
ATOM      2  C   UNL     1     -15.301  14.484  12.026  1.00  0.00     0.208 A 
ATOM      3  C   UNL     1     -15.509  14.453  13.413  1.00  0.00     0.238 A 
ATOM      4  O   UNL     1     -16.541  13.886  13.857  1.00  0.00    -0.285 OA
ATOM      5  C   UNL     1     -14.585  15.091  14.278  1.00  0.00     0.111 A 
ATOM      6  C   UNL     1     -14.675  15.088  15.702  1.00  0.00     0.134 A 
ATOM      7  C   UNL     1     -13.779  15.862  16.451  1.00  0.00     0.093 A 
ATOM      8  C   UNL     1     -12.759  16.583  15.833  1.00  0.00     0.123 A 
ATOM      9  C   UNL     1     -12.626  16.546  14.445  1.00  0.00     0.094 A 
ATOM     10  C   UNL     1     -13.526  15.813  13.667  1.00  0.00     0.146 A 
ATOM     11  O   UNL     1     -13.371  15.811  12.349  1.00  0.00    -0.451 OA
ENDROOT
BRANCH   1  12
ATOM     12  C   UNL     1     -13.898  15.224  10.071  1.00  0.00     0.063 A 
ATOM     13  C   UNL     1     -12.370  14.769   8.235  1.00  0.00     0.047 A 
ATOM     14  C   UNL     1     -12.668  14.736   9.599  1.00  0.00     0.020 A 
ATOM     15  C   UNL     1     -13.299  15.276   7.324  1.00  0.00     0.119 A 
ATOM     16  C   UNL     1     -14.539  15.743   7.781  1.00  0.00     0.093 A 
ATOM     17  C   UNL     1     -14.849  15.708   9.149  1.00  0.00     0.130 A 
BRANCH  15  18
ATOM     18  O   UNL     1     -12.985  15.306   5.967  1.00  0.00    -0.508 OA
ATOM     19  H   UNL     1     -13.627  14.952   5.267  1.00  0.00     0.293 HD
ENDBRANCH  15  18
BRANCH  17  20
ATOM     20  O   UNL     1     -16.104  16.130   9.586  1.00  0.00    -0.507 OA
ATOM     21  H   UNL     1     -16.585  16.908   9.149  1.00  0.00     0.293 HD
ENDBRANCH  17  20
ENDBRANCH   1  12
BRANCH   2  22
ATOM     22  O   UNL     1     -16.205  13.879  11.148  1.00  0.00    -0.502 OA
ATOM     23  H   UNL     1     -16.951  13.274  11.471  1.00  0.00     0.293 HD
ENDBRANCH   2  22
BRANCH   6  24
ATOM     24  O   UNL     1     -15.600  14.330  16.425  1.00  0.00    -0.507 OA
ATOM     25  H   UNL     1     -15.992  13.452  16.115  1.00  0.00     0.293 HD
ENDBRANCH   6  24
BRANCH   8  26
ATOM     26  O   UNL     1     -11.875  17.328  16.612  1.00  0.00    -0.508 OA
ATOM     27  H   UNL     1     -12.182  18.148  17.123  1.00  0.00     0.293 HD
ENDBRANCH   8  26
TORSDOF 6
ENDMDL
