MODEL 1
REMARK VINA RESULT:    -3.269      0.000      0.000
REMARK INTER + INTRA:          -3.479
REMARK INTER:                  -3.460
REMARK INTRA:                  -0.019
REMARK UNBOUND:                -0.019
REMARK SMILES O=C([O-])c1cccnc1
REMARK SMILES IDX 4 1 5 2 9 3 6 4 8 5 7 6 2 7 1 8 3 9
REMARK H PARENT
REMARK Flexibility Score: inf
ROOT
ATOM      1  C   UNL     1      63.769  35.338  61.263  1.00  0.00     0.016 A 
ATOM      2  C   UNL     1      62.480  35.844  61.025  1.00  0.00     0.013 A 
ATOM      3  C   UNL     1      63.994  33.964  61.064  1.00  0.00     0.120 A 
ATOM      4  C   UNL     1      61.458  34.992  60.603  1.00  0.00     0.021 A 
ATOM      5  N   UNL     1      62.980  33.156  60.652  1.00  0.00    -0.264 NA
ATOM      6  C   UNL     1      61.730  33.636  60.421  1.00  0.00     0.111 A 
ENDROOT
BRANCH   1   7
ATOM      7  C   UNL     1      64.865  36.223  61.709  1.00  0.00     0.073 C 
ATOM      8  O   UNL     1      65.995  36.173  61.153  1.00  0.00    -0.545 OA
ATOM      9  O   UNL     1      64.664  37.125  62.748  1.00  0.00    -0.545 OA
ENDBRANCH   1   7
TORSDOF 1
ENDMDL
MODEL 2
REMARK VINA RESULT:    -3.184      2.859      3.655
REMARK INTER + INTRA:          -3.389
REMARK INTER:                  -3.366
REMARK INTRA:                  -0.023
REMARK UNBOUND:                -0.019
REMARK SMILES O=C([O-])c1cccnc1
REMARK SMILES IDX 4 1 5 2 9 3 6 4 8 5 7 6 2 7 1 8 3 9
REMARK H PARENT
REMARK Flexibility Score: inf
ROOT
ATOM      1  C   UNL     1      63.013  34.676  61.024  1.00  0.00     0.016 A 
ATOM      2  C   UNL     1      62.268  35.868  60.994  1.00  0.00     0.013 A 
ATOM      3  C   UNL     1      64.346  34.734  61.466  1.00  0.00     0.120 A 
ATOM      4  C   UNL     1      62.851  37.070  61.394  1.00  0.00     0.021 A 
ATOM      5  N   UNL     1      64.890  35.920  61.851  1.00  0.00    -0.264 NA
ATOM      6  C   UNL     1      64.178  37.077  61.824  1.00  0.00     0.111 A 
ENDROOT
BRANCH   1   7
ATOM      7  C   UNL     1      62.413  33.391  60.605  1.00  0.00     0.073 C 
ATOM      8  O   UNL     1      61.162  33.262  60.534  1.00  0.00    -0.545 OA
ATOM      9  O   UNL     1      63.223  32.309  60.282  1.00  0.00    -0.545 OA
ENDBRANCH   1   7
TORSDOF 1
ENDMDL
MODEL 3
REMARK VINA RESULT:    -3.181      2.888      3.971
REMARK INTER + INTRA:          -3.386
REMARK INTER:                  -3.364
REMARK INTRA:                  -0.022
REMARK UNBOUND:                -0.019
REMARK SMILES O=C([O-])c1cccnc1
REMARK SMILES IDX 4 1 5 2 9 3 6 4 8 5 7 6 2 7 1 8 3 9
REMARK H PARENT
REMARK Flexibility Score: inf
ROOT
ATOM      1  C   UNL     1      62.977  34.700  61.045  1.00  0.00     0.016 A 
ATOM      2  C   UNL     1      64.320  34.748  61.458  1.00  0.00     0.013 A 
ATOM      3  C   UNL     1      62.240  35.896  61.028  1.00  0.00     0.120 A 
ATOM      4  C   UNL     1      64.892  35.962  61.839  1.00  0.00     0.021 A 
ATOM      5  N   UNL     1      62.823  37.066  61.404  1.00  0.00    -0.264 NA
ATOM      6  C   UNL     1      64.120  37.123  61.806  1.00  0.00     0.111 A 
ENDROOT
BRANCH   1   7
ATOM      7  C   UNL     1      62.351  33.424  60.636  1.00  0.00     0.073 C 
ATOM      8  O   UNL     1      61.098  33.293  60.648  1.00  0.00    -0.545 OA
ATOM      9  O   UNL     1      63.138  32.352  60.231  1.00  0.00    -0.545 OA
ENDBRANCH   1   7
TORSDOF 1
ENDMDL
MODEL 4
REMARK VINA RESULT:    -3.159      2.875      3.536
REMARK INTER + INTRA:          -3.363
REMARK INTER:                  -3.340
REMARK INTRA:                  -0.023
REMARK UNBOUND:                -0.019
REMARK SMILES O=C([O-])c1cccnc1
REMARK SMILES IDX 4 1 5 2 9 3 6 4 8 5 7 6 2 7 1 8 3 9
REMARK H PARENT
REMARK Flexibility Score: inf
ROOT
ATOM      1  C   UNL     1      63.012  34.655  61.005  1.00  0.00     0.016 A 
ATOM      2  C   UNL     1      62.243  35.832  60.981  1.00  0.00     0.013 A 
ATOM      3  C   UNL     1      64.346  34.737  61.440  1.00  0.00     0.120 A 
ATOM      4  C   UNL     1      62.805  37.044  61.383  1.00  0.00     0.021 A 
ATOM      5  N   UNL     1      64.868  35.932  61.827  1.00  0.00    -0.264 NA
ATOM      6  C   UNL     1      64.134  37.075  61.808  1.00  0.00     0.111 A 
ENDROOT
BRANCH   1   7
ATOM      7  C   UNL     1      62.436  33.360  60.583  1.00  0.00     0.073 C 
ATOM      8  O   UNL     1      63.186  32.404  60.249  1.00  0.00    -0.545 OA
ATOM      9  O   UNL     1      61.058  33.180  60.552  1.00  0.00    -0.545 OA
ENDBRANCH   1   7
TORSDOF 1
ENDMDL
MODEL 5
REMARK VINA RESULT:    -3.134     14.871     15.954
REMARK INTER + INTRA:          -3.336
REMARK INTER:                  -3.316
REMARK INTRA:                  -0.020
REMARK UNBOUND:                -0.019
REMARK SMILES O=C([O-])c1cccnc1
REMARK SMILES IDX 4 1 5 2 9 3 6 4 8 5 7 6 2 7 1 8 3 9
REMARK H PARENT
REMARK Flexibility Score: inf
ROOT
ATOM      1  C   UNL     1      55.450  27.536  50.127  1.00  0.00     0.016 A 
ATOM      2  C   UNL     1      54.395  28.463  50.188  1.00  0.00     0.013 A 
ATOM      3  C   UNL     1      55.171  26.238  49.666  1.00  0.00     0.120 A 
ATOM      4  C   UNL     1      53.109  28.089  49.798  1.00  0.00     0.021 A 
ATOM      5  N   UNL     1      53.908  25.899  49.291  1.00  0.00    -0.264 NA
ATOM      6  C   UNL     1      52.882  26.788  49.347  1.00  0.00     0.111 A 
ENDROOT
BRANCH   1   7
ATOM      7  C   UNL     1      56.820  27.913  50.535  1.00  0.00     0.073 C 
ATOM      8  O   UNL     1      57.544  27.101  51.171  1.00  0.00    -0.545 OA
ATOM      9  O   UNL     1      57.328  29.168  50.221  1.00  0.00    -0.545 OA
ENDBRANCH   1   7
TORSDOF 1
ENDMDL
MODEL 6
REMARK VINA RESULT:    -3.105     14.766     16.012
REMARK INTER + INTRA:          -3.305
REMARK INTER:                  -3.285
REMARK INTRA:                  -0.020
REMARK UNBOUND:                -0.019
REMARK SMILES O=C([O-])c1cccnc1
REMARK SMILES IDX 4 1 5 2 9 3 6 4 8 5 7 6 2 7 1 8 3 9
REMARK H PARENT
REMARK Flexibility Score: inf
ROOT
ATOM      1  C   UNL     1      55.450  27.551  50.136  1.00  0.00     0.016 A 
ATOM      2  C   UNL     1      55.202  26.245  49.682  1.00  0.00     0.013 A 
ATOM      3  C   UNL     1      54.378  28.459  50.174  1.00  0.00     0.120 A 
ATOM      4  C   UNL     1      53.919  25.873  49.281  1.00  0.00     0.021 A 
ATOM      5  N   UNL     1      53.135  28.071  49.778  1.00  0.00    -0.264 NA
ATOM      6  C   UNL     1      52.886  26.810  49.336  1.00  0.00     0.111 A 
ENDROOT
BRANCH   1   7
ATOM      7  C   UNL     1      56.803  27.965  50.566  1.00  0.00     0.073 C 
ATOM      8  O   UNL     1      57.520  27.191  51.256  1.00  0.00    -0.545 OA
ATOM      9  O   UNL     1      57.302  29.214  50.215  1.00  0.00    -0.545 OA
ENDBRANCH   1   7
TORSDOF 1
ENDMDL
MODEL 7
REMARK VINA RESULT:    -3.100     15.027     15.626
REMARK INTER + INTRA:          -3.301
REMARK INTER:                  -3.283
REMARK INTRA:                  -0.018
REMARK UNBOUND:                -0.019
REMARK SMILES O=C([O-])c1cccnc1
REMARK SMILES IDX 4 1 5 2 9 3 6 4 8 5 7 6 2 7 1 8 3 9
REMARK H PARENT
REMARK Flexibility Score: inf
ROOT
ATOM      1  C   UNL     1      56.503  27.039  50.176  1.00  0.00     0.016 A 
ATOM      2  C   UNL     1      56.386  28.396  50.521  1.00  0.00     0.013 A 
ATOM      3  C   UNL     1      55.346  26.349  49.775  1.00  0.00     0.120 A 
ATOM      4  C   UNL     1      55.144  29.029  50.463  1.00  0.00     0.021 A 
ATOM      5  N   UNL     1      54.148  26.990  49.726  1.00  0.00    -0.264 NA
ATOM      6  C   UNL     1      54.023  28.302  50.059  1.00  0.00     0.111 A 
ENDROOT
BRANCH   1   7
ATOM      7  C   UNL     1      57.811  26.349  50.230  1.00  0.00     0.073 C 
ATOM      8  O   UNL     1      57.976  25.350  50.979  1.00  0.00    -0.545 OA
ATOM      9  O   UNL     1      58.874  26.795  49.454  1.00  0.00    -0.545 OA
ENDBRANCH   1   7
TORSDOF 1
ENDMDL
MODEL 8
REMARK VINA RESULT:    -3.077      3.070      3.858
REMARK INTER + INTRA:          -3.276
REMARK INTER:                  -3.260
REMARK INTRA:                  -0.017
REMARK UNBOUND:                -0.019
REMARK SMILES O=C([O-])c1cccnc1
REMARK SMILES IDX 4 1 5 2 9 3 6 4 8 5 7 6 2 7 1 8 3 9
REMARK H PARENT
REMARK Flexibility Score: inf
ROOT
ATOM      1  C   UNL     1      62.513  34.167  60.683  1.00  0.00     0.016 A 
ATOM      2  C   UNL     1      61.837  35.398  60.731  1.00  0.00     0.013 A 
ATOM      3  C   UNL     1      63.867  34.134  61.060  1.00  0.00     0.120 A 
ATOM      4  C   UNL     1      62.506  36.551  61.144  1.00  0.00     0.021 A 
ATOM      5  N   UNL     1      64.496  35.272  61.459  1.00  0.00    -0.264 NA
ATOM      6  C   UNL     1      63.851  36.467  61.508  1.00  0.00     0.111 A 
ENDROOT
BRANCH   1   7
ATOM      7  C   UNL     1      61.821  32.934  60.250  1.00  0.00     0.073 C 
ATOM      8  O   UNL     1      60.989  32.367  61.007  1.00  0.00    -0.545 OA
ATOM      9  O   UNL     1      62.080  32.385  59.000  1.00  0.00    -0.545 OA
ENDBRANCH   1   7
TORSDOF 1
ENDMDL
MODEL 9
REMARK VINA RESULT:    -3.009     14.480     15.248
REMARK INTER + INTRA:          -3.204
REMARK INTER:                  -3.188
REMARK INTRA:                  -0.016
REMARK UNBOUND:                -0.019
REMARK SMILES O=C([O-])c1cccnc1
REMARK SMILES IDX 4 1 5 2 9 3 6 4 8 5 7 6 2 7 1 8 3 9
REMARK H PARENT
REMARK Flexibility Score: inf
ROOT
ATOM      1  C   UNL     1      57.357  27.097  50.176  1.00  0.00     0.016 A 
ATOM      2  C   UNL     1      57.285  28.500  50.171  1.00  0.00     0.013 A 
ATOM      3  C   UNL     1      58.561  26.488  49.785  1.00  0.00     0.120 A 
ATOM      4  C   UNL     1      58.392  29.257  49.784  1.00  0.00     0.021 A 
ATOM      5  N   UNL     1      59.626  27.250  49.414  1.00  0.00    -0.264 NA
ATOM      6  C   UNL     1      59.566  28.607  49.404  1.00  0.00     0.111 A 
ENDROOT
BRANCH   1   7
ATOM      7  C   UNL     1      56.196  26.276  50.583  1.00  0.00     0.073 C 
ATOM      8  O   UNL     1      55.244  26.072  49.783  1.00  0.00    -0.545 OA
ATOM      9  O   UNL     1      56.139  25.719  51.855  1.00  0.00    -0.545 OA
ENDBRANCH   1   7
TORSDOF 1
ENDMDL
