MODEL 1
REMARK VINA RESULT:    -5.575      0.000      0.000
REMARK INTER + INTRA:          -6.137
REMARK INTER:                  -6.063
REMARK INTRA:                  -0.074
REMARK UNBOUND:                -0.074
REMARK SMILES CCc1cccc(O)c1
REMARK SMILES IDX 3 1 9 2 7 3 6 4 5 5 4 6 2 7 1 8 8 9
REMARK H PARENT 8 10
REMARK Flexibility Score: inf
ROOT
ATOM      1  C   UNL     1     373.622 241.384 276.239  1.00  0.00    -0.045 A 
ATOM      2  C   UNL     1     372.276 241.630 275.914  1.00  0.00     0.049 A 
ATOM      3  C   UNL     1     371.766 242.936 275.954  1.00  0.00     0.115 A 
ATOM      4  C   UNL     1     372.603 243.999 276.312  1.00  0.00     0.046 A 
ATOM      5  C   UNL     1     373.945 243.761 276.623  1.00  0.00     0.004 A 
ATOM      6  C   UNL     1     374.455 242.461 276.583  1.00  0.00     0.004 A 
ENDROOT
BRANCH   1   7
ATOM      7  C   UNL     1     374.177 239.988 276.163  1.00  0.00     0.032 C 
ATOM      8  C   UNL     1     375.468 239.876 276.970  1.00  0.00     0.009 C 
ENDBRANCH   1   7
BRANCH   3   9
ATOM      9  O   UNL     1     370.433 243.188 275.640  1.00  0.00    -0.508 OA
ATOM     10  H   UNL     1     370.129 243.308 274.681  1.00  0.00     0.293 HD
ENDBRANCH   3   9
TORSDOF 2
ENDMDL
MODEL 2
REMARK VINA RESULT:    -5.414      1.281      3.160
REMARK INTER + INTRA:          -5.963
REMARK INTER:                  -5.915
REMARK INTRA:                  -0.047
REMARK UNBOUND:                -0.074
REMARK SMILES CCc1cccc(O)c1
REMARK SMILES IDX 3 1 9 2 7 3 6 4 5 5 4 6 2 7 1 8 8 9
REMARK H PARENT 8 10
REMARK Flexibility Score: inf
ROOT
ATOM      1  C   UNL     1     373.833 242.605 276.382  1.00  0.00    -0.045 A 
ATOM      2  C   UNL     1     372.546 242.320 275.893  1.00  0.00     0.049 A 
ATOM      3  C   UNL     1     372.149 240.992 275.680  1.00  0.00     0.115 A 
ATOM      4  C   UNL     1     373.035 239.947 275.962  1.00  0.00     0.046 A 
ATOM      5  C   UNL     1     374.311 240.225 276.462  1.00  0.00     0.004 A 
ATOM      6  C   UNL     1     374.708 241.547 276.675  1.00  0.00     0.004 A 
ENDROOT
BRANCH   1   7
ATOM      7  C   UNL     1     374.248 244.028 276.642  1.00  0.00     0.032 C 
ATOM      8  C   UNL     1     373.858 244.927 275.472  1.00  0.00     0.009 C 
ENDBRANCH   1   7
BRANCH   3   9
ATOM      9  O   UNL     1     370.878 240.701 275.189  1.00  0.00    -0.508 OA
ATOM     10  H   UNL     1     370.619 240.912 274.232  1.00  0.00     0.293 HD
ENDBRANCH   3   9
TORSDOF 2
ENDMDL
MODEL 3
REMARK VINA RESULT:    -5.089      2.170      4.143
REMARK INTER + INTRA:          -5.609
REMARK INTER:                  -5.563
REMARK INTRA:                  -0.046
REMARK UNBOUND:                -0.074
REMARK SMILES CCc1cccc(O)c1
REMARK SMILES IDX 3 1 9 2 7 3 6 4 5 5 4 6 2 7 1 8 8 9
REMARK H PARENT 8 10
REMARK Flexibility Score: inf
ROOT
ATOM      1  C   UNL     1     370.852 243.613 277.132  1.00  0.00    -0.045 A 
ATOM      2  C   UNL     1     370.456 242.333 276.707  1.00  0.00     0.049 A 
ATOM      3  C   UNL     1     371.287 241.579 275.866  1.00  0.00     0.115 A 
ATOM      4  C   UNL     1     372.519 242.101 275.456  1.00  0.00     0.046 A 
ATOM      5  C   UNL     1     372.923 243.368 275.887  1.00  0.00     0.004 A 
ATOM      6  C   UNL     1     372.096 244.121 276.725  1.00  0.00     0.004 A 
ENDROOT
BRANCH   1   7
ATOM      7  C   UNL     1     369.975 244.409 278.061  1.00  0.00     0.032 C 
ATOM      8  C   UNL     1     368.701 244.857 277.351  1.00  0.00     0.009 C 
ENDBRANCH   1   7
BRANCH   3   9
ATOM      9  O   UNL     1     370.900 240.313 275.435  1.00  0.00    -0.508 OA
ATOM     10  H   UNL     1     370.980 240.038 274.462  1.00  0.00     0.293 HD
ENDBRANCH   3   9
TORSDOF 2
ENDMDL
MODEL 4
REMARK VINA RESULT:    -5.061      2.254      3.271
REMARK INTER + INTRA:          -5.579
REMARK INTER:                  -5.526
REMARK INTRA:                  -0.052
REMARK UNBOUND:                -0.074
REMARK SMILES CCc1cccc(O)c1
REMARK SMILES IDX 3 1 9 2 7 3 6 4 5 5 4 6 2 7 1 8 8 9
REMARK H PARENT 8 10
REMARK Flexibility Score: inf
ROOT
ATOM      1  C   UNL     1     372.361 243.501 276.089  1.00  0.00    -0.045 A 
ATOM      2  C   UNL     1     372.210 242.192 275.600  1.00  0.00     0.049 A 
ATOM      3  C   UNL     1     371.121 241.407 276.005  1.00  0.00     0.115 A 
ATOM      4  C   UNL     1     370.177 241.933 276.894  1.00  0.00     0.046 A 
ATOM      5  C   UNL     1     370.315 243.239 277.373  1.00  0.00     0.004 A 
ATOM      6  C   UNL     1     371.400 244.023 276.970  1.00  0.00     0.004 A 
ENDROOT
BRANCH   1   7
ATOM      7  C   UNL     1     373.512 244.355 275.629  1.00  0.00     0.032 C 
ATOM      8  C   UNL     1     374.622 244.375 276.675  1.00  0.00     0.009 C 
ENDBRANCH   1   7
BRANCH   3   9
ATOM      9  O   UNL     1     370.967 240.106 275.531  1.00  0.00    -0.508 OA
ATOM     10  H   UNL     1     370.051 239.715 275.348  1.00  0.00     0.293 HD
ENDBRANCH   3   9
TORSDOF 2
ENDMDL
MODEL 5
REMARK VINA RESULT:    -5.046      2.041      3.214
REMARK INTER + INTRA:          -5.562
REMARK INTER:                  -5.507
REMARK INTRA:                  -0.055
REMARK UNBOUND:                -0.074
REMARK SMILES CCc1cccc(O)c1
REMARK SMILES IDX 3 1 9 2 7 3 6 4 5 5 4 6 2 7 1 8 8 9
REMARK H PARENT 8 10
REMARK Flexibility Score: inf
ROOT
ATOM      1  C   UNL     1     372.395 243.477 276.078  1.00  0.00    -0.045 A 
ATOM      2  C   UNL     1     371.291 244.007 276.768  1.00  0.00     0.049 A 
ATOM      3  C   UNL     1     370.261 243.163 277.209  1.00  0.00     0.115 A 
ATOM      4  C   UNL     1     370.339 241.787 276.968  1.00  0.00     0.046 A 
ATOM      5  C   UNL     1     371.441 241.253 276.295  1.00  0.00     0.004 A 
ATOM      6  C   UNL     1     372.468 242.092 275.854  1.00  0.00     0.004 A 
ENDROOT
BRANCH   1   7
ATOM      7  C   UNL     1     373.516 244.377 275.633  1.00  0.00     0.032 C 
ATOM      8  C   UNL     1     374.637 244.395 276.667  1.00  0.00     0.009 C 
ENDBRANCH   1   7
BRANCH   3   9
ATOM      9  O   UNL     1     369.161 243.681 277.888  1.00  0.00    -0.508 OA
ATOM     10  H   UNL     1     368.256 243.770 277.439  1.00  0.00     0.293 HD
ENDBRANCH   3   9
TORSDOF 2
ENDMDL
MODEL 6
REMARK VINA RESULT:    -4.955      2.296      3.576
REMARK INTER + INTRA:          -5.463
REMARK INTER:                  -5.389
REMARK INTRA:                  -0.074
REMARK UNBOUND:                -0.074
REMARK SMILES CCc1cccc(O)c1
REMARK SMILES IDX 3 1 9 2 7 3 6 4 5 5 4 6 2 7 1 8 8 9
REMARK H PARENT 8 10
REMARK Flexibility Score: inf
ROOT
ATOM      1  C   UNL     1     371.228 243.189 276.436  1.00  0.00    -0.045 A 
ATOM      2  C   UNL     1     370.134 242.601 275.778  1.00  0.00     0.049 A 
ATOM      3  C   UNL     1     368.823 242.940 276.143  1.00  0.00     0.115 A 
ATOM      4  C   UNL     1     368.605 243.873 277.163  1.00  0.00     0.046 A 
ATOM      5  C   UNL     1     369.689 244.470 277.811  1.00  0.00     0.004 A 
ATOM      6  C   UNL     1     370.996 244.134 277.448  1.00  0.00     0.004 A 
ENDROOT
BRANCH   1   7
ATOM      7  C   UNL     1     372.635 242.850 276.022  1.00  0.00     0.032 C 
ATOM      8  C   UNL     1     373.583 244.002 276.338  1.00  0.00     0.009 C 
ENDBRANCH   1   7
BRANCH   3   9
ATOM      9  O   UNL     1     367.734 242.357 275.501  1.00  0.00    -0.508 OA
ATOM     10  H   UNL     1     367.028 242.920 275.040  1.00  0.00     0.293 HD
ENDBRANCH   3   9
TORSDOF 2
ENDMDL
MODEL 7
REMARK VINA RESULT:    -4.865      2.400      4.453
REMARK INTER + INTRA:          -5.365
REMARK INTER:                  -5.316
REMARK INTRA:                  -0.050
REMARK UNBOUND:                -0.074
REMARK SMILES CCc1cccc(O)c1
REMARK SMILES IDX 3 1 9 2 7 3 6 4 5 5 4 6 2 7 1 8 8 9
REMARK H PARENT 8 10
REMARK Flexibility Score: inf
ROOT
ATOM      1  C   UNL     1     370.508 243.244 277.003  1.00  0.00    -0.045 A 
ATOM      2  C   UNL     1     371.658 244.047 276.904  1.00  0.00     0.049 A 
ATOM      3  C   UNL     1     372.724 243.656 276.080  1.00  0.00     0.115 A 
ATOM      4  C   UNL     1     372.637 242.467 275.348  1.00  0.00     0.046 A 
ATOM      5  C   UNL     1     371.490 241.673 275.432  1.00  0.00     0.004 A 
ATOM      6  C   UNL     1     370.427 242.060 276.252  1.00  0.00     0.004 A 
ENDROOT
BRANCH   1   7
ATOM      7  C   UNL     1     369.351 243.679 277.861  1.00  0.00     0.032 C 
ATOM      8  C   UNL     1     368.781 245.006 277.368  1.00  0.00     0.009 C 
ENDBRANCH   1   7
BRANCH   3   9
ATOM      9  O   UNL     1     373.870 244.442 275.982  1.00  0.00    -0.508 OA
ATOM     10  H   UNL     1     373.837 245.379 275.598  1.00  0.00     0.293 HD
ENDBRANCH   3   9
TORSDOF 2
ENDMDL
MODEL 8
REMARK VINA RESULT:    -4.713      4.282      5.868
REMARK INTER + INTRA:          -5.200
REMARK INTER:                  -5.149
REMARK INTRA:                  -0.051
REMARK UNBOUND:                -0.074
REMARK SMILES CCc1cccc(O)c1
REMARK SMILES IDX 3 1 9 2 7 3 6 4 5 5 4 6 2 7 1 8 8 9
REMARK H PARENT 8 10
REMARK Flexibility Score: inf
ROOT
ATOM      1  C   UNL     1     368.876 244.431 277.520  1.00  0.00    -0.045 A 
ATOM      2  C   UNL     1     368.201 243.234 277.222  1.00  0.00     0.049 A 
ATOM      3  C   UNL     1     366.941 243.268 276.607  1.00  0.00     0.115 A 
ATOM      4  C   UNL     1     366.358 244.498 276.282  1.00  0.00     0.046 A 
ATOM      5  C   UNL     1     367.031 245.690 276.564  1.00  0.00     0.004 A 
ATOM      6  C   UNL     1     368.287 245.658 277.176  1.00  0.00     0.004 A 
ENDROOT
BRANCH   1   7
ATOM      7  C   UNL     1     370.242 244.394 278.150  1.00  0.00     0.032 C 
ATOM      8  C   UNL     1     371.299 243.999 277.124  1.00  0.00     0.009 C 
ENDBRANCH   1   7
BRANCH   3   9
ATOM      9  O   UNL     1     366.262 242.087 276.314  1.00  0.00    -0.508 OA
ATOM     10  H   UNL     1     365.442 241.804 276.839  1.00  0.00     0.293 HD
ENDBRANCH   3   9
TORSDOF 2
ENDMDL
MODEL 9
REMARK VINA RESULT:    -4.691      3.503      5.706
REMARK INTER + INTRA:          -5.176
REMARK INTER:                  -5.119
REMARK INTRA:                  -0.056
REMARK UNBOUND:                -0.074
REMARK SMILES CCc1cccc(O)c1
REMARK SMILES IDX 3 1 9 2 7 3 6 4 5 5 4 6 2 7 1 8 8 9
REMARK H PARENT 8 10
REMARK Flexibility Score: inf
ROOT
ATOM      1  C   UNL     1     368.233 243.896 276.631  1.00  0.00    -0.045 A 
ATOM      2  C   UNL     1     368.820 243.061 275.664  1.00  0.00     0.049 A 
ATOM      3  C   UNL     1     370.202 242.824 275.681  1.00  0.00     0.115 A 
ATOM      4  C   UNL     1     370.998 243.415 276.669  1.00  0.00     0.046 A 
ATOM      5  C   UNL     1     370.417 244.235 277.640  1.00  0.00     0.004 A 
ATOM      6  C   UNL     1     369.040 244.472 277.626  1.00  0.00     0.004 A 
ENDROOT
BRANCH   1   7
ATOM      7  C   UNL     1     366.746 244.125 276.633  1.00  0.00     0.032 C 
ATOM      8  C   UNL     1     366.419 245.560 276.233  1.00  0.00     0.009 C 
ENDBRANCH   1   7
BRANCH   3   9
ATOM      9  O   UNL     1     370.793 242.003 274.723  1.00  0.00    -0.508 OA
ATOM     10  H   UNL     1     371.185 241.101 274.969  1.00  0.00     0.293 HD
ENDBRANCH   3   9
TORSDOF 2
ENDMDL
