MODEL 1
REMARK VINA RESULT:    -5.066      0.000      0.000
REMARK INTER + INTRA:          -5.730
REMARK INTER:                  -5.659
REMARK INTRA:                  -0.072
REMARK UNBOUND:                -0.072
REMARK SMILES O=C([O-])c1ccccc1C(=O)[O-]
REMARK SMILES IDX 4 1 9 2 5 3 8 4 6 5 7 6 2 7 1 8 3 9 10 10 11 11 12 12
REMARK H PARENT
REMARK Flexibility Score: inf
ROOT
ATOM      1  C   UNL     1     -11.379  16.904 -10.941  1.00  0.00     0.006 A 
ATOM      2  C   UNL     1     -10.409  17.772 -10.364  1.00  0.00     0.006 A 
ATOM      3  C   UNL     1     -12.493  16.518 -10.174  1.00  0.00     0.010 A 
ATOM      4  C   UNL     1     -10.625  18.273  -9.067  1.00  0.00     0.010 A 
ATOM      5  C   UNL     1     -12.676  17.008  -8.880  1.00  0.00     0.001 A 
ATOM      6  C   UNL     1     -11.750  17.893  -8.333  1.00  0.00     0.001 A 
ENDROOT
BRANCH   1   7
ATOM      7  C   UNL     1     -11.309  16.435 -12.344  1.00  0.00     0.072 C 
ATOM      8  O   UNL     1     -12.096  16.890 -13.216  1.00  0.00    -0.545 OA
ATOM      9  O   UNL     1     -10.416  15.432 -12.700  1.00  0.00    -0.545 OA
ENDBRANCH   1   7
BRANCH   2  10
ATOM     10  C   UNL     1      -9.139  18.126 -11.039  1.00  0.00     0.072 C 
ATOM     11  O   UNL     1      -8.030  17.815 -10.532  1.00  0.00    -0.545 OA
ATOM     12  O   UNL     1      -9.159  18.870 -12.214  1.00  0.00    -0.545 OA
ENDBRANCH   2  10
TORSDOF 2
ENDMDL
MODEL 2
REMARK VINA RESULT:    -5.060      0.038      3.143
REMARK INTER + INTRA:          -5.724
REMARK INTER:                  -5.655
REMARK INTRA:                  -0.069
REMARK UNBOUND:                -0.072
REMARK SMILES O=C([O-])c1ccccc1C(=O)[O-]
REMARK SMILES IDX 4 1 9 2 5 3 8 4 6 5 7 6 2 7 1 8 3 9 10 10 11 11 12 12
REMARK H PARENT
REMARK Flexibility Score: inf
ROOT
ATOM      1  C   UNL     1     -10.390  17.763 -10.372  1.00  0.00     0.006 A 
ATOM      2  C   UNL     1     -11.356  16.902 -10.965  1.00  0.00     0.006 A 
ATOM      3  C   UNL     1     -10.613  18.247  -9.070  1.00  0.00     0.010 A 
ATOM      4  C   UNL     1     -12.474  16.505 -10.208  1.00  0.00     0.010 A 
ATOM      5  C   UNL     1     -11.741  17.859  -8.346  1.00  0.00     0.001 A 
ATOM      6  C   UNL     1     -12.663  16.980  -8.910  1.00  0.00     0.001 A 
ENDROOT
BRANCH   1   7
ATOM      7  C   UNL     1      -9.117  18.127 -11.036  1.00  0.00     0.072 C 
ATOM      8  O   UNL     1      -8.009  17.824 -10.518  1.00  0.00    -0.545 OA
ATOM      9  O   UNL     1      -9.131  18.872 -12.210  1.00  0.00    -0.545 OA
ENDBRANCH   1   7
BRANCH   2  10
ATOM     10  C   UNL     1     -11.279  16.451 -12.374  1.00  0.00     0.072 C 
ATOM     11  O   UNL     1     -12.051  16.926 -13.247  1.00  0.00    -0.545 OA
ATOM     12  O   UNL     1     -10.392  15.442 -12.734  1.00  0.00    -0.545 OA
ENDBRANCH   2  10
TORSDOF 2
ENDMDL
MODEL 3
REMARK VINA RESULT:    -4.777      1.998      3.591
REMARK INTER + INTRA:          -5.407
REMARK INTER:                  -5.468
REMARK INTRA:                   0.061
REMARK UNBOUND:                -0.072
REMARK SMILES O=C([O-])c1ccccc1C(=O)[O-]
REMARK SMILES IDX 4 1 9 2 5 3 8 4 6 5 7 6 2 7 1 8 3 9 10 10 11 11 12 12
REMARK H PARENT
REMARK Flexibility Score: inf
ROOT
ATOM      1  C   UNL     1     -10.099  17.560 -11.671  1.00  0.00     0.006 A 
ATOM      2  C   UNL     1     -11.127  17.255 -10.735  1.00  0.00     0.006 A 
ATOM      3  C   UNL     1     -10.298  17.258 -13.030  1.00  0.00     0.010 A 
ATOM      4  C   UNL     1     -12.341  16.721 -11.206  1.00  0.00     0.010 A 
ATOM      5  C   UNL     1     -11.501  16.706 -13.471  1.00  0.00     0.001 A 
ATOM      6  C   UNL     1     -12.525  16.450 -12.561  1.00  0.00     0.001 A 
ENDROOT
BRANCH   1   7
ATOM      7  C   UNL     1      -8.842  18.249 -11.293  1.00  0.00     0.072 C 
ATOM      8  O   UNL     1      -8.458  19.277 -11.911  1.00  0.00    -0.545 OA
ATOM      9  O   UNL     1      -8.034  17.723 -10.291  1.00  0.00    -0.545 OA
ENDBRANCH   1   7
BRANCH   2  10
ATOM     10  C   UNL     1     -10.960  17.411  -9.272  1.00  0.00     0.072 C 
ATOM     11  O   UNL     1     -10.927  16.405  -8.516  1.00  0.00    -0.545 OA
ATOM     12  O   UNL     1     -10.907  18.681  -8.708  1.00  0.00    -0.545 OA
ENDBRANCH   2  10
TORSDOF 2
ENDMDL
MODEL 4
REMARK VINA RESULT:    -4.686      1.978      3.248
REMARK INTER + INTRA:          -5.305
REMARK INTER:                  -5.361
REMARK INTRA:                   0.056
REMARK UNBOUND:                -0.072
REMARK SMILES O=C([O-])c1ccccc1C(=O)[O-]
REMARK SMILES IDX 4 1 9 2 5 3 8 4 6 5 7 6 2 7 1 8 3 9 10 10 11 11 12 12
REMARK H PARENT
REMARK Flexibility Score: inf
ROOT
ATOM      1  C   UNL     1     -11.167  17.288 -10.756  1.00  0.00     0.006 A 
ATOM      2  C   UNL     1     -10.120  17.548 -11.684  1.00  0.00     0.006 A 
ATOM      3  C   UNL     1     -12.381  16.755 -11.225  1.00  0.00     0.010 A 
ATOM      4  C   UNL     1     -10.304  17.202 -13.036  1.00  0.00     0.010 A 
ATOM      5  C   UNL     1     -12.550  16.442 -12.574  1.00  0.00     0.001 A 
ATOM      6  C   UNL     1     -11.509  16.654 -13.475  1.00  0.00     0.001 A 
ENDROOT
BRANCH   1   7
ATOM      7  C   UNL     1     -11.019  17.490  -9.295  1.00  0.00     0.072 C 
ATOM      8  O   UNL     1     -10.908  18.648  -8.812  1.00  0.00    -0.545 OA
ATOM      9  O   UNL     1     -10.931  16.393  -8.445  1.00  0.00    -0.545 OA
ENDBRANCH   1   7
BRANCH   2  10
ATOM     10  C   UNL     1      -8.860  18.231 -11.310  1.00  0.00     0.072 C 
ATOM     11  O   UNL     1      -8.497  19.284 -11.898  1.00  0.00    -0.545 OA
ATOM     12  O   UNL     1      -8.026  17.674 -10.347  1.00  0.00    -0.545 OA
ENDBRANCH   2  10
TORSDOF 2
ENDMDL
MODEL 5
REMARK VINA RESULT:    -4.364      1.953      3.514
REMARK INTER + INTRA:          -4.946
REMARK INTER:                  -5.520
REMARK INTRA:                   0.575
REMARK UNBOUND:                -0.072
REMARK SMILES O=C([O-])c1ccccc1C(=O)[O-]
REMARK SMILES IDX 4 1 9 2 5 3 8 4 6 5 7 6 2 7 1 8 3 9 10 10 11 11 12 12
REMARK H PARENT
REMARK Flexibility Score: inf
ROOT
ATOM      1  C   UNL     1     -10.778  17.332 -10.650  1.00  0.00     0.006 A 
ATOM      2  C   UNL     1     -10.244  17.202 -11.963  1.00  0.00     0.006 A 
ATOM      3  C   UNL     1     -10.021  17.992  -9.665  1.00  0.00     0.010 A 
ATOM      4  C   UNL     1      -9.002  17.795 -12.257  1.00  0.00     0.010 A 
ATOM      5  C   UNL     1      -8.781  18.552  -9.974  1.00  0.00     0.001 A 
ATOM      6  C   UNL     1      -8.279  18.464 -11.270  1.00  0.00     0.001 A 
ENDROOT
BRANCH   1   7
ATOM      7  C   UNL     1     -12.134  16.863 -10.281  1.00  0.00     0.072 C 
ATOM      8  O   UNL     1     -12.992  16.606 -11.166  1.00  0.00    -0.545 OA
ATOM      9  O   UNL     1     -12.497  16.766  -8.942  1.00  0.00    -0.545 OA
ENDBRANCH   1   7
BRANCH   2  10
ATOM     10  C   UNL     1     -10.902  16.411 -13.028  1.00  0.00     0.072 C 
ATOM     11  O   UNL     1     -11.770  16.932 -13.776  1.00  0.00    -0.545 OA
ATOM     12  O   UNL     1     -10.615  15.058 -13.168  1.00  0.00    -0.545 OA
ENDBRANCH   2  10
TORSDOF 2
ENDMDL
MODEL 6
REMARK VINA RESULT:    -4.362      1.934      3.363
REMARK INTER + INTRA:          -4.944
REMARK INTER:                  -5.455
REMARK INTRA:                   0.511
REMARK UNBOUND:                -0.072
REMARK SMILES O=C([O-])c1ccccc1C(=O)[O-]
REMARK SMILES IDX 4 1 9 2 5 3 8 4 6 5 7 6 2 7 1 8 3 9 10 10 11 11 12 12
REMARK H PARENT
REMARK Flexibility Score: inf
ROOT
ATOM      1  C   UNL     1     -10.208  17.147 -11.921  1.00  0.00     0.006 A 
ATOM      2  C   UNL     1     -10.774  17.322 -10.626  1.00  0.00     0.006 A 
ATOM      3  C   UNL     1      -8.959  17.730 -12.206  1.00  0.00     0.010 A 
ATOM      4  C   UNL     1     -10.039  18.016  -9.647  1.00  0.00     0.010 A 
ATOM      5  C   UNL     1      -8.259  18.435 -11.226  1.00  0.00     0.001 A 
ATOM      6  C   UNL     1      -8.793  18.566  -9.946  1.00  0.00     0.001 A 
ENDROOT
BRANCH   1   7
ATOM      7  C   UNL     1     -10.840  16.319 -12.973  1.00  0.00     0.072 C 
ATOM      8  O   UNL     1     -10.529  15.106 -13.115  1.00  0.00    -0.545 OA
ATOM      9  O   UNL     1     -11.738  16.892 -13.867  1.00  0.00    -0.545 OA
ENDBRANCH   1   7
BRANCH   2  10
ATOM     10  C   UNL     1     -12.138  16.863 -10.273  1.00  0.00     0.072 C 
ATOM     11  O   UNL     1     -12.956  16.524 -11.167  1.00  0.00    -0.545 OA
ATOM     12  O   UNL     1     -12.552  16.869  -8.946  1.00  0.00    -0.545 OA
ENDBRANCH   2  10
TORSDOF 2
ENDMDL
MODEL 7
REMARK VINA RESULT:    -4.124      3.813      5.482
REMARK INTER + INTRA:          -4.678
REMARK INTER:                  -4.704
REMARK INTRA:                   0.026
REMARK UNBOUND:                -0.072
REMARK SMILES O=C([O-])c1ccccc1C(=O)[O-]
REMARK SMILES IDX 4 1 9 2 5 3 8 4 6 5 7 6 2 7 1 8 3 9 10 10 11 11 12 12
REMARK H PARENT
REMARK Flexibility Score: inf
ROOT
ATOM      1  C   UNL     1     -11.513  18.074  -7.849  1.00  0.00     0.006 A 
ATOM      2  C   UNL     1     -12.545  17.151  -8.180  1.00  0.00     0.006 A 
ATOM      3  C   UNL     1     -10.582  18.444  -8.837  1.00  0.00     0.010 A 
ATOM      4  C   UNL     1     -12.645  16.685  -9.504  1.00  0.00     0.010 A 
ATOM      5  C   UNL     1     -10.687  17.951 -10.138  1.00  0.00     0.001 A 
ATOM      6  C   UNL     1     -11.724  17.083 -10.473  1.00  0.00     0.001 A 
ENDROOT
BRANCH   1   7
ATOM      7  C   UNL     1     -11.407  18.724  -6.522  1.00  0.00     0.072 C 
ATOM      8  O   UNL     1     -10.887  18.119  -5.546  1.00  0.00    -0.545 OA
ATOM      9  O   UNL     1     -11.946  19.989  -6.320  1.00  0.00    -0.545 OA
ENDBRANCH   1   7
BRANCH   2  10
ATOM     10  C   UNL     1     -13.486  16.599  -7.178  1.00  0.00     0.072 C 
ATOM     11  O   UNL     1     -13.663  15.357  -7.075  1.00  0.00    -0.545 OA
ATOM     12  O   UNL     1     -14.239  17.456  -6.385  1.00  0.00    -0.545 OA
ENDBRANCH   2  10
TORSDOF 2
ENDMDL
MODEL 8
REMARK VINA RESULT:    -4.109      3.790      4.634
REMARK INTER + INTRA:          -4.661
REMARK INTER:                  -4.698
REMARK INTRA:                   0.037
REMARK UNBOUND:                -0.072
REMARK SMILES O=C([O-])c1ccccc1C(=O)[O-]
REMARK SMILES IDX 4 1 9 2 5 3 8 4 6 5 7 6 2 7 1 8 3 9 10 10 11 11 12 12
REMARK H PARENT
REMARK Flexibility Score: inf
ROOT
ATOM      1  C   UNL     1     -12.524  17.117  -8.210  1.00  0.00     0.006 A 
ATOM      2  C   UNL     1     -11.503  18.052  -7.878  1.00  0.00     0.006 A 
ATOM      3  C   UNL     1     -12.613  16.642  -9.532  1.00  0.00     0.010 A 
ATOM      4  C   UNL     1     -10.571  18.425  -8.865  1.00  0.00     0.010 A 
ATOM      5  C   UNL     1     -11.692  17.044 -10.499  1.00  0.00     0.001 A 
ATOM      6  C   UNL     1     -10.666  17.924 -10.163  1.00  0.00     0.001 A 
ENDROOT
BRANCH   1   7
ATOM      7  C   UNL     1     -13.465  16.561  -7.211  1.00  0.00     0.072 C 
ATOM      8  O   UNL     1     -13.643  15.318  -7.113  1.00  0.00    -0.545 OA
ATOM      9  O   UNL     1     -14.218  17.414  -6.412  1.00  0.00    -0.545 OA
ENDBRANCH   1   7
BRANCH   2  10
ATOM     10  C   UNL     1     -11.410  18.710  -6.554  1.00  0.00     0.072 C 
ATOM     11  O   UNL     1     -10.894  18.115  -5.573  1.00  0.00    -0.545 OA
ATOM     12  O   UNL     1     -11.958  19.974  -6.366  1.00  0.00    -0.545 OA
ENDBRANCH   2  10
TORSDOF 2
ENDMDL
MODEL 9
REMARK VINA RESULT:    -4.009      6.481      8.124
REMARK INTER + INTRA:          -4.550
REMARK INTER:                  -4.329
REMARK INTRA:                  -0.220
REMARK UNBOUND:                -0.072
REMARK SMILES O=C([O-])c1ccccc1C(=O)[O-]
REMARK SMILES IDX 4 1 9 2 5 3 8 4 6 5 7 6 2 7 1 8 3 9 10 10 11 11 12 12
REMARK H PARENT
REMARK Flexibility Score: inf
ROOT
ATOM      1  C   UNL     1      -9.800  18.235  -3.290  1.00  0.00     0.006 A 
ATOM      2  C   UNL     1     -10.905  17.454  -3.731  1.00  0.00     0.006 A 
ATOM      3  C   UNL     1      -8.773  17.614  -2.555  1.00  0.00     0.010 A 
ATOM      4  C   UNL     1     -10.907  16.069  -3.478  1.00  0.00     0.010 A 
ATOM      5  C   UNL     1      -8.808  16.244  -2.295  1.00  0.00     0.001 A 
ATOM      6  C   UNL     1      -9.867  15.472  -2.766  1.00  0.00     0.001 A 
ENDROOT
BRANCH   1   7
ATOM      7  C   UNL     1      -9.640  19.669  -3.625  1.00  0.00     0.072 C 
ATOM      8  O   UNL     1      -9.960  20.565  -2.798  1.00  0.00    -0.545 OA
ATOM      9  O   UNL     1      -9.199  20.045  -4.888  1.00  0.00    -0.545 OA
ENDBRANCH   1   7
BRANCH   2  10
ATOM     10  C   UNL     1     -12.095  18.039  -4.391  1.00  0.00     0.072 C 
ATOM     11  O   UNL     1     -13.039  18.518  -3.710  1.00  0.00    -0.545 OA
ATOM     12  O   UNL     1     -12.212  18.001  -5.776  1.00  0.00    -0.545 OA
ENDBRANCH   2  10
TORSDOF 2
ENDMDL
