MODEL 1
REMARK VINA RESULT:    -4.463      0.000      0.000
REMARK INTER + INTRA:          -5.426
REMARK INTER:                  -5.116
REMARK INTRA:                  -0.310
REMARK UNBOUND:                -0.310
REMARK SMILES O=C1C[C@@H](c2ccc(O)cc2)Oc2cc(O)cc(O)c21
REMARK SMILES IDX 3 1 4 2 12 3 13 4 14 5 15 6 17 7 18 8 20 9 2 10 1 11 5 12
REMARK SMILES IDX 6 13 11 14 7 15 10 16 8 17 9 18 19 20 16 22
REMARK H PARENT 9 19 19 21 16 23
REMARK Flexibility Score: inf
ROOT
ATOM      1  C   UNL     1      -3.080  -6.166   9.648  1.00  0.00     0.131 C 
ATOM      2  C   UNL     1      -3.106  -7.349   8.673  1.00  0.00     0.211 C 
ATOM      3  O   UNL     1      -4.163  -8.244   9.016  1.00  0.00    -0.484 OA
ATOM      4  C   UNL     1      -5.446  -7.784   9.330  1.00  0.00     0.138 A 
ATOM      5  C   UNL     1      -6.505  -8.694   9.341  1.00  0.00     0.093 A 
ATOM      6  C   UNL     1      -7.802  -8.262   9.625  1.00  0.00     0.123 A 
ATOM      7  C   UNL     1      -8.040  -6.911   9.884  1.00  0.00     0.093 A 
ATOM      8  C   UNL     1      -6.996  -5.978   9.872  1.00  0.00     0.133 A 
ATOM      9  C   UNL     1      -5.663  -6.422   9.640  1.00  0.00     0.102 A 
ATOM     10  C   UNL     1      -4.451  -5.562   9.784  1.00  0.00     0.174 C 
ATOM     11  O   UNL     1      -4.532  -4.354  10.125  1.00  0.00    -0.294 OA
ENDROOT
BRANCH   2  12
ATOM     12  C   UNL     1      -1.786  -8.078   8.677  1.00  0.00    -0.007 A 
ATOM     13  C   UNL     1      -1.735  -9.451   8.377  1.00  0.00     0.011 A 
ATOM     14  C   UNL     1      -0.586  -7.387   8.924  1.00  0.00     0.011 A 
ATOM     15  C   UNL     1      -0.509 -10.124   8.352  1.00  0.00     0.046 A 
ATOM     16  C   UNL     1       0.638  -8.062   8.897  1.00  0.00     0.046 A 
ATOM     17  C   UNL     1       0.679  -9.433   8.611  1.00  0.00     0.115 A 
BRANCH  17  18
ATOM     18  O   UNL     1       1.893 -10.117   8.582  1.00  0.00    -0.508 OA
ATOM     19  H   UNL     1       2.415 -10.231   7.722  1.00  0.00     0.293 HD
ENDBRANCH  17  18
ENDBRANCH   2  12
BRANCH   8  20
ATOM     20  O   UNL     1      -7.342  -4.641  10.077  1.00  0.00    -0.507 OA
ATOM     21  H   UNL     1      -7.140  -4.120  10.916  1.00  0.00     0.293 HD
ENDBRANCH   8  20
BRANCH   6  22
ATOM     22  O   UNL     1      -8.863  -9.164   9.644  1.00  0.00    -0.508 OA
ATOM     23  H   UNL     1      -8.716 -10.153   9.810  1.00  0.00     0.293 HD
ENDBRANCH   6  22
TORSDOF 4
ENDMDL
MODEL 2
REMARK VINA RESULT:    -4.455      7.746     10.316
REMARK INTER + INTRA:          -5.416
REMARK INTER:                  -5.110
REMARK INTRA:                  -0.306
REMARK UNBOUND:                -0.310
REMARK SMILES O=C1C[C@@H](c2ccc(O)cc2)Oc2cc(O)cc(O)c21
REMARK SMILES IDX 3 1 4 2 12 3 13 4 14 5 15 6 17 7 18 8 20 9 2 10 1 11 5 12
REMARK SMILES IDX 6 13 11 14 7 15 10 16 8 17 9 18 19 20 16 22
REMARK H PARENT 9 19 19 21 16 23
REMARK Flexibility Score: inf
ROOT
ATOM      1  C   UNL     1      -9.201   0.269   5.742  1.00  0.00     0.131 C 
ATOM      2  C   UNL     1      -8.288   0.026   6.950  1.00  0.00     0.211 C 
ATOM      3  O   UNL     1      -8.803  -1.038   7.748  1.00  0.00    -0.484 OA
ATOM      4  C   UNL     1      -9.263  -2.231   7.178  1.00  0.00     0.138 A 
ATOM      5  C   UNL     1      -9.449  -3.343   8.002  1.00  0.00     0.093 A 
ATOM      6  C   UNL     1      -9.882  -4.555   7.461  1.00  0.00     0.123 A 
ATOM      7  C   UNL     1     -10.113  -4.658   6.088  1.00  0.00     0.093 A 
ATOM      8  C   UNL     1      -9.925  -3.559   5.241  1.00  0.00     0.133 A 
ATOM      9  C   UNL     1      -9.541  -2.304   5.795  1.00  0.00     0.102 A 
ATOM     10  C   UNL     1      -9.488  -1.024   5.028  1.00  0.00     0.174 C 
ATOM     11  O   UNL     1      -9.787  -0.970   3.807  1.00  0.00    -0.294 OA
ENDROOT
BRANCH   2  12
ATOM     12  C   UNL     1      -8.151   1.278   7.779  1.00  0.00    -0.007 A 
ATOM     13  C   UNL     1      -7.354   2.344   7.325  1.00  0.00     0.011 A 
ATOM     14  C   UNL     1      -8.860   1.419   8.986  1.00  0.00     0.011 A 
ATOM     15  C   UNL     1      -7.249   3.518   8.077  1.00  0.00     0.046 A 
ATOM     16  C   UNL     1      -8.753   2.595   9.735  1.00  0.00     0.046 A 
ATOM     17  C   UNL     1      -7.946   3.647   9.283  1.00  0.00     0.115 A 
BRANCH  17  18
ATOM     18  O   UNL     1      -7.831   4.823  10.022  1.00  0.00    -0.508 OA
ATOM     19  H   UNL     1      -8.403   4.991  10.841  1.00  0.00     0.293 HD
ENDBRANCH  17  18
ENDBRANCH   2  12
BRANCH   8  20
ATOM     20  O   UNL     1     -10.118  -3.775   3.874  1.00  0.00    -0.507 OA
ATOM     21  H   UNL     1      -9.485  -3.468   3.152  1.00  0.00     0.293 HD
ENDBRANCH   8  20
BRANCH   6  22
ATOM     22  O   UNL     1     -10.077  -5.668   8.276  1.00  0.00    -0.508 OA
ATOM     23  H   UNL     1     -10.987  -5.888   8.664  1.00  0.00     0.293 HD
ENDBRANCH   6  22
TORSDOF 4
ENDMDL
MODEL 3
REMARK VINA RESULT:    -4.326      9.278     10.784
REMARK INTER + INTRA:          -5.268
REMARK INTER:                  -4.965
REMARK INTRA:                  -0.304
REMARK UNBOUND:                -0.310
REMARK SMILES O=C1C[C@@H](c2ccc(O)cc2)Oc2cc(O)cc(O)c21
REMARK SMILES IDX 3 1 4 2 12 3 13 4 14 5 15 6 17 7 18 8 20 9 2 10 1 11 5 12
REMARK SMILES IDX 6 13 11 14 7 15 10 16 8 17 9 18 19 20 16 22
REMARK H PARENT 9 19 19 21 16 23
REMARK Flexibility Score: inf
ROOT
ATOM      1  C   UNL     1      -5.738  -9.362  -0.164  1.00  0.00     0.131 C 
ATOM      2  C   UNL     1      -6.986  -8.491   0.023  1.00  0.00     0.211 C 
ATOM      3  O   UNL     1      -7.784  -8.999   1.090  1.00  0.00    -0.484 OA
ATOM      4  C   UNL     1      -7.221  -9.392   2.309  1.00  0.00     0.138 A 
ATOM      5  C   UNL     1      -8.058  -9.571   3.412  1.00  0.00     0.093 A 
ATOM      6  C   UNL     1      -7.525  -9.937   4.649  1.00  0.00     0.123 A 
ATOM      7  C   UNL     1      -6.146 -10.108   4.785  1.00  0.00     0.093 A 
ATOM      8  C   UNL     1      -5.285  -9.926   3.696  1.00  0.00     0.133 A 
ATOM      9  C   UNL     1      -5.829  -9.610   2.418  1.00  0.00     0.102 A 
ATOM     10  C   UNL     1      -5.039  -9.573   1.151  1.00  0.00     0.174 C 
ATOM     11  O   UNL     1      -3.807  -9.823   1.131  1.00  0.00    -0.294 OA
ENDROOT
BRANCH   2  12
ATOM     12  C   UNL     1      -7.795  -8.433  -1.249  1.00  0.00    -0.007 A 
ATOM     13  C   UNL     1      -9.005  -9.142  -1.350  1.00  0.00     0.011 A 
ATOM     14  C   UNL     1      -7.382  -7.628  -2.326  1.00  0.00     0.011 A 
ATOM     15  C   UNL     1      -9.773  -9.068  -2.516  1.00  0.00     0.046 A 
ATOM     16  C   UNL     1      -8.152  -7.555  -3.491  1.00  0.00     0.046 A 
ATOM     17  C   UNL     1      -9.350  -8.276  -3.589  1.00  0.00     0.115 A 
BRANCH  17  18
ATOM     18  O   UNL     1     -10.125  -8.211  -4.744  1.00  0.00    -0.508 OA
ATOM     19  H   UNL     1      -9.748  -8.466  -5.650  1.00  0.00     0.293 HD
ENDBRANCH  17  18
ENDBRANCH   2  12
BRANCH   8  20
ATOM     20  O   UNL     1      -3.917 -10.054   3.945  1.00  0.00    -0.507 OA
ATOM     21  H   UNL     1      -3.455  -9.734   4.782  1.00  0.00     0.293 HD
ENDBRANCH   8  20
BRANCH   6  22
ATOM     22  O   UNL     1      -8.354 -10.125   5.753  1.00  0.00    -0.508 OA
ATOM     23  H   UNL     1      -8.788 -11.020   5.943  1.00  0.00     0.293 HD
ENDBRANCH   6  22
TORSDOF 4
ENDMDL
MODEL 4
REMARK VINA RESULT:    -4.295      2.198      3.539
REMARK INTER + INTRA:          -5.233
REMARK INTER:                  -4.922
REMARK INTRA:                  -0.310
REMARK UNBOUND:                -0.310
REMARK SMILES O=C1C[C@@H](c2ccc(O)cc2)Oc2cc(O)cc(O)c21
REMARK SMILES IDX 3 1 4 2 12 3 13 4 14 5 15 6 17 7 18 8 20 9 2 10 1 11 5 12
REMARK SMILES IDX 6 13 11 14 7 15 10 16 8 17 9 18 19 20 16 22
REMARK H PARENT 9 19 19 21 16 23
REMARK Flexibility Score: inf
ROOT
ATOM      1  C   UNL     1      -4.445  -8.600   7.009  1.00  0.00     0.131 C 
ATOM      2  C   UNL     1      -4.285  -8.474   8.529  1.00  0.00     0.211 C 
ATOM      3  O   UNL     1      -5.390  -7.760   9.080  1.00  0.00    -0.484 OA
ATOM      4  C   UNL     1      -6.708  -8.036   8.704  1.00  0.00     0.138 A 
ATOM      5  C   UNL     1      -7.751  -7.547   9.494  1.00  0.00     0.093 A 
ATOM      6  C   UNL     1      -9.078  -7.828   9.161  1.00  0.00     0.123 A 
ATOM      7  C   UNL     1      -9.359  -8.614   8.043  1.00  0.00     0.093 A 
ATOM      8  C   UNL     1      -8.331  -9.123   7.240  1.00  0.00     0.133 A 
ATOM      9  C   UNL     1      -6.978  -8.791   7.541  1.00  0.00     0.102 A 
ATOM     10  C   UNL     1      -5.815  -9.116   6.663  1.00  0.00     0.174 C 
ATOM     11  O   UNL     1      -5.958  -9.723   5.571  1.00  0.00    -0.294 OA
ENDROOT
BRANCH   2  12
ATOM     12  C   UNL     1      -2.992  -7.780   8.876  1.00  0.00    -0.007 A 
ATOM     13  C   UNL     1      -1.760  -8.363   8.528  1.00  0.00     0.011 A 
ATOM     14  C   UNL     1      -3.000  -6.519   9.499  1.00  0.00     0.011 A 
ATOM     15  C   UNL     1      -0.560  -7.708   8.822  1.00  0.00     0.046 A 
ATOM     16  C   UNL     1      -1.798  -5.866   9.791  1.00  0.00     0.046 A 
ATOM     17  C   UNL     1      -0.575  -6.460   9.454  1.00  0.00     0.115 A 
BRANCH  17  18
ATOM     18  O   UNL     1       0.629  -5.820   9.740  1.00  0.00    -0.508 OA
ATOM     19  H   UNL     1       1.258  -6.169  10.453  1.00  0.00     0.293 HD
ENDBRANCH  17  18
ENDBRANCH   2  12
BRANCH   8  20
ATOM     20  O   UNL     1      -8.707  -9.953   6.182  1.00  0.00    -0.507 OA
ATOM     21  H   UNL     1      -9.399  -9.717   5.488  1.00  0.00     0.293 HD
ENDBRANCH   8  20
BRANCH   6  22
ATOM     22  O   UNL     1     -10.125  -7.338   9.939  1.00  0.00    -0.508 OA
ATOM     23  H   UNL     1     -10.193  -6.356  10.178  1.00  0.00     0.293 HD
ENDBRANCH   6  22
TORSDOF 4
ENDMDL
MODEL 5
REMARK VINA RESULT:    -4.255     18.128     20.043
REMARK INTER + INTRA:          -5.186
REMARK INTER:                  -4.893
REMARK INTRA:                  -0.293
REMARK UNBOUND:                -0.310
REMARK SMILES O=C1C[C@@H](c2ccc(O)cc2)Oc2cc(O)cc(O)c21
REMARK SMILES IDX 3 1 4 2 12 3 13 4 14 5 15 6 17 7 18 8 20 9 2 10 1 11 5 12
REMARK SMILES IDX 6 13 11 14 7 15 10 16 8 17 9 18 19 20 16 22
REMARK H PARENT 9 19 19 21 16 23
REMARK Flexibility Score: inf
ROOT
ATOM      1  C   UNL     1      -9.690   3.718  -2.927  1.00  0.00     0.131 C 
ATOM      2  C   UNL     1     -10.125   5.078  -3.486  1.00  0.00     0.211 C 
ATOM      3  O   UNL     1      -9.517   5.302  -4.757  1.00  0.00    -0.484 OA
ATOM      4  C   UNL     1      -9.477   4.309  -5.741  1.00  0.00     0.138 A 
ATOM      5  C   UNL     1      -9.170   4.671  -7.054  1.00  0.00     0.093 A 
ATOM      6  C   UNL     1      -9.148   3.708  -8.064  1.00  0.00     0.123 A 
ATOM      7  C   UNL     1      -9.451   2.380  -7.761  1.00  0.00     0.093 A 
ATOM      8  C   UNL     1      -9.771   1.993  -6.453  1.00  0.00     0.133 A 
ATOM      9  C   UNL     1      -9.737   2.960  -5.408  1.00  0.00     0.102 A 
ATOM     10  C   UNL     1      -9.876   2.638  -3.957  1.00  0.00     0.174 C 
ATOM     11  O   UNL     1     -10.040   1.459  -3.552  1.00  0.00    -0.294 OA
ENDROOT
BRANCH   2  12
ATOM     12  C   UNL     1      -9.763   6.191  -2.534  1.00  0.00    -0.007 A 
ATOM     13  C   UNL     1     -10.101   7.521  -2.840  1.00  0.00     0.011 A 
ATOM     14  C   UNL     1      -9.139   5.909  -1.306  1.00  0.00     0.011 A 
ATOM     15  C   UNL     1      -9.794   8.552  -1.947  1.00  0.00     0.046 A 
ATOM     16  C   UNL     1      -8.834   6.941  -0.414  1.00  0.00     0.046 A 
ATOM     17  C   UNL     1      -9.160   8.266  -0.733  1.00  0.00     0.115 A 
BRANCH  17  18
ATOM     18  O   UNL     1      -8.861   9.303   0.148  1.00  0.00    -0.508 OA
ATOM     19  H   UNL     1      -7.991   9.323   0.667  1.00  0.00     0.293 HD
ENDBRANCH  17  18
ENDBRANCH   2  12
BRANCH   8  20
ATOM     20  O   UNL     1     -10.124   0.655  -6.260  1.00  0.00    -0.507 OA
ATOM     21  H   UNL     1     -10.606   0.303  -5.447  1.00  0.00     0.293 HD
ENDBRANCH   8  20
BRANCH   6  22
ATOM     22  O   UNL     1      -8.835   4.060  -9.375  1.00  0.00    -0.508 OA
ATOM     23  H   UNL     1      -8.875   5.022  -9.689  1.00  0.00     0.293 HD
ENDBRANCH   6  22
TORSDOF 4
ENDMDL
MODEL 6
REMARK VINA RESULT:    -4.254      1.696      6.467
REMARK INTER + INTRA:          -5.186
REMARK INTER:                  -4.876
REMARK INTRA:                  -0.310
REMARK UNBOUND:                -0.310
REMARK SMILES O=C1C[C@@H](c2ccc(O)cc2)Oc2cc(O)cc(O)c21
REMARK SMILES IDX 3 1 4 2 12 3 13 4 14 5 15 6 17 7 18 8 20 9 2 10 1 11 5 12
REMARK SMILES IDX 6 13 11 14 7 15 10 16 8 17 9 18 19 20 16 22
REMARK H PARENT 9 19 19 21 16 23
REMARK Flexibility Score: inf
ROOT
ATOM      1  C   UNL     1      -4.625  -6.335   9.015  1.00  0.00     0.131 C 
ATOM      2  C   UNL     1      -4.889  -7.837   9.173  1.00  0.00     0.211 C 
ATOM      3  O   UNL     1      -3.861  -8.586   8.528  1.00  0.00    -0.484 OA
ATOM      4  C   UNL     1      -2.508  -8.263   8.679  1.00  0.00     0.138 A 
ATOM      5  C   UNL     1      -1.545  -9.201   8.300  1.00  0.00     0.093 A 
ATOM      6  C   UNL     1      -0.187  -8.921   8.462  1.00  0.00     0.123 A 
ATOM      7  C   UNL     1       0.207  -7.704   9.021  1.00  0.00     0.093 A 
ATOM      8  C   UNL     1      -0.740  -6.751   9.416  1.00  0.00     0.133 A 
ATOM      9  C   UNL     1      -2.125  -7.007   9.198  1.00  0.00     0.102 A 
ATOM     10  C   UNL     1      -3.210  -6.003   9.404  1.00  0.00     0.174 C 
ATOM     11  O   UNL     1      -2.966  -4.833   9.796  1.00  0.00    -0.294 OA
ENDROOT
BRANCH   2  12
ATOM     12  C   UNL     1      -6.236  -8.208   8.606  1.00  0.00    -0.007 A 
ATOM     13  C   UNL     1      -6.384  -9.379   7.842  1.00  0.00     0.011 A 
ATOM     14  C   UNL     1      -7.370  -7.422   8.879  1.00  0.00     0.011 A 
ATOM     15  C   UNL     1      -7.637  -9.742   7.339  1.00  0.00     0.046 A 
ATOM     16  C   UNL     1      -8.622  -7.788   8.376  1.00  0.00     0.046 A 
ATOM     17  C   UNL     1      -8.758  -8.948   7.603  1.00  0.00     0.115 A 
BRANCH  17  18
ATOM     18  O   UNL     1     -10.001  -9.322   7.096  1.00  0.00    -0.508 OA
ATOM     19  H   UNL     1     -10.137  -9.504   6.109  1.00  0.00     0.293 HD
ENDBRANCH  17  18
ENDBRANCH   2  12
BRANCH   8  20
ATOM     20  O   UNL     1      -0.253  -5.592  10.024  1.00  0.00    -0.507 OA
ATOM     21  H   UNL     1       0.678  -5.489  10.397  1.00  0.00     0.293 HD
ENDBRANCH   8  20
BRANCH   6  22
ATOM     22  O   UNL     1       0.781  -9.848   8.081  1.00  0.00    -0.508 OA
ATOM     23  H   UNL     1       0.718 -10.348   7.203  1.00  0.00     0.293 HD
ENDBRANCH   6  22
TORSDOF 4
ENDMDL
MODEL 7
REMARK VINA RESULT:    -4.244      6.245      8.371
REMARK INTER + INTRA:          -5.174
REMARK INTER:                  -4.864
REMARK INTRA:                  -0.310
REMARK UNBOUND:                -0.310
REMARK SMILES O=C1C[C@@H](c2ccc(O)cc2)Oc2cc(O)cc(O)c21
REMARK SMILES IDX 3 1 4 2 12 3 13 4 14 5 15 6 17 7 18 8 20 9 2 10 1 11 5 12
REMARK SMILES IDX 6 13 11 14 7 15 10 16 8 17 9 18 19 20 16 22
REMARK H PARENT 9 19 19 21 16 23
REMARK Flexibility Score: inf
ROOT
ATOM      1  C   UNL     1      -6.208  -9.497   3.524  1.00  0.00     0.131 C 
ATOM      2  C   UNL     1      -7.409  -8.546   3.452  1.00  0.00     0.211 C 
ATOM      3  O   UNL     1      -8.323  -8.831   4.510  1.00  0.00    -0.484 OA
ATOM      4  C   UNL     1      -7.888  -9.043   5.823  1.00  0.00     0.138 A 
ATOM      5  C   UNL     1      -8.823  -8.995   6.859  1.00  0.00     0.093 A 
ATOM      6  C   UNL     1      -8.417  -9.177   8.182  1.00  0.00     0.123 A 
ATOM      7  C   UNL     1      -7.068  -9.390   8.470  1.00  0.00     0.093 A 
ATOM      8  C   UNL     1      -6.111  -9.433   7.449  1.00  0.00     0.133 A 
ATOM      9  C   UNL     1      -6.526  -9.308   6.092  1.00  0.00     0.102 A 
ATOM     10  C   UNL     1      -5.634  -9.520   4.914  1.00  0.00     0.174 C 
ATOM     11  O   UNL     1      -4.423  -9.830   5.047  1.00  0.00    -0.294 OA
ENDROOT
BRANCH   2  12
ATOM     12  C   UNL     1      -8.106  -8.661   2.119  1.00  0.00    -0.007 A 
ATOM     13  C   UNL     1      -9.482  -8.390   2.015  1.00  0.00     0.011 A 
ATOM     14  C   UNL     1      -7.382  -8.983   0.958  1.00  0.00     0.011 A 
ATOM     15  C   UNL     1     -10.125  -8.466   0.775  1.00  0.00     0.046 A 
ATOM     16  C   UNL     1      -8.027  -9.058  -0.280  1.00  0.00     0.046 A 
ATOM     17  C   UNL     1      -9.401  -8.801  -0.374  1.00  0.00     0.115 A 
BRANCH  17  18
ATOM     18  O   UNL     1     -10.056  -8.873  -1.602  1.00  0.00    -0.508 OA
ATOM     19  H   UNL     1     -10.654  -9.656  -1.838  1.00  0.00     0.293 HD
ENDBRANCH  17  18
ENDBRANCH   2  12
BRANCH   8  20
ATOM     20  O   UNL     1      -4.778  -9.586   7.840  1.00  0.00    -0.507 OA
ATOM     21  H   UNL     1      -4.443 -10.305   8.462  1.00  0.00     0.293 HD
ENDBRANCH   8  20
BRANCH   6  22
ATOM     22  O   UNL     1      -9.345  -9.138   9.222  1.00  0.00    -0.508 OA
ATOM     23  H   UNL     1      -9.064  -8.934  10.174  1.00  0.00     0.293 HD
ENDBRANCH   6  22
TORSDOF 4
ENDMDL
MODEL 8
REMARK VINA RESULT:    -4.240      5.832      8.312
REMARK INTER + INTRA:          -5.169
REMARK INTER:                  -4.860
REMARK INTRA:                  -0.309
REMARK UNBOUND:                -0.310
REMARK SMILES O=C1C[C@@H](c2ccc(O)cc2)Oc2cc(O)cc(O)c21
REMARK SMILES IDX 3 1 4 2 12 3 13 4 14 5 15 6 17 7 18 8 20 9 2 10 1 11 5 12
REMARK SMILES IDX 6 13 11 14 7 15 10 16 8 17 9 18 19 20 16 22
REMARK H PARENT 9 19 19 21 16 23
REMARK Flexibility Score: inf
ROOT
ATOM      1  C   UNL     1      -9.655  -4.240   5.690  1.00  0.00     0.131 C 
ATOM      2  C   UNL     1      -9.830  -4.516   7.188  1.00  0.00     0.211 C 
ATOM      3  O   UNL     1      -8.976  -3.662   7.946  1.00  0.00    -0.484 OA
ATOM      4  C   UNL     1      -8.862  -2.296   7.665  1.00  0.00     0.138 A 
ATOM      5  C   UNL     1      -8.278  -1.458   8.618  1.00  0.00     0.093 A 
ATOM      6  C   UNL     1      -8.173  -0.086   8.380  1.00  0.00     0.123 A 
ATOM      7  C   UNL     1      -8.669   0.450   7.190  1.00  0.00     0.093 A 
ATOM      8  C   UNL     1      -9.266  -0.369   6.223  1.00  0.00     0.133 A 
ATOM      9  C   UNL     1      -9.323  -1.777   6.435  1.00  0.00     0.102 A 
ATOM     10  C   UNL     1      -9.763  -2.767   5.407  1.00  0.00     0.174 C 
ATOM     11  O   UNL     1     -10.125  -2.411   4.256  1.00  0.00    -0.294 OA
ENDROOT
BRANCH   2  12
ATOM     12  C   UNL     1      -9.534  -5.961   7.506  1.00  0.00    -0.007 A 
ATOM     13  C   UNL     1      -8.706  -6.291   8.593  1.00  0.00     0.011 A 
ATOM     14  C   UNL     1     -10.125  -6.995   6.757  1.00  0.00     0.011 A 
ATOM     15  C   UNL     1      -8.453  -7.629   8.909  1.00  0.00     0.046 A 
ATOM     16  C   UNL     1      -9.870  -8.332   7.076  1.00  0.00     0.046 A 
ATOM     17  C   UNL     1      -9.033  -8.652   8.152  1.00  0.00     0.115 A 
BRANCH  17  18
ATOM     18  O   UNL     1      -8.772  -9.982   8.479  1.00  0.00    -0.508 OA
ATOM     19  H   UNL     1      -9.521 -10.635   8.675  1.00  0.00     0.293 HD
ENDBRANCH  17  18
ENDBRANCH   2  12
BRANCH   8  20
ATOM     20  O   UNL     1      -9.791   0.266   5.096  1.00  0.00    -0.507 OA
ATOM     21  H   UNL     1      -9.536   1.193   4.790  1.00  0.00     0.293 HD
ENDBRANCH   8  20
BRANCH   6  22
ATOM     22  O   UNL     1      -7.587   0.756   9.322  1.00  0.00    -0.508 OA
ATOM     23  H   UNL     1      -7.841   0.713  10.301  1.00  0.00     0.293 HD
ENDBRANCH   6  22
TORSDOF 4
ENDMDL
MODEL 9
REMARK VINA RESULT:    -4.181      6.611      9.005
REMARK INTER + INTRA:          -5.102
REMARK INTER:                  -4.810
REMARK INTRA:                  -0.292
REMARK UNBOUND:                -0.310
REMARK SMILES O=C1C[C@@H](c2ccc(O)cc2)Oc2cc(O)cc(O)c21
REMARK SMILES IDX 3 1 4 2 12 3 13 4 14 5 15 6 17 7 18 8 20 9 2 10 1 11 5 12
REMARK SMILES IDX 6 13 11 14 7 15 10 16 8 17 9 18 19 20 16 22
REMARK H PARENT 9 19 19 21 16 23
REMARK Flexibility Score: inf
ROOT
ATOM      1  C   UNL     1      -6.363  -9.172   4.406  1.00  0.00     0.131 C 
ATOM      2  C   UNL     1      -7.875  -9.260   4.650  1.00  0.00     0.211 C 
ATOM      3  O   UNL     1      -8.578  -8.556   3.628  1.00  0.00    -0.484 OA
ATOM      4  C   UNL     1      -8.247  -8.694   2.276  1.00  0.00     0.138 A 
ATOM      5  C   UNL     1      -9.153  -8.248   1.311  1.00  0.00     0.093 A 
ATOM      6  C   UNL     1      -8.865  -8.395  -0.047  1.00  0.00     0.123 A 
ATOM      7  C   UNL     1      -7.673  -9.006  -0.439  1.00  0.00     0.093 A 
ATOM      8  C   UNL     1      -6.752  -9.469   0.509  1.00  0.00     0.133 A 
ATOM      9  C   UNL     1      -7.014  -9.268   1.895  1.00  0.00     0.102 A 
ATOM     10  C   UNL     1      -6.034  -9.548   2.987  1.00  0.00     0.174 C 
ATOM     11  O   UNL     1      -4.883  -9.993   2.747  1.00  0.00    -0.294 OA
ENDROOT
BRANCH   2  12
ATOM     12  C   UNL     1      -8.233  -8.703   6.005  1.00  0.00    -0.007 A 
ATOM     13  C   UNL     1      -8.326  -7.313   6.197  1.00  0.00     0.011 A 
ATOM     14  C   UNL     1      -8.534  -9.563   7.077  1.00  0.00     0.011 A 
ATOM     15  C   UNL     1      -8.687  -6.794   7.444  1.00  0.00     0.046 A 
ATOM     16  C   UNL     1      -8.895  -9.041   8.322  1.00  0.00     0.046 A 
ATOM     17  C   UNL     1      -8.971  -7.655   8.509  1.00  0.00     0.115 A 
BRANCH  17  18
ATOM     18  O   UNL     1      -9.330  -7.123   9.746  1.00  0.00    -0.508 OA
ATOM     19  H   UNL     1      -8.718  -6.489  10.247  1.00  0.00     0.293 HD
ENDBRANCH  17  18
ENDBRANCH   2  12
BRANCH   8  20
ATOM     20  O   UNL     1      -5.620 -10.125   0.022  1.00  0.00    -0.507 OA
ATOM     21  H   UNL     1      -5.146 -10.878   0.497  1.00  0.00     0.293 HD
ENDBRANCH   8  20
BRANCH   6  22
ATOM     22  O   UNL     1      -9.760  -7.947  -1.016  1.00  0.00    -0.508 OA
ATOM     23  H   UNL     1      -9.899  -6.960  -1.193  1.00  0.00     0.293 HD
ENDBRANCH   6  22
TORSDOF 4
ENDMDL
