MODEL 1
REMARK VINA RESULT:    -5.030      0.000      0.000
REMARK INTER + INTRA:          -5.423
REMARK INTER:                  -5.324
REMARK INTRA:                  -0.098
REMARK UNBOUND:                -0.098
REMARK SMILES C=C(C)[C@H]1CC=C(C)C(=O)C1
REMARK SMILES IDX 8 1 7 2 6 3 5 4 4 5 11 6 9 7 10 8 2 9 1 10 3 11
REMARK H PARENT
REMARK Flexibility Score: inf
ROOT
ATOM      1  C   UNL     1      57.076  31.988  31.907  1.00  0.00     0.048 C 
ATOM      2  C   UNL     1      55.583  32.078  31.757  1.00  0.00    -0.012 C 
ATOM      3  C   UNL     1      54.858  30.957  31.597  1.00  0.00    -0.019 C 
ATOM      4  C   UNL     1      53.362  30.991  31.424  1.00  0.00     0.036 C 
ATOM      5  C   UNL     1      52.740  32.161  32.209  1.00  0.00     0.025 C 
ATOM      6  C   UNL     1      53.404  33.490  31.803  1.00  0.00     0.089 C 
ATOM      7  C   UNL     1      54.901  33.387  31.911  1.00  0.00     0.158 C 
ATOM      8  O   UNL     1      55.576  34.434  32.098  1.00  0.00    -0.295 OA
ENDROOT
BRANCH   5   9
ATOM      9  C   UNL     1      51.229  32.214  32.025  1.00  0.00    -0.077 C 
ATOM     10  C   UNL     1      50.633  31.425  31.119  1.00  0.00     0.008 C 
ATOM     11  C   UNL     1      50.370  33.143  32.847  1.00  0.00     0.039 C 
ENDBRANCH   5   9
TORSDOF 1
ENDMDL
MODEL 2
REMARK VINA RESULT:    -4.967      2.180      4.253
REMARK INTER + INTRA:          -5.356
REMARK INTER:                  -5.260
REMARK INTRA:                  -0.096
REMARK UNBOUND:                -0.098
REMARK SMILES C=C(C)[C@H]1CC=C(C)C(=O)C1
REMARK SMILES IDX 8 1 7 2 6 3 5 4 4 5 11 6 9 7 10 8 2 9 1 10 3 11
REMARK H PARENT
REMARK Flexibility Score: inf
ROOT
ATOM      1  C   UNL     1      50.540  36.961  32.500  1.00  0.00     0.048 C 
ATOM      2  C   UNL     1      51.063  35.564  32.311  1.00  0.00    -0.012 C 
ATOM      3  C   UNL     1      50.433  34.530  32.895  1.00  0.00    -0.019 C 
ATOM      4  C   UNL     1      50.924  33.114  32.755  1.00  0.00     0.036 C 
ATOM      5  C   UNL     1      51.583  32.889  31.380  1.00  0.00     0.025 C 
ATOM      6  C   UNL     1      52.704  33.920  31.151  1.00  0.00     0.089 C 
ATOM      7  C   UNL     1      52.194  35.316  31.383  1.00  0.00     0.158 C 
ATOM      8  O   UNL     1      52.762  36.281  30.805  1.00  0.00    -0.295 OA
ENDROOT
BRANCH   5   9
ATOM      9  C   UNL     1      52.099  31.464  31.236  1.00  0.00    -0.077 C 
ATOM     10  C   UNL     1      53.110  31.033  32.006  1.00  0.00     0.008 C 
ATOM     11  C   UNL     1      51.495  30.507  30.238  1.00  0.00     0.039 C 
ENDBRANCH   5   9
TORSDOF 1
ENDMDL
MODEL 3
REMARK VINA RESULT:    -4.958      1.190      4.583
REMARK INTER + INTRA:          -5.346
REMARK INTER:                  -5.248
REMARK INTRA:                  -0.098
REMARK UNBOUND:                -0.098
REMARK SMILES C=C(C)[C@H]1CC=C(C)C(=O)C1
REMARK SMILES IDX 8 1 7 2 6 3 5 4 4 5 11 6 9 7 10 8 2 9 1 10 3 11
REMARK H PARENT
REMARK Flexibility Score: inf
ROOT
ATOM      1  C   UNL     1      51.759  32.236  31.433  1.00  0.00     0.048 C 
ATOM      2  C   UNL     1      53.251  32.166  31.601  1.00  0.00    -0.012 C 
ATOM      3  C   UNL     1      53.861  30.970  31.673  1.00  0.00    -0.019 C 
ATOM      4  C   UNL     1      55.350  30.842  31.860  1.00  0.00     0.036 C 
ATOM      5  C   UNL     1      56.095  32.005  31.179  1.00  0.00     0.025 C 
ATOM      6  C   UNL     1      55.558  33.355  31.688  1.00  0.00     0.089 C 
ATOM      7  C   UNL     1      54.060  33.410  31.561  1.00  0.00     0.158 C 
ATOM      8  O   UNL     1      53.493  34.530  31.456  1.00  0.00    -0.295 OA
ENDROOT
BRANCH   5   9
ATOM      9  C   UNL     1      57.601  31.895  31.378  1.00  0.00    -0.077 C 
ATOM     10  C   UNL     1      58.116  30.856  32.054  1.00  0.00     0.008 C 
ATOM     11  C   UNL     1      58.545  32.935  30.826  1.00  0.00     0.039 C 
ENDBRANCH   5   9
TORSDOF 1
ENDMDL
MODEL 4
REMARK VINA RESULT:    -4.895      2.372      4.328
REMARK INTER + INTRA:          -5.280
REMARK INTER:                  -5.187
REMARK INTRA:                  -0.092
REMARK UNBOUND:                -0.098
REMARK SMILES C=C(C)[C@H]1CC=C(C)C(=O)C1
REMARK SMILES IDX 8 1 7 2 6 3 5 4 4 5 11 6 9 7 10 8 2 9 1 10 3 11
REMARK H PARENT
REMARK Flexibility Score: inf
ROOT
ATOM      1  C   UNL     1      51.088  35.832  30.771  1.00  0.00     0.048 C 
ATOM      2  C   UNL     1      51.907  34.591  30.995  1.00  0.00    -0.012 C 
ATOM      3  C   UNL     1      53.193  34.698  31.373  1.00  0.00    -0.019 C 
ATOM      4  C   UNL     1      54.064  33.489  31.593  1.00  0.00     0.036 C 
ATOM      5  C   UNL     1      53.239  32.301  32.124  1.00  0.00     0.025 C 
ATOM      6  C   UNL     1      52.059  32.005  31.180  1.00  0.00     0.089 C 
ATOM      7  C   UNL     1      51.264  33.256  30.920  1.00  0.00     0.158 C 
ATOM      8  O   UNL     1      50.049  33.155  30.602  1.00  0.00    -0.295 OA
ENDROOT
BRANCH   5   9
ATOM      9  C   UNL     1      54.108  31.068  32.332  1.00  0.00    -0.077 C 
ATOM     10  C   UNL     1      53.662  30.048  33.081  1.00  0.00     0.008 C 
ATOM     11  C   UNL     1      55.477  30.958  31.708  1.00  0.00     0.039 C 
ENDBRANCH   5   9
TORSDOF 1
ENDMDL
MODEL 5
REMARK VINA RESULT:    -4.888      1.601      4.248
REMARK INTER + INTRA:          -5.272
REMARK INTER:                  -5.185
REMARK INTRA:                  -0.087
REMARK UNBOUND:                -0.098
REMARK SMILES C=C(C)[C@H]1CC=C(C)C(=O)C1
REMARK SMILES IDX 8 1 7 2 6 3 5 4 4 5 11 6 9 7 10 8 2 9 1 10 3 11
REMARK H PARENT
REMARK Flexibility Score: inf
ROOT
ATOM      1  C   UNL     1      50.663  31.446  31.041  1.00  0.00     0.048 C 
ATOM      2  C   UNL     1      52.064  31.785  31.471  1.00  0.00    -0.012 C 
ATOM      3  C   UNL     1      52.867  30.820  31.953  1.00  0.00    -0.019 C 
ATOM      4  C   UNL     1      54.271  31.106  32.415  1.00  0.00     0.036 C 
ATOM      5  C   UNL     1      54.904  32.244  31.592  1.00  0.00     0.025 C 
ATOM      6  C   UNL     1      54.009  33.496  31.636  1.00  0.00     0.089 C 
ATOM      7  C   UNL     1      52.597  33.151  31.248  1.00  0.00     0.158 C 
ATOM      8  O   UNL     1      51.858  34.048  30.762  1.00  0.00    -0.295 OA
ENDROOT
BRANCH   5   9
ATOM      9  C   UNL     1      56.318  32.554  32.065  1.00  0.00    -0.077 C 
ATOM     10  C   UNL     1      57.372  32.186  31.321  1.00  0.00     0.008 C 
ATOM     11  C   UNL     1      56.571  33.275  33.366  1.00  0.00     0.039 C 
ENDBRANCH   5   9
TORSDOF 1
ENDMDL
MODEL 6
REMARK VINA RESULT:    -4.879      1.107      1.759
REMARK INTER + INTRA:          -5.262
REMARK INTER:                  -5.164
REMARK INTRA:                  -0.098
REMARK UNBOUND:                -0.098
REMARK SMILES C=C(C)[C@H]1CC=C(C)C(=O)C1
REMARK SMILES IDX 8 1 7 2 6 3 5 4 4 5 11 6 9 7 10 8 2 9 1 10 3 11
REMARK H PARENT
REMARK Flexibility Score: inf
ROOT
ATOM      1  C   UNL     1      55.437  30.861  31.644  1.00  0.00     0.048 C 
ATOM      2  C   UNL     1      54.188  31.694  31.722  1.00  0.00    -0.012 C 
ATOM      3  C   UNL     1      52.994  31.097  31.882  1.00  0.00    -0.019 C 
ATOM      4  C   UNL     1      51.710  31.881  31.947  1.00  0.00     0.036 C 
ATOM      5  C   UNL     1      51.935  33.258  32.601  1.00  0.00     0.025 C 
ATOM      6  C   UNL     1      53.049  34.024  31.864  1.00  0.00     0.089 C 
ATOM      7  C   UNL     1      54.286  33.175  31.747  1.00  0.00     0.158 C 
ATOM      8  O   UNL     1      55.407  33.737  31.634  1.00  0.00    -0.295 OA
ENDROOT
BRANCH   5   9
ATOM      9  C   UNL     1      50.646  34.067  32.655  1.00  0.00    -0.077 C 
ATOM     10  C   UNL     1      49.481  33.500  32.303  1.00  0.00     0.008 C 
ATOM     11  C   UNL     1      50.640  35.508  33.100  1.00  0.00     0.039 C 
ENDBRANCH   5   9
TORSDOF 1
ENDMDL
MODEL 7
REMARK VINA RESULT:    -4.877      2.390      4.810
REMARK INTER + INTRA:          -5.261
REMARK INTER:                  -5.162
REMARK INTRA:                  -0.099
REMARK UNBOUND:                -0.098
REMARK SMILES C=C(C)[C@H]1CC=C(C)C(=O)C1
REMARK SMILES IDX 8 1 7 2 6 3 5 4 4 5 11 6 9 7 10 8 2 9 1 10 3 11
REMARK H PARENT
REMARK Flexibility Score: inf
ROOT
ATOM      1  C   UNL     1      49.099  33.126  30.456  1.00  0.00     0.048 C 
ATOM      2  C   UNL     1      50.554  32.837  30.700  1.00  0.00    -0.012 C 
ATOM      3  C   UNL     1      51.404  33.849  30.951  1.00  0.00    -0.019 C 
ATOM      4  C   UNL     1      52.873  33.619  31.184  1.00  0.00     0.036 C 
ATOM      5  C   UNL     1      53.120  32.266  31.877  1.00  0.00     0.025 C 
ATOM      6  C   UNL     1      52.472  31.126  31.069  1.00  0.00     0.089 C 
ATOM      7  C   UNL     1      51.027  31.433  30.786  1.00  0.00     0.158 C 
ATOM      8  O   UNL     1      50.225  30.482  30.588  1.00  0.00    -0.295 OA
ENDROOT
BRANCH   5   9
ATOM      9  C   UNL     1      54.605  32.016  32.100  1.00  0.00    -0.077 C 
ATOM     10  C   UNL     1      55.167  30.873  31.676  1.00  0.00     0.008 C 
ATOM     11  C   UNL     1      55.478  33.034  32.793  1.00  0.00     0.039 C 
ENDBRANCH   5   9
TORSDOF 1
ENDMDL
MODEL 8
REMARK VINA RESULT:    -4.848      1.910      5.019
REMARK INTER + INTRA:          -5.230
REMARK INTER:                  -5.136
REMARK INTRA:                  -0.094
REMARK UNBOUND:                -0.098
REMARK SMILES C=C(C)[C@H]1CC=C(C)C(=O)C1
REMARK SMILES IDX 8 1 7 2 6 3 5 4 4 5 11 6 9 7 10 8 2 9 1 10 3 11
REMARK H PARENT
REMARK Flexibility Score: inf
ROOT
ATOM      1  C   UNL     1      52.192  33.165  32.655  1.00  0.00     0.048 C 
ATOM      2  C   UNL     1      53.576  32.771  32.218  1.00  0.00    -0.012 C 
ATOM      3  C   UNL     1      54.515  33.716  32.039  1.00  0.00    -0.019 C 
ATOM      4  C   UNL     1      55.911  33.379  31.584  1.00  0.00     0.036 C 
ATOM      5  C   UNL     1      56.349  32.001  32.115  1.00  0.00     0.025 C 
ATOM      6  C   UNL     1      55.327  30.923  31.708  1.00  0.00     0.089 C 
ATOM      7  C   UNL     1      53.936  31.336  32.106  1.00  0.00     0.158 C 
ATOM      8  O   UNL     1      53.067  30.447  32.309  1.00  0.00    -0.295 OA
ENDROOT
BRANCH   5   9
ATOM      9  C   UNL     1      57.752  31.643  31.645  1.00  0.00    -0.077 C 
ATOM     10  C   UNL     1      58.363  30.547  32.120  1.00  0.00     0.008 C 
ATOM     11  C   UNL     1      58.487  32.499  30.642  1.00  0.00     0.039 C 
ENDBRANCH   5   9
TORSDOF 1
ENDMDL
MODEL 9
REMARK VINA RESULT:    -4.685      1.366      2.021
REMARK INTER + INTRA:          -5.058
REMARK INTER:                  -4.962
REMARK INTRA:                  -0.096
REMARK UNBOUND:                -0.098
REMARK SMILES C=C(C)[C@H]1CC=C(C)C(=O)C1
REMARK SMILES IDX 8 1 7 2 6 3 5 4 4 5 11 6 9 7 10 8 2 9 1 10 3 11
REMARK H PARENT
REMARK Flexibility Score: inf
ROOT
ATOM      1  C   UNL     1      57.074  33.017  32.215  1.00  0.00     0.048 C 
ATOM      2  C   UNL     1      55.595  32.766  32.315  1.00  0.00    -0.012 C 
ATOM      3  C   UNL     1      54.760  33.786  32.579  1.00  0.00    -0.019 C 
ATOM      4  C   UNL     1      53.273  33.589  32.708  1.00  0.00     0.036 C 
ATOM      5  C   UNL     1      52.781  32.461  31.781  1.00  0.00     0.025 C 
ATOM      6  C   UNL     1      53.567  31.165  32.054  1.00  0.00     0.089 C 
ATOM      7  C   UNL     1      55.048  31.423  31.998  1.00  0.00     0.158 C 
ATOM      8  O   UNL     1      55.826  30.474  31.713  1.00  0.00    -0.295 OA
ENDROOT
BRANCH   5   9
ATOM      9  C   UNL     1      51.281  32.242  31.918  1.00  0.00    -0.077 C 
ATOM     10  C   UNL     1      50.676  31.268  31.221  1.00  0.00     0.008 C 
ATOM     11  C   UNL     1      50.441  33.100  32.832  1.00  0.00     0.039 C 
ENDBRANCH   5   9
TORSDOF 1
ENDMDL
