MODEL 1
REMARK VINA RESULT:    -3.636      0.000      0.000
REMARK INTER + INTRA:          -4.780
REMARK INTER:                  -4.486
REMARK INTRA:                  -0.294
REMARK UNBOUND:                -0.294
REMARK SMILES C=CC[C@H](C)C(=O)CC
REMARK SMILES IDX 4 1 5 2 6 3 7 4 8 5 9 6 3 7 2 8 1 9
REMARK H PARENT
REMARK Flexibility Score: inf
ROOT
ATOM      1  C   UNL     1       3.557  23.731  38.989  1.00  0.00     0.057 C 
ATOM      2  C   UNL     1       3.115  24.620  40.160  1.00  0.00     0.016 C 
ENDROOT
BRANCH   1   3
ATOM      3  C   UNL     1       2.409  23.472  38.033  1.00  0.00     0.135 C 
ATOM      4  O   UNL     1       1.598  24.358  37.801  1.00  0.00    -0.299 OA
BRANCH   3   5
ATOM      5  C   UNL     1       2.247  22.139  37.352  1.00  0.00     0.072 C 
ATOM      6  C   UNL     1       0.868  21.552  37.635  1.00  0.00     0.012 C 
ENDBRANCH   3   5
ENDBRANCH   1   3
BRANCH   1   7
ATOM      7  C   UNL     1       4.208  22.415  39.464  1.00  0.00     0.038 C 
BRANCH   7   8
ATOM      8  C   UNL     1       5.708  22.501  39.597  1.00  0.00    -0.034 C 
ATOM      9  C   UNL     1       6.429  23.369  38.883  1.00  0.00     0.004 C 
ENDBRANCH   7   8
ENDBRANCH   1   7
TORSDOF 4
ENDMDL
MODEL 2
REMARK VINA RESULT:    -3.563     12.210     14.261
REMARK INTER + INTRA:          -4.691
REMARK INTER:                  -4.523
REMARK INTRA:                  -0.168
REMARK UNBOUND:                -0.294
REMARK SMILES C=CC[C@H](C)C(=O)CC
REMARK SMILES IDX 4 1 5 2 6 3 7 4 8 5 9 6 3 7 2 8 1 9
REMARK H PARENT
REMARK Flexibility Score: inf
ROOT
ATOM      1  C   UNL     1      16.421  22.390  36.143  1.00  0.00     0.057 C 
ATOM      2  C   UNL     1      16.407  21.094  36.967  1.00  0.00     0.016 C 
ENDROOT
BRANCH   1   3
ATOM      3  C   UNL     1      17.542  22.377  35.123  1.00  0.00     0.135 C 
ATOM      4  O   UNL     1      17.694  23.329  34.370  1.00  0.00    -0.299 OA
BRANCH   3   5
ATOM      5  C   UNL     1      18.487  21.209  35.019  1.00  0.00     0.072 C 
ATOM      6  C   UNL     1      19.125  21.152  33.634  1.00  0.00     0.012 C 
ENDBRANCH   3   5
ENDBRANCH   1   3
BRANCH   1   7
ATOM      7  C   UNL     1      16.477  23.650  37.032  1.00  0.00     0.038 C 
BRANCH   7   8
ATOM      8  C   UNL     1      15.117  24.151  37.449  1.00  0.00    -0.034 C 
ATOM      9  C   UNL     1      14.832  24.435  38.723  1.00  0.00     0.004 C 
ENDBRANCH   7   8
ENDBRANCH   1   7
TORSDOF 4
ENDMDL
MODEL 3
REMARK VINA RESULT:    -3.528      1.672      3.940
REMARK INTER + INTRA:          -4.648
REMARK INTER:                  -4.374
REMARK INTRA:                  -0.274
REMARK UNBOUND:                -0.294
REMARK SMILES C=CC[C@H](C)C(=O)CC
REMARK SMILES IDX 4 1 5 2 6 3 7 4 8 5 9 6 3 7 2 8 1 9
REMARK H PARENT
REMARK Flexibility Score: inf
ROOT
ATOM      1  C   UNL     1       3.261  23.887  38.713  1.00  0.00     0.057 C 
ATOM      2  C   UNL     1       4.012  22.614  39.129  1.00  0.00     0.016 C 
ENDROOT
BRANCH   1   3
ATOM      3  C   UNL     1       2.791  24.665  39.927  1.00  0.00     0.135 C 
ATOM      4  O   UNL     1       3.530  24.794  40.893  1.00  0.00    -0.299 OA
BRANCH   3   5
ATOM      5  C   UNL     1       1.423  25.296  39.966  1.00  0.00     0.072 C 
ATOM      6  C   UNL     1       1.520  26.806  39.778  1.00  0.00     0.012 C 
ENDBRANCH   3   5
ENDBRANCH   1   3
BRANCH   1   7
ATOM      7  C   UNL     1       2.099  23.594  37.741  1.00  0.00     0.038 C 
BRANCH   7   8
ATOM      8  C   UNL     1       1.922  22.126  37.443  1.00  0.00    -0.034 C 
ATOM      9  C   UNL     1       0.772  21.492  37.687  1.00  0.00     0.004 C 
ENDBRANCH   7   8
ENDBRANCH   1   7
TORSDOF 4
ENDMDL
MODEL 4
REMARK VINA RESULT:    -3.521     14.533     15.535
REMARK INTER + INTRA:          -4.639
REMARK INTER:                  -4.440
REMARK INTRA:                  -0.198
REMARK UNBOUND:                -0.294
REMARK SMILES C=CC[C@H](C)C(=O)CC
REMARK SMILES IDX 4 1 5 2 6 3 7 4 8 5 9 6 3 7 2 8 1 9
REMARK H PARENT
REMARK Flexibility Score: inf
ROOT
ATOM      1  C   UNL     1       2.180  10.738  47.827  1.00  0.00     0.057 C 
ATOM      2  C   UNL     1       1.974   9.246  48.126  1.00  0.00     0.016 C 
ENDROOT
BRANCH   1   3
ATOM      3  C   UNL     1       3.541  10.990  47.211  1.00  0.00     0.135 C 
ATOM      4  O   UNL     1       3.796  12.080  46.718  1.00  0.00    -0.299 OA
BRANCH   3   5
ATOM      5  C   UNL     1       4.601   9.920  47.198  1.00  0.00     0.072 C 
ATOM      6  C   UNL     1       5.982  10.524  47.430  1.00  0.00     0.012 C 
ENDBRANCH   3   5
ENDBRANCH   1   3
BRANCH   1   7
ATOM      7  C   UNL     1       1.946  11.623  49.070  1.00  0.00     0.038 C 
BRANCH   7   8
ATOM      8  C   UNL     1       1.213  12.906  48.764  1.00  0.00    -0.034 C 
ATOM      9  C   UNL     1      -0.043  12.908  48.311  1.00  0.00     0.004 C 
ENDBRANCH   7   8
ENDBRANCH   1   7
TORSDOF 4
ENDMDL
MODEL 5
REMARK VINA RESULT:    -3.492     20.838     22.223
REMARK INTER + INTRA:          -4.603
REMARK INTER:                  -4.306
REMARK INTRA:                  -0.297
REMARK UNBOUND:                -0.294
REMARK SMILES C=CC[C@H](C)C(=O)CC
REMARK SMILES IDX 4 1 5 2 6 3 7 4 8 5 9 6 3 7 2 8 1 9
REMARK H PARENT
REMARK Flexibility Score: inf
ROOT
ATOM      1  C   UNL     1      18.034  12.130  52.138  1.00  0.00     0.057 C 
ATOM      2  C   UNL     1      18.751  11.197  53.125  1.00  0.00     0.016 C 
ENDROOT
BRANCH   1   3
ATOM      3  C   UNL     1      16.977  11.383  51.348  1.00  0.00     0.135 C 
ATOM      4  O   UNL     1      16.656  10.250  51.679  1.00  0.00    -0.299 OA
BRANCH   3   5
ATOM      5  C   UNL     1      16.303  12.014  50.158  1.00  0.00     0.072 C 
ATOM      6  C   UNL     1      16.113  10.993  49.041  1.00  0.00     0.012 C 
ENDBRANCH   3   5
ENDBRANCH   1   3
BRANCH   1   7
ATOM      7  C   UNL     1      19.018  12.872  51.210  1.00  0.00     0.038 C 
BRANCH   7   8
ATOM      8  C   UNL     1      19.024  14.366  51.412  1.00  0.00    -0.034 C 
ATOM      9  C   UNL     1      18.749  14.917  52.597  1.00  0.00     0.004 C 
ENDBRANCH   7   8
ENDBRANCH   1   7
TORSDOF 4
ENDMDL
MODEL 6
REMARK VINA RESULT:    -3.480     21.835     22.670
REMARK INTER + INTRA:          -4.588
REMARK INTER:                  -4.416
REMARK INTRA:                  -0.172
REMARK UNBOUND:                -0.294
REMARK SMILES C=CC[C@H](C)C(=O)CC
REMARK SMILES IDX 4 1 5 2 6 3 7 4 8 5 9 6 3 7 2 8 1 9
REMARK H PARENT
REMARK Flexibility Score: inf
ROOT
ATOM      1  C   UNL     1      18.395  11.970  51.754  1.00  0.00     0.057 C 
ATOM      2  C   UNL     1      18.723  11.360  53.125  1.00  0.00     0.016 C 
ENDROOT
BRANCH   1   3
ATOM      3  C   UNL     1      18.752  13.443  51.711  1.00  0.00     0.135 C 
ATOM      4  O   UNL     1      18.884  14.007  50.634  1.00  0.00    -0.299 OA
BRANCH   3   5
ATOM      5  C   UNL     1      18.941  14.236  52.978  1.00  0.00     0.072 C 
ATOM      6  C   UNL     1      18.481  15.677  52.785  1.00  0.00     0.012 C 
ENDBRANCH   3   5
ENDBRANCH   1   3
BRANCH   1   7
ATOM      7  C   UNL     1      16.930  11.727  51.338  1.00  0.00     0.038 C 
BRANCH   7   8
ATOM      8  C   UNL     1      16.556  10.267  51.277  1.00  0.00    -0.034 C 
ATOM      9  C   UNL     1      16.253   9.666  50.124  1.00  0.00     0.004 C 
ENDBRANCH   7   8
ENDBRANCH   1   7
TORSDOF 4
ENDMDL
MODEL 7
REMARK VINA RESULT:    -3.429     11.951     14.083
REMARK INTER + INTRA:          -4.526
REMARK INTER:                  -4.313
REMARK INTRA:                  -0.213
REMARK UNBOUND:                -0.294
REMARK SMILES C=CC[C@H](C)C(=O)CC
REMARK SMILES IDX 4 1 5 2 6 3 7 4 8 5 9 6 3 7 2 8 1 9
REMARK H PARENT
REMARK Flexibility Score: inf
ROOT
ATOM      1  C   UNL     1      17.268  22.020  36.528  1.00  0.00     0.057 C 
ATOM      2  C   UNL     1      18.065  20.832  37.087  1.00  0.00     0.016 C 
ENDROOT
BRANCH   1   3
ATOM      3  C   UNL     1      15.782  21.846  36.775  1.00  0.00     0.135 C 
ATOM      4  O   UNL     1      15.363  20.809  37.270  1.00  0.00    -0.299 OA
BRANCH   3   5
ATOM      5  C   UNL     1      14.802  22.935  36.427  1.00  0.00     0.072 C 
ATOM      6  C   UNL     1      14.942  24.114  37.385  1.00  0.00     0.012 C 
ENDBRANCH   3   5
ENDBRANCH   1   3
BRANCH   1   7
ATOM      7  C   UNL     1      17.570  22.281  35.038  1.00  0.00     0.038 C 
BRANCH   7   8
ATOM      8  C   UNL     1      18.748  21.496  34.517  1.00  0.00    -0.034 C 
ATOM      9  C   UNL     1      19.125  21.559  33.237  1.00  0.00     0.004 C 
ENDBRANCH   7   8
ENDBRANCH   1   7
TORSDOF 4
ENDMDL
MODEL 8
REMARK VINA RESULT:    -3.418     20.013     21.883
REMARK INTER + INTRA:          -4.511
REMARK INTER:                  -4.091
REMARK INTRA:                  -0.420
REMARK UNBOUND:                -0.294
REMARK SMILES C=CC[C@H](C)C(=O)CC
REMARK SMILES IDX 4 1 5 2 6 3 7 4 8 5 9 6 3 7 2 8 1 9
REMARK H PARENT
REMARK Flexibility Score: inf
ROOT
ATOM      1  C   UNL     1      17.298  11.769  51.539  1.00  0.00     0.057 C 
ATOM      2  C   UNL     1      16.870  10.369  52.003  1.00  0.00     0.016 C 
ENDROOT
BRANCH   1   3
ATOM      3  C   UNL     1      17.211  11.895  50.030  1.00  0.00     0.135 C 
ATOM      4  O   UNL     1      16.596  11.060  49.383  1.00  0.00    -0.299 OA
BRANCH   3   5
ATOM      5  C   UNL     1      17.867  13.041  49.305  1.00  0.00     0.072 C 
ATOM      6  C   UNL     1      17.030  14.310  49.433  1.00  0.00     0.012 C 
ENDBRANCH   3   5
ENDBRANCH   1   3
BRANCH   1   7
ATOM      7  C   UNL     1      18.695  12.160  52.063  1.00  0.00     0.038 C 
BRANCH   7   8
ATOM      8  C   UNL     1      18.662  13.245  53.110  1.00  0.00    -0.034 C 
ATOM      9  C   UNL     1      18.731  14.539  52.786  1.00  0.00     0.004 C 
ENDBRANCH   7   8
ENDBRANCH   1   7
TORSDOF 4
ENDMDL
MODEL 9
REMARK VINA RESULT:    -3.006     20.871     22.037
REMARK INTER + INTRA:          -4.003
REMARK INTER:                  -3.852
REMARK INTRA:                  -0.151
REMARK UNBOUND:                -0.294
REMARK SMILES C=CC[C@H](C)C(=O)CC
REMARK SMILES IDX 4 1 5 2 6 3 7 4 8 5 9 6 3 7 2 8 1 9
REMARK H PARENT
REMARK Flexibility Score: inf
ROOT
ATOM      1  C   UNL     1      16.978  11.412  51.417  1.00  0.00     0.057 C 
ATOM      2  C   UNL     1      17.223  10.239  52.376  1.00  0.00     0.016 C 
ENDROOT
BRANCH   1   3
ATOM      3  C   UNL     1      16.593  10.918  50.036  1.00  0.00     0.135 C 
ATOM      4  O   UNL     1      16.582  11.695  49.092  1.00  0.00    -0.299 OA
BRANCH   3   5
ATOM      5  C   UNL     1      16.227   9.477  49.798  1.00  0.00     0.072 C 
ATOM      6  C   UNL     1      15.395   9.333  48.528  1.00  0.00     0.012 C 
ENDBRANCH   3   5
ENDBRANCH   1   3
BRANCH   1   7
ATOM      7  C   UNL     1      18.175  12.384  51.359  1.00  0.00     0.038 C 
BRANCH   7   8
ATOM      8  C   UNL     1      18.762  12.694  52.714  1.00  0.00    -0.034 C 
ATOM      9  C   UNL     1      18.957  13.950  53.125  1.00  0.00     0.004 C 
ENDBRANCH   7   8
ENDBRANCH   1   7
TORSDOF 4
ENDMDL
