MODEL 1
REMARK VINA RESULT:    -3.873      0.000      0.000
REMARK INTER + INTRA:          -5.296
REMARK INTER:                  -5.005
REMARK INTRA:                  -0.291
REMARK UNBOUND:                -0.291
REMARK SMILES CCCCCCC(=O)[O-]
REMARK SMILES IDX 5 1 6 2 7 3 8 4 9 5 4 6 3 7 2 8 1 9
REMARK H PARENT
REMARK Flexibility Score: inf
ROOT
ATOM      1  C   UNL     1     140.374 135.307 130.225  1.00  0.00     0.006 C 
ENDROOT
BRANCH   1   2
ATOM      2  C   UNL     1     139.406 134.310 129.576  1.00  0.00     0.053 C 
BRANCH   2   3
ATOM      3  C   UNL     1     138.557 133.613 130.595  1.00  0.00     0.041 C 
ATOM      4  O   UNL     1     139.075 132.787 131.392  1.00  0.00    -0.550 OA
ATOM      5  O   UNL     1     137.189 133.850 130.641  1.00  0.00    -0.550 OA
ENDBRANCH   2   3
ENDBRANCH   1   2
BRANCH   1   6
ATOM      6  C   UNL     1     139.640 136.401 131.013  1.00  0.00     0.000 C 
BRANCH   6   7
ATOM      7  C   UNL     1     138.822 137.298 130.076  1.00  0.00    -0.000 C 
BRANCH   7   8
ATOM      8  C   UNL     1     137.415 137.539 130.635  1.00  0.00    -0.003 C 
ATOM      9  C   UNL     1     136.907 138.930 130.267  1.00  0.00     0.004 C 
ENDBRANCH   7   8
ENDBRANCH   6   7
ENDBRANCH   1   6
TORSDOF 5
ENDMDL
MODEL 2
REMARK VINA RESULT:    -3.863      2.824      4.977
REMARK INTER + INTRA:          -5.283
REMARK INTER:                  -4.993
REMARK INTRA:                  -0.290
REMARK UNBOUND:                -0.291
REMARK SMILES CCCCCCC(=O)[O-]
REMARK SMILES IDX 5 1 6 2 7 3 8 4 9 5 4 6 3 7 2 8 1 9
REMARK H PARENT
REMARK Flexibility Score: inf
ROOT
ATOM      1  C   UNL     1     138.455 133.375 130.649  1.00  0.00     0.006 C 
ENDROOT
BRANCH   1   2
ATOM      2  C   UNL     1     139.624 134.020 129.893  1.00  0.00     0.053 C 
BRANCH   2   3
ATOM      3  C   UNL     1     140.238 135.144 130.671  1.00  0.00     0.041 C 
ATOM      4  O   UNL     1     140.946 134.901 131.683  1.00  0.00    -0.550 OA
ATOM      5  O   UNL     1     139.999 136.461 130.298  1.00  0.00    -0.550 OA
ENDBRANCH   2   3
ENDBRANCH   1   2
BRANCH   1   6
ATOM      6  C   UNL     1     138.694 131.884 130.925  1.00  0.00     0.000 C 
BRANCH   6   7
ATOM      7  C   UNL     1     139.485 131.233 129.784  1.00  0.00    -0.000 C 
BRANCH   7   8
ATOM      8  C   UNL     1     138.612 130.243 129.005  1.00  0.00    -0.003 C 
ATOM      9  C   UNL     1     137.922 130.924 127.827  1.00  0.00     0.004 C 
ENDBRANCH   7   8
ENDBRANCH   6   7
ENDBRANCH   1   6
TORSDOF 5
ENDMDL
MODEL 3
REMARK VINA RESULT:    -3.849      2.823      5.035
REMARK INTER + INTRA:          -5.266
REMARK INTER:                  -4.986
REMARK INTRA:                  -0.280
REMARK UNBOUND:                -0.291
REMARK SMILES CCCCCCC(=O)[O-]
REMARK SMILES IDX 5 1 6 2 7 3 8 4 9 5 4 6 3 7 2 8 1 9
REMARK H PARENT
REMARK Flexibility Score: inf
ROOT
ATOM      1  C   UNL     1     138.437 133.356 130.717  1.00  0.00     0.006 C 
ENDROOT
BRANCH   1   2
ATOM      2  C   UNL     1     139.585 133.995 129.924  1.00  0.00     0.053 C 
BRANCH   2   3
ATOM      3  C   UNL     1     140.220 135.125 130.675  1.00  0.00     0.041 C 
ATOM      4  O   UNL     1     140.064 136.312 130.283  1.00  0.00    -0.550 OA
ATOM      5  O   UNL     1     141.012 134.865 131.786  1.00  0.00    -0.550 OA
ENDBRANCH   2   3
ENDBRANCH   1   2
BRANCH   1   6
ATOM      6  C   UNL     1     138.580 131.831 130.820  1.00  0.00     0.000 C 
BRANCH   6   7
ATOM      7  C   UNL     1     139.384 131.274 129.638  1.00  0.00    -0.000 C 
BRANCH   7   8
ATOM      8  C   UNL     1     138.530 130.323 128.792  1.00  0.00    -0.003 C 
ATOM      9  C   UNL     1     137.645 131.096 127.819  1.00  0.00     0.004 C 
ENDBRANCH   7   8
ENDBRANCH   6   7
ENDBRANCH   1   6
TORSDOF 5
ENDMDL
MODEL 4
REMARK VINA RESULT:    -3.809      2.433      4.822
REMARK INTER + INTRA:          -5.213
REMARK INTER:                  -5.041
REMARK INTRA:                  -0.173
REMARK UNBOUND:                -0.291
REMARK SMILES CCCCCCC(=O)[O-]
REMARK SMILES IDX 5 1 6 2 7 3 8 4 9 5 4 6 3 7 2 8 1 9
REMARK H PARENT
REMARK Flexibility Score: inf
ROOT
ATOM      1  C   UNL     1     139.643 134.185 129.871  1.00  0.00     0.006 C 
ENDROOT
BRANCH   1   2
ATOM      2  C   UNL     1     140.204 135.536 130.334  1.00  0.00     0.053 C 
BRANCH   2   3
ATOM      3  C   UNL     1     139.127 136.569 130.468  1.00  0.00     0.041 C 
ATOM      4  O   UNL     1     139.397 137.789 130.311  1.00  0.00    -0.550 OA
ATOM      5  O   UNL     1     137.833 136.188 130.802  1.00  0.00    -0.550 OA
ENDBRANCH   2   3
ENDBRANCH   1   2
BRANCH   1   6
ATOM      6  C   UNL     1     139.718 133.117 130.972  1.00  0.00     0.000 C 
BRANCH   6   7
ATOM      7  C   UNL     1     138.688 132.006 130.731  1.00  0.00    -0.000 C 
BRANCH   7   8
ATOM      8  C   UNL     1     139.308 130.840 129.953  1.00  0.00    -0.003 C 
ATOM      9  C   UNL     1     138.534 130.564 128.667  1.00  0.00     0.004 C 
ENDBRANCH   7   8
ENDBRANCH   6   7
ENDBRANCH   1   6
TORSDOF 5
ENDMDL
MODEL 5
REMARK VINA RESULT:    -3.799      2.373      3.395
REMARK INTER + INTRA:          -5.201
REMARK INTER:                  -4.989
REMARK INTRA:                  -0.212
REMARK UNBOUND:                -0.291
REMARK SMILES CCCCCCC(=O)[O-]
REMARK SMILES IDX 5 1 6 2 7 3 8 4 9 5 4 6 3 7 2 8 1 9
REMARK H PARENT
REMARK Flexibility Score: inf
ROOT
ATOM      1  C   UNL     1     139.231 132.545 130.625  1.00  0.00     0.006 C 
ENDROOT
BRANCH   1   2
ATOM      2  C   UNL     1     139.700 131.344 129.794  1.00  0.00     0.053 C 
BRANCH   2   3
ATOM      3  C   UNL     1     138.548 130.590 129.205  1.00  0.00     0.041 C 
ATOM      4  O   UNL     1     138.336 130.625 127.964  1.00  0.00    -0.550 OA
ATOM      5  O   UNL     1     137.686 129.878 130.030  1.00  0.00    -0.550 OA
ENDBRANCH   2   3
ENDBRANCH   1   2
BRANCH   1   6
ATOM      6  C   UNL     1     138.761 133.712 129.746  1.00  0.00     0.000 C 
BRANCH   6   7
ATOM      7  C   UNL     1     139.905 134.700 129.485  1.00  0.00    -0.000 C 
BRANCH   7   8
ATOM      8  C   UNL     1     140.244 135.496 130.750  1.00  0.00    -0.003 C 
ATOM      9  C   UNL     1     139.308 136.689 130.918  1.00  0.00     0.004 C 
ENDBRANCH   7   8
ENDBRANCH   6   7
ENDBRANCH   1   6
TORSDOF 5
ENDMDL
MODEL 6
REMARK VINA RESULT:    -3.784      1.298      1.822
REMARK INTER + INTRA:          -5.182
REMARK INTER:                  -4.819
REMARK INTRA:                  -0.362
REMARK UNBOUND:                -0.291
REMARK SMILES CCCCCCC(=O)[O-]
REMARK SMILES IDX 5 1 6 2 7 3 8 4 9 5 4 6 3 7 2 8 1 9
REMARK H PARENT
REMARK Flexibility Score: inf
ROOT
ATOM      1  C   UNL     1     140.018 133.467 131.081  1.00  0.00     0.006 C 
ENDROOT
BRANCH   1   2
ATOM      2  C   UNL     1     139.044 133.372 129.899  1.00  0.00     0.053 C 
BRANCH   2   3
ATOM      3  C   UNL     1     137.703 132.855 130.322  1.00  0.00     0.041 C 
ATOM      4  O   UNL     1     137.293 131.741 129.902  1.00  0.00    -0.550 OA
ATOM      5  O   UNL     1     136.892 133.619 131.152  1.00  0.00    -0.550 OA
ENDBRANCH   2   3
ENDBRANCH   1   2
BRANCH   1   6
ATOM      6  C   UNL     1     140.562 134.890 131.273  1.00  0.00     0.000 C 
BRANCH   6   7
ATOM      7  C   UNL     1     140.075 135.820 130.154  1.00  0.00    -0.000 C 
BRANCH   7   8
ATOM      8  C   UNL     1     139.431 137.085 130.733  1.00  0.00    -0.003 C 
ATOM      9  C   UNL     1     137.909 136.985 130.715  1.00  0.00     0.004 C 
ENDBRANCH   7   8
ENDBRANCH   6   7
ENDBRANCH   1   6
TORSDOF 5
ENDMDL
MODEL 7
REMARK VINA RESULT:    -3.705      3.124      4.554
REMARK INTER + INTRA:          -5.079
REMARK INTER:                  -4.818
REMARK INTRA:                  -0.261
REMARK UNBOUND:                -0.291
REMARK SMILES CCCCCCC(=O)[O-]
REMARK SMILES IDX 5 1 6 2 7 3 8 4 9 5 4 6 3 7 2 8 1 9
REMARK H PARENT
REMARK Flexibility Score: inf
ROOT
ATOM      1  C   UNL     1     138.628 130.494 129.386  1.00  0.00     0.006 C 
ENDROOT
BRANCH   1   2
ATOM      2  C   UNL     1     138.101 130.815 127.981  1.00  0.00     0.053 C 
BRANCH   2   3
ATOM      3  C   UNL     1     136.815 131.582 128.029  1.00  0.00     0.041 C 
ATOM      4  O   UNL     1     136.772 132.773 127.622  1.00  0.00    -0.550 OA
ATOM      5  O   UNL     1     135.673 130.993 128.557  1.00  0.00    -0.550 OA
ENDBRANCH   2   3
ENDBRANCH   1   2
BRANCH   1   6
ATOM      6  C   UNL     1     139.780 131.420 129.800  1.00  0.00     0.000 C 
BRANCH   6   7
ATOM      7  C   UNL     1     139.268 132.587 130.654  1.00  0.00    -0.000 C 
BRANCH   7   8
ATOM      8  C   UNL     1     139.401 133.917 129.904  1.00  0.00    -0.003 C 
ATOM      9  C   UNL     1     140.355 134.863 130.627  1.00  0.00     0.004 C 
ENDBRANCH   7   8
ENDBRANCH   6   7
ENDBRANCH   1   6
TORSDOF 5
ENDMDL
MODEL 8
REMARK VINA RESULT:    -3.686      3.997      5.124
REMARK INTER + INTRA:          -5.055
REMARK INTER:                  -4.627
REMARK INTRA:                  -0.428
REMARK UNBOUND:                -0.291
REMARK SMILES CCCCCCC(=O)[O-]
REMARK SMILES IDX 5 1 6 2 7 3 8 4 9 5 4 6 3 7 2 8 1 9
REMARK H PARENT
REMARK Flexibility Score: inf
ROOT
ATOM      1  C   UNL     1     138.523 130.286 129.218  1.00  0.00     0.006 C 
ENDROOT
BRANCH   1   2
ATOM      2  C   UNL     1     139.686 131.113 129.780  1.00  0.00     0.053 C 
BRANCH   2   3
ATOM      3  C   UNL     1     139.205 132.344 130.486  1.00  0.00     0.041 C 
ATOM      4  O   UNL     1     139.382 133.479 129.970  1.00  0.00    -0.550 OA
ATOM      5  O   UNL     1     138.593 132.240 131.729  1.00  0.00    -0.550 OA
ENDBRANCH   2   3
ENDBRANCH   1   2
BRANCH   1   6
ATOM      6  C   UNL     1     138.024 130.826 127.870  1.00  0.00     0.000 C 
BRANCH   6   7
ATOM      7  C   UNL     1     136.573 131.312 127.976  1.00  0.00    -0.000 C 
BRANCH   7   8
ATOM      8  C   UNL     1     135.948 130.892 129.311  1.00  0.00    -0.003 C 
ATOM      9  C   UNL     1     135.410 132.100 130.072  1.00  0.00     0.004 C 
ENDBRANCH   7   8
ENDBRANCH   6   7
ENDBRANCH   1   6
TORSDOF 5
ENDMDL
MODEL 9
REMARK VINA RESULT:    -3.666      3.320      5.456
REMARK INTER + INTRA:          -5.028
REMARK INTER:                  -4.599
REMARK INTRA:                  -0.429
REMARK UNBOUND:                -0.291
REMARK SMILES CCCCCCC(=O)[O-]
REMARK SMILES IDX 5 1 6 2 7 3 8 4 9 5 4 6 3 7 2 8 1 9
REMARK H PARENT
REMARK Flexibility Score: inf
ROOT
ATOM      1  C   UNL     1     136.611 132.838 127.412  1.00  0.00     0.006 C 
ENDROOT
BRANCH   1   2
ATOM      2  C   UNL     1     136.058 133.752 128.514  1.00  0.00     0.053 C 
BRANCH   2   3
ATOM      3  C   UNL     1     137.024 133.901 129.650  1.00  0.00     0.041 C 
ATOM      4  O   UNL     1     138.112 134.512 129.481  1.00  0.00    -0.550 OA
ATOM      5  O   UNL     1     136.738 133.334 130.886  1.00  0.00    -0.550 OA
ENDBRANCH   2   3
ENDBRANCH   1   2
BRANCH   1   6
ATOM      6  C   UNL     1     136.654 131.366 127.846  1.00  0.00     0.000 C 
BRANCH   6   7
ATOM      7  C   UNL     1     138.089 130.826 127.816  1.00  0.00    -0.000 C 
BRANCH   7   8
ATOM      8  C   UNL     1     138.506 130.296 129.193  1.00  0.00    -0.003 C 
ATOM      9  C   UNL     1     139.615 131.151 129.799  1.00  0.00     0.004 C 
ENDBRANCH   7   8
ENDBRANCH   6   7
ENDBRANCH   1   6
TORSDOF 5
ENDMDL
