MODEL 1
REMARK VINA RESULT:    20.857      0.000      0.000
REMARK INTER + INTRA:          55.002
REMARK INTER:                  52.559
REMARK INTRA:                   2.443
REMARK UNBOUND:                 2.443
REMARK SMILES CCCCCCCCCCCCCCCCCCCCCCCCCCCC(=O)[O-]
REMARK SMILES IDX 15 1 16 2 17 3 18 4 19 5 20 6 21 7 22 8 23 9 24 10 25 11
REMARK SMILES IDX 26 12 27 13 28 14 29 15 30 16 14 17 13 18 12 19 11 20 10 21
REMARK SMILES IDX 9 22 8 23 7 24 6 25 5 26 4 27 3 28 2 29 1 30
REMARK H PARENT
REMARK Flexibility Score: inf
ROOT
ATOM      1  C   UNL     1       4.752  42.927   9.426  1.00  0.00     0.000 C 
ENDROOT
BRANCH   1   2
ATOM      2  C   UNL     1       3.898  42.632  10.677  1.00  0.00     0.000 C 
BRANCH   2   3
ATOM      3  C   UNL     1       4.315  41.384  11.477  1.00  0.00     0.000 C 
BRANCH   3   4
ATOM      4  C   UNL     1       3.727  41.356  12.896  1.00  0.00     0.000 C 
BRANCH   4   5
ATOM      5  C   UNL     1       2.682  40.238  13.031  1.00  0.00     0.000 C 
BRANCH   5   6
ATOM      6  C   UNL     1       2.698  39.577  14.417  1.00  0.00     0.000 C 
BRANCH   6   7
ATOM      7  C   UNL     1       3.470  38.250  14.433  1.00  0.00     0.000 C 
BRANCH   7   8
ATOM      8  C   UNL     1       4.983  38.500  14.434  1.00  0.00     0.000 C 
BRANCH   8   9
ATOM      9  C   UNL     1       5.434  39.169  15.737  1.00  0.00     0.000 C 
BRANCH   9  10
ATOM     10  C   UNL     1       6.352  40.366  15.449  1.00  0.00     0.000 C 
BRANCH  10  11
ATOM     11  C   UNL     1       7.326  40.110  14.284  1.00  0.00     0.000 C 
BRANCH  11  12
ATOM     12  C   UNL     1       8.751  40.657  14.494  1.00  0.00     0.006 C 
BRANCH  12  13
ATOM     13  C   UNL     1       9.828  39.795  13.822  1.00  0.00     0.053 C 
BRANCH  13  14
ATOM     14  C   UNL     1      10.742  39.205  14.848  1.00  0.00     0.041 C 
ATOM     15  O   UNL     1      11.938  38.945  14.555  1.00  0.00    -0.550 OA
ATOM     16  O   UNL     1      10.263  38.906  16.118  1.00  0.00    -0.550 OA
ENDBRANCH  13  14
ENDBRANCH  12  13
ENDBRANCH  11  12
ENDBRANCH  10  11
ENDBRANCH   9  10
ENDBRANCH   8   9
ENDBRANCH   7   8
ENDBRANCH   6   7
ENDBRANCH   5   6
ENDBRANCH   4   5
ENDBRANCH   3   4
ENDBRANCH   2   3
ENDBRANCH   1   2
BRANCH   1  17
ATOM     17  C   UNL     1       6.166  42.320   9.437  1.00  0.00     0.000 C 
BRANCH  17  18
ATOM     18  C   UNL     1       6.841  42.347   8.055  1.00  0.00     0.000 C 
BRANCH  18  19
ATOM     19  C   UNL     1       5.952  42.995   6.981  1.00  0.00     0.000 C 
BRANCH  19  20
ATOM     20  C   UNL     1       6.756  43.515   5.779  1.00  0.00     0.000 C 
BRANCH  20  21
ATOM     21  C   UNL     1       8.262  43.408   6.041  1.00  0.00     0.000 C 
BRANCH  21  22
ATOM     22  C   UNL     1       8.537  42.844   7.443  1.00  0.00    -0.000 C 
BRANCH  22  23
ATOM     23  C   UNL     1       9.915  42.173   7.551  1.00  0.00    -0.000 C 
BRANCH  23  24
ATOM     24  C   UNL     1       9.822  40.693   7.965  1.00  0.00    -0.000 C 
BRANCH  24  25
ATOM     25  C   UNL     1       9.379  39.775   6.812  1.00  0.00    -0.000 C 
BRANCH  25  26
ATOM     26  C   UNL     1       8.704  40.490   5.621  1.00  0.00    -0.000 C 
BRANCH  26  27
ATOM     27  C   UNL     1       9.629  40.775   4.421  1.00  0.00    -0.000 C 
BRANCH  27  28
ATOM     28  C   UNL     1       8.875  41.169   3.131  1.00  0.00    -0.000 C 
BRANCH  28  29
ATOM     29  C   UNL     1       9.694  40.947   1.848  1.00  0.00    -0.003 C 
ATOM     30  C   UNL     1       9.355  41.946   0.744  1.00  0.00     0.004 C 
ENDBRANCH  28  29
ENDBRANCH  27  28
ENDBRANCH  26  27
ENDBRANCH  25  26
ENDBRANCH  24  25
ENDBRANCH  23  24
ENDBRANCH  22  23
ENDBRANCH  21  22
ENDBRANCH  20  21
ENDBRANCH  19  20
ENDBRANCH  18  19
ENDBRANCH  17  18
ENDBRANCH   1  17
TORSDOF 26
ENDMDL
MODEL 2
REMARK VINA RESULT:    22.811      1.229      1.932
REMARK INTER + INTRA:          59.925
REMARK INTER:                  59.923
REMARK INTRA:                   0.002
REMARK UNBOUND:                 2.443
REMARK SMILES CCCCCCCCCCCCCCCCCCCCCCCCCCCC(=O)[O-]
REMARK SMILES IDX 15 1 16 2 17 3 18 4 19 5 20 6 21 7 22 8 23 9 24 10 25 11
REMARK SMILES IDX 26 12 27 13 28 14 29 15 30 16 14 17 13 18 12 19 11 20 10 21
REMARK SMILES IDX 9 22 8 23 7 24 6 25 5 26 4 27 3 28 2 29 1 30
REMARK H PARENT
REMARK Flexibility Score: inf
ROOT
ATOM      1  C   UNL     1       4.867  43.113   9.166  1.00  0.00     0.000 C 
ENDROOT
BRANCH   1   2
ATOM      2  C   UNL     1       3.798  42.700  10.198  1.00  0.00     0.000 C 
BRANCH   2   3
ATOM      3  C   UNL     1       4.151  41.468  11.050  1.00  0.00     0.000 C 
BRANCH   3   4
ATOM      4  C   UNL     1       2.913  40.705  11.546  1.00  0.00     0.000 C 
BRANCH   4   5
ATOM      5  C   UNL     1       2.853  40.701  13.081  1.00  0.00     0.000 C 
BRANCH   5   6
ATOM      6  C   UNL     1       4.203  41.048  13.727  1.00  0.00     0.000 C 
BRANCH   6   7
ATOM      7  C   UNL     1       4.591  40.072  14.848  1.00  0.00     0.000 C 
BRANCH   7   8
ATOM      8  C   UNL     1       6.115  39.935  14.947  1.00  0.00     0.000 C 
BRANCH   8   9
ATOM      9  C   UNL     1       6.676  40.788  16.091  1.00  0.00     0.000 C 
BRANCH   9  10
ATOM     10  C   UNL     1       8.183  41.024  15.909  1.00  0.00     0.000 C 
BRANCH  10  11
ATOM     11  C   UNL     1       9.010  39.730  16.012  1.00  0.00     0.000 C 
BRANCH  11  12
ATOM     12  C   UNL     1       9.295  39.031  14.669  1.00  0.00     0.006 C 
BRANCH  12  13
ATOM     13  C   UNL     1      10.298  37.876  14.797  1.00  0.00     0.053 C 
BRANCH  13  14
ATOM     14  C   UNL     1      11.677  38.404  15.039  1.00  0.00     0.041 C 
ATOM     15  O   UNL     1      12.270  38.152  16.121  1.00  0.00    -0.550 OA
ATOM     16  O   UNL     1      12.291  39.208  14.087  1.00  0.00    -0.550 OA
ENDBRANCH  13  14
ENDBRANCH  12  13
ENDBRANCH  11  12
ENDBRANCH  10  11
ENDBRANCH   9  10
ENDBRANCH   8   9
ENDBRANCH   7   8
ENDBRANCH   6   7
ENDBRANCH   5   6
ENDBRANCH   4   5
ENDBRANCH   3   4
ENDBRANCH   2   3
ENDBRANCH   1   2
BRANCH   1  17
ATOM     17  C   UNL     1       6.262  42.500   9.382  1.00  0.00     0.000 C 
BRANCH  17  18
ATOM     18  C   UNL     1       7.111  42.472   8.100  1.00  0.00     0.000 C 
BRANCH  18  19
ATOM     19  C   UNL     1       6.298  42.849   6.850  1.00  0.00     0.000 C 
BRANCH  19  20
ATOM     20  C   UNL     1       7.088  43.734   5.873  1.00  0.00     0.000 C 
BRANCH  20  21
ATOM     21  C   UNL     1       8.499  43.179   5.650  1.00  0.00     0.000 C 
BRANCH  21  22
ATOM     22  C   UNL     1       8.709  41.879   6.439  1.00  0.00    -0.000 C 
BRANCH  22  23
ATOM     23  C   UNL     1       9.790  40.979   5.821  1.00  0.00    -0.000 C 
BRANCH  23  24
ATOM     24  C   UNL     1       9.219  39.991   4.787  1.00  0.00    -0.000 C 
BRANCH  24  25
ATOM     25  C   UNL     1      10.223  39.639   3.676  1.00  0.00    -0.000 C 
BRANCH  25  26
ATOM     26  C   UNL     1      10.066  40.441   2.365  1.00  0.00    -0.000 C 
BRANCH  26  27
ATOM     27  C   UNL     1       9.314  41.780   2.505  1.00  0.00    -0.000 C 
BRANCH  27  28
ATOM     28  C   UNL     1       8.258  42.020   1.402  1.00  0.00    -0.000 C 
BRANCH  28  29
ATOM     29  C   UNL     1       8.728  42.991   0.305  1.00  0.00    -0.003 C 
ATOM     30  C   UNL     1       9.692  42.346  -0.689  1.00  0.00     0.004 C 
ENDBRANCH  28  29
ENDBRANCH  27  28
ENDBRANCH  26  27
ENDBRANCH  25  26
ENDBRANCH  24  25
ENDBRANCH  23  24
ENDBRANCH  22  23
ENDBRANCH  21  22
ENDBRANCH  20  21
ENDBRANCH  19  20
ENDBRANCH  18  19
ENDBRANCH  17  18
ENDBRANCH   1  17
TORSDOF 26
ENDMDL
MODEL 3
REMARK VINA RESULT:    22.854      9.019     11.506
REMARK INTER + INTRA:          60.034
REMARK INTER:                  61.720
REMARK INTRA:                  -1.686
REMARK UNBOUND:                 2.443
REMARK SMILES CCCCCCCCCCCCCCCCCCCCCCCCCCCC(=O)[O-]
REMARK SMILES IDX 15 1 16 2 17 3 18 4 19 5 20 6 21 7 22 8 23 9 24 10 25 11
REMARK SMILES IDX 26 12 27 13 28 14 29 15 30 16 14 17 13 18 12 19 11 20 10 21
REMARK SMILES IDX 9 22 8 23 7 24 6 25 5 26 4 27 3 28 2 29 1 30
REMARK H PARENT
REMARK Flexibility Score: inf
ROOT
ATOM      1  C   UNL     1       0.268  43.058   5.667  1.00  0.00     0.000 C 
ENDROOT
BRANCH   1   2
ATOM      2  C   UNL     1       1.710  43.118   5.122  1.00  0.00     0.000 C 
BRANCH   2   3
ATOM      3  C   UNL     1       2.793  43.440   6.168  1.00  0.00     0.000 C 
BRANCH   3   4
ATOM      4  C   UNL     1       2.230  43.594   7.589  1.00  0.00     0.000 C 
BRANCH   4   5
ATOM      5  C   UNL     1       3.349  43.929   8.585  1.00  0.00     0.000 C 
BRANCH   5   6
ATOM      6  C   UNL     1       4.193  42.702   8.963  1.00  0.00     0.000 C 
BRANCH   6   7
ATOM      7  C   UNL     1       5.503  43.079   9.670  1.00  0.00     0.000 C 
BRANCH   7   8
ATOM      8  C   UNL     1       6.712  42.512   8.914  1.00  0.00     0.000 C 
BRANCH   8   9
ATOM      9  C   UNL     1       6.459  42.486   7.402  1.00  0.00     0.000 C 
BRANCH   9  10
ATOM     10  C   UNL     1       7.755  42.756   6.626  1.00  0.00     0.000 C 
BRANCH  10  11
ATOM     11  C   UNL     1       8.791  41.626   6.772  1.00  0.00     0.000 C 
BRANCH  11  12
ATOM     12  C   UNL     1       8.902  40.685   5.558  1.00  0.00     0.006 C 
BRANCH  12  13
ATOM     13  C   UNL     1       9.088  41.436   4.233  1.00  0.00     0.053 C 
BRANCH  13  14
ATOM     14  C   UNL     1       9.769  40.564   3.226  1.00  0.00     0.041 C 
ATOM     15  O   UNL     1      10.902  40.881   2.778  1.00  0.00    -0.550 OA
ATOM     16  O   UNL     1       9.135  39.421   2.753  1.00  0.00    -0.550 OA
ENDBRANCH  13  14
ENDBRANCH  12  13
ENDBRANCH  11  12
ENDBRANCH  10  11
ENDBRANCH   9  10
ENDBRANCH   8   9
ENDBRANCH   7   8
ENDBRANCH   6   7
ENDBRANCH   5   6
ENDBRANCH   4   5
ENDBRANCH   3   4
ENDBRANCH   2   3
ENDBRANCH   1   2
BRANCH   1  17
ATOM     17  C   UNL     1      -0.747  43.959   4.941  1.00  0.00     0.000 C 
BRANCH  17  18
ATOM     18  C   UNL     1      -0.096  44.870   3.887  1.00  0.00     0.000 C 
BRANCH  18  19
ATOM     19  C   UNL     1      -1.027  46.010   3.441  1.00  0.00     0.000 C 
BRANCH  19  20
ATOM     20  C   UNL     1      -1.442  45.894   1.966  1.00  0.00     0.000 C 
BRANCH  20  21
ATOM     21  C   UNL     1      -2.256  47.117   1.529  1.00  0.00     0.000 C 
BRANCH  21  22
ATOM     22  C   UNL     1      -3.734  46.751   1.330  1.00  0.00    -0.000 C 
BRANCH  22  23
ATOM     23  C   UNL     1      -3.988  46.018   0.004  1.00  0.00    -0.000 C 
BRANCH  23  24
ATOM     24  C   UNL     1      -4.211  46.983  -1.174  1.00  0.00    -0.000 C 
BRANCH  24  25
ATOM     25  C   UNL     1      -4.939  46.325  -2.359  1.00  0.00    -0.000 C 
BRANCH  25  26
ATOM     26  C   UNL     1      -4.684  46.977  -3.736  1.00  0.00    -0.000 C 
BRANCH  26  27
ATOM     27  C   UNL     1      -3.211  47.329  -4.028  1.00  0.00    -0.000 C 
BRANCH  27  28
ATOM     28  C   UNL     1      -2.940  48.847  -4.125  1.00  0.00    -0.000 C 
BRANCH  28  29
ATOM     29  C   UNL     1      -1.922  49.357  -3.089  1.00  0.00    -0.003 C 
ATOM     30  C   UNL     1      -0.820  48.343  -2.788  1.00  0.00     0.004 C 
ENDBRANCH  28  29
ENDBRANCH  27  28
ENDBRANCH  26  27
ENDBRANCH  25  26
ENDBRANCH  24  25
ENDBRANCH  23  24
ENDBRANCH  22  23
ENDBRANCH  21  22
ENDBRANCH  20  21
ENDBRANCH  19  20
ENDBRANCH  18  19
ENDBRANCH  17  18
ENDBRANCH   1  17
TORSDOF 26
ENDMDL
MODEL 4
REMARK VINA RESULT:    22.970      2.345      4.115
REMARK INTER + INTRA:          60.326
REMARK INTER:                  58.478
REMARK INTRA:                   1.847
REMARK UNBOUND:                 2.443
REMARK SMILES CCCCCCCCCCCCCCCCCCCCCCCCCCCC(=O)[O-]
REMARK SMILES IDX 15 1 16 2 17 3 18 4 19 5 20 6 21 7 22 8 23 9 24 10 25 11
REMARK SMILES IDX 26 12 27 13 28 14 29 15 30 16 14 17 13 18 12 19 11 20 10 21
REMARK SMILES IDX 9 22 8 23 7 24 6 25 5 26 4 27 3 28 2 29 1 30
REMARK H PARENT
REMARK Flexibility Score: inf
ROOT
ATOM      1  C   UNL     1       3.927  42.747   9.502  1.00  0.00     0.000 C 
ENDROOT
BRANCH   1   2
ATOM      2  C   UNL     1       5.295  42.578  10.196  1.00  0.00     0.000 C 
BRANCH   2   3
ATOM      3  C   UNL     1       6.421  42.031   9.300  1.00  0.00     0.000 C 
BRANCH   3   4
ATOM      4  C   UNL     1       7.756  41.870  10.044  1.00  0.00     0.000 C 
BRANCH   4   5
ATOM      5  C   UNL     1       7.528  41.773  11.559  1.00  0.00     0.000 C 
BRANCH   5   6
ATOM      6  C   UNL     1       8.651  41.011  12.280  1.00  0.00     0.000 C 
BRANCH   6   7
ATOM      7  C   UNL     1       8.164  40.297  13.549  1.00  0.00     0.000 C 
BRANCH   7   8
ATOM      8  C   UNL     1       8.920  40.804  14.783  1.00  0.00     0.000 C 
BRANCH   8   9
ATOM      9  C   UNL     1       8.188  40.426  16.076  1.00  0.00     0.000 C 
BRANCH   9  10
ATOM     10  C   UNL     1       7.463  39.081  15.921  1.00  0.00     0.000 C 
BRANCH  10  11
ATOM     11  C   UNL     1       5.961  39.238  15.622  1.00  0.00     0.000 C 
BRANCH  11  12
ATOM     12  C   UNL     1       5.171  37.918  15.546  1.00  0.00     0.006 C 
BRANCH  12  13
ATOM     13  C   UNL     1       3.690  38.126  15.202  1.00  0.00     0.053 C 
BRANCH  13  14
ATOM     14  C   UNL     1       3.298  39.554  15.415  1.00  0.00     0.041 C 
ATOM     15  O   UNL     1       2.224  39.834  16.010  1.00  0.00    -0.550 OA
ATOM     16  O   UNL     1       4.099  40.576  14.922  1.00  0.00    -0.550 OA
ENDBRANCH  13  14
ENDBRANCH  12  13
ENDBRANCH  11  12
ENDBRANCH  10  11
ENDBRANCH   9  10
ENDBRANCH   8   9
ENDBRANCH   7   8
ENDBRANCH   6   7
ENDBRANCH   5   6
ENDBRANCH   4   5
ENDBRANCH   3   4
ENDBRANCH   2   3
ENDBRANCH   1   2
BRANCH   1  17
ATOM     17  C   UNL     1       3.972  43.395   8.107  1.00  0.00     0.000 C 
BRANCH  17  18
ATOM     18  C   UNL     1       5.328  44.051   7.793  1.00  0.00     0.000 C 
BRANCH  18  19
ATOM     19  C   UNL     1       5.976  43.477   6.522  1.00  0.00     0.000 C 
BRANCH  19  20
ATOM     20  C   UNL     1       7.272  42.704   6.814  1.00  0.00     0.000 C 
BRANCH  20  21
ATOM     21  C   UNL     1       8.473  43.373   6.137  1.00  0.00     0.000 C 
BRANCH  21  22
ATOM     22  C   UNL     1       9.247  42.366   5.273  1.00  0.00    -0.000 C 
BRANCH  22  23
ATOM     23  C   UNL     1       9.350  40.980   5.928  1.00  0.00    -0.000 C 
BRANCH  23  24
ATOM     24  C   UNL     1       9.134  39.833   4.924  1.00  0.00    -0.000 C 
BRANCH  24  25
ATOM     25  C   UNL     1      10.408  39.475   4.140  1.00  0.00    -0.000 C 
BRANCH  25  26
ATOM     26  C   UNL     1      10.371  39.808   2.632  1.00  0.00    -0.000 C 
BRANCH  26  27
ATOM     27  C   UNL     1       9.446  40.979   2.245  1.00  0.00    -0.000 C 
BRANCH  27  28
ATOM     28  C   UNL     1       9.942  41.790   1.027  1.00  0.00    -0.000 C 
BRANCH  28  29
ATOM     29  C   UNL     1       8.854  42.674   0.393  1.00  0.00    -0.003 C 
ATOM     30  C   UNL     1       8.731  42.476  -1.117  1.00  0.00     0.004 C 
ENDBRANCH  28  29
ENDBRANCH  27  28
ENDBRANCH  26  27
ENDBRANCH  25  26
ENDBRANCH  24  25
ENDBRANCH  23  24
ENDBRANCH  22  23
ENDBRANCH  21  22
ENDBRANCH  20  21
ENDBRANCH  19  20
ENDBRANCH  18  19
ENDBRANCH  17  18
ENDBRANCH   1  17
TORSDOF 26
ENDMDL
