MODEL 1
REMARK VINA RESULT:    -4.075      0.000      0.000
REMARK INTER + INTRA:          -4.194
REMARK INTER:                  -4.194
REMARK INTRA:                   0.000
REMARK UNBOUND:                 0.000
REMARK SMILES Cc1ccccc1O
REMARK SMILES IDX 1 1 2 2 3 3 4 4 5 5 6 6 7 7 8 8
REMARK H PARENT 8 9
REMARK Flexibility Score: inf
ROOT
ATOM      1  C   UNL     1     166.101 179.074 180.303  1.00  0.00     0.048 C 
ATOM      2  C   UNL     1     164.618 179.324 180.335  1.00  0.00    -0.009 A 
ATOM      3  C   UNL     1     163.930 179.268 181.560  1.00  0.00     0.007 A 
ATOM      4  C   UNL     1     162.552 179.497 181.609  1.00  0.00     0.001 A 
ATOM      5  C   UNL     1     161.848 179.783 180.438  1.00  0.00     0.004 A 
ATOM      6  C   UNL     1     162.519 179.841 179.215  1.00  0.00     0.046 A 
ATOM      7  C   UNL     1     163.899 179.614 179.151  1.00  0.00     0.118 A 
ENDROOT
BRANCH   7   8
ATOM      8  O   UNL     1     164.525 179.683 177.904  1.00  0.00    -0.508 OA
ATOM      9  H   UNL     1     165.393 180.177 177.749  1.00  0.00     0.293 HD
ENDBRANCH   7   8
TORSDOF 1
ENDMDL
MODEL 2
REMARK VINA RESULT:    -4.072     13.197     13.548
REMARK INTER + INTRA:          -4.191
REMARK INTER:                  -4.191
REMARK INTRA:                   0.000
REMARK UNBOUND:                 0.000
REMARK SMILES Cc1ccccc1O
REMARK SMILES IDX 1 1 2 2 3 3 4 4 5 5 6 6 7 7 8 8
REMARK H PARENT 8 9
REMARK Flexibility Score: inf
ROOT
ATOM      1  C   UNL     1     177.331 180.103 178.307  1.00  0.00     0.048 C 
ATOM      2  C   UNL     1     177.144 179.231 179.518  1.00  0.00    -0.009 A 
ATOM      3  C   UNL     1     176.792 179.816 180.748  1.00  0.00     0.007 A 
ATOM      4  C   UNL     1     176.615 179.022 181.884  1.00  0.00     0.001 A 
ATOM      5  C   UNL     1     176.787 177.640 181.806  1.00  0.00     0.004 A 
ATOM      6  C   UNL     1     177.135 177.046 180.591  1.00  0.00     0.046 A 
ATOM      7  C   UNL     1     177.316 177.829 179.444  1.00  0.00     0.118 A 
ENDROOT
BRANCH   7   8
ATOM      8  O   UNL     1     177.666 177.188 178.253  1.00  0.00    -0.508 OA
ATOM      9  H   UNL     1     178.110 177.666 177.480  1.00  0.00     0.293 HD
ENDBRANCH   7   8
TORSDOF 1
ENDMDL
MODEL 3
REMARK VINA RESULT:    -4.068     13.339     13.691
REMARK INTER + INTRA:          -4.187
REMARK INTER:                  -4.187
REMARK INTRA:                   0.000
REMARK UNBOUND:                 0.000
REMARK SMILES Cc1ccccc1O
REMARK SMILES IDX 1 1 2 2 3 3 4 4 5 5 6 6 7 7 8 8
REMARK H PARENT 8 9
REMARK Flexibility Score: inf
ROOT
ATOM      1  C   UNL     1     177.638 175.647 180.363  1.00  0.00     0.048 C 
ATOM      2  C   UNL     1     177.380 177.129 180.361  1.00  0.00    -0.009 A 
ATOM      3  C   UNL     1     177.086 177.785 181.570  1.00  0.00     0.007 A 
ATOM      4  C   UNL     1     176.843 179.161 181.588  1.00  0.00     0.001 A 
ATOM      5  C   UNL     1     176.891 179.896 180.403  1.00  0.00     0.004 A 
ATOM      6  C   UNL     1     177.182 179.258 179.196  1.00  0.00     0.046 A 
ATOM      7  C   UNL     1     177.428 177.879 179.163  1.00  0.00     0.118 A 
ENDROOT
BRANCH   7   8
ATOM      8  O   UNL     1     177.714 177.287 177.930  1.00  0.00    -0.508 OA
ATOM      9  H   UNL     1     178.650 177.223 177.553  1.00  0.00     0.293 HD
ENDBRANCH   7   8
TORSDOF 1
ENDMDL
MODEL 4
REMARK VINA RESULT:    -3.948      0.636      2.490
REMARK INTER + INTRA:          -4.063
REMARK INTER:                  -4.063
REMARK INTRA:                   0.000
REMARK UNBOUND:                 0.000
REMARK SMILES Cc1ccccc1O
REMARK SMILES IDX 1 1 2 2 3 3 4 4 5 5 6 6 7 7 8 8
REMARK H PARENT 8 9
REMARK Flexibility Score: inf
ROOT
ATOM      1  C   UNL     1     161.534 180.125 178.565  1.00  0.00     0.048 C 
ATOM      2  C   UNL     1     162.555 179.702 179.586  1.00  0.00    -0.009 A 
ATOM      3  C   UNL     1     162.156 179.470 180.914  1.00  0.00     0.007 A 
ATOM      4  C   UNL     1     163.090 179.077 181.876  1.00  0.00     0.001 A 
ATOM      5  C   UNL     1     164.431 178.913 181.524  1.00  0.00     0.004 A 
ATOM      6  C   UNL     1     164.841 179.140 180.209  1.00  0.00     0.046 A 
ATOM      7  C   UNL     1     163.915 179.534 179.234  1.00  0.00     0.118 A 
ENDROOT
BRANCH   7   8
ATOM      8  O   UNL     1     164.375 179.750 177.933  1.00  0.00    -0.508 OA
ATOM      9  H   UNL     1     163.765 179.757 177.127  1.00  0.00     0.293 HD
ENDBRANCH   7   8
TORSDOF 1
ENDMDL
MODEL 5
REMARK VINA RESULT:    -3.784      9.963     12.129
REMARK INTER + INTRA:          -3.894
REMARK INTER:                  -3.894
REMARK INTRA:                   0.000
REMARK UNBOUND:                 0.000
REMARK SMILES Cc1ccccc1O
REMARK SMILES IDX 1 1 2 2 3 3 4 4 5 5 6 6 7 7 8 8
REMARK H PARENT 8 9
REMARK Flexibility Score: inf
ROOT
ATOM      1  C   UNL     1     173.462 178.769 180.736  1.00  0.00     0.048 C 
ATOM      2  C   UNL     1     174.854 179.241 180.421  1.00  0.00    -0.009 A 
ATOM      3  C   UNL     1     175.834 179.238 181.430  1.00  0.00     0.007 A 
ATOM      4  C   UNL     1     177.134 179.674 181.157  1.00  0.00     0.001 A 
ATOM      5  C   UNL     1     177.469 180.116 179.877  1.00  0.00     0.004 A 
ATOM      6  C   UNL     1     176.506 180.125 178.866  1.00  0.00     0.046 A 
ATOM      7  C   UNL     1     175.200 179.691 179.125  1.00  0.00     0.118 A 
ENDROOT
BRANCH   7   8
ATOM      8  O   UNL     1     174.272 179.719 178.081  1.00  0.00    -0.508 OA
ATOM      9  H   UNL     1     174.295 180.409 177.342  1.00  0.00     0.293 HD
ENDBRANCH   7   8
TORSDOF 1
ENDMDL
MODEL 6
REMARK VINA RESULT:    -3.730      2.392      2.967
REMARK INTER + INTRA:          -3.840
REMARK INTER:                  -3.840
REMARK INTRA:                   0.000
REMARK UNBOUND:                 0.000
REMARK SMILES Cc1ccccc1O
REMARK SMILES IDX 1 1 2 2 3 3 4 4 5 5 6 6 7 7 8 8
REMARK H PARENT 8 9
REMARK Flexibility Score: inf
ROOT
ATOM      1  C   UNL     1     161.749 175.850 179.869  1.00  0.00     0.048 C 
ATOM      2  C   UNL     1     161.887 177.342 179.997  1.00  0.00    -0.009 A 
ATOM      3  C   UNL     1     162.383 177.895 181.191  1.00  0.00     0.007 A 
ATOM      4  C   UNL     1     162.518 179.279 181.328  1.00  0.00     0.001 A 
ATOM      5  C   UNL     1     162.160 180.124 180.277  1.00  0.00     0.004 A 
ATOM      6  C   UNL     1     161.666 179.589 179.086  1.00  0.00     0.046 A 
ATOM      7  C   UNL     1     161.526 178.204 178.934  1.00  0.00     0.118 A 
ENDROOT
BRANCH   7   8
ATOM      8  O   UNL     1     161.026 177.717 177.724  1.00  0.00    -0.508 OA
ATOM      9  H   UNL     1     160.221 178.115 177.260  1.00  0.00     0.293 HD
ENDBRANCH   7   8
TORSDOF 1
ENDMDL
MODEL 7
REMARK VINA RESULT:    -3.663     11.492     12.597
REMARK INTER + INTRA:          -3.771
REMARK INTER:                  -3.771
REMARK INTRA:                   0.000
REMARK UNBOUND:                 0.000
REMARK SMILES Cc1ccccc1O
REMARK SMILES IDX 1 1 2 2 3 3 4 4 5 5 6 6 7 7 8 8
REMARK H PARENT 8 9
REMARK Flexibility Score: inf
ROOT
ATOM      1  C   UNL     1     174.755 179.353 177.682  1.00  0.00     0.048 C 
ATOM      2  C   UNL     1     175.458 179.367 179.012  1.00  0.00    -0.009 A 
ATOM      3  C   UNL     1     174.756 178.997 180.173  1.00  0.00     0.007 A 
ATOM      4  C   UNL     1     175.392 179.004 181.417  1.00  0.00     0.001 A 
ATOM      5  C   UNL     1     176.733 179.379 181.516  1.00  0.00     0.004 A 
ATOM      6  C   UNL     1     177.441 179.748 180.371  1.00  0.00     0.046 A 
ATOM      7  C   UNL     1     176.817 179.746 179.118  1.00  0.00     0.118 A 
ENDROOT
BRANCH   7   8
ATOM      8  O   UNL     1     177.568 180.125 178.002  1.00  0.00    -0.508 OA
ATOM      9  H   UNL     1     177.200 180.114 177.061  1.00  0.00     0.293 HD
ENDBRANCH   7   8
TORSDOF 1
ENDMDL
MODEL 8
REMARK VINA RESULT:    -3.606     10.930     12.728
REMARK INTER + INTRA:          -3.711
REMARK INTER:                  -3.711
REMARK INTRA:                   0.000
REMARK UNBOUND:                 0.000
REMARK SMILES Cc1ccccc1O
REMARK SMILES IDX 1 1 2 2 3 3 4 4 5 5 6 6 7 7 8 8
REMARK H PARENT 8 9
REMARK Flexibility Score: inf
ROOT
ATOM      1  C   UNL     1     174.048 178.502 181.110  1.00  0.00     0.048 C 
ATOM      2  C   UNL     1     175.195 179.067 180.319  1.00  0.00    -0.009 A 
ATOM      3  C   UNL     1     175.018 179.370 178.957  1.00  0.00     0.007 A 
ATOM      4  C   UNL     1     176.072 179.895 178.205  1.00  0.00     0.001 A 
ATOM      5  C   UNL     1     177.312 180.123 178.803  1.00  0.00     0.004 A 
ATOM      6  C   UNL     1     177.502 179.828 180.154  1.00  0.00     0.046 A 
ATOM      7  C   UNL     1     176.454 179.301 180.920  1.00  0.00     0.118 A 
ENDROOT
BRANCH   7   8
ATOM      8  O   UNL     1     176.694 179.021 182.267  1.00  0.00    -0.508 OA
ATOM      9  H   UNL     1     177.140 179.675 182.896  1.00  0.00     0.293 HD
ENDBRANCH   7   8
TORSDOF 1
ENDMDL
MODEL 9
REMARK VINA RESULT:    -3.549      2.090      3.087
REMARK INTER + INTRA:          -3.653
REMARK INTER:                  -3.653
REMARK INTRA:                   0.000
REMARK UNBOUND:                 0.000
REMARK SMILES Cc1ccccc1O
REMARK SMILES IDX 1 1 2 2 3 3 4 4 5 5 6 6 7 7 8 8
REMARK H PARENT 8 9
REMARK Flexibility Score: inf
ROOT
ATOM      1  C   UNL     1     161.665 180.104 178.596  1.00  0.00     0.048 C 
ATOM      2  C   UNL     1     162.305 179.244 179.651  1.00  0.00    -0.009 A 
ATOM      3  C   UNL     1     163.167 179.828 180.596  1.00  0.00     0.007 A 
ATOM      4  C   UNL     1     163.771 179.045 181.583  1.00  0.00     0.001 A 
ATOM      5  C   UNL     1     163.523 177.673 181.637  1.00  0.00     0.004 A 
ATOM      6  C   UNL     1     162.669 177.080 180.705  1.00  0.00     0.046 A 
ATOM      7  C   UNL     1     162.057 177.852 179.711  1.00  0.00     0.118 A 
ENDROOT
BRANCH   7   8
ATOM      8  O   UNL     1     161.212 177.212 178.800  1.00  0.00    -0.508 OA
ATOM      9  H   UNL     1     161.462 176.356 178.325  1.00  0.00     0.293 HD
ENDBRANCH   7   8
TORSDOF 1
ENDMDL
