MODEL 1
REMARK VINA RESULT:    -4.329      0.000      0.000
REMARK INTER + INTRA:          -7.443
REMARK INTER:                  -6.228
REMARK INTRA:                  -1.215
REMARK UNBOUND:                -1.215
REMARK SMILES O=C(CO)[C@H](O)[C@@H](O)[C@H](O)CO
REMARK SMILES IDX 7 1 9 2 11 3 12 4 10 6 5 8 2 9 1 10 3 11 4 12 6 14 8 16
REMARK H PARENT 12 5 10 7 4 13 6 15 8 17
REMARK Flexibility Score: inf
ROOT
ATOM      1  C   UNL     1      -1.405 -19.142  -9.438  1.00  0.00     0.181 C 
ENDROOT
BRANCH   1   2
ATOM      2  C   UNL     1      -0.604 -18.223 -10.401  1.00  0.00     0.171 C 
BRANCH   2   3
ATOM      3  C   UNL     1       0.857 -18.695 -10.514  1.00  0.00     0.190 C 
BRANCH   3   4
ATOM      4  O   UNL     1       0.913 -20.032 -10.934  1.00  0.00    -0.394 OA
ATOM      5  H   UNL     1       0.061 -20.217 -11.409  1.00  0.00     0.210 HD
ENDBRANCH   3   4
ENDBRANCH   2   3
BRANCH   2   6
ATOM      6  O   UNL     1      -1.194 -18.215 -11.677  1.00  0.00    -0.388 OA
ATOM      7  H   UNL     1      -1.270 -17.265 -11.956  1.00  0.00     0.211 HD
ENDBRANCH   2   6
ENDBRANCH   1   2
BRANCH   1   8
ATOM      8  C   UNL     1      -2.448 -20.052 -10.144  1.00  0.00     0.214 C 
BRANCH   8   9
ATOM      9  C   UNL     1      -3.451 -20.679  -9.195  1.00  0.00     0.189 C 
ATOM     10  O   UNL     1      -3.398 -20.409  -8.004  1.00  0.00    -0.294 OA
BRANCH   9  11
ATOM     11  C   UNL     1      -4.562 -21.568  -9.687  1.00  0.00     0.234 C 
BRANCH  11  12
ATOM     12  O   UNL     1      -4.649 -21.493 -11.082  1.00  0.00    -0.388 OA
ATOM     13  H   UNL     1      -3.760 -21.767 -11.429  1.00  0.00     0.211 HD
ENDBRANCH  11  12
ENDBRANCH   9  11
ENDBRANCH   8   9
BRANCH   8  14
ATOM     14  O   UNL     1      -1.788 -21.052 -10.880  1.00  0.00    -0.382 OA
ATOM     15  H   UNL     1      -1.477 -21.735 -10.230  1.00  0.00     0.211 HD
ENDBRANCH   8  14
ENDBRANCH   1   8
BRANCH   1  16
ATOM     16  O   UNL     1      -0.563 -19.891  -8.592  1.00  0.00    -0.387 OA
ATOM     17  H   UNL     1      -0.584 -19.485  -7.690  1.00  0.00     0.211 HD
ENDBRANCH   1  16
TORSDOF 10
ENDMDL
MODEL 2
REMARK VINA RESULT:    -4.319     12.260     14.268
REMARK INTER + INTRA:          -7.428
REMARK INTER:                  -6.136
REMARK INTRA:                  -1.292
REMARK UNBOUND:                -1.215
REMARK SMILES O=C(CO)[C@H](O)[C@@H](O)[C@H](O)CO
REMARK SMILES IDX 7 1 9 2 11 3 12 4 10 6 5 8 2 9 1 10 3 11 4 12 6 14 8 16
REMARK H PARENT 12 5 10 7 4 13 6 15 8 17
REMARK Flexibility Score: inf
ROOT
ATOM      1  C   UNL     1      11.634 -15.471  -9.396  1.00  0.00     0.181 C 
ENDROOT
BRANCH   1   2
ATOM      2  C   UNL     1      10.632 -16.654  -9.498  1.00  0.00     0.171 C 
BRANCH   2   3
ATOM      3  C   UNL     1       9.985 -16.939  -8.130  1.00  0.00     0.190 C 
BRANCH   3   4
ATOM      4  O   UNL     1       8.912 -16.065  -7.901  1.00  0.00    -0.394 OA
ATOM      5  H   UNL     1       8.319 -16.511  -7.240  1.00  0.00     0.210 HD
ENDBRANCH   3   4
ENDBRANCH   2   3
BRANCH   2   6
ATOM      6  O   UNL     1       9.630 -16.370 -10.442  1.00  0.00    -0.388 OA
ATOM      7  H   UNL     1       8.847 -16.935 -10.212  1.00  0.00     0.211 HD
ENDBRANCH   2   6
ENDBRANCH   1   2
BRANCH   1   8
ATOM      8  C   UNL     1      12.415 -15.181 -10.708  1.00  0.00     0.214 C 
BRANCH   8   9
ATOM      9  C   UNL     1      12.010 -13.886 -11.384  1.00  0.00     0.189 C 
ATOM     10  O   UNL     1      12.229 -12.822 -10.824  1.00  0.00    -0.294 OA
BRANCH   9  11
ATOM     11  C   UNL     1      11.412 -13.866 -12.766  1.00  0.00     0.234 C 
BRANCH  11  12
ATOM     12  O   UNL     1      10.195 -14.557 -12.769  1.00  0.00    -0.388 OA
ATOM     13  H   UNL     1       9.542 -13.966 -12.309  1.00  0.00     0.211 HD
ENDBRANCH  11  12
ENDBRANCH   9  11
ENDBRANCH   8   9
BRANCH   8  14
ATOM     14  O   UNL     1      12.268 -16.259 -11.599  1.00  0.00    -0.382 OA
ATOM     15  H   UNL     1      11.296 -16.360 -11.776  1.00  0.00     0.211 HD
ENDBRANCH   8  14
ENDBRANCH   1   8
BRANCH   1  16
ATOM     16  O   UNL     1      11.028 -14.302  -8.893  1.00  0.00    -0.387 OA
ATOM     17  H   UNL     1      11.690 -13.821  -8.336  1.00  0.00     0.211 HD
ENDBRANCH   1  16
TORSDOF 10
ENDMDL
MODEL 3
REMARK VINA RESULT:    -4.227      0.868      4.581
REMARK INTER + INTRA:          -7.295
REMARK INTER:                  -6.549
REMARK INTRA:                  -0.747
REMARK UNBOUND:                -1.215
REMARK SMILES O=C(CO)[C@H](O)[C@@H](O)[C@H](O)CO
REMARK SMILES IDX 7 1 9 2 11 3 12 4 10 6 5 8 2 9 1 10 3 11 4 12 6 14 8 16
REMARK H PARENT 12 5 10 7 4 13 6 15 8 17
REMARK Flexibility Score: inf
ROOT
ATOM      1  C   UNL     1      -2.440 -20.194 -10.096  1.00  0.00     0.181 C 
ENDROOT
BRANCH   1   2
ATOM      2  C   UNL     1      -3.529 -20.644  -9.083  1.00  0.00     0.171 C 
BRANCH   2   3
ATOM      3  C   UNL     1      -4.534 -21.599  -9.752  1.00  0.00     0.190 C 
BRANCH   3   4
ATOM      4  O   UNL     1      -4.582 -21.374 -11.136  1.00  0.00    -0.394 OA
ATOM      5  H   UNL     1      -4.738 -20.402 -11.261  1.00  0.00     0.210 HD
ENDBRANCH   3   4
ENDBRANCH   2   3
BRANCH   2   6
ATOM      6  O   UNL     1      -2.939 -21.282  -7.978  1.00  0.00    -0.388 OA
ATOM      7  H   UNL     1      -2.597 -20.568  -7.379  1.00  0.00     0.211 HD
ENDBRANCH   2   6
ENDBRANCH   1   2
BRANCH   1   8
ATOM      8  C   UNL     1      -1.456 -19.126  -9.543  1.00  0.00     0.214 C 
BRANCH   8   9
ATOM      9  C   UNL     1      -0.396 -18.701 -10.540  1.00  0.00     0.189 C 
ATOM     10  O   UNL     1       0.483 -19.491 -10.854  1.00  0.00    -0.294 OA
BRANCH   9  11
ATOM     11  C   UNL     1      -0.436 -17.357 -11.216  1.00  0.00     0.234 C 
BRANCH  11  12
ATOM     12  O   UNL     1      -0.820 -16.373 -10.298  1.00  0.00    -0.388 OA
ATOM     13  H   UNL     1      -1.018 -15.559 -10.833  1.00  0.00     0.211 HD
ENDBRANCH  11  12
ENDBRANCH   9  11
ENDBRANCH   8   9
BRANCH   8  14
ATOM     14  O   UNL     1      -0.851 -19.600  -8.365  1.00  0.00    -0.382 OA
ATOM     15  H   UNL     1      -0.251 -18.882  -8.037  1.00  0.00     0.211 HD
ENDBRANCH   8  14
ENDBRANCH   1   8
BRANCH   1  16
ATOM     16  O   UNL     1      -1.748 -21.287 -10.654  1.00  0.00    -0.387 OA
ATOM     17  H   UNL     1      -0.776 -21.123 -10.560  1.00  0.00     0.211 HD
ENDBRANCH   1  16
TORSDOF 10
ENDMDL
MODEL 4
REMARK VINA RESULT:    -4.204      1.481      2.403
REMARK INTER + INTRA:          -7.263
REMARK INTER:                  -6.120
REMARK INTRA:                  -1.143
REMARK UNBOUND:                -1.215
REMARK SMILES O=C(CO)[C@H](O)[C@@H](O)[C@H](O)CO
REMARK SMILES IDX 7 1 9 2 11 3 12 4 10 6 5 8 2 9 1 10 3 11 4 12 6 14 8 16
REMARK H PARENT 12 5 10 7 4 13 6 15 8 17
REMARK Flexibility Score: inf
ROOT
ATOM      1  C   UNL     1      -1.969 -18.819  -9.854  1.00  0.00     0.181 C 
ENDROOT
BRANCH   1   2
ATOM      2  C   UNL     1      -0.795 -18.983 -10.859  1.00  0.00     0.171 C 
BRANCH   2   3
ATOM      3  C   UNL     1       0.073 -17.712 -10.893  1.00  0.00     0.190 C 
BRANCH   3   4
ATOM      4  O   UNL     1      -0.697 -16.579 -10.591  1.00  0.00    -0.394 OA
ATOM      5  H   UNL     1      -0.288 -16.164  -9.787  1.00  0.00     0.210 HD
ENDBRANCH   3   4
ENDBRANCH   2   3
BRANCH   2   6
ATOM      6  O   UNL     1       0.001 -20.087 -10.510  1.00  0.00    -0.388 OA
ATOM      7  H   UNL     1       0.944 -19.775 -10.506  1.00  0.00     0.211 HD
ENDBRANCH   2   6
ENDBRANCH   1   2
BRANCH   1   8
ATOM      8  C   UNL     1      -2.786 -20.119  -9.610  1.00  0.00     0.214 C 
BRANCH   8   9
ATOM      9  C   UNL     1      -2.520 -20.760  -8.262  1.00  0.00     0.189 C 
ATOM     10  O   UNL     1      -1.429 -21.267  -8.043  1.00  0.00    -0.294 OA
BRANCH   9  11
ATOM     11  C   UNL     1      -3.536 -20.723  -7.151  1.00  0.00     0.234 C 
BRANCH  11  12
ATOM     12  O   UNL     1      -3.536 -19.462  -6.546  1.00  0.00    -0.388 OA
ATOM     13  H   UNL     1      -2.991 -18.875  -7.133  1.00  0.00     0.211 HD
ENDBRANCH  11  12
ENDBRANCH   9  11
ENDBRANCH   8   9
BRANCH   8  14
ATOM     14  O   UNL     1      -2.535 -21.040 -10.642  1.00  0.00    -0.382 OA
ATOM     15  H   UNL     1      -1.876 -21.696 -10.294  1.00  0.00     0.211 HD
ENDBRANCH   8  14
ENDBRANCH   1   8
BRANCH   1  16
ATOM     16  O   UNL     1      -1.552 -18.241  -8.639  1.00  0.00    -0.387 OA
ATOM     17  H   UNL     1      -1.428 -17.269  -8.780  1.00  0.00     0.211 HD
ENDBRANCH   1  16
TORSDOF 10
ENDMDL
MODEL 5
REMARK VINA RESULT:    -4.180      1.841      4.399
REMARK INTER + INTRA:          -7.228
REMARK INTER:                  -6.178
REMARK INTRA:                  -1.050
REMARK UNBOUND:                -1.215
REMARK SMILES O=C(CO)[C@H](O)[C@@H](O)[C@H](O)CO
REMARK SMILES IDX 7 1 9 2 11 3 12 4 10 6 5 8 2 9 1 10 3 11 4 12 6 14 8 16
REMARK H PARENT 12 5 10 7 4 13 6 15 8 17
REMARK Flexibility Score: inf
ROOT
ATOM      1  C   UNL     1      -3.967 -20.501  -8.912  1.00  0.00     0.181 C 
ENDROOT
BRANCH   1   2
ATOM      2  C   UNL     1      -4.903 -21.260  -9.892  1.00  0.00     0.171 C 
BRANCH   2   3
ATOM      3  C   UNL     1      -6.077 -20.364 -10.326  1.00  0.00     0.190 C 
BRANCH   3   4
ATOM      4  O   UNL     1      -5.641 -19.380 -11.226  1.00  0.00    -0.394 OA
ATOM      5  H   UNL     1      -5.557 -18.538 -10.708  1.00  0.00     0.210 HD
ENDBRANCH   3   4
ENDBRANCH   2   3
BRANCH   2   6
ATOM      6  O   UNL     1      -4.188 -21.681 -11.027  1.00  0.00    -0.388 OA
ATOM      7  H   UNL     1      -4.036 -20.876 -11.589  1.00  0.00     0.211 HD
ENDBRANCH   2   6
ENDBRANCH   1   2
BRANCH   1   8
ATOM      8  C   UNL     1      -2.558 -20.186  -9.489  1.00  0.00     0.214 C 
BRANCH   8   9
ATOM      9  C   UNL     1      -1.601 -19.596  -8.471  1.00  0.00     0.189 C 
ATOM     10  O   UNL     1      -1.813 -18.478  -8.026  1.00  0.00    -0.294 OA
BRANCH   9  11
ATOM     11  C   UNL     1      -0.435 -20.381  -7.931  1.00  0.00     0.234 C 
BRANCH  11  12
ATOM     12  O   UNL     1      -0.038 -21.347  -8.862  1.00  0.00    -0.388 OA
ATOM     13  H   UNL     1      -0.511 -22.183  -8.611  1.00  0.00     0.211 HD
ENDBRANCH  11  12
ENDBRANCH   9  11
ENDBRANCH   8   9
BRANCH   8  14
ATOM     14  O   UNL     1      -2.677 -19.327 -10.595  1.00  0.00    -0.382 OA
ATOM     15  H   UNL     1      -1.772 -19.233 -10.990  1.00  0.00     0.211 HD
ENDBRANCH   8  14
ENDBRANCH   1   8
BRANCH   1  16
ATOM     16  O   UNL     1      -4.573 -19.344  -8.384  1.00  0.00    -0.387 OA
ATOM     17  H   UNL     1      -4.691 -18.690  -9.118  1.00  0.00     0.211 HD
ENDBRANCH   1  16
TORSDOF 10
ENDMDL
MODEL 6
REMARK VINA RESULT:    -4.142     12.057     13.310
REMARK INTER + INTRA:          -7.173
REMARK INTER:                  -5.804
REMARK INTRA:                  -1.369
REMARK UNBOUND:                -1.215
REMARK SMILES O=C(CO)[C@H](O)[C@@H](O)[C@H](O)CO
REMARK SMILES IDX 7 1 9 2 11 3 12 4 10 6 5 8 2 9 1 10 3 11 4 12 6 14 8 16
REMARK H PARENT 12 5 10 7 4 13 6 15 8 17
REMARK Flexibility Score: inf
ROOT
ATOM      1  C   UNL     1      10.984 -16.581  -9.965  1.00  0.00     0.181 C 
ENDROOT
BRANCH   1   2
ATOM      2  C   UNL     1      11.736 -15.231 -10.122  1.00  0.00     0.171 C 
BRANCH   2   3
ATOM      3  C   UNL     1      11.677 -14.741 -11.580  1.00  0.00     0.190 C 
BRANCH   3   4
ATOM      4  O   UNL     1      10.367 -14.379 -11.927  1.00  0.00    -0.394 OA
ATOM      5  H   UNL     1      10.440 -13.616 -12.558  1.00  0.00     0.210 HD
ENDBRANCH   3   4
ENDBRANCH   2   3
BRANCH   2   6
ATOM      6  O   UNL     1      11.178 -14.256  -9.276  1.00  0.00    -0.388 OA
ATOM      7  H   UNL     1      10.347 -13.934  -9.714  1.00  0.00     0.211 HD
ENDBRANCH   2   6
ENDBRANCH   1   2
BRANCH   1   8
ATOM      8  C   UNL     1      11.220 -17.288  -8.601  1.00  0.00     0.214 C 
BRANCH   8   9
ATOM      9  C   UNL     1       9.947 -17.538  -7.816  1.00  0.00     0.189 C 
ATOM     10  O   UNL     1       9.354 -18.597  -7.957  1.00  0.00    -0.294 OA
BRANCH   9  11
ATOM     11  C   UNL     1       9.429 -16.547  -6.807  1.00  0.00     0.234 C 
BRANCH  11  12
ATOM     12  O   UNL     1       9.369 -15.271  -7.379  1.00  0.00    -0.388 OA
ATOM     13  H   UNL     1      10.108 -15.231  -8.042  1.00  0.00     0.211 HD
ENDBRANCH  11  12
ENDBRANCH   9  11
ENDBRANCH   8   9
BRANCH   8  14
ATOM     14  O   UNL     1      12.127 -16.541  -7.827  1.00  0.00    -0.382 OA
ATOM     15  H   UNL     1      13.002 -16.573  -8.292  1.00  0.00     0.211 HD
ENDBRANCH   8  14
ENDBRANCH   1   8
BRANCH   1  16
ATOM     16  O   UNL     1       9.609 -16.462 -10.247  1.00  0.00    -0.387 OA
ATOM     17  H   UNL     1       9.448 -15.570 -10.647  1.00  0.00     0.211 HD
ENDBRANCH   1  16
TORSDOF 10
ENDMDL
MODEL 7
REMARK VINA RESULT:    -4.123     14.373     15.176
REMARK INTER + INTRA:          -7.146
REMARK INTER:                  -5.928
REMARK INTRA:                  -1.218
REMARK UNBOUND:                -1.215
REMARK SMILES O=C(CO)[C@H](O)[C@@H](O)[C@H](O)CO
REMARK SMILES IDX 7 1 9 2 11 3 12 4 10 6 5 8 2 9 1 10 3 11 4 12 6 14 8 16
REMARK H PARENT 12 5 10 7 4 13 6 15 8 17
REMARK Flexibility Score: inf
ROOT
ATOM      1  C   UNL     1      11.756 -12.591 -10.561  1.00  0.00     0.181 C 
ENDROOT
BRANCH   1   2
ATOM      2  C   UNL     1      11.213 -12.517 -12.015  1.00  0.00     0.171 C 
BRANCH   2   3
ATOM      3  C   UNL     1      11.427 -13.856 -12.744  1.00  0.00     0.190 C 
BRANCH   3   4
ATOM      4  O   UNL     1      10.219 -14.562 -12.843  1.00  0.00    -0.394 OA
ATOM      5  H   UNL     1       9.535 -13.913 -13.155  1.00  0.00     0.210 HD
ENDBRANCH   3   4
ENDBRANCH   2   3
BRANCH   2   6
ATOM      6  O   UNL     1       9.844 -12.196 -12.012  1.00  0.00    -0.388 OA
ATOM      7  H   UNL     1       9.666 -11.691 -11.176  1.00  0.00     0.211 HD
ENDBRANCH   2   6
ENDBRANCH   1   2
BRANCH   1   8
ATOM      8  C   UNL     1      11.745 -11.232  -9.806  1.00  0.00     0.214 C 
BRANCH   8   9
ATOM      9  C   UNL     1      10.711 -11.160  -8.699  1.00  0.00     0.189 C 
ATOM     10  O   UNL     1      10.885 -11.802  -7.673  1.00  0.00    -0.294 OA
BRANCH   9  11
ATOM     11  C   UNL     1       9.510 -10.257  -8.793  1.00  0.00     0.234 C 
BRANCH  11  12
ATOM     12  O   UNL     1       8.822 -10.501  -9.987  1.00  0.00    -0.388 OA
ATOM     13  H   UNL     1       8.474 -11.429  -9.920  1.00  0.00     0.211 HD
ENDBRANCH  11  12
ENDBRANCH   9  11
ENDBRANCH   8   9
BRANCH   8  14
ATOM     14  O   UNL     1      11.551 -10.181 -10.719  1.00  0.00    -0.382 OA
ATOM     15  H   UNL     1      11.932  -9.363 -10.307  1.00  0.00     0.211 HD
ENDBRANCH   8  14
ENDBRANCH   1   8
BRANCH   1  16
ATOM     16  O   UNL     1      11.125 -13.600  -9.807  1.00  0.00    -0.387 OA
ATOM     17  H   UNL     1      11.644 -14.437  -9.908  1.00  0.00     0.211 HD
ENDBRANCH   1  16
TORSDOF 10
ENDMDL
MODEL 8
REMARK VINA RESULT:    -4.111      1.419      4.391
REMARK INTER + INTRA:          -7.129
REMARK INTER:                  -5.869
REMARK INTRA:                  -1.260
REMARK UNBOUND:                -1.215
REMARK SMILES O=C(CO)[C@H](O)[C@@H](O)[C@H](O)CO
REMARK SMILES IDX 7 1 9 2 11 3 12 4 10 6 5 8 2 9 1 10 3 11 4 12 6 14 8 16
REMARK H PARENT 12 5 10 7 4 13 6 15 8 17
REMARK Flexibility Score: inf
ROOT
ATOM      1  C   UNL     1      -3.622 -20.298  -8.609  1.00  0.00     0.181 C 
ENDROOT
BRANCH   1   2
ATOM      2  C   UNL     1      -4.964 -21.077  -8.692  1.00  0.00     0.171 C 
BRANCH   2   3
ATOM      3  C   UNL     1      -5.959 -20.350  -9.614  1.00  0.00     0.190 C 
BRANCH   3   4
ATOM      4  O   UNL     1      -5.566 -20.467 -10.955  1.00  0.00    -0.394 OA
ATOM      5  H   UNL     1      -4.726 -20.996 -10.959  1.00  0.00     0.210 HD
ENDBRANCH   3   4
ENDBRANCH   2   3
BRANCH   2   6
ATOM      6  O   UNL     1      -4.747 -22.381  -9.170  1.00  0.00    -0.388 OA
ATOM      7  H   UNL     1      -3.822 -22.408  -9.529  1.00  0.00     0.211 HD
ENDBRANCH   2   6
ENDBRANCH   1   2
BRANCH   1   8
ATOM      8  C   UNL     1      -2.440 -20.984  -9.348  1.00  0.00     0.214 C 
BRANCH   8   9
ATOM      9  C   UNL     1      -1.149 -20.190  -9.300  1.00  0.00     0.189 C 
ATOM     10  O   UNL     1      -0.506 -20.151  -8.262  1.00  0.00    -0.294 OA
BRANCH   9  11
ATOM     11  C   UNL     1      -0.593 -19.506 -10.522  1.00  0.00     0.234 C 
BRANCH  11  12
ATOM     12  O   UNL     1      -1.573 -18.690 -11.099  1.00  0.00    -0.388 OA
ATOM     13  H   UNL     1      -1.099 -18.111 -11.752  1.00  0.00     0.211 HD
ENDBRANCH  11  12
ENDBRANCH   9  11
ENDBRANCH   8   9
BRANCH   8  14
ATOM     14  O   UNL     1      -2.798 -21.246 -10.682  1.00  0.00    -0.382 OA
ATOM     15  H   UNL     1      -3.574 -20.665 -10.895  1.00  0.00     0.211 HD
ENDBRANCH   8  14
ENDBRANCH   1   8
BRANCH   1  16
ATOM     16  O   UNL     1      -3.762 -18.954  -9.006  1.00  0.00    -0.387 OA
ATOM     17  H   UNL     1      -4.588 -18.870  -9.544  1.00  0.00     0.211 HD
ENDBRANCH   1  16
TORSDOF 10
ENDMDL
MODEL 9
REMARK VINA RESULT:    -3.953      1.602      4.418
REMARK INTER + INTRA:          -6.901
REMARK INTER:                  -5.537
REMARK INTRA:                  -1.365
REMARK UNBOUND:                -1.215
REMARK SMILES O=C(CO)[C@H](O)[C@@H](O)[C@H](O)CO
REMARK SMILES IDX 7 1 9 2 11 3 12 4 10 6 5 8 2 9 1 10 3 11 4 12 6 14 8 16
REMARK H PARENT 12 5 10 7 4 13 6 15 8 17
REMARK Flexibility Score: inf
ROOT
ATOM      1  C   UNL     1      -3.217 -19.826  -9.985  1.00  0.00     0.181 C 
ENDROOT
BRANCH   1   2
ATOM      2  C   UNL     1      -4.530 -20.001  -9.172  1.00  0.00     0.171 C 
BRANCH   2   3
ATOM      3  C   UNL     1      -5.740 -20.134 -10.115  1.00  0.00     0.190 C 
BRANCH   3   4
ATOM      4  O   UNL     1      -5.521 -21.147 -11.060  1.00  0.00    -0.394 OA
ATOM      5  H   UNL     1      -6.181 -21.004 -11.788  1.00  0.00     0.210 HD
ENDBRANCH   3   4
ENDBRANCH   2   3
BRANCH   2   6
ATOM      6  O   UNL     1      -4.450 -21.137  -8.348  1.00  0.00    -0.388 OA
ATOM      7  H   UNL     1      -5.376 -21.353  -8.060  1.00  0.00     0.211 HD
ENDBRANCH   2   6
ENDBRANCH   1   2
BRANCH   1   8
ATOM      8  C   UNL     1      -2.069 -19.134  -9.199  1.00  0.00     0.214 C 
BRANCH   8   9
ATOM      9  C   UNL     1      -0.801 -19.962  -9.119  1.00  0.00     0.189 C 
ATOM     10  O   UNL     1       0.033 -19.870 -10.008  1.00  0.00    -0.294 OA
BRANCH   9  11
ATOM     11  C   UNL     1      -0.502 -20.841  -7.933  1.00  0.00     0.234 C 
BRANCH  11  12
ATOM     12  O   UNL     1      -1.641 -21.573  -7.582  1.00  0.00    -0.388 OA
ATOM     13  H   UNL     1      -1.801 -21.389  -6.619  1.00  0.00     0.211 HD
ENDBRANCH  11  12
ENDBRANCH   9  11
ENDBRANCH   8   9
BRANCH   8  14
ATOM     14  O   UNL     1      -2.509 -18.797  -7.907  1.00  0.00    -0.382 OA
ATOM     15  H   UNL     1      -3.053 -19.559  -7.577  1.00  0.00     0.211 HD
ENDBRANCH   8  14
ENDBRANCH   1   8
BRANCH   1  16
ATOM     16  O   UNL     1      -2.784 -21.035 -10.564  1.00  0.00    -0.387 OA
ATOM     17  H   UNL     1      -1.830 -20.940 -10.809  1.00  0.00     0.211 HD
ENDBRANCH   1  16
TORSDOF 10
ENDMDL
