MODEL 1
REMARK VINA RESULT:    52.297      0.000      0.000
REMARK INTER + INTRA:          79.426
REMARK INTER:                  76.755
REMARK INTRA:                   2.671
REMARK UNBOUND:                 2.671
REMARK SMILES Cc1cc2c(C(C)C)c(O)c(O)c(C=O)c2c(O)c1-c1c(C)cc2c(C(C)C)c(O)c(O)c(C=O)c2c1O
REMARK SMILES IDX 1 1 2 2 3 3 4 4 16 5 13 6 11 7 9 8 5 9 17 10 19 11 20 12
REMARK SMILES IDX 37 13 21 14 36 15 23 16 22 17 24 18 33 19 25 20 31 21 29 22
REMARK SMILES IDX 38 23 34 25 35 26 26 27 27 28 28 29 32 30 30 32 18 34 6 36
REMARK SMILES IDX 7 37 8 38 14 39 15 40 10 41 12 43
REMARK H PARENT 38 24 32 31 30 33 18 35 10 42 12 44
REMARK Flexibility Score: inf
ROOT
ATOM      1  C   UNL     1     -18.902  -2.233   8.734  1.00  0.00     0.045 C 
ATOM      2  C   UNL     1     -19.951  -3.301   8.938  1.00  0.00    -0.039 A 
ATOM      3  C   UNL     1     -19.866  -4.491   8.214  1.00  0.00     0.013 A 
ATOM      4  C   UNL     1     -20.821  -5.521   8.354  1.00  0.00    -0.006 A 
ATOM      5  C   UNL     1     -21.952  -5.300   9.201  1.00  0.00     0.039 A 
ATOM      6  C   UNL     1     -22.996  -6.275   9.221  1.00  0.00     0.072 A 
ATOM      7  C   UNL     1     -22.926  -7.398   8.373  1.00  0.00     0.169 A 
ATOM      8  C   UNL     1     -21.804  -7.611   7.565  1.00  0.00     0.162 A 
ATOM      9  C   UNL     1     -20.693  -6.746   7.631  1.00  0.00     0.008 A 
ATOM     10  C   UNL     1     -22.019  -4.092   9.960  1.00  0.00     0.132 A 
ATOM     11  C   UNL     1     -21.012  -3.110   9.836  1.00  0.00     0.031 A 
ENDROOT
BRANCH  11  12
ATOM     12  C   UNL     1     -21.102  -1.847  10.616  1.00  0.00     0.031 A 
ATOM     13  C   UNL     1     -21.270  -0.614   9.949  1.00  0.00     0.132 A 
ATOM     14  C   UNL     1     -20.997  -1.881  12.015  1.00  0.00    -0.039 A 
ATOM     15  C   UNL     1     -21.370   0.605  10.689  1.00  0.00     0.039 A 
ATOM     16  C   UNL     1     -21.031  -0.688  12.737  1.00  0.00     0.013 A 
ATOM     17  C   UNL     1     -20.783  -3.181  12.753  1.00  0.00     0.045 C 
ATOM     18  C   UNL     1     -21.268   0.557  12.114  1.00  0.00    -0.006 A 
ATOM     19  C   UNL     1     -21.524   1.873  10.049  1.00  0.00     0.072 A 
ATOM     20  C   UNL     1     -21.368   1.758  12.882  1.00  0.00     0.008 A 
ATOM     21  C   UNL     1     -21.476   3.055  10.815  1.00  0.00     0.169 A 
ATOM     22  C   UNL     1     -21.347   2.996  12.205  1.00  0.00     0.162 A 
BRANCH  13  23
ATOM     23  O   UNL     1     -21.310  -0.600   8.549  1.00  0.00    -0.507 OA
ATOM     24  H   UNL     1     -20.997   0.174   7.979  1.00  0.00     0.293 HD
ENDBRANCH  13  23
BRANCH  19  25
ATOM     25  C   UNL     1     -21.741   1.992   8.593  1.00  0.00     0.264 C 
ATOM     26  O   UNL     1     -22.321   3.000   8.110  1.00  0.00    -0.298 OA
ENDBRANCH  19  25
BRANCH  20  27
ATOM     27  C   UNL     1     -21.483   1.734  14.418  1.00  0.00     0.017 C 
ATOM     28  C   UNL     1     -21.149   0.344  14.968  1.00  0.00     0.012 C 
ATOM     29  C   UNL     1     -20.659   2.826  15.125  1.00  0.00     0.012 C 
ENDBRANCH  20  27
BRANCH  21  30
ATOM     30  O   UNL     1     -21.590   4.319  10.223  1.00  0.00    -0.504 OA
ATOM     31  H   UNL     1     -22.395   4.632   9.700  1.00  0.00     0.293 HD
ENDBRANCH  21  30
BRANCH  22  32
ATOM     32  O   UNL     1     -21.209   4.184  12.929  1.00  0.00    -0.504 OA
ATOM     33  H   UNL     1     -20.669   4.973  12.596  1.00  0.00     0.293 HD
ENDBRANCH  22  32
ENDBRANCH  11  12
BRANCH  10  34
ATOM     34  O   UNL     1     -23.092  -3.860  10.828  1.00  0.00    -0.507 OA
ATOM     35  H   UNL     1     -23.497  -2.948  10.999  1.00  0.00     0.293 HD
ENDBRANCH  10  34
BRANCH   9  36
ATOM     36  C   UNL     1     -19.392  -7.124   6.899  1.00  0.00     0.017 C 
ATOM     37  C   UNL     1     -18.411  -7.818   7.849  1.00  0.00     0.012 C 
ATOM     38  C   UNL     1     -18.722  -5.944   6.169  1.00  0.00     0.012 C 
ENDBRANCH   9  36
BRANCH   6  39
ATOM     39  C   UNL     1     -24.181  -6.135  10.089  1.00  0.00     0.264 C 
ATOM     40  O   UNL     1     -25.334  -6.366   9.637  1.00  0.00    -0.298 OA
ENDBRANCH   6  39
BRANCH   8  41
ATOM     41  O   UNL     1     -21.794  -8.696   6.686  1.00  0.00    -0.504 OA
ATOM     42  H   UNL     1     -21.180  -9.496   6.798  1.00  0.00     0.293 HD
ENDBRANCH   8  41
BRANCH   7  43
ATOM     43  O   UNL     1     -23.955  -8.347   8.326  1.00  0.00    -0.504 OA
ATOM     44  H   UNL     1     -24.429  -8.630   7.478  1.00  0.00     0.293 HD
ENDBRANCH   7  43
TORSDOF 11
ENDMDL
MODEL 2
REMARK VINA RESULT:    52.865      2.994      9.556
REMARK INTER + INTRA:          80.259
REMARK INTER:                  77.520
REMARK INTRA:                   2.739
REMARK UNBOUND:                 2.671
REMARK SMILES Cc1cc2c(C(C)C)c(O)c(O)c(C=O)c2c(O)c1-c1c(C)cc2c(C(C)C)c(O)c(O)c(C=O)c2c1O
REMARK SMILES IDX 1 1 2 2 3 3 4 4 16 5 13 6 11 7 9 8 5 9 17 10 19 11 20 12
REMARK SMILES IDX 37 13 21 14 36 15 23 16 22 17 24 18 33 19 25 20 31 21 29 22
REMARK SMILES IDX 38 23 34 25 35 26 26 27 27 28 28 29 32 30 30 32 18 34 6 36
REMARK SMILES IDX 7 37 8 38 14 39 15 40 10 41 12 43
REMARK H PARENT 38 24 32 31 30 33 18 35 10 42 12 44
REMARK Flexibility Score: inf
ROOT
ATOM      1  C   UNL     1     -23.516   1.990   8.861  1.00  0.00     0.045 C 
ATOM      2  C   UNL     1     -22.510   3.024   9.311  1.00  0.00    -0.039 A 
ATOM      3  C   UNL     1     -22.492   4.275   8.694  1.00  0.00     0.013 A 
ATOM      4  C   UNL     1     -21.570   5.278   9.065  1.00  0.00    -0.006 A 
ATOM      5  C   UNL     1     -20.573   4.969  10.042  1.00  0.00     0.039 A 
ATOM      6  C   UNL     1     -19.546   5.926  10.302  1.00  0.00     0.072 A 
ATOM      7  C   UNL     1     -19.493   7.122   9.559  1.00  0.00     0.169 A 
ATOM      8  C   UNL     1     -20.486   7.419   8.620  1.00  0.00     0.162 A 
ATOM      9  C   UNL     1     -21.594   6.564   8.445  1.00  0.00     0.008 A 
ATOM     10  C   UNL     1     -20.614   3.696  10.690  1.00  0.00     0.132 A 
ATOM     11  C   UNL     1     -21.591   2.741  10.332  1.00  0.00     0.031 A 
ENDROOT
BRANCH  11  12
ATOM     12  C   UNL     1     -21.612   1.411  10.998  1.00  0.00     0.031 A 
ATOM     13  C   UNL     1     -21.399   0.237  10.243  1.00  0.00     0.132 A 
ATOM     14  C   UNL     1     -21.867   1.324  12.376  1.00  0.00    -0.039 A 
ATOM     15  C   UNL     1     -21.405  -1.044  10.875  1.00  0.00     0.039 A 
ATOM     16  C   UNL     1     -21.936   0.071  12.986  1.00  0.00     0.013 A 
ATOM     17  C   UNL     1     -22.132   2.559  13.203  1.00  0.00     0.045 C 
ATOM     18  C   UNL     1     -21.659  -1.121  12.280  1.00  0.00    -0.006 A 
ATOM     19  C   UNL     1     -21.211  -2.255  10.142  1.00  0.00     0.072 A 
ATOM     20  C   UNL     1     -21.668  -2.387  12.941  1.00  0.00     0.008 A 
ATOM     21  C   UNL     1     -21.366  -3.499  10.787  1.00  0.00     0.169 A 
ATOM     22  C   UNL     1     -21.643  -3.559  12.156  1.00  0.00     0.162 A 
BRANCH  13  23
ATOM     23  O   UNL     1     -21.209   0.346   8.860  1.00  0.00    -0.507 OA
ATOM     24  H   UNL     1     -20.501  -0.157   8.342  1.00  0.00     0.293 HD
ENDBRANCH  13  23
BRANCH  19  25
ATOM     25  C   UNL     1     -20.840  -2.251   8.712  1.00  0.00     0.264 C 
ATOM     26  O   UNL     1     -20.066  -3.128   8.246  1.00  0.00    -0.298 OA
ENDBRANCH  19  25
BRANCH  20  27
ATOM     27  C   UNL     1     -21.719  -2.503  14.476  1.00  0.00     0.017 C 
ATOM     28  C   UNL     1     -21.787  -1.116  15.125  1.00  0.00     0.012 C 
ATOM     29  C   UNL     1     -22.842  -3.418  14.998  1.00  0.00     0.012 C 
ENDBRANCH  20  27
BRANCH  21  30
ATOM     30  O   UNL     1     -21.216  -4.708  10.097  1.00  0.00    -0.504 OA
ATOM     31  H   UNL     1     -20.454  -5.355  10.241  1.00  0.00     0.293 HD
ENDBRANCH  21  30
BRANCH  22  32
ATOM     32  O   UNL     1     -21.884  -4.802  12.748  1.00  0.00    -0.504 OA
ATOM     33  H   UNL     1     -21.279  -5.602  12.618  1.00  0.00     0.293 HD
ENDBRANCH  22  32
ENDBRANCH  11  12
BRANCH  10  34
ATOM     34  O   UNL     1     -19.678   3.374  11.680  1.00  0.00    -0.507 OA
ATOM     35  H   UNL     1     -18.677   3.353  11.530  1.00  0.00     0.293 HD
ENDBRANCH  10  34
BRANCH   9  36
ATOM     36  C   UNL     1     -22.775   7.022   7.569  1.00  0.00     0.017 C 
ATOM     37  C   UNL     1     -23.833   7.744   8.411  1.00  0.00     0.012 C 
ATOM     38  C   UNL     1     -23.404   5.892   6.732  1.00  0.00     0.012 C 
ENDBRANCH   9  36
BRANCH   6  39
ATOM     39  C   UNL     1     -18.499   5.695  11.317  1.00  0.00     0.264 C 
ATOM     40  O   UNL     1     -17.301   6.010  11.082  1.00  0.00    -0.298 OA
ENDBRANCH   6  39
BRANCH   8  41
ATOM     41  O   UNL     1     -20.371   8.580   7.851  1.00  0.00    -0.504 OA
ATOM     42  H   UNL     1     -20.494   9.512   8.231  1.00  0.00     0.293 HD
ENDBRANCH   8  41
BRANCH   7  43
ATOM     43  O   UNL     1     -18.471   8.060   9.749  1.00  0.00    -0.504 OA
ATOM     44  H   UNL     1     -18.101   8.321  10.654  1.00  0.00     0.293 HD
ENDBRANCH   7  43
TORSDOF 11
ENDMDL
MODEL 3
REMARK VINA RESULT:    53.154      2.589      8.733
REMARK INTER + INTRA:          80.683
REMARK INTER:                  72.864
REMARK INTRA:                   7.819
REMARK UNBOUND:                 2.671
REMARK SMILES Cc1cc2c(C(C)C)c(O)c(O)c(C=O)c2c(O)c1-c1c(C)cc2c(C(C)C)c(O)c(O)c(C=O)c2c1O
REMARK SMILES IDX 1 1 2 2 3 3 4 4 16 5 13 6 11 7 9 8 5 9 17 10 19 11 20 12
REMARK SMILES IDX 37 13 21 14 36 15 23 16 22 17 24 18 33 19 25 20 31 21 29 22
REMARK SMILES IDX 38 23 34 25 35 26 26 27 27 28 28 29 32 30 30 32 18 34 6 36
REMARK SMILES IDX 7 37 8 38 14 39 15 40 10 41 12 43
REMARK H PARENT 38 24 32 31 30 33 18 35 10 42 12 44
REMARK Flexibility Score: inf
ROOT
ATOM      1  C   UNL     1     -20.397   1.892  13.405  1.00  0.00     0.045 C 
ATOM      2  C   UNL     1     -20.831   2.286  12.013  1.00  0.00    -0.039 A 
ATOM      3  C   UNL     1     -20.657   3.604  11.589  1.00  0.00     0.013 A 
ATOM      4  C   UNL     1     -21.051   4.034  10.304  1.00  0.00    -0.006 A 
ATOM      5  C   UNL     1     -21.724   3.110   9.446  1.00  0.00     0.039 A 
ATOM      6  C   UNL     1     -22.263   3.586   8.211  1.00  0.00     0.072 A 
ATOM      7  C   UNL     1     -22.176   4.954   7.886  1.00  0.00     0.169 A 
ATOM      8  C   UNL     1     -21.497   5.843   8.726  1.00  0.00     0.162 A 
ATOM      9  C   UNL     1     -20.829   5.379   9.878  1.00  0.00     0.008 A 
ATOM     10  C   UNL     1     -21.875   1.756   9.874  1.00  0.00     0.132 A 
ATOM     11  C   UNL     1     -21.414   1.350  11.145  1.00  0.00     0.031 A 
ENDROOT
BRANCH  11  12
ATOM     12  C   UNL     1     -21.594  -0.057  11.590  1.00  0.00     0.031 A 
ATOM     13  C   UNL     1     -21.430  -1.117  10.671  1.00  0.00     0.132 A 
ATOM     14  C   UNL     1     -21.952  -0.329  12.920  1.00  0.00    -0.039 A 
ATOM     15  C   UNL     1     -21.589  -2.474  11.091  1.00  0.00     0.039 A 
ATOM     16  C   UNL     1     -22.170  -1.648  13.318  1.00  0.00     0.013 A 
ATOM     17  C   UNL     1     -22.169   0.785  13.916  1.00  0.00     0.045 C 
ATOM     18  C   UNL     1     -21.947  -2.739  12.449  1.00  0.00    -0.006 A 
ATOM     19  C   UNL     1     -21.447  -3.571  10.187  1.00  0.00     0.072 A 
ATOM     20  C   UNL     1     -22.110  -4.085  12.900  1.00  0.00     0.008 A 
ATOM     21  C   UNL     1     -21.753  -4.878  10.618  1.00  0.00     0.169 A 
ATOM     22  C   UNL     1     -22.129  -5.120  11.942  1.00  0.00     0.162 A 
BRANCH  13  23
ATOM     23  O   UNL     1     -21.134  -0.817   9.336  1.00  0.00    -0.507 OA
ATOM     24  H   UNL     1     -21.810  -0.476   8.666  1.00  0.00     0.293 HD
ENDBRANCH  13  23
BRANCH  19  25
ATOM     25  C   UNL     1     -20.978  -3.384   8.800  1.00  0.00     0.264 C 
ATOM     26  O   UNL     1     -20.047  -4.093   8.334  1.00  0.00    -0.298 OA
ENDBRANCH  19  25
BRANCH  20  27
ATOM     27  C   UNL     1     -22.279  -4.428  14.392  1.00  0.00     0.017 C 
ATOM     28  C   UNL     1     -23.041  -3.318  15.124  1.00  0.00     0.012 C 
ATOM     29  C   UNL     1     -22.918  -5.806  14.649  1.00  0.00     0.012 C 
ENDBRANCH  20  27
BRANCH  21  30
ATOM     30  O   UNL     1     -21.658  -5.977   9.754  1.00  0.00    -0.504 OA
ATOM     31  H   UNL     1     -20.976  -6.716   9.847  1.00  0.00     0.293 HD
ENDBRANCH  21  30
BRANCH  22  32
ATOM     32  O   UNL     1     -22.516  -6.410  12.316  1.00  0.00    -0.504 OA
ATOM     33  H   UNL     1     -22.564  -7.183  11.664  1.00  0.00     0.293 HD
ENDBRANCH  22  32
ENDBRANCH  11  12
BRANCH  10  34
ATOM     34  O   UNL     1     -22.495   0.815   9.043  1.00  0.00    -0.507 OA
ATOM     35  H   UNL     1     -22.727   0.980   8.072  1.00  0.00     0.293 HD
ENDBRANCH  10  34
BRANCH   9  36
ATOM     36  C   UNL     1     -19.911   6.337  10.660  1.00  0.00     0.017 C 
ATOM     37  C   UNL     1     -19.106   7.226   9.705  1.00  0.00     0.012 C 
ATOM     38  C   UNL     1     -18.991   5.629  11.673  1.00  0.00     0.012 C 
ENDBRANCH   9  36
BRANCH   6  39
ATOM     39  C   UNL     1     -22.945   2.690   7.257  1.00  0.00     0.264 C 
ATOM     40  O   UNL     1     -22.279   1.915   6.520  1.00  0.00    -0.298 OA
ENDBRANCH   6  39
BRANCH   8  41
ATOM     41  O   UNL     1     -21.486   7.204   8.413  1.00  0.00    -0.504 OA
ATOM     42  H   UNL     1     -22.032   7.604   7.657  1.00  0.00     0.293 HD
ENDBRANCH   8  41
BRANCH   7  43
ATOM     43  O   UNL     1     -22.738   5.467   6.710  1.00  0.00    -0.504 OA
ATOM     44  H   UNL     1     -23.455   6.181   6.687  1.00  0.00     0.293 HD
ENDBRANCH   7  43
TORSDOF 11
ENDMDL
MODEL 4
REMARK VINA RESULT:    53.796      2.656      8.944
REMARK INTER + INTRA:          81.626
REMARK INTER:                  73.906
REMARK INTRA:                   7.720
REMARK UNBOUND:                 2.671
REMARK SMILES Cc1cc2c(C(C)C)c(O)c(O)c(C=O)c2c(O)c1-c1c(C)cc2c(C(C)C)c(O)c(O)c(C=O)c2c1O
REMARK SMILES IDX 1 1 2 2 3 3 4 4 16 5 13 6 11 7 9 8 5 9 17 10 19 11 20 12
REMARK SMILES IDX 37 13 21 14 36 15 23 16 22 17 24 18 33 19 25 20 31 21 29 22
REMARK SMILES IDX 38 23 34 25 35 26 26 27 27 28 28 29 32 30 30 32 18 34 6 36
REMARK SMILES IDX 7 37 8 38 14 39 15 40 10 41 12 43
REMARK H PARENT 38 24 32 31 30 33 18 35 10 42 12 44
REMARK Flexibility Score: inf
ROOT
ATOM      1  C   UNL     1     -20.671   1.619  12.666  1.00  0.00     0.045 C 
ATOM      2  C   UNL     1     -21.054   2.088  11.282  1.00  0.00    -0.039 A 
ATOM      3  C   UNL     1     -20.972   3.446  10.973  1.00  0.00     0.013 A 
ATOM      4  C   UNL     1     -21.325   3.946   9.701  1.00  0.00    -0.006 A 
ATOM      5  C   UNL     1     -21.860   3.043   8.731  1.00  0.00     0.039 A 
ATOM      6  C   UNL     1     -22.363   3.571   7.503  1.00  0.00     0.072 A 
ATOM      7  C   UNL     1     -22.379   4.964   7.291  1.00  0.00     0.169 A 
ATOM      8  C   UNL     1     -21.834   5.834   8.240  1.00  0.00     0.162 A 
ATOM      9  C   UNL     1     -21.198   5.336   9.396  1.00  0.00     0.008 A 
ATOM     10  C   UNL     1     -21.915   1.649   9.043  1.00  0.00     0.132 A 
ATOM     11  C   UNL     1     -21.497   1.181  10.307  1.00  0.00     0.031 A 
ENDROOT
BRANCH  11  12
ATOM     12  C   UNL     1     -21.578  -0.269  10.629  1.00  0.00     0.031 A 
ATOM     13  C   UNL     1     -21.942  -0.686  11.928  1.00  0.00     0.132 A 
ATOM     14  C   UNL     1     -21.268  -1.221   9.645  1.00  0.00    -0.039 A 
ATOM     15  C   UNL     1     -22.034  -2.077  12.244  1.00  0.00     0.039 A 
ATOM     16  C   UNL     1     -21.296  -2.578   9.967  1.00  0.00     0.013 A 
ATOM     17  C   UNL     1     -20.842  -0.804   8.258  1.00  0.00     0.045 C 
ATOM     18  C   UNL     1     -21.723  -3.038  11.233  1.00  0.00    -0.006 A 
ATOM     19  C   UNL     1     -22.383  -2.538  13.551  1.00  0.00     0.072 A 
ATOM     20  C   UNL     1     -21.810  -4.435  11.517  1.00  0.00     0.008 A 
ATOM     21  C   UNL     1     -22.323  -3.915  13.848  1.00  0.00     0.169 A 
ATOM     22  C   UNL     1     -21.990  -4.842  12.857  1.00  0.00     0.162 A 
BRANCH  13  23
ATOM     23  O   UNL     1     -22.185   0.283  12.909  1.00  0.00    -0.507 OA
ATOM     24  H   UNL     1     -22.789   0.144  13.708  1.00  0.00     0.293 HD
ENDBRANCH  13  23
BRANCH  19  25
ATOM     25  C   UNL     1     -22.819  -1.612  14.615  1.00  0.00     0.264 C 
ATOM     26  O   UNL     1     -22.009  -0.792  15.125  1.00  0.00    -0.298 OA
ENDBRANCH  19  25
BRANCH  20  27
ATOM     27  C   UNL     1     -21.699  -5.500  10.410  1.00  0.00     0.017 C 
ATOM     28  C   UNL     1     -23.088  -5.967   9.962  1.00  0.00     0.012 C 
ATOM     29  C   UNL     1     -20.842  -5.064   9.206  1.00  0.00     0.012 C 
ENDBRANCH  20  27
BRANCH  21  30
ATOM     30  O   UNL     1     -22.626  -4.404  15.125  1.00  0.00    -0.504 OA
ATOM     31  H   UNL     1     -22.483  -5.361  15.416  1.00  0.00     0.293 HD
ENDBRANCH  21  30
BRANCH  22  32
ATOM     32  O   UNL     1     -21.847  -6.188  13.203  1.00  0.00    -0.504 OA
ATOM     33  H   UNL     1     -21.242  -6.826  12.702  1.00  0.00     0.293 HD
ENDBRANCH  22  32
ENDBRANCH  11  12
BRANCH  10  34
ATOM     34  O   UNL     1     -22.396   0.731   8.102  1.00  0.00    -0.507 OA
ATOM     35  H   UNL     1     -22.484   0.925   7.112  1.00  0.00     0.293 HD
ENDBRANCH  10  34
BRANCH   9  36
ATOM     36  C   UNL     1     -20.418   6.300  10.309  1.00  0.00     0.017 C 
ATOM     37  C   UNL     1     -19.400   7.114   9.503  1.00  0.00     0.012 C 
ATOM     38  C   UNL     1     -19.753   5.612  11.517  1.00  0.00     0.012 C 
ENDBRANCH   9  36
BRANCH   6  39
ATOM     39  C   UNL     1     -22.904   2.702   6.439  1.00  0.00     0.264 C 
ATOM     40  O   UNL     1     -22.132   1.997   5.736  1.00  0.00    -0.298 OA
ENDBRANCH   6  39
BRANCH   8  41
ATOM     41  O   UNL     1     -21.926   7.213   8.033  1.00  0.00    -0.504 OA
ATOM     42  H   UNL     1     -21.115   7.815   7.942  1.00  0.00     0.293 HD
ENDBRANCH   8  41
BRANCH   7  43
ATOM     43  O   UNL     1     -22.913   5.522   6.122  1.00  0.00    -0.504 OA
ATOM     44  H   UNL     1     -23.858   5.364   5.797  1.00  0.00     0.293 HD
ENDBRANCH   7  43
TORSDOF 11
ENDMDL
MODEL 5
REMARK VINA RESULT:    54.111      1.500      3.016
REMARK INTER + INTRA:          82.088
REMARK INTER:                  80.099
REMARK INTRA:                   1.989
REMARK UNBOUND:                 2.671
REMARK SMILES Cc1cc2c(C(C)C)c(O)c(O)c(C=O)c2c(O)c1-c1c(C)cc2c(C(C)C)c(O)c(O)c(C=O)c2c1O
REMARK SMILES IDX 1 1 2 2 3 3 4 4 16 5 13 6 11 7 9 8 5 9 17 10 19 11 20 12
REMARK SMILES IDX 37 13 21 14 36 15 23 16 22 17 24 18 33 19 25 20 31 21 29 22
REMARK SMILES IDX 38 23 34 25 35 26 26 27 27 28 28 29 32 30 30 32 18 34 6 36
REMARK SMILES IDX 7 37 8 38 14 39 15 40 10 41 12 43
REMARK H PARENT 38 24 32 31 30 33 18 35 10 42 12 44
REMARK Flexibility Score: inf
ROOT
ATOM      1  C   UNL     1     -19.021  -1.711   7.760  1.00  0.00     0.045 C 
ATOM      2  C   UNL     1     -19.933  -2.831   8.205  1.00  0.00    -0.039 A 
ATOM      3  C   UNL     1     -19.789  -4.098   7.637  1.00  0.00     0.013 A 
ATOM      4  C   UNL     1     -20.617  -5.180   8.004  1.00  0.00    -0.006 A 
ATOM      5  C   UNL     1     -21.688  -4.946   8.923  1.00  0.00     0.039 A 
ATOM      6  C   UNL     1     -22.620  -5.999   9.174  1.00  0.00     0.072 A 
ATOM      7  C   UNL     1     -22.509  -7.218   8.477  1.00  0.00     0.169 A 
ATOM      8  C   UNL     1     -21.445  -7.439   7.596  1.00  0.00     0.162 A 
ATOM      9  C   UNL     1     -20.427  -6.477   7.438  1.00  0.00     0.008 A 
ATOM     10  C   UNL     1     -21.813  -3.655   9.521  1.00  0.00     0.132 A 
ATOM     11  C   UNL     1     -20.927  -2.613   9.171  1.00  0.00     0.031 A 
ENDROOT
BRANCH  11  12
ATOM     12  C   UNL     1     -21.080  -1.267   9.784  1.00  0.00     0.031 A 
ATOM     13  C   UNL     1     -20.966  -1.109  11.183  1.00  0.00     0.132 A 
ATOM     14  C   UNL     1     -21.360  -0.157   8.971  1.00  0.00    -0.039 A 
ATOM     15  C   UNL     1     -21.099   0.182  11.781  1.00  0.00     0.039 A 
ATOM     16  C   UNL     1     -21.553   1.094   9.557  1.00  0.00     0.013 A 
ATOM     17  C   UNL     1     -21.521  -0.302   7.477  1.00  0.00     0.045 C 
ATOM     18  C   UNL     1     -21.378   1.306  10.943  1.00  0.00    -0.006 A 
ATOM     19  C   UNL     1     -21.008   0.380  13.193  1.00  0.00     0.072 A 
ATOM     20  C   UNL     1     -21.513   2.611  11.510  1.00  0.00     0.008 A 
ATOM     21  C   UNL     1     -21.286   1.647  13.743  1.00  0.00     0.169 A 
ATOM     22  C   UNL     1     -21.585   2.732  12.914  1.00  0.00     0.162 A 
BRANCH  13  23
ATOM     23  O   UNL     1     -20.748  -2.241  11.978  1.00  0.00    -0.507 OA
ATOM     24  H   UNL     1     -20.303  -3.088  11.652  1.00  0.00     0.293 HD
ENDBRANCH  13  23
BRANCH  19  25
ATOM     25  C   UNL     1     -20.619  -0.711  14.110  1.00  0.00     0.264 C 
ATOM     26  O   UNL     1     -21.472  -1.254  14.861  1.00  0.00    -0.298 OA
ENDBRANCH  19  25
BRANCH  20  27
ATOM     27  C   UNL     1     -21.595   3.875  10.634  1.00  0.00     0.017 C 
ATOM     28  C   UNL     1     -20.298   4.686  10.727  1.00  0.00     0.012 C 
ATOM     29  C   UNL     1     -21.975   3.598   9.168  1.00  0.00     0.012 C 
ENDBRANCH  20  27
BRANCH  21  30
ATOM     30  O   UNL     1     -21.239   1.874  15.124  1.00  0.00    -0.504 OA
ATOM     31  H   UNL     1     -21.833   2.528  15.614  1.00  0.00     0.293 HD
ENDBRANCH  21  30
BRANCH  22  32
ATOM     32  O   UNL     1     -21.948   3.952  13.492  1.00  0.00    -0.504 OA
ATOM     33  H   UNL     1     -22.259   4.748  12.951  1.00  0.00     0.293 HD
ENDBRANCH  22  32
ENDBRANCH  11  12
BRANCH  10  34
ATOM     34  O   UNL     1     -22.826  -3.402  10.454  1.00  0.00    -0.507 OA
ATOM     35  H   UNL     1     -22.658  -3.184  11.429  1.00  0.00     0.293 HD
ENDBRANCH  10  34
BRANCH   9  36
ATOM     36  C   UNL     1     -19.162  -6.835   6.636  1.00  0.00     0.017 C 
ATOM     37  C   UNL     1     -18.296  -7.843   7.400  1.00  0.00     0.012 C 
ATOM     38  C   UNL     1     -18.337  -5.610   6.195  1.00  0.00     0.012 C 
ENDBRANCH   9  36
BRANCH   6  39
ATOM     39  C   UNL     1     -23.734  -5.847  10.129  1.00  0.00     0.264 C 
ATOM     40  O   UNL     1     -24.901  -6.202   9.812  1.00  0.00    -0.298 OA
ENDBRANCH   6  39
BRANCH   8  41
ATOM     41  O   UNL     1     -21.398  -8.631   6.869  1.00  0.00    -0.504 OA
ATOM     42  H   UNL     1     -20.561  -8.966   6.405  1.00  0.00     0.293 HD
ENDBRANCH   8  41
BRANCH   7  43
ATOM     43  O   UNL     1     -23.434  -8.254   8.657  1.00  0.00    -0.504 OA
ATOM     44  H   UNL     1     -23.181  -9.220   8.816  1.00  0.00     0.293 HD
ENDBRANCH   7  43
TORSDOF 11
ENDMDL
MODEL 6
REMARK VINA RESULT:    54.450      3.011      9.604
REMARK INTER + INTRA:          82.586
REMARK INTER:                  80.470
REMARK INTRA:                   2.116
REMARK UNBOUND:                 2.671
REMARK SMILES Cc1cc2c(C(C)C)c(O)c(O)c(C=O)c2c(O)c1-c1c(C)cc2c(C(C)C)c(O)c(O)c(C=O)c2c1O
REMARK SMILES IDX 1 1 2 2 3 3 4 4 16 5 13 6 11 7 9 8 5 9 17 10 19 11 20 12
REMARK SMILES IDX 37 13 21 14 36 15 23 16 22 17 24 18 33 19 25 20 31 21 29 22
REMARK SMILES IDX 38 23 34 25 35 26 26 27 27 28 28 29 32 30 30 32 18 34 6 36
REMARK SMILES IDX 7 37 8 38 14 39 15 40 10 41 12 43
REMARK H PARENT 38 24 32 31 30 33 18 35 10 42 12 44
REMARK Flexibility Score: inf
ROOT
ATOM      1  C   UNL     1     -23.241   1.581   7.905  1.00  0.00     0.045 C 
ATOM      2  C   UNL     1     -22.387   2.610   8.610  1.00  0.00    -0.039 A 
ATOM      3  C   UNL     1     -22.405   3.933   8.166  1.00  0.00     0.013 A 
ATOM      4  C   UNL     1     -21.622   4.936   8.778  1.00  0.00    -0.006 A 
ATOM      5  C   UNL     1     -20.724   4.565   9.826  1.00  0.00     0.039 A 
ATOM      6  C   UNL     1     -19.821   5.546  10.337  1.00  0.00     0.072 A 
ATOM      7  C   UNL     1     -19.785   6.834   9.767  1.00  0.00     0.169 A 
ATOM      8  C   UNL     1     -20.683   7.189   8.755  1.00  0.00     0.162 A 
ATOM      9  C   UNL     1     -21.684   6.291   8.331  1.00  0.00     0.008 A 
ATOM     10  C   UNL     1     -20.731   3.215  10.294  1.00  0.00     0.132 A 
ATOM     11  C   UNL     1     -21.573   2.253   9.695  1.00  0.00     0.031 A 
ENDROOT
BRANCH  11  12
ATOM     12  C   UNL     1     -21.557   0.846  10.176  1.00  0.00     0.031 A 
ATOM     13  C   UNL     1     -21.866   0.554  11.522  1.00  0.00     0.132 A 
ATOM     14  C   UNL     1     -21.211  -0.190   9.293  1.00  0.00    -0.039 A 
ATOM     15  C   UNL     1     -21.865  -0.796  11.992  1.00  0.00     0.039 A 
ATOM     16  C   UNL     1     -21.148  -1.502   9.763  1.00  0.00     0.013 A 
ATOM     17  C   UNL     1     -20.842   0.095   7.857  1.00  0.00     0.045 C 
ATOM     18  C   UNL     1     -21.518  -1.843  11.083  1.00  0.00    -0.006 A 
ATOM     19  C   UNL     1     -22.157  -1.129  13.350  1.00  0.00     0.072 A 
ATOM     20  C   UNL     1     -21.512  -3.203  11.521  1.00  0.00     0.008 A 
ATOM     21  C   UNL     1     -22.005  -2.458  13.794  1.00  0.00     0.169 A 
ATOM     22  C   UNL     1     -21.637  -3.468  12.901  1.00  0.00     0.162 A 
BRANCH  13  23
ATOM     23  O   UNL     1     -22.147   1.610  12.398  1.00  0.00    -0.507 OA
ATOM     24  H   UNL     1     -22.470   1.490  13.348  1.00  0.00     0.293 HD
ENDBRANCH  13  23
BRANCH  19  25
ATOM     25  C   UNL     1     -22.625  -0.118  14.319  1.00  0.00     0.264 C 
ATOM     26  O   UNL     1     -21.805   0.503  15.048  1.00  0.00    -0.298 OA
ENDBRANCH  19  25
BRANCH  20  27
ATOM     27  C   UNL     1     -21.360  -4.375  10.534  1.00  0.00     0.017 C 
ATOM     28  C   UNL     1     -22.708  -5.062  10.292  1.00  0.00     0.012 C 
ATOM     29  C   UNL     1     -20.683  -3.991   9.204  1.00  0.00     0.012 C 
ENDBRANCH  20  27
BRANCH  21  30
ATOM     30  O   UNL     1     -22.249  -2.820  15.125  1.00  0.00    -0.504 OA
ATOM     31  H   UNL     1     -23.143  -2.727  15.585  1.00  0.00     0.293 HD
ENDBRANCH  21  30
BRANCH  22  32
ATOM     32  O   UNL     1     -21.403  -4.757  13.388  1.00  0.00    -0.504 OA
ATOM     33  H   UNL     1     -20.781  -5.414  12.936  1.00  0.00     0.293 HD
ENDBRANCH  22  32
ENDBRANCH  11  12
BRANCH  10  34
ATOM     34  O   UNL     1     -19.894   2.825  11.346  1.00  0.00    -0.507 OA
ATOM     35  H   UNL     1     -19.020   3.283  11.575  1.00  0.00     0.293 HD
ENDBRANCH  10  34
BRANCH   9  36
ATOM     36  C   UNL     1     -22.790   6.782   7.378  1.00  0.00     0.017 C 
ATOM     37  C   UNL     1     -23.830   7.619   8.131  1.00  0.00     0.012 C 
ATOM     38  C   UNL     1     -23.459   5.655   6.568  1.00  0.00     0.012 C 
ENDBRANCH   9  36
BRANCH   6  39
ATOM     39  C   UNL     1     -18.884   5.250  11.438  1.00  0.00     0.264 C 
ATOM     40  O   UNL     1     -17.684   5.630  11.375  1.00  0.00    -0.298 OA
ENDBRANCH   6  39
BRANCH   8  41
ATOM     41  O   UNL     1     -20.579   8.450   8.162  1.00  0.00    -0.504 OA
ATOM     42  H   UNL     1     -20.390   8.585   7.175  1.00  0.00     0.293 HD
ENDBRANCH   8  41
BRANCH   7  43
ATOM     43  O   UNL     1     -18.877   7.806  10.205  1.00  0.00    -0.504 OA
ATOM     44  H   UNL     1     -17.871   7.694  10.184  1.00  0.00     0.293 HD
ENDBRANCH   7  43
TORSDOF 11
ENDMDL
MODEL 7
REMARK VINA RESULT:    55.276      2.034      3.957
REMARK INTER + INTRA:          83.797
REMARK INTER:                  77.155
REMARK INTRA:                   6.642
REMARK UNBOUND:                 2.671
REMARK SMILES Cc1cc2c(C(C)C)c(O)c(O)c(C=O)c2c(O)c1-c1c(C)cc2c(C(C)C)c(O)c(O)c(C=O)c2c1O
REMARK SMILES IDX 1 1 2 2 3 3 4 4 16 5 13 6 11 7 9 8 5 9 17 10 19 11 20 12
REMARK SMILES IDX 37 13 21 14 36 15 23 16 22 17 24 18 33 19 25 20 31 21 29 22
REMARK SMILES IDX 38 23 34 25 35 26 26 27 27 28 28 29 32 30 30 32 18 34 6 36
REMARK SMILES IDX 7 37 8 38 14 39 15 40 10 41 12 43
REMARK H PARENT 38 24 32 31 30 33 18 35 10 42 12 44
REMARK Flexibility Score: inf
ROOT
ATOM      1  C   UNL     1     -19.910  -0.642   6.002  1.00  0.00     0.045 C 
ATOM      2  C   UNL     1     -20.371  -1.594   7.081  1.00  0.00    -0.039 A 
ATOM      3  C   UNL     1     -20.214  -2.968   6.894  1.00  0.00     0.013 A 
ATOM      4  C   UNL     1     -20.634  -3.907   7.860  1.00  0.00    -0.006 A 
ATOM      5  C   UNL     1     -21.316  -3.437   9.025  1.00  0.00     0.039 A 
ATOM      6  C   UNL     1     -21.879  -4.392   9.925  1.00  0.00     0.072 A 
ATOM      7  C   UNL     1     -21.808  -5.767   9.626  1.00  0.00     0.169 A 
ATOM      8  C   UNL     1     -21.120  -6.214   8.493  1.00  0.00     0.162 A 
ATOM      9  C   UNL     1     -20.428  -5.307   7.664  1.00  0.00     0.008 A 
ATOM     10  C   UNL     1     -21.449  -2.028   9.224  1.00  0.00     0.132 A 
ATOM     11  C   UNL     1     -20.963  -1.119   8.260  1.00  0.00     0.031 A 
ENDROOT
BRANCH  11  12
ATOM     12  C   UNL     1     -21.126   0.345   8.467  1.00  0.00     0.031 A 
ATOM     13  C   UNL     1     -21.019   0.893   9.764  1.00  0.00     0.132 A 
ATOM     14  C   UNL     1     -21.409   1.178   7.373  1.00  0.00    -0.039 A 
ATOM     15  C   UNL     1     -21.162   2.300   9.972  1.00  0.00     0.039 A 
ATOM     16  C   UNL     1     -21.611   2.542   7.581  1.00  0.00     0.013 A 
ATOM     17  C   UNL     1     -21.563   0.615   5.980  1.00  0.00     0.045 C 
ATOM     18  C   UNL     1     -21.444   3.139   8.850  1.00  0.00    -0.006 A 
ATOM     19  C   UNL     1     -21.078   2.889  11.271  1.00  0.00     0.072 A 
ATOM     20  C   UNL     1     -21.589   4.550   9.025  1.00  0.00     0.008 A 
ATOM     21  C   UNL     1     -21.365   4.259  11.440  1.00  0.00     0.169 A 
ATOM     22  C   UNL     1     -21.667   5.062  10.337  1.00  0.00     0.162 A 
BRANCH  13  23
ATOM     23  O   UNL     1     -20.798   0.034  10.847  1.00  0.00    -0.507 OA
ATOM     24  H   UNL     1     -21.529  -0.333  11.441  1.00  0.00     0.293 HD
ENDBRANCH  13  23
BRANCH  19  25
ATOM     25  C   UNL     1     -20.687   2.105  12.460  1.00  0.00     0.264 C 
ATOM     26  O   UNL     1     -21.561   1.575  13.197  1.00  0.00    -0.298 OA
ENDBRANCH  19  25
BRANCH  20  27
ATOM     27  C   UNL     1     -21.674   5.514   7.827  1.00  0.00     0.017 C 
ATOM     28  C   UNL     1     -23.126   5.927   7.563  1.00  0.00     0.012 C 
ATOM     29  C   UNL     1     -20.757   6.746   7.948  1.00  0.00     0.012 C 
ENDBRANCH  20  27
BRANCH  21  30
ATOM     30  O   UNL     1     -21.326   4.867  12.701  1.00  0.00    -0.504 OA
ATOM     31  H   UNL     1     -20.854   4.479  13.505  1.00  0.00     0.293 HD
ENDBRANCH  21  30
BRANCH  22  32
ATOM     32  O   UNL     1     -22.040   6.393  10.545  1.00  0.00    -0.504 OA
ATOM     33  H   UNL     1     -21.417   7.173  10.380  1.00  0.00     0.293 HD
ENDBRANCH  22  32
ENDBRANCH  11  12
BRANCH  10  34
ATOM     34  O   UNL     1     -22.077  -1.531  10.373  1.00  0.00    -0.507 OA
ATOM     35  H   UNL     1     -21.812  -0.671  10.837  1.00  0.00     0.293 HD
ENDBRANCH  10  34
BRANCH   9  36
ATOM     36  C   UNL     1     -19.503  -5.844   6.556  1.00  0.00     0.017 C 
ATOM     37  C   UNL     1     -18.789  -7.121   7.012  1.00  0.00     0.012 C 
ATOM     38  C   UNL     1     -18.501  -4.803   6.023  1.00  0.00     0.012 C 
ENDBRANCH   9  36
BRANCH   6  39
ATOM     39  C   UNL     1     -22.572  -3.988  11.164  1.00  0.00     0.264 C 
ATOM     40  O   UNL     1     -21.918  -3.553  12.149  1.00  0.00    -0.298 OA
ENDBRANCH   6  39
BRANCH   8  41
ATOM     41  O   UNL     1     -21.125  -7.577   8.186  1.00  0.00    -0.504 OA
ATOM     42  H   UNL     1     -20.278  -8.113   8.029  1.00  0.00     0.293 HD
ENDBRANCH   8  41
BRANCH   7  43
ATOM     43  O   UNL     1     -22.395  -6.731  10.456  1.00  0.00    -0.504 OA
ATOM     44  H   UNL     1     -22.990  -7.479  10.126  1.00  0.00     0.293 HD
ENDBRANCH   7  43
TORSDOF 11
ENDMDL
