MODEL 1
REMARK VINA RESULT:    -4.873      0.000      0.000
REMARK INTER + INTRA:          -8.921
REMARK INTER:                  -7.722
REMARK INTRA:                  -1.199
REMARK UNBOUND:                -1.199
REMARK SMILES CCCCCCCCCCCC(=O)[O-]
REMARK SMILES IDX 7 1 8 2 9 3 10 4 11 5 12 6 13 7 14 8 6 9 5 10 4 11 3 12 2 13
REMARK SMILES IDX 1 14
REMARK H PARENT
REMARK Flexibility Score: inf
ROOT
ATOM      1  C   UNL     1       0.913  46.074  10.080  1.00  0.00     0.000 C 
ENDROOT
BRANCH   1   2
ATOM      2  C   UNL     1       2.275  46.765   9.883  1.00  0.00     0.000 C 
BRANCH   2   3
ATOM      3  C   UNL     1       2.516  47.341   8.474  1.00  0.00     0.000 C 
BRANCH   3   4
ATOM      4  C   UNL     1       3.990  47.638   8.131  1.00  0.00     0.006 C 
BRANCH   4   5
ATOM      5  C   UNL     1       5.001  47.100   9.156  1.00  0.00     0.053 C 
BRANCH   5   6
ATOM      6  C   UNL     1       6.253  47.922   9.190  1.00  0.00     0.041 C 
ATOM      7  O   UNL     1       7.341  47.407   9.560  1.00  0.00    -0.550 OA
ATOM      8  O   UNL     1       6.225  49.249   8.780  1.00  0.00    -0.550 OA
ENDBRANCH   5   6
ENDBRANCH   4   5
ENDBRANCH   3   4
ENDBRANCH   2   3
ENDBRANCH   1   2
BRANCH   1   9
ATOM      9  C   UNL     1       1.037  44.554  10.264  1.00  0.00     0.000 C 
BRANCH   9  10
ATOM     10  C   UNL     1       1.447  43.874   8.953  1.00  0.00    -0.000 C 
BRANCH  10  11
ATOM     11  C   UNL     1       2.572  42.857   9.188  1.00  0.00    -0.000 C 
BRANCH  11  12
ATOM     12  C   UNL     1       3.875  43.509   9.681  1.00  0.00    -0.000 C 
BRANCH  12  13
ATOM     13  C   UNL     1       4.246  43.131  11.130  1.00  0.00    -0.003 C 
ATOM     14  C   UNL     1       4.414  44.360  12.026  1.00  0.00     0.004 C 
ENDBRANCH  12  13
ENDBRANCH  11  12
ENDBRANCH  10  11
ENDBRANCH   9  10
ENDBRANCH   1   9
TORSDOF 10
ENDMDL
MODEL 2
REMARK VINA RESULT:    -4.847      1.040      2.748
REMARK INTER + INTRA:          -8.879
REMARK INTER:                  -7.629
REMARK INTRA:                  -1.250
REMARK UNBOUND:                -1.199
REMARK SMILES CCCCCCCCCCCC(=O)[O-]
REMARK SMILES IDX 7 1 8 2 9 3 10 4 11 5 12 6 13 7 14 8 6 9 5 10 4 11 3 12 2 13
REMARK SMILES IDX 1 14
REMARK H PARENT
REMARK Flexibility Score: inf
ROOT
ATOM      1  C   UNL     1       3.922  44.001  12.153  1.00  0.00     0.000 C 
ENDROOT
BRANCH   1   2
ATOM      2  C   UNL     1       4.891  44.900  11.363  1.00  0.00     0.000 C 
BRANCH   2   3
ATOM      3  C   UNL     1       4.232  46.083  10.628  1.00  0.00     0.000 C 
BRANCH   3   4
ATOM      4  C   UNL     1       4.652  46.256   9.154  1.00  0.00     0.006 C 
BRANCH   4   5
ATOM      5  C   UNL     1       4.787  47.717   8.700  1.00  0.00     0.053 C 
BRANCH   5   6
ATOM      6  C   UNL     1       6.167  48.250   8.935  1.00  0.00     0.041 C 
ATOM      7  O   UNL     1       7.103  47.471   9.256  1.00  0.00    -0.550 OA
ATOM      8  O   UNL     1       6.427  49.604   8.766  1.00  0.00    -0.550 OA
ENDBRANCH   5   6
ENDBRANCH   4   5
ENDBRANCH   3   4
ENDBRANCH   2   3
ENDBRANCH   1   2
BRANCH   1   9
ATOM      9  C   UNL     1       3.894  42.555  11.637  1.00  0.00     0.000 C 
BRANCH   9  10
ATOM     10  C   UNL     1       2.592  42.265  10.883  1.00  0.00    -0.000 C 
BRANCH  10  11
ATOM     11  C   UNL     1       2.692  42.709   9.417  1.00  0.00    -0.000 C 
BRANCH  11  12
ATOM     12  C   UNL     1       1.684  43.812   9.055  1.00  0.00    -0.000 C 
BRANCH  12  13
ATOM     13  C   UNL     1       0.966  44.421  10.278  1.00  0.00    -0.003 C 
ATOM     14  C   UNL     1       0.481  45.847  10.017  1.00  0.00     0.004 C 
ENDBRANCH  12  13
ENDBRANCH  11  12
ENDBRANCH  10  11
ENDBRANCH   9  10
ENDBRANCH   1   9
TORSDOF 10
ENDMDL
MODEL 3
REMARK VINA RESULT:    -4.846      4.187      6.334
REMARK INTER + INTRA:          -8.878
REMARK INTER:                  -8.227
REMARK INTRA:                  -0.652
REMARK UNBOUND:                -1.199
REMARK SMILES CCCCCCCCCCCC(=O)[O-]
REMARK SMILES IDX 7 1 8 2 9 3 10 4 11 5 12 6 13 7 14 8 6 9 5 10 4 11 3 12 2 13
REMARK SMILES IDX 1 14
REMARK H PARENT
REMARK Flexibility Score: inf
ROOT
ATOM      1  C   UNL     1       1.769  43.778  10.084  1.00  0.00     0.000 C 
ENDROOT
BRANCH   1   2
ATOM      2  C   UNL     1       1.750  43.673  11.620  1.00  0.00     0.000 C 
BRANCH   2   3
ATOM      3  C   UNL     1       2.003  42.260  12.181  1.00  0.00     0.000 C 
BRANCH   3   4
ATOM      4  C   UNL     1       3.009  41.407  11.380  1.00  0.00     0.006 C 
BRANCH   4   5
ATOM      5  C   UNL     1       4.273  41.019  12.161  1.00  0.00     0.053 C 
BRANCH   5   6
ATOM      6  C   UNL     1       4.170  39.644  12.745  1.00  0.00     0.041 C 
ATOM      7  O   UNL     1       5.014  39.248  13.592  1.00  0.00    -0.550 OA
ATOM      8  O   UNL     1       3.121  38.810  12.377  1.00  0.00    -0.550 OA
ENDBRANCH   5   6
ENDBRANCH   4   5
ENDBRANCH   3   4
ENDBRANCH   2   3
ENDBRANCH   1   2
BRANCH   1   9
ATOM      9  C   UNL     1       2.628  44.945   9.576  1.00  0.00     0.000 C 
BRANCH   9  10
ATOM     10  C   UNL     1       4.052  44.864  10.137  1.00  0.00    -0.000 C 
BRANCH  10  11
ATOM     11  C   UNL     1       4.614  46.264  10.419  1.00  0.00    -0.000 C 
BRANCH  11  12
ATOM     12  C   UNL     1       5.077  46.991   9.145  1.00  0.00    -0.000 C 
BRANCH  12  13
ATOM     13  C   UNL     1       6.180  48.040   9.397  1.00  0.00    -0.003 C 
ATOM     14  C   UNL     1       7.582  47.430   9.364  1.00  0.00     0.004 C 
ENDBRANCH  12  13
ENDBRANCH  11  12
ENDBRANCH  10  11
ENDBRANCH   9  10
ENDBRANCH   1   9
TORSDOF 10
ENDMDL
MODEL 4
REMARK VINA RESULT:    -4.773      4.094      6.220
REMARK INTER + INTRA:          -8.762
REMARK INTER:                  -7.762
REMARK INTRA:                  -1.000
REMARK UNBOUND:                -1.199
REMARK SMILES CCCCCCCCCCCC(=O)[O-]
REMARK SMILES IDX 7 1 8 2 9 3 10 4 11 5 12 6 13 7 14 8 6 9 5 10 4 11 3 12 2 13
REMARK SMILES IDX 1 14
REMARK H PARENT
REMARK Flexibility Score: inf
ROOT
ATOM      1  C   UNL     1       1.526  43.662   9.019  1.00  0.00     0.000 C 
ENDROOT
BRANCH   1   2
ATOM      2  C   UNL     1       2.665  42.778   9.558  1.00  0.00     0.000 C 
BRANCH   2   3
ATOM      3  C   UNL     1       2.696  42.617  11.091  1.00  0.00     0.000 C 
BRANCH   3   4
ATOM      4  C   UNL     1       3.621  41.499  11.614  1.00  0.00     0.006 C 
BRANCH   4   5
ATOM      5  C   UNL     1       2.905  40.416  12.434  1.00  0.00     0.053 C 
BRANCH   5   6
ATOM      6  C   UNL     1       3.776  39.217  12.656  1.00  0.00     0.041 C 
ATOM      7  O   UNL     1       3.512  38.126  12.085  1.00  0.00    -0.550 OA
ATOM      8  O   UNL     1       4.899  39.314  13.469  1.00  0.00    -0.550 OA
ENDBRANCH   5   6
ENDBRANCH   4   5
ENDBRANCH   3   4
ENDBRANCH   2   3
ENDBRANCH   1   2
BRANCH   1   9
ATOM      9  C   UNL     1       1.024  44.685  10.050  1.00  0.00     0.000 C 
BRANCH   9  10
ATOM     10  C   UNL     1       0.884  46.076   9.420  1.00  0.00    -0.000 C 
BRANCH  10  11
ATOM     11  C   UNL     1       2.064  46.977   9.807  1.00  0.00    -0.000 C 
BRANCH  11  12
ATOM     12  C   UNL     1       3.166  47.014   8.734  1.00  0.00    -0.000 C 
BRANCH  12  13
ATOM     13  C   UNL     1       4.506  46.412   9.203  1.00  0.00    -0.003 C 
ATOM     14  C   UNL     1       4.445  45.910  10.647  1.00  0.00     0.004 C 
ENDBRANCH  12  13
ENDBRANCH  11  12
ENDBRANCH  10  11
ENDBRANCH   9  10
ENDBRANCH   1   9
TORSDOF 10
ENDMDL
MODEL 5
REMARK VINA RESULT:    -4.772      1.657      2.329
REMARK INTER + INTRA:          -8.760
REMARK INTER:                  -8.129
REMARK INTRA:                  -0.631
REMARK UNBOUND:                -1.199
REMARK SMILES CCCCCCCCCCCC(=O)[O-]
REMARK SMILES IDX 7 1 8 2 9 3 10 4 11 5 12 6 13 7 14 8 6 9 5 10 4 11 3 12 2 13
REMARK SMILES IDX 1 14
REMARK H PARENT
REMARK Flexibility Score: inf
ROOT
ATOM      1  C   UNL     1       1.445  44.908  10.161  1.00  0.00     0.000 C 
ENDROOT
BRANCH   1   2
ATOM      2  C   UNL     1       2.302  46.137   9.811  1.00  0.00     0.000 C 
BRANCH   2   3
ATOM      3  C   UNL     1       3.702  46.161  10.456  1.00  0.00     0.000 C 
BRANCH   3   4
ATOM      4  C   UNL     1       4.879  46.268   9.465  1.00  0.00     0.006 C 
BRANCH   4   5
ATOM      5  C   UNL     1       5.045  47.655   8.825  1.00  0.00     0.053 C 
BRANCH   5   6
ATOM      6  C   UNL     1       6.359  48.280   9.181  1.00  0.00     0.041 C 
ATOM      7  O   UNL     1       6.473  49.534   9.232  1.00  0.00    -0.550 OA
ATOM      8  O   UNL     1       7.450  47.478   9.490  1.00  0.00    -0.550 OA
ENDBRANCH   5   6
ENDBRANCH   4   5
ENDBRANCH   3   4
ENDBRANCH   2   3
ENDBRANCH   1   2
BRANCH   1   9
ATOM      9  C   UNL     1       1.593  43.767   9.143  1.00  0.00     0.000 C 
BRANCH   9  10
ATOM     10  C   UNL     1       2.634  42.744   9.612  1.00  0.00    -0.000 C 
BRANCH  10  11
ATOM     11  C   UNL     1       2.523  42.498  11.123  1.00  0.00    -0.000 C 
BRANCH  11  12
ATOM     12  C   UNL     1       3.671  41.637  11.675  1.00  0.00    -0.000 C 
BRANCH  12  13
ATOM     13  C   UNL     1       3.214  40.263  12.208  1.00  0.00    -0.003 C 
ATOM     14  C   UNL     1       4.354  39.488  12.871  1.00  0.00     0.004 C 
ENDBRANCH  12  13
ENDBRANCH  11  12
ENDBRANCH  10  11
ENDBRANCH   9  10
ENDBRANCH   1   9
TORSDOF 10
ENDMDL
MODEL 6
REMARK VINA RESULT:    -4.742      2.311      4.693
REMARK INTER + INTRA:          -8.713
REMARK INTER:                  -7.797
REMARK INTRA:                  -0.916
REMARK UNBOUND:                -1.199
REMARK SMILES CCCCCCCCCCCC(=O)[O-]
REMARK SMILES IDX 7 1 8 2 9 3 10 4 11 5 12 6 13 7 14 8 6 9 5 10 4 11 3 12 2 13
REMARK SMILES IDX 1 14
REMARK H PARENT
REMARK Flexibility Score: inf
ROOT
ATOM      1  C   UNL     1       0.850  46.199   9.478  1.00  0.00     0.000 C 
ENDROOT
BRANCH   1   2
ATOM      2  C   UNL     1       1.118  44.779  10.008  1.00  0.00     0.000 C 
BRANCH   2   3
ATOM      3  C   UNL     1       1.500  43.743   8.933  1.00  0.00     0.000 C 
BRANCH   3   4
ATOM      4  C   UNL     1       2.706  42.847   9.284  1.00  0.00     0.006 C 
BRANCH   4   5
ATOM      5  C   UNL     1       3.902  43.601   9.884  1.00  0.00     0.053 C 
BRANCH   5   6
ATOM      6  C   UNL     1       4.132  43.232  11.318  1.00  0.00     0.041 C 
ATOM      7  O   UNL     1       4.496  44.106  12.148  1.00  0.00    -0.550 OA
ATOM      8  O   UNL     1       3.911  41.928  11.744  1.00  0.00    -0.550 OA
ENDBRANCH   5   6
ENDBRANCH   4   5
ENDBRANCH   3   4
ENDBRANCH   2   3
ENDBRANCH   1   2
BRANCH   1   9
ATOM      9  C   UNL     1       2.086  47.108   9.553  1.00  0.00     0.000 C 
BRANCH   9  10
ATOM     10  C   UNL     1       2.498  47.592   8.158  1.00  0.00    -0.000 C 
BRANCH  10  11
ATOM     11  C   UNL     1       4.023  47.732   8.051  1.00  0.00    -0.000 C 
BRANCH  11  12
ATOM     12  C   UNL     1       4.773  46.985   9.167  1.00  0.00    -0.000 C 
BRANCH  12  13
ATOM     13  C   UNL     1       6.213  47.489   9.390  1.00  0.00    -0.003 C 
ATOM     14  C   UNL     1       6.382  48.958   8.999  1.00  0.00     0.004 C 
ENDBRANCH  12  13
ENDBRANCH  11  12
ENDBRANCH  10  11
ENDBRANCH   9  10
ENDBRANCH   1   9
TORSDOF 10
ENDMDL
MODEL 7
REMARK VINA RESULT:    -4.733      4.113      6.516
REMARK INTER + INTRA:          -8.698
REMARK INTER:                  -7.699
REMARK INTRA:                  -1.000
REMARK UNBOUND:                -1.199
REMARK SMILES CCCCCCCCCCCC(=O)[O-]
REMARK SMILES IDX 7 1 8 2 9 3 10 4 11 5 12 6 13 7 14 8 6 9 5 10 4 11 3 12 2 13
REMARK SMILES IDX 1 14
REMARK H PARENT
REMARK Flexibility Score: inf
ROOT
ATOM      1  C   UNL     1       3.803  43.598   9.563  1.00  0.00     0.000 C 
ENDROOT
BRANCH   1   2
ATOM      2  C   UNL     1       2.502  42.871   9.946  1.00  0.00     0.000 C 
BRANCH   2   3
ATOM      3  C   UNL     1       2.245  42.748  11.460  1.00  0.00     0.000 C 
BRANCH   3   4
ATOM      4  C   UNL     1       2.425  41.332  12.043  1.00  0.00     0.006 C 
BRANCH   4   5
ATOM      5  C   UNL     1       3.879  40.840  12.078  1.00  0.00     0.053 C 
BRANCH   5   6
ATOM      6  C   UNL     1       3.996  39.482  12.698  1.00  0.00     0.041 C 
ATOM      7  O   UNL     1       3.194  38.566  12.376  1.00  0.00    -0.550 OA
ATOM      8  O   UNL     1       5.012  39.218  13.608  1.00  0.00    -0.550 OA
ENDBRANCH   5   6
ENDBRANCH   4   5
ENDBRANCH   3   4
ENDBRANCH   2   3
ENDBRANCH   1   2
BRANCH   1   9
ATOM      9  C   UNL     1       4.451  44.328  10.749  1.00  0.00     0.000 C 
BRANCH   9  10
ATOM     10  C   UNL     1       4.151  45.830  10.700  1.00  0.00    -0.000 C 
BRANCH  10  11
ATOM     11  C   UNL     1       4.614  46.441   9.370  1.00  0.00    -0.000 C 
BRANCH  11  12
ATOM     12  C   UNL     1       3.515  47.265   8.676  1.00  0.00    -0.000 C 
BRANCH  12  13
ATOM     13  C   UNL     1       2.131  47.141   9.346  1.00  0.00    -0.003 C 
ATOM     14  C   UNL     1       1.104  46.464   8.437  1.00  0.00     0.004 C 
ENDBRANCH  12  13
ENDBRANCH  11  12
ENDBRANCH  10  11
ENDBRANCH   9  10
ENDBRANCH   1   9
TORSDOF 10
ENDMDL
MODEL 8
REMARK VINA RESULT:    -4.662      2.412      3.188
REMARK INTER + INTRA:          -8.586
REMARK INTER:                  -7.839
REMARK INTRA:                  -0.747
REMARK UNBOUND:                -1.199
REMARK SMILES CCCCCCCCCCCC(=O)[O-]
REMARK SMILES IDX 7 1 8 2 9 3 10 4 11 5 12 6 13 7 14 8 6 9 5 10 4 11 3 12 2 13
REMARK SMILES IDX 1 14
REMARK H PARENT
REMARK Flexibility Score: inf
ROOT
ATOM      1  C   UNL     1       1.226  43.920  11.255  1.00  0.00     0.000 C 
ENDROOT
BRANCH   1   2
ATOM      2  C   UNL     1       1.671  44.142   9.798  1.00  0.00     0.000 C 
BRANCH   2   3
ATOM      3  C   UNL     1       2.532  45.399   9.564  1.00  0.00     0.000 C 
BRANCH   3   4
ATOM      4  C   UNL     1       4.055  45.157   9.547  1.00  0.00     0.006 C 
BRANCH   4   5
ATOM      5  C   UNL     1       4.877  46.232  10.274  1.00  0.00     0.053 C 
BRANCH   5   6
ATOM      6  C   UNL     1       5.504  47.198   9.316  1.00  0.00     0.041 C 
ATOM      7  O   UNL     1       6.739  47.439   9.374  1.00  0.00    -0.550 OA
ATOM      8  O   UNL     1       4.730  47.809   8.338  1.00  0.00    -0.550 OA
ENDBRANCH   5   6
ENDBRANCH   4   5
ENDBRANCH   3   4
ENDBRANCH   2   3
ENDBRANCH   1   2
BRANCH   1   9
ATOM      9  C   UNL     1       2.302  43.235  12.111  1.00  0.00     0.000 C 
BRANCH   9  10
ATOM     10  C   UNL     1       2.736  41.905  11.486  1.00  0.00    -0.000 C 
BRANCH  10  11
ATOM     11  C   UNL     1       4.202  41.593  11.815  1.00  0.00    -0.000 C 
BRANCH  11  12
ATOM     12  C   UNL     1       4.382  40.237  12.519  1.00  0.00    -0.000 C 
BRANCH  12  13
ATOM     13  C   UNL     1       3.066  39.454  12.700  1.00  0.00    -0.003 C 
ATOM     14  C   UNL     1       3.141  38.046  12.105  1.00  0.00     0.004 C 
ENDBRANCH  12  13
ENDBRANCH  11  12
ENDBRANCH  10  11
ENDBRANCH   9  10
ENDBRANCH   1   9
TORSDOF 10
ENDMDL
MODEL 9
REMARK VINA RESULT:    -4.621      0.902      3.178
REMARK INTER + INTRA:          -8.521
REMARK INTER:                  -7.312
REMARK INTRA:                  -1.209
REMARK UNBOUND:                -1.199
REMARK SMILES CCCCCCCCCCCC(=O)[O-]
REMARK SMILES IDX 7 1 8 2 9 3 10 4 11 5 12 6 13 7 14 8 6 9 5 10 4 11 3 12 2 13
REMARK SMILES IDX 1 14
REMARK H PARENT
REMARK Flexibility Score: inf
ROOT
ATOM      1  C   UNL     1       3.783  43.408   9.592  1.00  0.00     0.000 C 
ENDROOT
BRANCH   1   2
ATOM      2  C   UNL     1       4.243  44.218  10.818  1.00  0.00     0.000 C 
BRANCH   2   3
ATOM      3  C   UNL     1       4.296  45.744  10.609  1.00  0.00     0.000 C 
BRANCH   3   4
ATOM      4  C   UNL     1       4.895  46.202   9.263  1.00  0.00     0.006 C 
BRANCH   4   5
ATOM      5  C   UNL     1       5.003  47.725   9.102  1.00  0.00     0.053 C 
BRANCH   5   6
ATOM      6  C   UNL     1       6.427  48.188   9.106  1.00  0.00     0.041 C 
ATOM      7  O   UNL     1       7.349  47.403   9.454  1.00  0.00    -0.550 OA
ATOM      8  O   UNL     1       6.741  49.477   8.692  1.00  0.00    -0.550 OA
ENDBRANCH   5   6
ENDBRANCH   4   5
ENDBRANCH   3   4
ENDBRANCH   2   3
ENDBRANCH   1   2
BRANCH   1   9
ATOM      9  C   UNL     1       2.317  42.960   9.687  1.00  0.00     0.000 C 
BRANCH   9  10
ATOM     10  C   UNL     1       1.381  44.009   9.077  1.00  0.00    -0.000 C 
BRANCH  10  11
ATOM     11  C   UNL     1       0.739  44.876  10.169  1.00  0.00    -0.000 C 
BRANCH  11  12
ATOM     12  C   UNL     1       0.171  46.199   9.626  1.00  0.00    -0.000 C 
BRANCH  12  13
ATOM     13  C   UNL     1       1.248  47.269   9.353  1.00  0.00    -0.003 C 
ATOM     14  C   UNL     1       1.449  47.525   7.859  1.00  0.00     0.004 C 
ENDBRANCH  12  13
ENDBRANCH  11  12
ENDBRANCH  10  11
ENDBRANCH   9  10
ENDBRANCH   1   9
TORSDOF 10
ENDMDL
