MODEL 1
REMARK VINA RESULT:    -5.428      0.000      0.000
REMARK INTER + INTRA:         -11.527
REMARK INTER:                  -9.870
REMARK INTRA:                  -1.657
REMARK UNBOUND:                -1.657
REMARK SMILES CCCCCCCCCCCCCCCC(=O)[O-]
REMARK SMILES IDX 9 1 10 2 11 3 12 4 13 5 14 6 15 7 16 8 17 9 18 10 8 11 7 12
REMARK SMILES IDX 6 13 5 14 4 15 3 16 2 17 1 18
REMARK H PARENT
REMARK Flexibility Score: inf
ROOT
ATOM      1  C   UNL     1      10.466  23.927  -9.030  1.00  0.00     0.000 C 
ENDROOT
BRANCH   1   2
ATOM      2  C   UNL     1       9.837  22.946 -10.037  1.00  0.00     0.000 C 
BRANCH   2   3
ATOM      3  C   UNL     1       8.513  22.297  -9.582  1.00  0.00     0.000 C 
BRANCH   3   4
ATOM      4  C   UNL     1       7.288  22.616 -10.462  1.00  0.00     0.000 C 
BRANCH   4   5
ATOM      5  C   UNL     1       6.102  23.251  -9.717  1.00  0.00     0.000 C 
BRANCH   5   6
ATOM      6  C   UNL     1       6.536  24.060  -8.482  1.00  0.00     0.006 C 
BRANCH   6   7
ATOM      7  C   UNL     1       5.987  23.466  -7.180  1.00  0.00     0.053 C 
BRANCH   7   8
ATOM      8  C   UNL     1       6.750  23.952  -5.985  1.00  0.00     0.041 C 
ATOM      9  O   UNL     1       7.426  23.146  -5.293  1.00  0.00    -0.550 OA
ATOM     10  O   UNL     1       6.684  25.290  -5.616  1.00  0.00    -0.550 OA
ENDBRANCH   7   8
ENDBRANCH   6   7
ENDBRANCH   5   6
ENDBRANCH   4   5
ENDBRANCH   3   4
ENDBRANCH   2   3
ENDBRANCH   1   2
BRANCH   1  11
ATOM     11  C   UNL     1      11.805  24.506  -9.517  1.00  0.00     0.000 C 
BRANCH  11  12
ATOM     12  C   UNL     1      12.981  24.162  -8.585  1.00  0.00    -0.000 C 
BRANCH  12  13
ATOM     13  C   UNL     1      12.655  23.157  -7.465  1.00  0.00    -0.000 C 
BRANCH  13  14
ATOM     14  C   UNL     1      13.281  21.772  -7.703  1.00  0.00    -0.000 C 
BRANCH  14  15
ATOM     15  C   UNL     1      12.413  20.875  -8.601  1.00  0.00    -0.000 C 
BRANCH  15  16
ATOM     16  C   UNL     1      11.724  19.746  -7.814  1.00  0.00    -0.000 C 
BRANCH  16  17
ATOM     17  C   UNL     1      10.219  19.994  -7.626  1.00  0.00    -0.003 C 
ATOM     18  C   UNL     1       9.921  21.082  -6.594  1.00  0.00     0.004 C 
ENDBRANCH  16  17
ENDBRANCH  15  16
ENDBRANCH  14  15
ENDBRANCH  13  14
ENDBRANCH  12  13
ENDBRANCH  11  12
ENDBRANCH   1  11
TORSDOF 14
ENDMDL
MODEL 2
REMARK VINA RESULT:    -5.355      3.088      7.177
REMARK INTER + INTRA:         -11.394
REMARK INTER:                  -9.658
REMARK INTRA:                  -1.737
REMARK UNBOUND:                -1.657
REMARK SMILES CCCCCCCCCCCCCCCC(=O)[O-]
REMARK SMILES IDX 9 1 10 2 11 3 12 4 13 5 14 6 15 7 16 8 17 9 18 10 8 11 7 12
REMARK SMILES IDX 6 13 5 14 4 15 3 16 2 17 1 18
REMARK H PARENT
REMARK Flexibility Score: inf
ROOT
ATOM      1  C   UNL     1       4.489  23.304  -6.557  1.00  0.00     0.000 C 
ENDROOT
BRANCH   1   2
ATOM      2  C   UNL     1       5.839  22.809  -6.004  1.00  0.00     0.000 C 
BRANCH   2   3
ATOM      3  C   UNL     1       7.024  23.776  -6.208  1.00  0.00     0.000 C 
BRANCH   3   4
ATOM      4  C   UNL     1       6.897  24.727  -7.414  1.00  0.00     0.000 C 
BRANCH   4   5
ATOM      5  C   UNL     1       7.791  24.374  -8.615  1.00  0.00     0.000 C 
BRANCH   5   6
ATOM      6  C   UNL     1       8.527  23.035  -8.439  1.00  0.00     0.006 C 
BRANCH   6   7
ATOM      7  C   UNL     1       9.115  22.520  -9.758  1.00  0.00     0.053 C 
BRANCH   7   8
ATOM      8  C   UNL     1      10.609  22.635  -9.779  1.00  0.00     0.041 C 
ATOM      9  O   UNL     1      11.314  21.877  -9.061  1.00  0.00    -0.550 OA
ATOM     10  O   UNL     1      11.221  23.604 -10.564  1.00  0.00    -0.550 OA
ENDBRANCH   7   8
ENDBRANCH   6   7
ENDBRANCH   5   6
ENDBRANCH   4   5
ENDBRANCH   3   4
ENDBRANCH   2   3
ENDBRANCH   1   2
BRANCH   1  11
ATOM     11  C   UNL     1       3.965  22.438  -7.715  1.00  0.00     0.000 C 
BRANCH  11  12
ATOM     12  C   UNL     1       4.110  23.120  -9.088  1.00  0.00    -0.000 C 
BRANCH  12  13
ATOM     13  C   UNL     1       5.110  22.448 -10.048  1.00  0.00    -0.000 C 
BRANCH  13  14
ATOM     14  C   UNL     1       5.342  23.260 -11.334  1.00  0.00    -0.000 C 
BRANCH  14  15
ATOM     15  C   UNL     1       4.800  24.696 -11.235  1.00  0.00    -0.000 C 
BRANCH  15  16
ATOM     16  C   UNL     1       4.433  25.282 -12.609  1.00  0.00    -0.000 C 
BRANCH  16  17
ATOM     17  C   UNL     1       3.848  26.699 -12.507  1.00  0.00    -0.003 C 
ATOM     18  C   UNL     1       4.839  27.710 -11.928  1.00  0.00     0.004 C 
ENDBRANCH  16  17
ENDBRANCH  15  16
ENDBRANCH  14  15
ENDBRANCH  13  14
ENDBRANCH  12  13
ENDBRANCH  11  12
ENDBRANCH   1  11
TORSDOF 14
ENDMDL
MODEL 3
REMARK VINA RESULT:    -5.334      2.532      6.107
REMARK INTER + INTRA:         -11.356
REMARK INTER:                  -9.471
REMARK INTRA:                  -1.885
REMARK UNBOUND:                -1.657
REMARK SMILES CCCCCCCCCCCCCCCC(=O)[O-]
REMARK SMILES IDX 9 1 10 2 11 3 12 4 13 5 14 6 15 7 16 8 17 9 18 10 8 11 7 12
REMARK SMILES IDX 6 13 5 14 4 15 3 16 2 17 1 18
REMARK H PARENT
REMARK Flexibility Score: inf
ROOT
ATOM      1  C   UNL     1       6.483  22.813  -5.589  1.00  0.00     0.000 C 
ENDROOT
BRANCH   1   2
ATOM      2  C   UNL     1       7.985  22.990  -5.301  1.00  0.00     0.000 C 
BRANCH   2   3
ATOM      3  C   UNL     1       8.842  21.720  -5.486  1.00  0.00     0.000 C 
BRANCH   3   4
ATOM      4  C   UNL     1      10.102  21.899  -6.356  1.00  0.00     0.000 C 
BRANCH   4   5
ATOM      5  C   UNL     1      10.092  21.112  -7.679  1.00  0.00     0.000 C 
BRANCH   5   6
ATOM      6  C   UNL     1      11.272  21.475  -8.597  1.00  0.00     0.006 C 
BRANCH   6   7
ATOM      7  C   UNL     1      10.976  22.707  -9.460  1.00  0.00     0.053 C 
BRANCH   7   8
ATOM      8  C   UNL     1      11.925  23.829  -9.167  1.00  0.00     0.041 C 
ATOM      9  O   UNL     1      12.570  23.847  -8.085  1.00  0.00    -0.550 OA
ATOM     10  O   UNL     1      12.068  24.873 -10.072  1.00  0.00    -0.550 OA
ENDBRANCH   7   8
ENDBRANCH   6   7
ENDBRANCH   5   6
ENDBRANCH   4   5
ENDBRANCH   3   4
ENDBRANCH   2   3
ENDBRANCH   1   2
BRANCH   1  11
ATOM     11  C   UNL     1       6.005  23.635  -6.798  1.00  0.00     0.000 C 
BRANCH  11  12
ATOM     12  C   UNL     1       7.083  24.596  -7.334  1.00  0.00    -0.000 C 
BRANCH  12  13
ATOM     13  C   UNL     1       7.618  24.259  -8.739  1.00  0.00    -0.000 C 
BRANCH  13  14
ATOM     14  C   UNL     1       7.257  22.833  -9.190  1.00  0.00    -0.000 C 
BRANCH  14  15
ATOM     15  C   UNL     1       6.861  22.763 -10.674  1.00  0.00    -0.000 C 
BRANCH  15  16
ATOM     16  C   UNL     1       5.338  22.666 -10.872  1.00  0.00    -0.000 C 
BRANCH  16  17
ATOM     17  C   UNL     1       4.617  23.982 -10.539  1.00  0.00    -0.003 C 
ATOM     18  C   UNL     1       4.593  24.960 -11.714  1.00  0.00     0.004 C 
ENDBRANCH  16  17
ENDBRANCH  15  16
ENDBRANCH  14  15
ENDBRANCH  13  14
ENDBRANCH  12  13
ENDBRANCH  11  12
ENDBRANCH   1  11
TORSDOF 14
ENDMDL
MODEL 4
REMARK VINA RESULT:    -5.302      2.654      5.996
REMARK INTER + INTRA:         -11.299
REMARK INTER:                  -9.307
REMARK INTRA:                  -1.991
REMARK UNBOUND:                -1.657
REMARK SMILES CCCCCCCCCCCCCCCC(=O)[O-]
REMARK SMILES IDX 9 1 10 2 11 3 12 4 13 5 14 6 15 7 16 8 17 9 18 10 8 11 7 12
REMARK SMILES IDX 6 13 5 14 4 15 3 16 2 17 1 18
REMARK H PARENT
REMARK Flexibility Score: inf
ROOT
ATOM      1  C   UNL     1       7.577  22.293 -10.151  1.00  0.00     0.000 C 
ENDROOT
BRANCH   1   2
ATOM      2  C   UNL     1       8.253  23.400  -9.321  1.00  0.00     0.000 C 
BRANCH   2   3
ATOM      3  C   UNL     1       9.555  22.981  -8.606  1.00  0.00     0.000 C 
BRANCH   3   4
ATOM      4  C   UNL     1       9.660  21.484  -8.258  1.00  0.00     0.000 C 
BRANCH   4   5
ATOM      5  C   UNL     1      10.914  21.091  -7.456  1.00  0.00     0.000 C 
BRANCH   5   6
ATOM      6  C   UNL     1      11.751  22.308  -7.024  1.00  0.00     0.006 C 
BRANCH   6   7
ATOM      7  C   UNL     1      13.049  22.432  -7.832  1.00  0.00     0.053 C 
BRANCH   7   8
ATOM      8  C   UNL     1      13.370  23.862  -8.144  1.00  0.00     0.041 C 
ATOM      9  O   UNL     1      14.247  24.475  -7.480  1.00  0.00    -0.550 OA
ATOM     10  O   UNL     1      12.675  24.528  -9.146  1.00  0.00    -0.550 OA
ENDBRANCH   7   8
ENDBRANCH   6   7
ENDBRANCH   5   6
ENDBRANCH   4   5
ENDBRANCH   3   4
ENDBRANCH   2   3
ENDBRANCH   1   2
BRANCH   1  11
ATOM     11  C   UNL     1       6.042  22.378 -10.121  1.00  0.00     0.000 C 
BRANCH  11  12
ATOM     12  C   UNL     1       5.515  23.362  -9.061  1.00  0.00    -0.000 C 
BRANCH  12  13
ATOM     13  C   UNL     1       4.622  22.735  -7.973  1.00  0.00    -0.000 C 
BRANCH  13  14
ATOM     14  C   UNL     1       5.091  23.072  -6.547  1.00  0.00    -0.000 C 
BRANCH  14  15
ATOM     15  C   UNL     1       6.203  24.134  -6.523  1.00  0.00    -0.000 C 
BRANCH  15  16
ATOM     16  C   UNL     1       7.313  23.800  -5.512  1.00  0.00    -0.000 C 
BRANCH  16  17
ATOM     17  C   UNL     1       7.480  22.287  -5.300  1.00  0.00    -0.003 C 
ATOM     18  C   UNL     1       8.618  21.944  -4.338  1.00  0.00     0.004 C 
ENDBRANCH  16  17
ENDBRANCH  15  16
ENDBRANCH  14  15
ENDBRANCH  13  14
ENDBRANCH  12  13
ENDBRANCH  11  12
ENDBRANCH   1  11
TORSDOF 14
ENDMDL
MODEL 5
REMARK VINA RESULT:    -5.264      2.685      5.882
REMARK INTER + INTRA:         -11.228
REMARK INTER:                  -9.390
REMARK INTRA:                  -1.838
REMARK UNBOUND:                -1.657
REMARK SMILES CCCCCCCCCCCCCCCC(=O)[O-]
REMARK SMILES IDX 9 1 10 2 11 3 12 4 13 5 14 6 15 7 16 8 17 9 18 10 8 11 7 12
REMARK SMILES IDX 6 13 5 14 4 15 3 16 2 17 1 18
REMARK H PARENT
REMARK Flexibility Score: inf
ROOT
ATOM      1  C   UNL     1       9.597  21.466  -8.626  1.00  0.00     0.000 C 
ENDROOT
BRANCH   1   2
ATOM      2  C   UNL     1      10.734  22.150  -9.408  1.00  0.00     0.000 C 
BRANCH   2   3
ATOM      3  C   UNL     1      10.738  23.692  -9.343  1.00  0.00     0.000 C 
BRANCH   3   4
ATOM      4  C   UNL     1      12.130  24.349  -9.422  1.00  0.00     0.000 C 
BRANCH   4   5
ATOM      5  C   UNL     1      12.925  24.344  -8.104  1.00  0.00     0.000 C 
BRANCH   5   6
ATOM      6  C   UNL     1      13.787  23.081  -7.932  1.00  0.00     0.006 C 
BRANCH   6   7
ATOM      7  C   UNL     1      13.425  22.303  -6.661  1.00  0.00     0.053 C 
BRANCH   7   8
ATOM      8  C   UNL     1      14.236  22.756  -5.486  1.00  0.00     0.041 C 
ATOM      9  O   UNL     1      15.418  23.161  -5.649  1.00  0.00    -0.550 OA
ATOM     10  O   UNL     1      13.699  22.698  -4.206  1.00  0.00    -0.550 OA
ENDBRANCH   7   8
ENDBRANCH   6   7
ENDBRANCH   5   6
ENDBRANCH   4   5
ENDBRANCH   3   4
ENDBRANCH   2   3
ENDBRANCH   1   2
BRANCH   1  11
ATOM     11  C   UNL     1      10.033  20.996  -7.228  1.00  0.00     0.000 C 
BRANCH  11  12
ATOM     12  C   UNL     1       9.814  22.065  -6.141  1.00  0.00    -0.000 C 
BRANCH  12  13
ATOM     13  C   UNL     1       8.622  21.804  -5.200  1.00  0.00    -0.000 C 
BRANCH  13  14
ATOM     14  C   UNL     1       7.504  22.851  -5.349  1.00  0.00    -0.000 C 
BRANCH  14  15
ATOM     15  C   UNL     1       7.694  23.752  -6.579  1.00  0.00    -0.000 C 
BRANCH  15  16
ATOM     16  C   UNL     1       6.458  23.766  -7.495  1.00  0.00    -0.000 C 
BRANCH  16  17
ATOM     17  C   UNL     1       6.807  24.123  -8.949  1.00  0.00    -0.003 C 
ATOM     18  C   UNL     1       6.623  22.948  -9.910  1.00  0.00     0.004 C 
ENDBRANCH  16  17
ENDBRANCH  15  16
ENDBRANCH  14  15
ENDBRANCH  13  14
ENDBRANCH  12  13
ENDBRANCH  11  12
ENDBRANCH   1  11
TORSDOF 14
ENDMDL
MODEL 6
REMARK VINA RESULT:    -5.240      2.104      4.178
REMARK INTER + INTRA:         -11.185
REMARK INTER:                  -9.446
REMARK INTRA:                  -1.739
REMARK UNBOUND:                -1.657
REMARK SMILES CCCCCCCCCCCCCCCC(=O)[O-]
REMARK SMILES IDX 9 1 10 2 11 3 12 4 13 5 14 6 15 7 16 8 17 9 18 10 8 11 7 12
REMARK SMILES IDX 6 13 5 14 4 15 3 16 2 17 1 18
REMARK H PARENT
REMARK Flexibility Score: inf
ROOT
ATOM      1  C   UNL     1       9.633  22.099  -6.443  1.00  0.00     0.000 C 
ENDROOT
BRANCH   1   2
ATOM      2  C   UNL     1       8.475  21.942  -5.441  1.00  0.00     0.000 C 
BRANCH   2   3
ATOM      3  C   UNL     1       7.592  23.194  -5.257  1.00  0.00     0.000 C 
BRANCH   3   4
ATOM      4  C   UNL     1       6.711  23.560  -6.467  1.00  0.00     0.000 C 
BRANCH   4   5
ATOM      5  C   UNL     1       7.153  24.818  -7.234  1.00  0.00     0.000 C 
BRANCH   5   6
ATOM      6  C   UNL     1       7.165  24.615  -8.759  1.00  0.00     0.006 C 
BRANCH   6   7
ATOM      7  C   UNL     1       6.746  23.194  -9.156  1.00  0.00     0.053 C 
BRANCH   7   8
ATOM      8  C   UNL     1       5.472  23.194  -9.945  1.00  0.00     0.041 C 
ATOM      9  O   UNL     1       5.250  24.100 -10.792  1.00  0.00    -0.550 OA
ATOM     10  O   UNL     1       4.514  22.214  -9.719  1.00  0.00    -0.550 OA
ENDBRANCH   7   8
ENDBRANCH   6   7
ENDBRANCH   5   6
ENDBRANCH   4   5
ENDBRANCH   3   4
ENDBRANCH   2   3
ENDBRANCH   1   2
BRANCH   1  11
ATOM     11  C   UNL     1       9.991  20.783  -7.154  1.00  0.00     0.000 C 
BRANCH  11  12
ATOM     12  C   UNL     1      10.629  21.002  -8.538  1.00  0.00    -0.000 C 
BRANCH  12  13
ATOM     13  C   UNL     1      10.069  22.197  -9.334  1.00  0.00    -0.000 C 
BRANCH  13  14
ATOM     14  C   UNL     1      11.170  23.043  -9.997  1.00  0.00    -0.000 C 
BRANCH  14  15
ATOM     15  C   UNL     1      11.435  24.361  -9.252  1.00  0.00    -0.000 C 
BRANCH  15  16
ATOM     16  C   UNL     1      12.846  24.419  -8.642  1.00  0.00    -0.000 C 
BRANCH  16  17
ATOM     17  C   UNL     1      13.091  23.298  -7.619  1.00  0.00    -0.003 C 
ATOM     18  C   UNL     1      14.513  22.739  -7.680  1.00  0.00     0.004 C 
ENDBRANCH  16  17
ENDBRANCH  15  16
ENDBRANCH  14  15
ENDBRANCH  13  14
ENDBRANCH  12  13
ENDBRANCH  11  12
ENDBRANCH   1  11
TORSDOF 14
ENDMDL
MODEL 7
REMARK VINA RESULT:    -5.173      1.244      3.136
REMARK INTER + INTRA:         -11.063
REMARK INTER:                  -9.544
REMARK INTRA:                  -1.519
REMARK UNBOUND:                -1.657
REMARK SMILES CCCCCCCCCCCCCCCC(=O)[O-]
REMARK SMILES IDX 9 1 10 2 11 3 12 4 13 5 14 6 15 7 16 8 17 9 18 10 8 11 7 12
REMARK SMILES IDX 6 13 5 14 4 15 3 16 2 17 1 18
REMARK H PARENT
REMARK Flexibility Score: inf
ROOT
ATOM      1  C   UNL     1       7.899  22.850  -9.803  1.00  0.00     0.000 C 
ENDROOT
BRANCH   1   2
ATOM      2  C   UNL     1       6.886  21.888 -10.451  1.00  0.00     0.000 C 
BRANCH   2   3
ATOM      3  C   UNL     1       5.429  22.395 -10.487  1.00  0.00     0.000 C 
BRANCH   3   4
ATOM      4  C   UNL     1       5.012  23.278  -9.294  1.00  0.00     0.000 C 
BRANCH   4   5
ATOM      5  C   UNL     1       4.246  22.543  -8.180  1.00  0.00     0.000 C 
BRANCH   5   6
ATOM      6  C   UNL     1       4.548  23.100  -6.779  1.00  0.00     0.006 C 
BRANCH   6   7
ATOM      7  C   UNL     1       6.055  23.211  -6.514  1.00  0.00     0.053 C 
BRANCH   7   8
ATOM      8  C   UNL     1       6.495  24.640  -6.416  1.00  0.00     0.041 C 
ATOM      9  O   UNL     1       7.197  25.151  -7.328  1.00  0.00    -0.550 OA
ATOM     10  O   UNL     1       6.160  25.396  -5.299  1.00  0.00    -0.550 OA
ENDBRANCH   7   8
ENDBRANCH   6   7
ENDBRANCH   5   6
ENDBRANCH   4   5
ENDBRANCH   3   4
ENDBRANCH   2   3
ENDBRANCH   1   2
BRANCH   1  11
ATOM     11  C   UNL     1       9.205  22.152  -9.390  1.00  0.00     0.000 C 
BRANCH  11  12
ATOM     12  C   UNL     1       9.486  22.249  -7.879  1.00  0.00    -0.000 C 
BRANCH  12  13
ATOM     13  C   UNL     1      10.489  21.215  -7.334  1.00  0.00    -0.000 C 
BRANCH  13  14
ATOM     14  C   UNL     1      11.910  21.408  -7.891  1.00  0.00    -0.000 C 
BRANCH  14  15
ATOM     15  C   UNL     1      12.653  22.580  -7.229  1.00  0.00    -0.000 C 
BRANCH  15  16
ATOM     16  C   UNL     1      13.138  23.622  -8.253  1.00  0.00    -0.000 C 
BRANCH  16  17
ATOM     17  C   UNL     1      12.004  24.536  -8.743  1.00  0.00    -0.003 C 
ATOM     18  C   UNL     1      12.008  24.724 -10.261  1.00  0.00     0.004 C 
ENDBRANCH  16  17
ENDBRANCH  15  16
ENDBRANCH  14  15
ENDBRANCH  13  14
ENDBRANCH  12  13
ENDBRANCH  11  12
ENDBRANCH   1  11
TORSDOF 14
ENDMDL
MODEL 8
REMARK VINA RESULT:    -5.165      1.108      3.785
REMARK INTER + INTRA:         -11.048
REMARK INTER:                  -9.181
REMARK INTRA:                  -1.867
REMARK UNBOUND:                -1.657
REMARK SMILES CCCCCCCCCCCCCCCC(=O)[O-]
REMARK SMILES IDX 9 1 10 2 11 3 12 4 13 5 14 6 15 7 16 8 17 9 18 10 8 11 7 12
REMARK SMILES IDX 6 13 5 14 4 15 3 16 2 17 1 18
REMARK H PARENT
REMARK Flexibility Score: inf
ROOT
ATOM      1  C   UNL     1      13.657  22.821  -7.875  1.00  0.00     0.000 C 
ENDROOT
BRANCH   1   2
ATOM      2  C   UNL     1      12.631  22.174  -6.926  1.00  0.00     0.000 C 
BRANCH   2   3
ATOM      3  C   UNL     1      11.939  20.908  -7.473  1.00  0.00     0.000 C 
BRANCH   3   4
ATOM      4  C   UNL     1      10.404  20.886  -7.331  1.00  0.00     0.000 C 
BRANCH   4   5
ATOM      5  C   UNL     1       9.847  21.747  -6.183  1.00  0.00     0.000 C 
BRANCH   5   6
ATOM      6  C   UNL     1       8.663  22.628  -6.618  1.00  0.00     0.006 C 
BRANCH   6   7
ATOM      7  C   UNL     1       7.676  22.877  -5.471  1.00  0.00     0.053 C 
BRANCH   7   8
ATOM      8  C   UNL     1       6.579  23.813  -5.880  1.00  0.00     0.041 C 
ATOM      9  O   UNL     1       6.832  25.026  -6.106  1.00  0.00    -0.550 OA
ATOM     10  O   UNL     1       5.272  23.352  -5.975  1.00  0.00    -0.550 OA
ENDBRANCH   7   8
ENDBRANCH   6   7
ENDBRANCH   5   6
ENDBRANCH   4   5
ENDBRANCH   3   4
ENDBRANCH   2   3
ENDBRANCH   1   2
BRANCH   1  11
ATOM     11  C   UNL     1      13.256  24.241  -8.309  1.00  0.00     0.000 C 
BRANCH  11  12
ATOM     12  C   UNL     1      11.767  24.357  -8.682  1.00  0.00    -0.000 C 
BRANCH  12  13
ATOM     13  C   UNL     1      11.428  23.996 -10.140  1.00  0.00    -0.000 C 
BRANCH  13  14
ATOM     14  C   UNL     1      10.429  22.831 -10.252  1.00  0.00    -0.000 C 
BRANCH  14  15
ATOM     15  C   UNL     1       9.019  23.211  -9.772  1.00  0.00    -0.000 C 
BRANCH  15  16
ATOM     16  C   UNL     1       7.948  22.213 -10.246  1.00  0.00    -0.000 C 
BRANCH  16  17
ATOM     17  C   UNL     1       6.542  22.575  -9.742  1.00  0.00    -0.003 C 
ATOM     18  C   UNL     1       6.313  24.084  -9.653  1.00  0.00     0.004 C 
ENDBRANCH  16  17
ENDBRANCH  15  16
ENDBRANCH  14  15
ENDBRANCH  13  14
ENDBRANCH  12  13
ENDBRANCH  11  12
ENDBRANCH   1  11
TORSDOF 14
ENDMDL
MODEL 9
REMARK VINA RESULT:    -5.156      2.609      5.809
REMARK INTER + INTRA:         -11.032
REMARK INTER:                  -9.637
REMARK INTRA:                  -1.396
REMARK UNBOUND:                -1.657
REMARK SMILES CCCCCCCCCCCCCCCC(=O)[O-]
REMARK SMILES IDX 9 1 10 2 11 3 12 4 13 5 14 6 15 7 16 8 17 9 18 10 8 11 7 12
REMARK SMILES IDX 6 13 5 14 4 15 3 16 2 17 1 18
REMARK H PARENT
REMARK Flexibility Score: inf
ROOT
ATOM      1  C   UNL     1       7.424  22.041 -10.426  1.00  0.00     0.000 C 
ENDROOT
BRANCH   1   2
ATOM      2  C   UNL     1       8.795  21.940  -9.731  1.00  0.00     0.000 C 
BRANCH   2   3
ATOM      3  C   UNL     1       9.550  23.276  -9.573  1.00  0.00     0.000 C 
BRANCH   3   4
ATOM      4  C   UNL     1      11.009  23.269 -10.072  1.00  0.00     0.000 C 
BRANCH   4   5
ATOM      5  C   UNL     1      11.817  24.532  -9.729  1.00  0.00     0.000 C 
BRANCH   5   6
ATOM      6  C   UNL     1      12.835  24.301  -8.599  1.00  0.00     0.006 C 
BRANCH   6   7
ATOM      7  C   UNL     1      12.640  22.942  -7.914  1.00  0.00     0.053 C 
BRANCH   7   8
ATOM      8  C   UNL     1      13.775  22.621  -6.990  1.00  0.00     0.041 C 
ATOM      9  O   UNL     1      14.947  22.511  -7.439  1.00  0.00    -0.550 OA
ATOM     10  O   UNL     1      13.533  22.408  -5.639  1.00  0.00    -0.550 OA
ENDBRANCH   7   8
ENDBRANCH   6   7
ENDBRANCH   5   6
ENDBRANCH   4   5
ENDBRANCH   3   4
ENDBRANCH   2   3
ENDBRANCH   1   2
BRANCH   1  11
ATOM     11  C   UNL     1       6.681  23.346 -10.093  1.00  0.00     0.000 C 
BRANCH  11  12
ATOM     12  C   UNL     1       5.332  23.105  -9.390  1.00  0.00    -0.000 C 
BRANCH  12  13
ATOM     13  C   UNL     1       5.361  23.243  -7.856  1.00  0.00    -0.000 C 
BRANCH  13  14
ATOM     14  C   UNL     1       6.575  24.041  -7.350  1.00  0.00    -0.000 C 
BRANCH  14  15
ATOM     15  C   UNL     1       6.706  24.014  -5.819  1.00  0.00    -0.000 C 
BRANCH  15  16
ATOM     16  C   UNL     1       7.706  22.950  -5.332  1.00  0.00    -0.000 C 
BRANCH  16  17
ATOM     17  C   UNL     1       8.768  22.614  -6.391  1.00  0.00    -0.003 C 
ATOM     18  C   UNL     1       9.831  21.642  -5.877  1.00  0.00     0.004 C 
ENDBRANCH  16  17
ENDBRANCH  15  16
ENDBRANCH  14  15
ENDBRANCH  13  14
ENDBRANCH  12  13
ENDBRANCH  11  12
ENDBRANCH   1  11
TORSDOF 14
ENDMDL
