MODEL 1
REMARK VINA RESULT:    -3.911      0.000      0.000
REMARK INTER + INTRA:          -7.346
REMARK INTER:                  -6.655
REMARK INTRA:                  -0.691
REMARK UNBOUND:                -0.691
REMARK SMILES CCCCCCCCCCCCCC(=O)[O-]
REMARK SMILES IDX 8 1 9 2 10 3 11 4 12 5 13 6 14 7 15 8 16 9 7 10 6 11 5 12
REMARK SMILES IDX 4 13 3 14 2 15 1 16
REMARK H PARENT
REMARK Flexibility Score: inf
ROOT
ATOM      1  C   UNL     1      57.743  36.404  52.574  1.00  0.00     0.000 C 
ENDROOT
BRANCH   1   2
ATOM      2  C   UNL     1      58.607  35.139  52.476  1.00  0.00     0.000 C 
BRANCH   2   3
ATOM      3  C   UNL     1      59.089  34.915  51.038  1.00  0.00     0.000 C 
BRANCH   3   4
ATOM      4  C   UNL     1      58.516  35.977  50.093  1.00  0.00     0.000 C 
BRANCH   4   5
ATOM      5  C   UNL     1      58.995  35.750  48.654  1.00  0.00     0.006 C 
BRANCH   5   6
ATOM      6  C   UNL     1      59.322  37.080  47.968  1.00  0.00     0.053 C 
BRANCH   6   7
ATOM      7  C   UNL     1      60.789  37.181  47.693  1.00  0.00     0.041 C 
ATOM      8  O   UNL     1      61.560  37.690  48.548  1.00  0.00    -0.550 OA
ATOM      9  O   UNL     1      61.312  36.668  46.513  1.00  0.00    -0.550 OA
ENDBRANCH   6   7
ENDBRANCH   5   6
ENDBRANCH   4   5
ENDBRANCH   3   4
ENDBRANCH   2   3
ENDBRANCH   1   2
BRANCH   1  10
ATOM     10  C   UNL     1      57.893  37.128  53.925  1.00  0.00     0.000 C 
BRANCH  10  11
ATOM     11  C   UNL     1      59.047  36.621  54.813  1.00  0.00    -0.000 C 
BRANCH  11  12
ATOM     12  C   UNL     1      59.650  37.672  55.763  1.00  0.00    -0.000 C 
BRANCH  12  13
ATOM     13  C   UNL     1      58.584  38.544  56.443  1.00  0.00    -0.000 C 
BRANCH  13  14
ATOM     14  C   UNL     1      58.724  38.489  57.971  1.00  0.00    -0.000 C 
BRANCH  14  15
ATOM     15  C   UNL     1      59.721  37.417  58.435  1.00  0.00    -0.003 C 
ATOM     16  C   UNL     1      60.950  38.011  59.122  1.00  0.00     0.004 C 
ENDBRANCH  14  15
ENDBRANCH  13  14
ENDBRANCH  12  13
ENDBRANCH  11  12
ENDBRANCH  10  11
ENDBRANCH   1  10
TORSDOF 12
ENDMDL
MODEL 2
REMARK VINA RESULT:    -3.662     16.260     17.796
REMARK INTER + INTRA:          -6.922
REMARK INTER:                  -5.263
REMARK INTRA:                  -1.659
REMARK UNBOUND:                -0.691
REMARK SMILES CCCCCCCCCCCCCC(=O)[O-]
REMARK SMILES IDX 8 1 9 2 10 3 11 4 12 5 13 6 14 7 15 8 16 9 7 10 6 11 5 12
REMARK SMILES IDX 4 13 3 14 2 15 1 16
REMARK H PARENT
REMARK Flexibility Score: inf
ROOT
ATOM      1  C   UNL     1      72.302  50.366  55.889  1.00  0.00     0.000 C 
ENDROOT
BRANCH   1   2
ATOM      2  C   UNL     1      71.741  51.777  56.110  1.00  0.00     0.000 C 
BRANCH   2   3
ATOM      3  C   UNL     1      70.883  52.219  54.917  1.00  0.00     0.000 C 
BRANCH   3   4
ATOM      4  C   UNL     1      71.038  51.250  53.739  1.00  0.00     0.000 C 
BRANCH   4   5
ATOM      5  C   UNL     1      69.733  51.142  52.940  1.00  0.00     0.006 C 
BRANCH   5   6
ATOM      6  C   UNL     1      69.986  51.352  51.445  1.00  0.00     0.053 C 
BRANCH   6   7
ATOM      7  C   UNL     1      68.774  50.979  50.651  1.00  0.00     0.041 C 
ATOM      8  O   UNL     1      68.342  51.749  49.753  1.00  0.00    -0.550 OA
ATOM      9  O   UNL     1      68.149  49.758  50.869  1.00  0.00    -0.550 OA
ENDBRANCH   6   7
ENDBRANCH   5   6
ENDBRANCH   4   5
ENDBRANCH   3   4
ENDBRANCH   2   3
ENDBRANCH   1   2
BRANCH   1  10
ATOM     10  C   UNL     1      71.950  49.396  57.032  1.00  0.00     0.000 C 
BRANCH  10  11
ATOM     11  C   UNL     1      70.520  49.538  57.592  1.00  0.00    -0.000 C 
BRANCH  11  12
ATOM     12  C   UNL     1      69.424  48.841  56.764  1.00  0.00    -0.000 C 
BRANCH  12  13
ATOM     13  C   UNL     1      68.354  49.815  56.250  1.00  0.00    -0.000 C 
BRANCH  13  14
ATOM     14  C   UNL     1      68.192  51.006  57.207  1.00  0.00    -0.000 C 
BRANCH  14  15
ATOM     15  C   UNL     1      67.592  52.241  56.518  1.00  0.00    -0.003 C 
ATOM     16  C   UNL     1      66.209  52.604  57.057  1.00  0.00     0.004 C 
ENDBRANCH  14  15
ENDBRANCH  13  14
ENDBRANCH  12  13
ENDBRANCH  11  12
ENDBRANCH  10  11
ENDBRANCH   1  10
TORSDOF 12
ENDMDL
MODEL 3
REMARK VINA RESULT:    -3.645     14.550     17.098
REMARK INTER + INTRA:          -6.893
REMARK INTER:                  -6.260
REMARK INTRA:                  -0.633
REMARK UNBOUND:                -0.691
REMARK SMILES CCCCCCCCCCCCCC(=O)[O-]
REMARK SMILES IDX 8 1 9 2 10 3 11 4 12 5 13 6 14 7 15 8 16 9 7 10 6 11 5 12
REMARK SMILES IDX 4 13 3 14 2 15 1 16
REMARK H PARENT
REMARK Flexibility Score: inf
ROOT
ATOM      1  C   UNL     1      67.847  51.157  56.187  1.00  0.00     0.000 C 
ENDROOT
BRANCH   1   2
ATOM      2  C   UNL     1      67.265  50.277  57.302  1.00  0.00     0.000 C 
BRANCH   2   3
ATOM      3  C   UNL     1      68.015  48.943  57.396  1.00  0.00     0.000 C 
BRANCH   3   4
ATOM      4  C   UNL     1      67.287  47.966  58.327  1.00  0.00     0.000 C 
BRANCH   4   5
ATOM      5  C   UNL     1      65.830  47.772  57.890  1.00  0.00     0.006 C 
BRANCH   5   6
ATOM      6  C   UNL     1      65.272  46.446  58.412  1.00  0.00     0.053 C 
BRANCH   6   7
ATOM      7  C   UNL     1      65.422  45.372  57.381  1.00  0.00     0.041 C 
ATOM      8  O   UNL     1      65.015  44.204  57.619  1.00  0.00    -0.550 OA
ATOM      9  O   UNL     1      65.967  45.671  56.140  1.00  0.00    -0.550 OA
ENDBRANCH   6   7
ENDBRANCH   5   6
ENDBRANCH   4   5
ENDBRANCH   3   4
ENDBRANCH   2   3
ENDBRANCH   1   2
BRANCH   1  10
ATOM     10  C   UNL     1      69.125  50.566  55.564  1.00  0.00     0.000 C 
BRANCH  10  11
ATOM     11  C   UNL     1      69.380  50.963  54.095  1.00  0.00    -0.000 C 
BRANCH  11  12
ATOM     12  C   UNL     1      70.747  51.619  53.826  1.00  0.00    -0.000 C 
BRANCH  12  13
ATOM     13  C   UNL     1      71.290  51.313  52.422  1.00  0.00    -0.000 C 
BRANCH  13  14
ATOM     14  C   UNL     1      71.028  52.487  51.467  1.00  0.00    -0.000 C 
BRANCH  14  15
ATOM     15  C   UNL     1      70.350  52.046  50.161  1.00  0.00    -0.003 C 
ATOM     16  C   UNL     1      69.011  51.348  50.398  1.00  0.00     0.004 C 
ENDBRANCH  14  15
ENDBRANCH  13  14
ENDBRANCH  12  13
ENDBRANCH  11  12
ENDBRANCH  10  11
ENDBRANCH   1  10
TORSDOF 12
ENDMDL
MODEL 4
REMARK VINA RESULT:    -3.617     18.044     20.062
REMARK INTER + INTRA:          -6.846
REMARK INTER:                  -5.240
REMARK INTRA:                  -1.606
REMARK UNBOUND:                -0.691
REMARK SMILES CCCCCCCCCCCCCC(=O)[O-]
REMARK SMILES IDX 8 1 9 2 10 3 11 4 12 5 13 6 14 7 15 8 16 9 7 10 6 11 5 12
REMARK SMILES IDX 4 13 3 14 2 15 1 16
REMARK H PARENT
REMARK Flexibility Score: inf
ROOT
ATOM      1  C   UNL     1      71.688  53.230  51.249  1.00  0.00     0.000 C 
ENDROOT
BRANCH   1   2
ATOM      2  C   UNL     1      70.905  54.210  52.134  1.00  0.00     0.000 C 
BRANCH   2   3
ATOM      3  C   UNL     1      70.105  53.462  53.208  1.00  0.00     0.000 C 
BRANCH   3   4
ATOM      4  C   UNL     1      70.793  52.145  53.588  1.00  0.00     0.000 C 
BRANCH   4   5
ATOM      5  C   UNL     1      69.763  51.084  53.994  1.00  0.00     0.006 C 
BRANCH   5   6
ATOM      6  C   UNL     1      69.852  50.776  55.491  1.00  0.00     0.053 C 
BRANCH   6   7
ATOM      7  C   UNL     1      68.483  50.655  56.084  1.00  0.00     0.041 C 
ATOM      8  O   UNL     1      68.102  49.563  56.581  1.00  0.00    -0.550 OA
ATOM      9  O   UNL     1      67.646  51.762  56.131  1.00  0.00    -0.550 OA
ENDBRANCH   6   7
ENDBRANCH   5   6
ENDBRANCH   4   5
ENDBRANCH   3   4
ENDBRANCH   2   3
ENDBRANCH   1   2
BRANCH   1  10
ATOM     10  C   UNL     1      72.252  53.890  49.978  1.00  0.00     0.000 C 
BRANCH  10  11
ATOM     11  C   UNL     1      71.266  54.808  49.226  1.00  0.00    -0.000 C 
BRANCH  11  12
ATOM     12  C   UNL     1      70.101  54.081  48.529  1.00  0.00    -0.000 C 
BRANCH  12  13
ATOM     13  C   UNL     1      68.737  54.399  49.158  1.00  0.00    -0.000 C 
BRANCH  13  14
ATOM     14  C   UNL     1      68.023  53.111  49.595  1.00  0.00    -0.000 C 
BRANCH  14  15
ATOM     15  C   UNL     1      68.906  51.864  49.442  1.00  0.00    -0.003 C 
ATOM     16  C   UNL     1      68.768  50.895  50.616  1.00  0.00     0.004 C 
ENDBRANCH  14  15
ENDBRANCH  13  14
ENDBRANCH  12  13
ENDBRANCH  11  12
ENDBRANCH  10  11
ENDBRANCH   1  10
TORSDOF 12
ENDMDL
MODEL 5
REMARK VINA RESULT:    -3.591     16.541     17.726
REMARK INTER + INTRA:          -6.802
REMARK INTER:                  -5.853
REMARK INTRA:                  -0.949
REMARK UNBOUND:                -0.691
REMARK SMILES CCCCCCCCCCCCCC(=O)[O-]
REMARK SMILES IDX 8 1 9 2 10 3 11 4 12 5 13 6 14 7 15 8 16 9 7 10 6 11 5 12
REMARK SMILES IDX 4 13 3 14 2 15 1 16
REMARK H PARENT
REMARK Flexibility Score: inf
ROOT
ATOM      1  C   UNL     1      68.964  51.625  55.414  1.00  0.00     0.000 C 
ENDROOT
BRANCH   1   2
ATOM      2  C   UNL     1      69.521  51.033  54.112  1.00  0.00     0.000 C 
BRANCH   2   3
ATOM      3  C   UNL     1      70.972  51.475  53.884  1.00  0.00     0.000 C 
BRANCH   3   4
ATOM      4  C   UNL     1      71.335  51.428  52.395  1.00  0.00     0.000 C 
BRANCH   4   5
ATOM      5  C   UNL     1      70.582  52.509  51.611  1.00  0.00     0.006 C 
BRANCH   5   6
ATOM      6  C   UNL     1      70.259  52.034  50.192  1.00  0.00     0.053 C 
BRANCH   6   7
ATOM      7  C   UNL     1      68.832  51.595  50.098  1.00  0.00     0.041 C 
ATOM      8  O   UNL     1      68.491  50.458  50.518  1.00  0.00    -0.550 OA
ATOM      9  O   UNL     1      67.870  52.460  49.593  1.00  0.00    -0.550 OA
ENDBRANCH   6   7
ENDBRANCH   5   6
ENDBRANCH   4   5
ENDBRANCH   3   4
ENDBRANCH   2   3
ENDBRANCH   1   2
BRANCH   1  10
ATOM     10  C   UNL     1      68.407  50.554  56.369  1.00  0.00     0.000 C 
BRANCH  10  11
ATOM     11  C   UNL     1      69.226  49.249  56.436  1.00  0.00    -0.000 C 
BRANCH  11  12
ATOM     12  C   UNL     1      70.308  49.214  57.530  1.00  0.00    -0.000 C 
BRANCH  12  13
ATOM     13  C   UNL     1      71.718  49.486  56.985  1.00  0.00    -0.000 C 
BRANCH  13  14
ATOM     14  C   UNL     1      72.766  48.648  57.732  1.00  0.00    -0.000 C 
BRANCH  14  15
ATOM     15  C   UNL     1      72.400  47.157  57.788  1.00  0.00    -0.003 C 
ATOM     16  C   UNL     1      73.511  46.299  58.392  1.00  0.00     0.004 C 
ENDBRANCH  14  15
ENDBRANCH  13  14
ENDBRANCH  12  13
ENDBRANCH  11  12
ENDBRANCH  10  11
ENDBRANCH   1  10
TORSDOF 12
ENDMDL
MODEL 6
REMARK VINA RESULT:    -3.569     17.883     19.731
REMARK INTER + INTRA:          -6.764
REMARK INTER:                  -5.298
REMARK INTRA:                  -1.466
REMARK UNBOUND:                -0.691
REMARK SMILES CCCCCCCCCCCCCC(=O)[O-]
REMARK SMILES IDX 8 1 9 2 10 3 11 4 12 5 13 6 14 7 15 8 16 9 7 10 6 11 5 12
REMARK SMILES IDX 4 13 3 14 2 15 1 16
REMARK H PARENT
REMARK Flexibility Score: inf
ROOT
ATOM      1  C   UNL     1      69.148  50.812  52.192  1.00  0.00     0.000 C 
ENDROOT
BRANCH   1   2
ATOM      2  C   UNL     1      70.651  51.117  52.263  1.00  0.00     0.000 C 
BRANCH   2   3
ATOM      3  C   UNL     1      71.007  51.818  53.579  1.00  0.00     0.000 C 
BRANCH   3   4
ATOM      4  C   UNL     1      69.922  51.586  54.638  1.00  0.00     0.000 C 
BRANCH   4   5
ATOM      5  C   UNL     1      70.420  50.643  55.739  1.00  0.00     0.006 C 
BRANCH   5   6
ATOM      6  C   UNL     1      71.938  50.459  55.661  1.00  0.00     0.053 C 
BRANCH   6   7
ATOM      7  C   UNL     1      72.402  49.478  56.691  1.00  0.00     0.041 C 
ATOM      8  O   UNL     1      71.733  48.436  56.919  1.00  0.00    -0.550 OA
ATOM      9  O   UNL     1      73.597  49.690  57.364  1.00  0.00    -0.550 OA
ENDBRANCH   6   7
ENDBRANCH   5   6
ENDBRANCH   4   5
ENDBRANCH   3   4
ENDBRANCH   2   3
ENDBRANCH   1   2
BRANCH   1  10
ATOM     10  C   UNL     1      68.624  50.713  50.748  1.00  0.00     0.000 C 
BRANCH  10  11
ATOM     11  C   UNL     1      69.159  51.792  49.784  1.00  0.00    -0.000 C 
BRANCH  11  12
ATOM     12  C   UNL     1      68.228  53.001  49.578  1.00  0.00    -0.000 C 
BRANCH  12  13
ATOM     13  C   UNL     1      68.930  54.344  49.827  1.00  0.00    -0.000 C 
BRANCH  13  14
ATOM     14  C   UNL     1      69.560  54.381  51.227  1.00  0.00    -0.000 C 
BRANCH  14  15
ATOM     15  C   UNL     1      70.997  54.923  51.214  1.00  0.00    -0.003 C 
ATOM     16  C   UNL     1      71.971  54.000  50.482  1.00  0.00     0.004 C 
ENDBRANCH  14  15
ENDBRANCH  13  14
ENDBRANCH  12  13
ENDBRANCH  11  12
ENDBRANCH  10  11
ENDBRANCH   1  10
TORSDOF 12
ENDMDL
MODEL 7
REMARK VINA RESULT:    -3.534     14.609     16.256
REMARK INTER + INTRA:          -6.704
REMARK INTER:                  -6.252
REMARK INTRA:                  -0.452
REMARK UNBOUND:                -0.691
REMARK SMILES CCCCCCCCCCCCCC(=O)[O-]
REMARK SMILES IDX 8 1 9 2 10 3 11 4 12 5 13 6 14 7 15 8 16 9 7 10 6 11 5 12
REMARK SMILES IDX 4 13 3 14 2 15 1 16
REMARK H PARENT
REMARK Flexibility Score: inf
ROOT
ATOM      1  C   UNL     1      68.736  50.416  55.473  1.00  0.00     0.000 C 
ENDROOT
BRANCH   1   2
ATOM      2  C   UNL     1      69.303  51.772  55.031  1.00  0.00     0.000 C 
BRANCH   2   3
ATOM      3  C   UNL     1      70.666  51.600  54.349  1.00  0.00     0.000 C 
BRANCH   3   4
ATOM      4  C   UNL     1      70.700  52.322  52.996  1.00  0.00     0.000 C 
BRANCH   4   5
ATOM      5  C   UNL     1      71.076  51.356  51.866  1.00  0.00     0.006 C 
BRANCH   5   6
ATOM      6  C   UNL     1      70.480  51.813  50.532  1.00  0.00     0.053 C 
BRANCH   6   7
ATOM      7  C   UNL     1      69.047  51.397  50.427  1.00  0.00     0.041 C 
ATOM      8  O   UNL     1      68.243  52.065  49.724  1.00  0.00    -0.550 OA
ATOM      9  O   UNL     1      68.610  50.245  51.066  1.00  0.00    -0.550 OA
ENDBRANCH   6   7
ENDBRANCH   5   6
ENDBRANCH   4   5
ENDBRANCH   3   4
ENDBRANCH   2   3
ENDBRANCH   1   2
BRANCH   1  10
ATOM     10  C   UNL     1      68.561  50.310  56.999  1.00  0.00     0.000 C 
BRANCH  10  11
ATOM     11  C   UNL     1      68.281  48.888  57.527  1.00  0.00    -0.000 C 
BRANCH  11  12
ATOM     12  C   UNL     1      66.815  48.613  57.913  1.00  0.00    -0.000 C 
BRANCH  12  13
ATOM     13  C   UNL     1      66.317  47.244  57.428  1.00  0.00    -0.000 C 
BRANCH  13  14
ATOM     14  C   UNL     1      65.309  46.645  58.420  1.00  0.00    -0.000 C 
BRANCH  14  15
ATOM     15  C   UNL     1      64.801  45.263  57.985  1.00  0.00    -0.003 C 
ATOM     16  C   UNL     1      65.674  44.626  56.904  1.00  0.00     0.004 C 
ENDBRANCH  14  15
ENDBRANCH  13  14
ENDBRANCH  12  13
ENDBRANCH  11  12
ENDBRANCH  10  11
ENDBRANCH   1  10
TORSDOF 12
ENDMDL
MODEL 8
REMARK VINA RESULT:    -3.517     16.767     18.242
REMARK INTER + INTRA:          -6.675
REMARK INTER:                  -5.148
REMARK INTRA:                  -1.527
REMARK UNBOUND:                -0.691
REMARK SMILES CCCCCCCCCCCCCC(=O)[O-]
REMARK SMILES IDX 8 1 9 2 10 3 11 4 12 5 13 6 14 7 15 8 16 9 7 10 6 11 5 12
REMARK SMILES IDX 4 13 3 14 2 15 1 16
REMARK H PARENT
REMARK Flexibility Score: inf
ROOT
ATOM      1  C   UNL     1      69.334  50.975  54.227  1.00  0.00     0.000 C 
ENDROOT
BRANCH   1   2
ATOM      2  C   UNL     1      70.615  51.599  53.658  1.00  0.00     0.000 C 
BRANCH   2   3
ATOM      3  C   UNL     1      70.395  53.073  53.297  1.00  0.00     0.000 C 
BRANCH   3   4
ATOM      4  C   UNL     1      70.972  53.394  51.913  1.00  0.00     0.000 C 
BRANCH   4   5
ATOM      5  C   UNL     1      71.071  52.129  51.052  1.00  0.00     0.006 C 
BRANCH   5   6
ATOM      6  C   UNL     1      70.239  52.268  49.774  1.00  0.00     0.053 C 
BRANCH   6   7
ATOM      7  C   UNL     1      68.818  51.875  50.028  1.00  0.00     0.041 C 
ATOM      8  O   UNL     1      67.879  52.648  49.701  1.00  0.00    -0.550 OA
ATOM      9  O   UNL     1      68.528  50.635  50.580  1.00  0.00    -0.550 OA
ENDBRANCH   6   7
ENDBRANCH   5   6
ENDBRANCH   4   5
ENDBRANCH   3   4
ENDBRANCH   2   3
ENDBRANCH   1   2
BRANCH   1  10
ATOM     10  C   UNL     1      68.885  51.629  55.547  1.00  0.00     0.000 C 
BRANCH  10  11
ATOM     11  C   UNL     1      68.580  50.644  56.694  1.00  0.00    -0.000 C 
BRANCH  11  12
ATOM     12  C   UNL     1      69.390  49.335  56.662  1.00  0.00    -0.000 C 
BRANCH  12  13
ATOM     13  C   UNL     1      70.610  49.365  57.595  1.00  0.00    -0.000 C 
BRANCH  13  14
ATOM     14  C   UNL     1      71.866  48.857  56.871  1.00  0.00    -0.000 C 
BRANCH  14  15
ATOM     15  C   UNL     1      72.680  49.992  56.232  1.00  0.00    -0.003 C 
ATOM     16  C   UNL     1      72.428  51.345  56.895  1.00  0.00     0.004 C 
ENDBRANCH  14  15
ENDBRANCH  13  14
ENDBRANCH  12  13
ENDBRANCH  11  12
ENDBRANCH  10  11
ENDBRANCH   1  10
TORSDOF 12
ENDMDL
MODEL 9
REMARK VINA RESULT:    -3.499     17.398     19.478
REMARK INTER + INTRA:          -6.646
REMARK INTER:                  -5.261
REMARK INTRA:                  -1.385
REMARK UNBOUND:                -0.691
REMARK SMILES CCCCCCCCCCCCCC(=O)[O-]
REMARK SMILES IDX 8 1 9 2 10 3 11 4 12 5 13 6 14 7 15 8 16 9 7 10 6 11 5 12
REMARK SMILES IDX 4 13 3 14 2 15 1 16
REMARK H PARENT
REMARK Flexibility Score: inf
ROOT
ATOM      1  C   UNL     1      71.417  52.058  52.313  1.00  0.00     0.000 C 
ENDROOT
BRANCH   1   2
ATOM      2  C   UNL     1      70.923  51.105  53.410  1.00  0.00     0.000 C 
BRANCH   2   3
ATOM      3  C   UNL     1      69.808  51.753  54.239  1.00  0.00     0.000 C 
BRANCH   3   4
ATOM      4  C   UNL     1      68.803  50.703  54.727  1.00  0.00     0.000 C 
BRANCH   4   5
ATOM      5  C   UNL     1      69.058  50.337  56.194  1.00  0.00     0.006 C 
BRANCH   5   6
ATOM      6  C   UNL     1      68.604  51.462  57.128  1.00  0.00     0.053 C 
BRANCH   6   7
ATOM      7  C   UNL     1      67.112  51.488  57.232  1.00  0.00     0.041 C 
ATOM      8  O   UNL     1      66.510  50.622  57.920  1.00  0.00    -0.550 OA
ATOM      9  O   UNL     1      66.389  52.496  56.609  1.00  0.00    -0.550 OA
ENDBRANCH   6   7
ENDBRANCH   5   6
ENDBRANCH   4   5
ENDBRANCH   3   4
ENDBRANCH   2   3
ENDBRANCH   1   2
BRANCH   1  10
ATOM     10  C   UNL     1      70.731  53.436  52.364  1.00  0.00     0.000 C 
BRANCH  10  11
ATOM     11  C   UNL     1      71.082  54.384  51.200  1.00  0.00    -0.000 C 
BRANCH  11  12
ATOM     12  C   UNL     1      70.220  54.212  49.936  1.00  0.00    -0.000 C 
BRANCH  12  13
ATOM     13  C   UNL     1      68.714  54.207  50.236  1.00  0.00    -0.000 C 
BRANCH  13  14
ATOM     14  C   UNL     1      68.038  52.972  49.621  1.00  0.00    -0.000 C 
BRANCH  14  15
ATOM     15  C   UNL     1      68.954  51.740  49.610  1.00  0.00    -0.003 C 
ATOM     16  C   UNL     1      68.473  50.637  50.553  1.00  0.00     0.004 C 
ENDBRANCH  14  15
ENDBRANCH  13  14
ENDBRANCH  12  13
ENDBRANCH  11  12
ENDBRANCH  10  11
ENDBRANCH   1  10
TORSDOF 12
ENDMDL
