MODEL 1
REMARK VINA RESULT:    -5.007      0.000      0.000
REMARK INTER + INTRA:         -11.121
REMARK INTER:                  -9.398
REMARK INTRA:                  -1.724
REMARK UNBOUND:                -1.724
REMARK SMILES O=C([O-])CCCCCCCCCCCCCCC(=O)[O-]
REMARK SMILES IDX 10 1 9 2 8 3 7 4 6 5 5 6 4 7 2 8 1 9 3 10 11 11 12 12 13 13
REMARK SMILES IDX 14 14 15 15 16 16 17 17 18 18 19 19 20 20
REMARK H PARENT
REMARK Flexibility Score: inf
ROOT
ATOM      1  C   UNL     1      63.305  30.638  13.130  1.00  0.00     0.000 C 
ENDROOT
BRANCH   1   2
ATOM      2  C   UNL     1      62.823  31.973  12.532  1.00  0.00     0.000 C 
BRANCH   2   3
ATOM      3  C   UNL     1      61.344  32.258  12.841  1.00  0.00     0.000 C 
BRANCH   3   4
ATOM      4  C   UNL     1      60.911  31.704  14.208  1.00  0.00     0.000 C 
BRANCH   4   5
ATOM      5  C   UNL     1      59.962  32.652  14.962  1.00  0.00     0.000 C 
BRANCH   5   6
ATOM      6  C   UNL     1      60.660  33.905  15.532  1.00  0.00     0.006 C 
BRANCH   6   7
ATOM      7  C   UNL     1      61.974  33.563  16.245  1.00  0.00     0.053 C 
BRANCH   7   8
ATOM      8  C   UNL     1      62.018  34.203  17.596  1.00  0.00     0.041 C 
ATOM      9  O   UNL     1      60.980  34.256  18.306  1.00  0.00    -0.550 OA
ATOM     10  O   UNL     1      63.218  34.696  18.093  1.00  0.00    -0.550 OA
ENDBRANCH   7   8
ENDBRANCH   6   7
ENDBRANCH   5   6
ENDBRANCH   4   5
ENDBRANCH   3   4
ENDBRANCH   2   3
ENDBRANCH   1   2
BRANCH   1  11
ATOM     11  C   UNL     1      63.446  29.533  12.070  1.00  0.00     0.000 C 
BRANCH  11  12
ATOM     12  C   UNL     1      63.394  30.083  10.634  1.00  0.00     0.000 C 
BRANCH  12  13
ATOM     13  C   UNL     1      63.290  28.974   9.572  1.00  0.00     0.000 C 
BRANCH  13  14
ATOM     14  C   UNL     1      61.897  28.807   8.931  1.00  0.00     0.000 C 
BRANCH  14  15
ATOM     15  C   UNL     1      60.871  28.046   9.789  1.00  0.00     0.000 C 
BRANCH  15  16
ATOM     16  C   UNL     1      59.621  28.880  10.105  1.00  0.00     0.006 C 
BRANCH  16  17
ATOM     17  C   UNL     1      59.700  29.471  11.516  1.00  0.00     0.053 C 
BRANCH  17  18
ATOM     18  C   UNL     1      59.553  28.393  12.545  1.00  0.00     0.041 C 
ATOM     19  O   UNL     1      60.508  28.122  13.318  1.00  0.00    -0.550 OA
ATOM     20  O   UNL     1      58.345  27.722  12.681  1.00  0.00    -0.550 OA
ENDBRANCH  17  18
ENDBRANCH  16  17
ENDBRANCH  15  16
ENDBRANCH  14  15
ENDBRANCH  13  14
ENDBRANCH  12  13
ENDBRANCH  11  12
ENDBRANCH   1  11
TORSDOF 15
ENDMDL
MODEL 2
REMARK VINA RESULT:    -5.005      0.847      1.605
REMARK INTER + INTRA:         -11.117
REMARK INTER:                  -9.393
REMARK INTRA:                  -1.724
REMARK UNBOUND:                -1.724
REMARK SMILES O=C([O-])CCCCCCCCCCCCCCC(=O)[O-]
REMARK SMILES IDX 10 1 9 2 8 3 7 4 6 5 5 6 4 7 2 8 1 9 3 10 11 11 12 12 13 13
REMARK SMILES IDX 14 14 15 15 16 16 17 17 18 18 19 19 20 20
REMARK H PARENT
REMARK Flexibility Score: inf
ROOT
ATOM      1  C   UNL     1      62.904  31.947  12.877  1.00  0.00     0.000 C 
ENDROOT
BRANCH   1   2
ATOM      2  C   UNL     1      61.415  32.300  12.708  1.00  0.00     0.000 C 
BRANCH   2   3
ATOM      3  C   UNL     1      60.496  31.412  13.563  1.00  0.00     0.000 C 
BRANCH   3   4
ATOM      4  C   UNL     1      59.900  32.165  14.763  1.00  0.00     0.000 C 
BRANCH   4   5
ATOM      5  C   UNL     1      60.615  33.498  15.046  1.00  0.00     0.000 C 
BRANCH   5   6
ATOM      6  C   UNL     1      61.493  33.476  16.315  1.00  0.00     0.006 C 
BRANCH   6   7
ATOM      7  C   UNL     1      60.951  34.403  17.410  1.00  0.00     0.053 C 
BRANCH   7   8
ATOM      8  C   UNL     1      61.407  33.943  18.758  1.00  0.00     0.041 C 
ATOM      9  O   UNL     1      62.632  33.949  19.048  1.00  0.00    -0.550 OA
ATOM     10  O   UNL     1      60.475  33.554  19.712  1.00  0.00    -0.550 OA
ENDBRANCH   7   8
ENDBRANCH   6   7
ENDBRANCH   5   6
ENDBRANCH   4   5
ENDBRANCH   3   4
ENDBRANCH   2   3
ENDBRANCH   1   2
BRANCH   1  11
ATOM     11  C   UNL     1      63.115  30.637  13.655  1.00  0.00     0.000 C 
BRANCH  11  12
ATOM     12  C   UNL     1      63.454  29.453  12.733  1.00  0.00     0.000 C 
BRANCH  12  13
ATOM     13  C   UNL     1      63.880  29.895  11.322  1.00  0.00     0.000 C 
BRANCH  13  14
ATOM     14  C   UNL     1      63.158  29.178  10.162  1.00  0.00     0.000 C 
BRANCH  14  15
ATOM     15  C   UNL     1      61.658  29.493  10.033  1.00  0.00     0.000 C 
BRANCH  15  16
ATOM     16  C   UNL     1      60.764  28.304  10.415  1.00  0.00     0.006 C 
BRANCH  16  17
ATOM     17  C   UNL     1      59.512  28.777  11.160  1.00  0.00     0.053 C 
BRANCH  17  18
ATOM     18  C   UNL     1      59.384  28.069  12.473  1.00  0.00     0.041 C 
ATOM     19  O   UNL     1      60.383  27.950  13.229  1.00  0.00    -0.550 OA
ATOM     20  O   UNL     1      58.149  27.582  12.882  1.00  0.00    -0.550 OA
ENDBRANCH  17  18
ENDBRANCH  16  17
ENDBRANCH  15  16
ENDBRANCH  14  15
ENDBRANCH  13  14
ENDBRANCH  12  13
ENDBRANCH  11  12
ENDBRANCH   1  11
TORSDOF 15
ENDMDL
MODEL 3
REMARK VINA RESULT:    -4.969      1.845      3.226
REMARK INTER + INTRA:         -11.050
REMARK INTER:                  -9.025
REMARK INTRA:                  -2.025
REMARK UNBOUND:                -1.724
REMARK SMILES O=C([O-])CCCCCCCCCCCCCCC(=O)[O-]
REMARK SMILES IDX 10 1 9 2 8 3 7 4 6 5 5 6 4 7 2 8 1 9 3 10 11 11 12 12 13 13
REMARK SMILES IDX 14 14 15 15 16 16 17 17 18 18 19 19 20 20
REMARK H PARENT
REMARK Flexibility Score: inf
ROOT
ATOM      1  C   UNL     1      59.988  30.731  12.628  1.00  0.00     0.000 C 
ENDROOT
BRANCH   1   2
ATOM      2  C   UNL     1      59.277  31.522  13.741  1.00  0.00     0.000 C 
BRANCH   2   3
ATOM      3  C   UNL     1      60.138  32.672  14.290  1.00  0.00     0.000 C 
BRANCH   3   4
ATOM      4  C   UNL     1      61.479  32.807  13.552  1.00  0.00     0.000 C 
BRANCH   4   5
ATOM      5  C   UNL     1      62.688  32.786  14.503  1.00  0.00     0.000 C 
BRANCH   5   6
ATOM      6  C   UNL     1      62.460  33.565  15.815  1.00  0.00     0.006 C 
BRANCH   6   7
ATOM      7  C   UNL     1      63.598  33.350  16.822  1.00  0.00     0.053 C 
BRANCH   7   8
ATOM      8  C   UNL     1      63.441  34.267  17.993  1.00  0.00     0.041 C 
ATOM      9  O   UNL     1      62.514  34.079  18.824  1.00  0.00    -0.550 OA
ATOM     10  O   UNL     1      64.349  35.299  18.195  1.00  0.00    -0.550 OA
ENDBRANCH   7   8
ENDBRANCH   6   7
ENDBRANCH   5   6
ENDBRANCH   4   5
ENDBRANCH   3   4
ENDBRANCH   2   3
ENDBRANCH   1   2
BRANCH   1  11
ATOM     11  C   UNL     1      59.612  29.240  12.631  1.00  0.00     0.000 C 
BRANCH  11  12
ATOM     12  C   UNL     1      60.715  28.356  13.241  1.00  0.00     0.000 C 
BRANCH  12  13
ATOM     13  C   UNL     1      61.995  29.141  13.576  1.00  0.00     0.000 C 
BRANCH  13  14
ATOM     14  C   UNL     1      63.158  28.959  12.578  1.00  0.00     0.000 C 
BRANCH  14  15
ATOM     15  C   UNL     1      63.545  30.221  11.789  1.00  0.00     0.000 C 
BRANCH  15  16
ATOM     16  C   UNL     1      62.921  30.263  10.386  1.00  0.00     0.006 C 
BRANCH  16  17
ATOM     17  C   UNL     1      62.598  28.850   9.889  1.00  0.00     0.053 C 
BRANCH  17  18
ATOM     18  C   UNL     1      61.195  28.783   9.372  1.00  0.00     0.041 C 
ATOM     19  O   UNL     1      60.517  29.836   9.244  1.00  0.00    -0.550 OA
ATOM     20  O   UNL     1      60.653  27.564   8.989  1.00  0.00    -0.550 OA
ENDBRANCH  17  18
ENDBRANCH  16  17
ENDBRANCH  15  16
ENDBRANCH  14  15
ENDBRANCH  13  14
ENDBRANCH  12  13
ENDBRANCH  11  12
ENDBRANCH   1  11
TORSDOF 15
ENDMDL
MODEL 4
REMARK VINA RESULT:    -4.891      2.797      6.418
REMARK INTER + INTRA:         -10.904
REMARK INTER:                  -8.777
REMARK INTRA:                  -2.127
REMARK UNBOUND:                -1.724
REMARK SMILES O=C([O-])CCCCCCCCCCCCCCC(=O)[O-]
REMARK SMILES IDX 10 1 9 2 8 3 7 4 6 5 5 6 4 7 2 8 1 9 3 10 11 11 12 12 13 13
REMARK SMILES IDX 14 14 15 15 16 16 17 17 18 18 19 19 20 20
REMARK H PARENT
REMARK Flexibility Score: inf
ROOT
ATOM      1  C   UNL     1      59.904  28.249  12.681  1.00  0.00     0.000 C 
ENDROOT
BRANCH   1   2
ATOM      2  C   UNL     1      59.588  28.609  11.218  1.00  0.00     0.000 C 
BRANCH   2   3
ATOM      3  C   UNL     1      60.705  28.180  10.251  1.00  0.00     0.000 C 
BRANCH   3   4
ATOM      4  C   UNL     1      61.241  29.352   9.414  1.00  0.00     0.000 C 
BRANCH   4   5
ATOM      5  C   UNL     1      62.674  29.117   8.907  1.00  0.00     0.000 C 
BRANCH   5   6
ATOM      6  C   UNL     1      63.756  29.817   9.755  1.00  0.00     0.006 C 
BRANCH   6   7
ATOM      7  C   UNL     1      64.908  30.355   8.897  1.00  0.00     0.053 C 
BRANCH   7   8
ATOM      8  C   UNL     1      65.545  31.537   9.556  1.00  0.00     0.041 C 
ATOM      9  O   UNL     1      64.870  32.277  10.319  1.00  0.00    -0.550 OA
ATOM     10  O   UNL     1      66.897  31.793   9.368  1.00  0.00    -0.550 OA
ENDBRANCH   7   8
ENDBRANCH   6   7
ENDBRANCH   5   6
ENDBRANCH   4   5
ENDBRANCH   3   4
ENDBRANCH   2   3
ENDBRANCH   1   2
BRANCH   1  11
ATOM     11  C   UNL     1      61.404  28.346  13.004  1.00  0.00     0.000 C 
BRANCH  11  12
ATOM     12  C   UNL     1      61.735  29.538  13.918  1.00  0.00     0.000 C 
BRANCH  12  13
ATOM     13  C   UNL     1      62.647  30.577  13.241  1.00  0.00     0.000 C 
BRANCH  13  14
ATOM     14  C   UNL     1      61.921  31.612  12.357  1.00  0.00     0.000 C 
BRANCH  14  15
ATOM     15  C   UNL     1      60.460  31.894  12.748  1.00  0.00     0.000 C 
BRANCH  15  16
ATOM     16  C   UNL     1      60.311  33.125  13.653  1.00  0.00     0.006 C 
BRANCH  16  17
ATOM     17  C   UNL     1      60.290  32.720  15.130  1.00  0.00     0.053 C 
BRANCH  17  18
ATOM     18  C   UNL     1      61.445  33.331  15.859  1.00  0.00     0.041 C 
ATOM     19  O   UNL     1      62.523  33.569  15.254  1.00  0.00    -0.550 OA
ATOM     20  O   UNL     1      61.316  33.681  17.197  1.00  0.00    -0.550 OA
ENDBRANCH  17  18
ENDBRANCH  16  17
ENDBRANCH  15  16
ENDBRANCH  14  15
ENDBRANCH  13  14
ENDBRANCH  12  13
ENDBRANCH  11  12
ENDBRANCH   1  11
TORSDOF 15
ENDMDL
MODEL 5
REMARK VINA RESULT:    -4.877      0.987      6.502
REMARK INTER + INTRA:         -10.877
REMARK INTER:                  -9.001
REMARK INTRA:                  -1.876
REMARK UNBOUND:                -1.724
REMARK SMILES O=C([O-])CCCCCCCCCCCCCCC(=O)[O-]
REMARK SMILES IDX 10 1 9 2 8 3 7 4 6 5 5 6 4 7 2 8 1 9 3 10 11 11 12 12 13 13
REMARK SMILES IDX 14 14 15 15 16 16 17 17 18 18 19 19 20 20
REMARK H PARENT
REMARK Flexibility Score: inf
ROOT
ATOM      1  C   UNL     1      64.109  31.166  10.998  1.00  0.00     0.000 C 
ENDROOT
BRANCH   1   2
ATOM      2  C   UNL     1      63.437  29.800  10.766  1.00  0.00     0.000 C 
BRANCH   2   3
ATOM      3  C   UNL     1      63.074  29.563   9.291  1.00  0.00     0.000 C 
BRANCH   3   4
ATOM      4  C   UNL     1      61.701  28.893   9.122  1.00  0.00     0.000 C 
BRANCH   4   5
ATOM      5  C   UNL     1      60.537  29.797   9.563  1.00  0.00     0.000 C 
BRANCH   5   6
ATOM      6  C   UNL     1      59.621  29.156  10.627  1.00  0.00     0.006 C 
BRANCH   6   7
ATOM      7  C   UNL     1      60.342  28.069  11.434  1.00  0.00     0.053 C 
BRANCH   7   8
ATOM      8  C   UNL     1      59.804  28.010  12.829  1.00  0.00     0.041 C 
ATOM      9  O   UNL     1      60.505  28.409  13.795  1.00  0.00    -0.550 OA
ATOM     10  O   UNL     1      58.510  27.561  13.056  1.00  0.00    -0.550 OA
ENDBRANCH   7   8
ENDBRANCH   6   7
ENDBRANCH   5   6
ENDBRANCH   4   5
ENDBRANCH   3   4
ENDBRANCH   2   3
ENDBRANCH   1   2
BRANCH   1  11
ATOM     11  C   UNL     1      63.405  31.995  12.084  1.00  0.00     0.000 C 
BRANCH  11  12
ATOM     12  C   UNL     1      62.163  31.286  12.653  1.00  0.00     0.000 C 
BRANCH  12  13
ATOM     13  C   UNL     1      60.893  32.154  12.579  1.00  0.00     0.000 C 
BRANCH  13  14
ATOM     14  C   UNL     1      59.798  31.804  13.608  1.00  0.00     0.000 C 
BRANCH  14  15
ATOM     15  C   UNL     1      60.174  32.067  15.077  1.00  0.00     0.000 C 
BRANCH  15  16
ATOM     16  C   UNL     1      60.797  33.454  15.294  1.00  0.00     0.006 C 
BRANCH  16  17
ATOM     17  C   UNL     1      61.151  33.669  16.769  1.00  0.00     0.053 C 
BRANCH  17  18
ATOM     18  C   UNL     1      62.614  33.940  16.924  1.00  0.00     0.041 C 
ATOM     19  O   UNL     1      63.007  34.971  17.530  1.00  0.00    -0.550 OA
ATOM     20  O   UNL     1      63.544  33.029  16.441  1.00  0.00    -0.550 OA
ENDBRANCH  17  18
ENDBRANCH  16  17
ENDBRANCH  15  16
ENDBRANCH  14  15
ENDBRANCH  13  14
ENDBRANCH  12  13
ENDBRANCH  11  12
ENDBRANCH   1  11
TORSDOF 15
ENDMDL
MODEL 6
REMARK VINA RESULT:    -4.876      1.859      7.046
REMARK INTER + INTRA:         -10.875
REMARK INTER:                  -9.085
REMARK INTRA:                  -1.790
REMARK UNBOUND:                -1.724
REMARK SMILES O=C([O-])CCCCCCCCCCCCCCC(=O)[O-]
REMARK SMILES IDX 10 1 9 2 8 3 7 4 6 5 5 6 4 7 2 8 1 9 3 10 11 11 12 12 13 13
REMARK SMILES IDX 14 14 15 15 16 16 17 17 18 18 19 19 20 20
REMARK H PARENT
REMARK Flexibility Score: inf
ROOT
ATOM      1  C   UNL     1      60.391  29.958  13.551  1.00  0.00     0.000 C 
ENDROOT
BRANCH   1   2
ATOM      2  C   UNL     1      60.474  28.613  12.807  1.00  0.00     0.000 C 
BRANCH   2   3
ATOM      3  C   UNL     1      59.584  28.575  11.554  1.00  0.00     0.000 C 
BRANCH   3   4
ATOM      4  C   UNL     1      60.376  28.248  10.278  1.00  0.00     0.000 C 
BRANCH   4   5
ATOM      5  C   UNL     1      60.631  29.487   9.401  1.00  0.00     0.000 C 
BRANCH   5   6
ATOM      6  C   UNL     1      62.124  29.743   9.107  1.00  0.00     0.006 C 
BRANCH   6   7
ATOM      7  C   UNL     1      63.043  28.996  10.082  1.00  0.00     0.053 C 
BRANCH   7   8
ATOM      8  C   UNL     1      63.581  29.933  11.117  1.00  0.00     0.041 C 
ATOM      9  O   UNL     1      63.792  31.140  10.829  1.00  0.00    -0.550 OA
ATOM     10  O   UNL     1      63.801  29.484  12.413  1.00  0.00    -0.550 OA
ENDBRANCH   7   8
ENDBRANCH   6   7
ENDBRANCH   5   6
ENDBRANCH   4   5
ENDBRANCH   3   4
ENDBRANCH   2   3
ENDBRANCH   1   2
BRANCH   1  11
ATOM     11  C   UNL     1      60.024  31.126  12.621  1.00  0.00     0.000 C 
BRANCH  11  12
ATOM     12  C   UNL     1      61.004  32.307  12.742  1.00  0.00     0.000 C 
BRANCH  12  13
ATOM     13  C   UNL     1      62.080  32.083  13.820  1.00  0.00     0.000 C 
BRANCH  13  14
ATOM     14  C   UNL     1      62.057  33.088  14.990  1.00  0.00     0.000 C 
BRANCH  14  15
ATOM     15  C   UNL     1      60.658  33.577  15.404  1.00  0.00     0.000 C 
BRANCH  15  16
ATOM     16  C   UNL     1      60.670  34.384  16.711  1.00  0.00     0.006 C 
BRANCH  16  17
ATOM     17  C   UNL     1      62.008  34.226  17.439  1.00  0.00     0.053 C 
BRANCH  17  18
ATOM     18  C   UNL     1      61.785  33.884  18.879  1.00  0.00     0.041 C 
ATOM     19  O   UNL     1      60.643  33.538  19.279  1.00  0.00    -0.550 OA
ATOM     20  O   UNL     1      62.850  33.903  19.770  1.00  0.00    -0.550 OA
ENDBRANCH  17  18
ENDBRANCH  16  17
ENDBRANCH  15  16
ENDBRANCH  14  15
ENDBRANCH  13  14
ENDBRANCH  12  13
ENDBRANCH  11  12
ENDBRANCH   1  11
TORSDOF 15
ENDMDL
MODEL 7
REMARK VINA RESULT:    -4.851     10.710     14.705
REMARK INTER + INTRA:         -10.828
REMARK INTER:                  -9.371
REMARK INTRA:                  -1.457
REMARK UNBOUND:                -1.724
REMARK SMILES O=C([O-])CCCCCCCCCCCCCCC(=O)[O-]
REMARK SMILES IDX 10 1 9 2 8 3 7 4 6 5 5 6 4 7 2 8 1 9 3 10 11 11 12 12 13 13
REMARK SMILES IDX 14 14 15 15 16 16 17 17 18 18 19 19 20 20
REMARK H PARENT
REMARK Flexibility Score: inf
ROOT
ATOM      1  C   UNL     1      61.894  27.677  24.904  1.00  0.00     0.000 C 
ENDROOT
BRANCH   1   2
ATOM      2  C   UNL     1      63.247  27.024  25.241  1.00  0.00     0.000 C 
BRANCH   2   3
ATOM      3  C   UNL     1      63.469  25.704  24.483  1.00  0.00     0.000 C 
BRANCH   3   4
ATOM      4  C   UNL     1      64.837  25.651  23.784  1.00  0.00     0.000 C 
BRANCH   4   5
ATOM      5  C   UNL     1      65.601  26.984  23.864  1.00  0.00     0.000 C 
BRANCH   5   6
ATOM      6  C   UNL     1      66.306  27.376  22.549  1.00  0.00     0.006 C 
BRANCH   6   7
ATOM      7  C   UNL     1      66.048  26.361  21.428  1.00  0.00     0.053 C 
BRANCH   7   8
ATOM      8  C   UNL     1      66.433  26.937  20.102  1.00  0.00     0.041 C 
ATOM      9  O   UNL     1      66.884  28.110  20.027  1.00  0.00    -0.550 OA
ATOM     10  O   UNL     1      66.340  26.160  18.954  1.00  0.00    -0.550 OA
ENDBRANCH   7   8
ENDBRANCH   6   7
ENDBRANCH   5   6
ENDBRANCH   4   5
ENDBRANCH   3   4
ENDBRANCH   2   3
ENDBRANCH   1   2
BRANCH   1  11
ATOM     11  C   UNL     1      60.930  27.692  26.102  1.00  0.00     0.000 C 
BRANCH  11  12
ATOM     12  C   UNL     1      61.477  26.908  27.308  1.00  0.00     0.000 C 
BRANCH  12  13
ATOM     13  C   UNL     1      60.759  27.257  28.624  1.00  0.00     0.000 C 
BRANCH  13  14
ATOM     14  C   UNL     1      60.966  28.701  29.123  1.00  0.00     0.000 C 
BRANCH  14  15
ATOM     15  C   UNL     1      62.424  29.191  29.116  1.00  0.00     0.000 C 
BRANCH  15  16
ATOM     16  C   UNL     1      62.619  30.471  28.289  1.00  0.00     0.006 C 
BRANCH  16  17
ATOM     17  C   UNL     1      63.643  30.251  27.172  1.00  0.00     0.053 C 
BRANCH  17  18
ATOM     18  C   UNL     1      65.024  30.570  27.653  1.00  0.00     0.041 C 
ATOM     19  O   UNL     1      65.209  31.512  28.467  1.00  0.00    -0.550 OA
ATOM     20  O   UNL     1      66.100  29.797  27.239  1.00  0.00    -0.550 OA
ENDBRANCH  17  18
ENDBRANCH  16  17
ENDBRANCH  15  16
ENDBRANCH  14  15
ENDBRANCH  13  14
ENDBRANCH  12  13
ENDBRANCH  11  12
ENDBRANCH   1  11
TORSDOF 15
ENDMDL
MODEL 8
REMARK VINA RESULT:    -4.841     10.362     13.991
REMARK INTER + INTRA:         -10.810
REMARK INTER:                  -8.622
REMARK INTRA:                  -2.188
REMARK UNBOUND:                -1.724
REMARK SMILES O=C([O-])CCCCCCCCCCCCCCC(=O)[O-]
REMARK SMILES IDX 10 1 9 2 8 3 7 4 6 5 5 6 4 7 2 8 1 9 3 10 11 11 12 12 13 13
REMARK SMILES IDX 14 14 15 15 16 16 17 17 18 18 19 19 20 20
REMARK H PARENT
REMARK Flexibility Score: inf
ROOT
ATOM      1  C   UNL     1      62.310  28.373  24.249  1.00  0.00     0.000 C 
ENDROOT
BRANCH   1   2
ATOM      2  C   UNL     1      62.004  27.193  25.191  1.00  0.00     0.000 C 
BRANCH   2   3
ATOM      3  C   UNL     1      63.251  26.353  25.509  1.00  0.00     0.000 C 
BRANCH   3   4
ATOM      4  C   UNL     1      63.945  25.826  24.243  1.00  0.00     0.000 C 
BRANCH   4   5
ATOM      5  C   UNL     1      65.450  26.144  24.211  1.00  0.00     0.000 C 
BRANCH   5   6
ATOM      6  C   UNL     1      65.917  26.814  22.902  1.00  0.00     0.006 C 
BRANCH   6   7
ATOM      7  C   UNL     1      66.057  25.807  21.754  1.00  0.00     0.053 C 
BRANCH   7   8
ATOM      8  C   UNL     1      66.407  26.511  20.481  1.00  0.00     0.041 C 
ATOM      9  O   UNL     1      66.628  25.850  19.432  1.00  0.00    -0.550 OA
ATOM     10  O   UNL     1      66.440  27.899  20.440  1.00  0.00    -0.550 OA
ENDBRANCH   7   8
ENDBRANCH   6   7
ENDBRANCH   5   6
ENDBRANCH   4   5
ENDBRANCH   3   4
ENDBRANCH   2   3
ENDBRANCH   1   2
BRANCH   1  11
ATOM     11  C   UNL     1      62.158  29.737  24.942  1.00  0.00     0.000 C 
BRANCH  11  12
ATOM     12  C   UNL     1      63.358  30.665  24.685  1.00  0.00     0.000 C 
BRANCH  12  13
ATOM     13  C   UNL     1      64.591  29.915  24.150  1.00  0.00     0.000 C 
BRANCH  13  14
ATOM     14  C   UNL     1      65.817  29.912  25.086  1.00  0.00     0.000 C 
BRANCH  14  15
ATOM     15  C   UNL     1      65.578  29.294  26.474  1.00  0.00     0.000 C 
BRANCH  15  16
ATOM     16  C   UNL     1      65.653  30.326  27.608  1.00  0.00     0.006 C 
BRANCH  16  17
ATOM     17  C   UNL     1      64.851  29.860  28.827  1.00  0.00     0.053 C 
BRANCH  17  18
ATOM     18  C   UNL     1      63.387  29.847  28.518  1.00  0.00     0.041 C 
ATOM     19  O   UNL     1      62.765  30.929  28.349  1.00  0.00    -0.550 OA
ATOM     20  O   UNL     1      62.718  28.639  28.371  1.00  0.00    -0.550 OA
ENDBRANCH  17  18
ENDBRANCH  16  17
ENDBRANCH  15  16
ENDBRANCH  14  15
ENDBRANCH  13  14
ENDBRANCH  12  13
ENDBRANCH  11  12
ENDBRANCH   1  11
TORSDOF 15
ENDMDL
MODEL 9
REMARK VINA RESULT:    -4.269     10.559     13.069
REMARK INTER + INTRA:          -9.737
REMARK INTER:                  -8.340
REMARK INTRA:                  -1.397
REMARK UNBOUND:                -1.724
REMARK SMILES O=C([O-])CCCCCCCCCCCCCCC(=O)[O-]
REMARK SMILES IDX 10 1 9 2 8 3 7 4 6 5 5 6 4 7 2 8 1 9 3 10 11 11 12 12 13 13
REMARK SMILES IDX 14 14 15 15 16 16 17 17 18 18 19 19 20 20
REMARK H PARENT
REMARK Flexibility Score: inf
ROOT
ATOM      1  C   UNL     1      60.928  28.140  24.689  1.00  0.00     0.000 C 
ENDROOT
BRANCH   1   2
ATOM      2  C   UNL     1      60.406  27.214  25.803  1.00  0.00     0.000 C 
BRANCH   2   3
ATOM      3  C   UNL     1      61.416  27.044  26.950  1.00  0.00     0.000 C 
BRANCH   3   4
ATOM      4  C   UNL     1      60.756  27.136  28.335  1.00  0.00     0.000 C 
BRANCH   4   5
ATOM      5  C   UNL     1      60.975  28.500  29.011  1.00  0.00     0.000 C 
BRANCH   5   6
ATOM      6  C   UNL     1      62.449  28.955  29.030  1.00  0.00     0.006 C 
BRANCH   6   7
ATOM      7  C   UNL     1      62.626  30.375  28.479  1.00  0.00     0.053 C 
BRANCH   7   8
ATOM      8  C   UNL     1      64.076  30.732  28.405  1.00  0.00     0.041 C 
ATOM      9  O   UNL     1      64.540  31.654  29.125  1.00  0.00    -0.550 OA
ATOM     10  O   UNL     1      64.927  30.011  27.575  1.00  0.00    -0.550 OA
ENDBRANCH   7   8
ENDBRANCH   6   7
ENDBRANCH   5   6
ENDBRANCH   4   5
ENDBRANCH   3   4
ENDBRANCH   2   3
ENDBRANCH   1   2
BRANCH   1  11
ATOM     11  C   UNL     1      62.332  28.689  24.986  1.00  0.00     0.000 C 
BRANCH  11  12
ATOM     12  C   UNL     1      63.263  28.620  23.763  1.00  0.00     0.000 C 
BRANCH  12  13
ATOM     13  C   UNL     1      63.294  27.225  23.112  1.00  0.00     0.000 C 
BRANCH  13  14
ATOM     14  C   UNL     1      63.832  26.093  24.010  1.00  0.00     0.000 C 
BRANCH  14  15
ATOM     15  C   UNL     1      65.281  25.664  23.724  1.00  0.00     0.000 C 
BRANCH  15  16
ATOM     16  C   UNL     1      65.967  26.546  22.670  1.00  0.00     0.006 C 
BRANCH  16  17
ATOM     17  C   UNL     1      66.376  25.719  21.447  1.00  0.00     0.053 C 
BRANCH  17  18
ATOM     18  C   UNL     1      66.416  26.577  20.221  1.00  0.00     0.041 C 
ATOM     19  O   UNL     1      66.669  27.807  20.318  1.00  0.00    -0.550 OA
ATOM     20  O   UNL     1      66.222  26.011  18.969  1.00  0.00    -0.550 OA
ENDBRANCH  17  18
ENDBRANCH  16  17
ENDBRANCH  15  16
ENDBRANCH  14  15
ENDBRANCH  13  14
ENDBRANCH  12  13
ENDBRANCH  11  12
ENDBRANCH   1  11
TORSDOF 15
ENDMDL
