MODEL 1
REMARK VINA RESULT:    -4.314      0.000      0.000
REMARK INTER + INTRA:          -4.566
REMARK INTER:                  -4.566
REMARK INTRA:                   0.000
REMARK UNBOUND:                 0.000
REMARK SMILES O=c1ccc2cc(O)c(O)cc2o1
REMARK SMILES IDX 4 1 3 2 2 3 1 4 13 5 12 6 11 7 9 8 7 9 6 10 5 11 8 12 10 14
REMARK H PARENT 8 13 10 15
REMARK Flexibility Score: inf
ROOT
ATOM      1  C   UNL     1      58.033  -1.042 -50.177  1.00  0.00     0.019 A 
ATOM      2  C   UNL     1      57.964  -0.075 -49.174  1.00  0.00     0.094 A 
ATOM      3  C   UNL     1      58.914  -0.096 -48.147  1.00  0.00     0.336 A 
ATOM      4  O   UNL     1      58.869   0.769 -47.233  1.00  0.00    -0.246 OA
ATOM      5  O   UNL     1      59.867  -1.024 -48.129  1.00  0.00    -0.423 OA
ATOM      6  C   UNL     1      59.968  -1.964 -49.066  1.00  0.00     0.142 A 
ATOM      7  C   UNL     1      60.991  -2.915 -48.995  1.00  0.00     0.098 A 
ATOM      8  C   UNL     1      61.102  -3.908 -49.980  1.00  0.00     0.161 A 
ATOM      9  C   UNL     1      60.182  -3.948 -51.043  1.00  0.00     0.158 A 
ATOM     10  C   UNL     1      59.157  -2.998 -51.116  1.00  0.00     0.062 A 
ATOM     11  C   UNL     1      59.045  -2.006 -50.133  1.00  0.00     0.022 A 
ENDROOT
BRANCH   9  12
ATOM     12  O   UNL     1      60.271  -4.925 -52.035  1.00  0.00    -0.504 OA
ATOM     13  H   UNL     1      61.035  -5.588 -52.070  1.00  0.00     0.293 HD
ENDBRANCH   9  12
BRANCH   8  14
ATOM     14  O   UNL     1      62.125  -4.854 -49.906  1.00  0.00    -0.504 OA
ATOM     15  H   UNL     1      61.932  -5.848 -49.924  1.00  0.00     0.293 HD
ENDBRANCH   8  14
TORSDOF 2
ENDMDL
MODEL 2
REMARK VINA RESULT:    -4.298      1.413      2.376
REMARK INTER + INTRA:          -4.549
REMARK INTER:                  -4.549
REMARK INTRA:                   0.000
REMARK UNBOUND:                 0.000
REMARK SMILES O=c1ccc2cc(O)c(O)cc2o1
REMARK SMILES IDX 4 1 3 2 2 3 1 4 13 5 12 6 11 7 9 8 7 9 6 10 5 11 8 12 10 14
REMARK H PARENT 8 13 10 15
REMARK Flexibility Score: inf
ROOT
ATOM      1  C   UNL     1      59.826  -0.563 -48.666  1.00  0.00     0.019 A 
ATOM      2  C   UNL     1      58.790   0.333 -48.935  1.00  0.00     0.094 A 
ATOM      3  C   UNL     1      57.885   0.035 -49.959  1.00  0.00     0.336 A 
ATOM      4  O   UNL     1      56.944   0.831 -50.216  1.00  0.00    -0.246 OA
ATOM      5  O   UNL     1      58.012  -1.085 -50.666  1.00  0.00    -0.423 OA
ATOM      6  C   UNL     1      58.984  -1.966 -50.443  1.00  0.00     0.142 A 
ATOM      7  C   UNL     1      59.068  -3.127 -51.218  1.00  0.00     0.098 A 
ATOM      8  C   UNL     1      60.092  -4.059 -50.987  1.00  0.00     0.161 A 
ATOM      9  C   UNL     1      61.037  -3.825 -49.973  1.00  0.00     0.158 A 
ATOM     10  C   UNL     1      60.956  -2.663 -49.196  1.00  0.00     0.062 A 
ATOM     11  C   UNL     1      59.935  -1.732 -49.425  1.00  0.00     0.022 A 
ENDROOT
BRANCH   9  12
ATOM     12  O   UNL     1      62.065  -4.735 -49.723  1.00  0.00    -0.504 OA
ATOM     13  H   UNL     1      62.633  -4.688 -48.886  1.00  0.00     0.293 HD
ENDBRANCH   9  12
BRANCH   8  14
ATOM     14  O   UNL     1      60.170  -5.215 -51.762  1.00  0.00    -0.504 OA
ATOM     15  H   UNL     1      59.366  -5.815 -51.904  1.00  0.00     0.293 HD
ENDBRANCH   8  14
TORSDOF 2
ENDMDL
MODEL 3
REMARK VINA RESULT:    -4.257      3.619      5.129
REMARK INTER + INTRA:          -4.506
REMARK INTER:                  -4.506
REMARK INTRA:                   0.000
REMARK UNBOUND:                 0.000
REMARK SMILES O=c1ccc2cc(O)c(O)cc2o1
REMARK SMILES IDX 4 1 3 2 2 3 1 4 13 5 12 6 11 7 9 8 7 9 6 10 5 11 8 12 10 14
REMARK H PARENT 8 13 10 15
REMARK Flexibility Score: inf
ROOT
ATOM      1  C   UNL     1      59.347  -5.615 -45.909  1.00  0.00     0.019 A 
ATOM      2  C   UNL     1      60.066  -6.320 -44.943  1.00  0.00     0.094 A 
ATOM      3  C   UNL     1      61.441  -6.504 -45.121  1.00  0.00     0.336 A 
ATOM      4  O   UNL     1      62.106  -7.137 -44.260  1.00  0.00    -0.246 OA
ATOM      5  O   UNL     1      62.053  -6.014 -46.196  1.00  0.00    -0.423 OA
ATOM      6  C   UNL     1      61.406  -5.336 -47.141  1.00  0.00     0.142 A 
ATOM      7  C   UNL     1      62.101  -4.845 -48.250  1.00  0.00     0.098 A 
ATOM      8  C   UNL     1      61.424  -4.130 -49.250  1.00  0.00     0.161 A 
ATOM      9  C   UNL     1      60.040  -3.906 -49.137  1.00  0.00     0.158 A 
ATOM     10  C   UNL     1      59.341  -4.398 -48.028  1.00  0.00     0.062 A 
ATOM     11  C   UNL     1      60.016  -5.112 -47.029  1.00  0.00     0.022 A 
ENDROOT
BRANCH   9  12
ATOM     12  O   UNL     1      59.343  -3.199 -50.116  1.00  0.00    -0.504 OA
ATOM     13  H   UNL     1      59.405  -3.437 -51.099  1.00  0.00     0.293 HD
ENDBRANCH   9  12
BRANCH   8  14
ATOM     14  O   UNL     1      62.123  -3.641 -50.353  1.00  0.00    -0.504 OA
ATOM     15  H   UNL     1      63.135  -3.619 -50.374  1.00  0.00     0.293 HD
ENDBRANCH   8  14
TORSDOF 2
ENDMDL
MODEL 4
REMARK VINA RESULT:    -4.244     14.824     16.823
REMARK INTER + INTRA:          -4.492
REMARK INTER:                  -4.492
REMARK INTRA:                   0.000
REMARK UNBOUND:                 0.000
REMARK SMILES O=c1ccc2cc(O)c(O)cc2o1
REMARK SMILES IDX 4 1 3 2 2 3 1 4 13 5 12 6 11 7 9 8 7 9 6 10 5 11 8 12 10 14
REMARK H PARENT 8 13 10 15
REMARK Flexibility Score: inf
ROOT
ATOM      1  C   UNL     1      45.909   1.851 -41.777  1.00  0.00     0.019 A 
ATOM      2  C   UNL     1      47.234   2.249 -41.593  1.00  0.00     0.094 A 
ATOM      3  C   UNL     1      47.826   3.091 -42.541  1.00  0.00     0.336 A 
ATOM      4  O   UNL     1      49.020   3.461 -42.392  1.00  0.00    -0.246 OA
ATOM      5  O   UNL     1      47.135   3.505 -43.599  1.00  0.00    -0.423 OA
ATOM      6  C   UNL     1      45.870   3.150 -43.812  1.00  0.00     0.142 A 
ATOM      7  C   UNL     1      45.194   3.617 -44.944  1.00  0.00     0.098 A 
ATOM      8  C   UNL     1      43.860   3.245 -45.174  1.00  0.00     0.161 A 
ATOM      9  C   UNL     1      43.201   2.400 -44.262  1.00  0.00     0.158 A 
ATOM     10  C   UNL     1      43.876   1.931 -43.129  1.00  0.00     0.062 A 
ATOM     11  C   UNL     1      45.207   2.302 -42.899  1.00  0.00     0.022 A 
ENDROOT
BRANCH   9  12
ATOM     12  O   UNL     1      41.875   2.016 -44.467  1.00  0.00    -0.504 OA
ATOM     13  H   UNL     1      41.119   2.690 -44.501  1.00  0.00     0.293 HD
ENDBRANCH   9  12
BRANCH   8  14
ATOM     14  O   UNL     1      43.190   3.714 -46.303  1.00  0.00    -0.504 OA
ATOM     15  H   UNL     1      42.259   3.393 -46.539  1.00  0.00     0.293 HD
ENDBRANCH   8  14
TORSDOF 2
ENDMDL
MODEL 5
REMARK VINA RESULT:    -4.141     12.073     12.831
REMARK INTER + INTRA:          -4.383
REMARK INTER:                  -4.383
REMARK INTRA:                   0.000
REMARK UNBOUND:                 0.000
REMARK SMILES O=c1ccc2cc(O)c(O)cc2o1
REMARK SMILES IDX 4 1 3 2 2 3 1 4 13 5 12 6 11 7 9 8 7 9 6 10 5 11 8 12 10 14
REMARK H PARENT 8 13 10 15
REMARK Flexibility Score: inf
ROOT
ATOM      1  C   UNL     1      54.195   7.824 -47.961  1.00  0.00     0.019 A 
ATOM      2  C   UNL     1      53.031   7.435 -48.624  1.00  0.00     0.094 A 
ATOM      3  C   UNL     1      51.910   7.072 -47.870  1.00  0.00     0.336 A 
ATOM      4  O   UNL     1      50.850   6.719 -48.451  1.00  0.00    -0.246 OA
ATOM      5  O   UNL     1      51.955   7.099 -46.540  1.00  0.00    -0.423 OA
ATOM      6  C   UNL     1      53.044   7.463 -45.868  1.00  0.00     0.142 A 
ATOM      7  C   UNL     1      53.033   7.472 -44.470  1.00  0.00     0.098 A 
ATOM      8  C   UNL     1      54.179   7.854 -43.756  1.00  0.00     0.161 A 
ATOM      9  C   UNL     1      55.344   8.232 -44.449  1.00  0.00     0.158 A 
ATOM     10  C   UNL     1      55.357   8.224 -45.849  1.00  0.00     0.062 A 
ATOM     11  C   UNL     1      54.214   7.842 -46.563  1.00  0.00     0.022 A 
ENDROOT
BRANCH   9  12
ATOM     12  O   UNL     1      56.496   8.617 -43.764  1.00  0.00    -0.504 OA
ATOM     13  H   UNL     1      56.635   9.566 -43.436  1.00  0.00     0.293 HD
ENDBRANCH   9  12
BRANCH   8  14
ATOM     14  O   UNL     1      54.163   7.862 -42.362  1.00  0.00    -0.504 OA
ATOM     15  H   UNL     1      54.284   7.012 -41.825  1.00  0.00     0.293 HD
ENDBRANCH   8  14
TORSDOF 2
ENDMDL
MODEL 6
REMARK VINA RESULT:    -4.084     15.412     16.894
REMARK INTER + INTRA:          -4.322
REMARK INTER:                  -4.322
REMARK INTRA:                   0.000
REMARK UNBOUND:                 0.000
REMARK SMILES O=c1ccc2cc(O)c(O)cc2o1
REMARK SMILES IDX 4 1 3 2 2 3 1 4 13 5 12 6 11 7 9 8 7 9 6 10 5 11 8 12 10 14
REMARK H PARENT 8 13 10 15
REMARK Flexibility Score: inf
ROOT
ATOM      1  C   UNL     1      47.161   3.416 -43.566  1.00  0.00     0.019 A 
ATOM      2  C   UNL     1      47.737   2.972 -42.375  1.00  0.00     0.094 A 
ATOM      3  C   UNL     1      46.977   2.180 -41.508  1.00  0.00     0.336 A 
ATOM      4  O   UNL     1      47.480   1.770 -40.430  1.00  0.00    -0.246 OA
ATOM      5  O   UNL     1      45.724   1.856 -41.817  1.00  0.00    -0.423 OA
ATOM      6  C   UNL     1      45.137   2.257 -42.942  1.00  0.00     0.142 A 
ATOM      7  C   UNL     1      43.816   1.885 -43.213  1.00  0.00     0.098 A 
ATOM      8  C   UNL     1      43.192   2.307 -44.397  1.00  0.00     0.161 A 
ATOM      9  C   UNL     1      43.896   3.106 -45.315  1.00  0.00     0.158 A 
ATOM     10  C   UNL     1      45.218   3.480 -45.046  1.00  0.00     0.062 A 
ATOM     11  C   UNL     1      45.843   3.060 -43.864  1.00  0.00     0.022 A 
ENDROOT
BRANCH   9  12
ATOM     12  O   UNL     1      43.299   3.537 -46.500  1.00  0.00    -0.504 OA
ATOM     13  H   UNL     1      43.845   3.804 -47.311  1.00  0.00     0.293 HD
ENDBRANCH   9  12
BRANCH   8  14
ATOM     14  O   UNL     1      41.875   1.932 -44.663  1.00  0.00    -0.504 OA
ATOM     15  H   UNL     1      41.418   2.178 -45.533  1.00  0.00     0.293 HD
ENDBRANCH   8  14
TORSDOF 2
ENDMDL
MODEL 7
REMARK VINA RESULT:    -4.065      2.066      3.449
REMARK INTER + INTRA:          -4.302
REMARK INTER:                  -4.302
REMARK INTRA:                   0.000
REMARK UNBOUND:                 0.000
REMARK SMILES O=c1ccc2cc(O)c(O)cc2o1
REMARK SMILES IDX 4 1 3 2 2 3 1 4 13 5 12 6 11 7 9 8 7 9 6 10 5 11 8 12 10 14
REMARK H PARENT 8 13 10 15
REMARK Flexibility Score: inf
ROOT
ATOM      1  C   UNL     1      62.125  -3.916 -47.344  1.00  0.00     0.019 A 
ATOM      2  C   UNL     1      61.915  -3.380 -46.073  1.00  0.00     0.094 A 
ATOM      3  C   UNL     1      60.776  -2.600 -45.846  1.00  0.00     0.336 A 
ATOM      4  O   UNL     1      60.569  -2.108 -44.706  1.00  0.00    -0.246 OA
ATOM      5  O   UNL     1      59.907  -2.374 -46.829  1.00  0.00    -0.423 OA
ATOM      6  C   UNL     1      60.069  -2.866 -48.055  1.00  0.00     0.142 A 
ATOM      7  C   UNL     1      59.123  -2.595 -49.048  1.00  0.00     0.098 A 
ATOM      8  C   UNL     1      59.290  -3.111 -50.343  1.00  0.00     0.161 A 
ATOM      9  C   UNL     1      60.412  -3.905 -50.643  1.00  0.00     0.158 A 
ATOM     10  C   UNL     1      61.361  -4.177 -49.650  1.00  0.00     0.062 A 
ATOM     11  C   UNL     1      61.196  -3.662 -48.357  1.00  0.00     0.022 A 
ENDROOT
BRANCH   9  12
ATOM     12  O   UNL     1      60.600  -4.430 -51.921  1.00  0.00    -0.504 OA
ATOM     13  H   UNL     1      60.488  -5.417 -52.119  1.00  0.00     0.293 HD
ENDBRANCH   9  12
BRANCH   8  14
ATOM     14  O   UNL     1      58.342  -2.839 -51.329  1.00  0.00    -0.504 OA
ATOM     15  H   UNL     1      57.992  -3.564 -51.944  1.00  0.00     0.293 HD
ENDBRANCH   8  14
TORSDOF 2
ENDMDL
MODEL 8
REMARK VINA RESULT:    -4.027      3.333      4.675
REMARK INTER + INTRA:          -4.262
REMARK INTER:                  -4.262
REMARK INTRA:                   0.000
REMARK UNBOUND:                 0.000
REMARK SMILES O=c1ccc2cc(O)c(O)cc2o1
REMARK SMILES IDX 4 1 3 2 2 3 1 4 13 5 12 6 11 7 9 8 7 9 6 10 5 11 8 12 10 14
REMARK H PARENT 8 13 10 15
REMARK Flexibility Score: inf
ROOT
ATOM      1  C   UNL     1      61.069  -5.993 -46.269  1.00  0.00     0.019 A 
ATOM      2  C   UNL     1      60.421  -5.992 -45.033  1.00  0.00     0.094 A 
ATOM      3  C   UNL     1      59.689  -4.862 -44.653  1.00  0.00     0.336 A 
ATOM      4  O   UNL     1      59.098  -4.842 -43.542  1.00  0.00    -0.246 OA
ATOM      5  O   UNL     1      59.613  -3.806 -45.459  1.00  0.00    -0.423 OA
ATOM      6  C   UNL     1      60.215  -3.766 -46.646  1.00  0.00     0.142 A 
ATOM      7  C   UNL     1      60.099  -2.628 -47.450  1.00  0.00     0.098 A 
ATOM      8  C   UNL     1      60.733  -2.580 -48.702  1.00  0.00     0.161 A 
ATOM      9  C   UNL     1      61.486  -3.680 -49.149  1.00  0.00     0.158 A 
ATOM     10  C   UNL     1      61.603  -4.820 -48.345  1.00  0.00     0.062 A 
ATOM     11  C   UNL     1      60.972  -4.869 -47.095  1.00  0.00     0.022 A 
ENDROOT
BRANCH   9  12
ATOM     12  O   UNL     1      62.125  -3.659 -50.389  1.00  0.00    -0.504 OA
ATOM     13  H   UNL     1      62.149  -4.469 -50.996  1.00  0.00     0.293 HD
ENDBRANCH   9  12
BRANCH   8  14
ATOM     14  O   UNL     1      60.614  -1.443 -49.501  1.00  0.00    -0.504 OA
ATOM     15  H   UNL     1      59.959  -0.704 -49.278  1.00  0.00     0.293 HD
ENDBRANCH   8  14
TORSDOF 2
ENDMDL
MODEL 9
REMARK VINA RESULT:    -3.976     11.927     12.738
REMARK INTER + INTRA:          -4.209
REMARK INTER:                  -4.209
REMARK INTRA:                   0.000
REMARK UNBOUND:                 0.000
REMARK SMILES O=c1ccc2cc(O)c(O)cc2o1
REMARK SMILES IDX 4 1 3 2 2 3 1 4 13 5 12 6 11 7 9 8 7 9 6 10 5 11 8 12 10 14
REMARK H PARENT 8 13 10 15
REMARK Flexibility Score: inf
ROOT
ATOM      1  C   UNL     1      51.927   7.114 -46.669  1.00  0.00     0.019 A 
ATOM      2  C   UNL     1      51.999   7.139 -48.062  1.00  0.00     0.094 A 
ATOM      3  C   UNL     1      53.195   7.530 -48.672  1.00  0.00     0.336 A 
ATOM      4  O   UNL     1      53.279   7.559 -49.928  1.00  0.00    -0.246 OA
ATOM      5  O   UNL     1      54.248   7.873 -47.934  1.00  0.00    -0.423 OA
ATOM      6  C   UNL     1      54.222   7.863 -46.603  1.00  0.00     0.142 A 
ATOM      7  C   UNL     1      55.360   8.233 -45.879  1.00  0.00     0.098 A 
ATOM      8  C   UNL     1      55.338   8.225 -44.476  1.00  0.00     0.161 A 
ATOM      9  C   UNL     1      54.169   7.842 -43.794  1.00  0.00     0.158 A 
ATOM     10  C   UNL     1      53.028   7.472 -44.517  1.00  0.00     0.062 A 
ATOM     11  C   UNL     1      53.049   7.480 -45.918  1.00  0.00     0.022 A 
ENDROOT
BRANCH   9  12
ATOM     12  O   UNL     1      54.121   7.825 -42.400  1.00  0.00    -0.504 OA
ATOM     13  H   UNL     1      54.257   6.974 -41.868  1.00  0.00     0.293 HD
ENDBRANCH   9  12
BRANCH   8  14
ATOM     14  O   UNL     1      56.476   8.594 -43.758  1.00  0.00    -0.504 OA
ATOM     15  H   UNL     1      56.440   9.300 -43.033  1.00  0.00     0.293 HD
ENDBRANCH   8  14
TORSDOF 2
ENDMDL
