MODEL 1
REMARK VINA RESULT:    -4.491      0.000      0.000
REMARK INTER + INTRA:          -5.246
REMARK INTER:                  -5.016
REMARK INTRA:                  -0.230
REMARK UNBOUND:                -0.230
REMARK SMILES O=C([O-])c1ccccc1C(=O)[O-]
REMARK SMILES IDX 4 1 9 2 5 3 8 4 6 5 7 6 2 7 1 8 3 9 10 10 11 11 12 12
REMARK H PARENT
REMARK Flexibility Score: inf
ROOT
ATOM      1  C   UNL     1       7.203  12.202  53.926  1.00  0.00     0.006 A 
ATOM      2  C   UNL     1       6.375  13.157  53.273  1.00  0.00     0.006 A 
ATOM      3  C   UNL     1       6.794  10.855  53.965  1.00  0.00     0.010 A 
ATOM      4  C   UNL     1       5.141  12.742  52.741  1.00  0.00     0.010 A 
ATOM      5  C   UNL     1       5.575  10.463  53.412  1.00  0.00     0.001 A 
ATOM      6  C   UNL     1       4.745  11.405  52.812  1.00  0.00     0.001 A 
ENDROOT
BRANCH   1   7
ATOM      7  C   UNL     1       8.451  12.567  54.635  1.00  0.00     0.072 C 
ATOM      8  O   UNL     1       9.565  12.511  54.049  1.00  0.00    -0.545 OA
ATOM      9  O   UNL     1       8.399  13.041  55.940  1.00  0.00    -0.545 OA
ENDBRANCH   1   7
BRANCH   2  10
ATOM     10  C   UNL     1       6.789  14.563  53.063  1.00  0.00     0.072 C 
ATOM     11  O   UNL     1       7.402  14.894  52.013  1.00  0.00    -0.545 OA
ATOM     12  O   UNL     1       6.569  15.521  54.045  1.00  0.00    -0.545 OA
ENDBRANCH   2  10
TORSDOF 2
ENDMDL
MODEL 2
REMARK VINA RESULT:    -4.488      0.368      2.881
REMARK INTER + INTRA:          -5.243
REMARK INTER:                  -5.082
REMARK INTRA:                  -0.161
REMARK UNBOUND:                -0.230
REMARK SMILES O=C([O-])c1ccccc1C(=O)[O-]
REMARK SMILES IDX 4 1 9 2 5 3 8 4 6 5 7 6 2 7 1 8 3 9 10 10 11 11 12 12
REMARK H PARENT
REMARK Flexibility Score: inf
ROOT
ATOM      1  C   UNL     1       6.538  13.140  53.395  1.00  0.00     0.006 A 
ATOM      2  C   UNL     1       7.423  12.293  54.118  1.00  0.00     0.006 A 
ATOM      3  C   UNL     1       5.371  12.590  52.833  1.00  0.00     0.010 A 
ATOM      4  C   UNL     1       7.142  10.916  54.196  1.00  0.00     0.010 A 
ATOM      5  C   UNL     1       5.102  11.225  52.941  1.00  0.00     0.001 A 
ATOM      6  C   UNL     1       5.991  10.388  53.610  1.00  0.00     0.001 A 
ENDROOT
BRANCH   1   7
ATOM      7  C   UNL     1       6.819  14.572  53.142  1.00  0.00     0.072 C 
ATOM      8  O   UNL     1       7.394  14.940  52.084  1.00  0.00    -0.545 OA
ATOM      9  O   UNL     1       6.389  15.537  54.045  1.00  0.00    -0.545 OA
ENDBRANCH   1   7
BRANCH   2  10
ATOM     10  C   UNL     1       8.598  12.809  54.858  1.00  0.00     0.072 C 
ATOM     11  O   UNL     1       9.759  12.439  54.541  1.00  0.00    -0.545 OA
ATOM     12  O   UNL     1       8.433  13.652  55.950  1.00  0.00    -0.545 OA
ENDBRANCH   2  10
TORSDOF 2
ENDMDL
MODEL 3
REMARK VINA RESULT:    -4.448      2.225      3.295
REMARK INTER + INTRA:          -5.199
REMARK INTER:                  -5.030
REMARK INTRA:                  -0.168
REMARK UNBOUND:                -0.230
REMARK SMILES O=C([O-])c1ccccc1C(=O)[O-]
REMARK SMILES IDX 4 1 9 2 5 3 8 4 6 5 7 6 2 7 1 8 3 9 10 10 11 11 12 12
REMARK H PARENT
REMARK Flexibility Score: inf
ROOT
ATOM      1  C   UNL     1       8.472  12.908  53.898  1.00  0.00     0.006 A 
ATOM      2  C   UNL     1       7.081  12.722  53.666  1.00  0.00     0.006 A 
ATOM      3  C   UNL     1       9.041  14.175  53.671  1.00  0.00     0.010 A 
ATOM      4  C   UNL     1       6.325  13.792  53.153  1.00  0.00     0.010 A 
ATOM      5  C   UNL     1       8.266  15.227  53.183  1.00  0.00     0.001 A 
ATOM      6  C   UNL     1       6.915  15.034  52.913  1.00  0.00     0.001 A 
ENDROOT
BRANCH   1   7
ATOM      7  C   UNL     1       9.375  11.807  54.305  1.00  0.00     0.072 C 
ATOM      8  O   UNL     1      10.008  11.140  53.444  1.00  0.00    -0.545 OA
ATOM      9  O   UNL     1       9.586  11.539  55.653  1.00  0.00    -0.545 OA
ENDBRANCH   1   7
BRANCH   2  10
ATOM     10  C   UNL     1       6.373  11.467  54.008  1.00  0.00     0.072 C 
ATOM     11  O   UNL     1       5.827  10.780  53.105  1.00  0.00    -0.545 OA
ATOM     12  O   UNL     1       6.243  11.065  55.332  1.00  0.00    -0.545 OA
ENDBRANCH   2  10
TORSDOF 2
ENDMDL
MODEL 4
REMARK VINA RESULT:    -4.444      2.240      3.994
REMARK INTER + INTRA:          -5.194
REMARK INTER:                  -5.025
REMARK INTRA:                  -0.169
REMARK UNBOUND:                -0.230
REMARK SMILES O=C([O-])c1ccccc1C(=O)[O-]
REMARK SMILES IDX 4 1 9 2 5 3 8 4 6 5 7 6 2 7 1 8 3 9 10 10 11 11 12 12
REMARK H PARENT
REMARK Flexibility Score: inf
ROOT
ATOM      1  C   UNL     1       7.153  12.697  53.682  1.00  0.00     0.006 A 
ATOM      2  C   UNL     1       8.548  12.879  53.894  1.00  0.00     0.006 A 
ATOM      3  C   UNL     1       6.400  13.751  53.131  1.00  0.00     0.010 A 
ATOM      4  C   UNL     1       9.125  14.131  53.608  1.00  0.00     0.010 A 
ATOM      5  C   UNL     1       6.998  14.976  52.836  1.00  0.00     0.001 A 
ATOM      6  C   UNL     1       8.354  15.170  53.085  1.00  0.00     0.001 A 
ENDROOT
BRANCH   1   7
ATOM      7  C   UNL     1       6.432  11.465  54.080  1.00  0.00     0.072 C 
ATOM      8  O   UNL     1       6.257  11.184  55.294  1.00  0.00    -0.545 OA
ATOM      9  O   UNL     1       5.881  10.636  53.110  1.00  0.00    -0.545 OA
ENDBRANCH   1   7
BRANCH   2  10
ATOM     10  C   UNL     1       9.440  11.784  54.336  1.00  0.00     0.072 C 
ATOM     11  O   UNL     1       9.978  11.022  53.489  1.00  0.00    -0.545 OA
ATOM     12  O   UNL     1       9.645  11.539  55.689  1.00  0.00    -0.545 OA
ENDBRANCH   2  10
TORSDOF 2
ENDMDL
MODEL 5
REMARK VINA RESULT:    -4.278      1.438      3.215
REMARK INTER + INTRA:          -5.009
REMARK INTER:                  -4.796
REMARK INTRA:                  -0.213
REMARK UNBOUND:                -0.230
REMARK SMILES O=C([O-])c1ccccc1C(=O)[O-]
REMARK SMILES IDX 4 1 9 2 5 3 8 4 6 5 7 6 2 7 1 8 3 9 10 10 11 11 12 12
REMARK H PARENT
REMARK Flexibility Score: inf
ROOT
ATOM      1  C   UNL     1       7.217  12.121  53.900  1.00  0.00     0.006 A 
ATOM      2  C   UNL     1       8.040  10.984  54.128  1.00  0.00     0.006 A 
ATOM      3  C   UNL     1       5.905  11.933  53.429  1.00  0.00     0.010 A 
ATOM      4  C   UNL     1       7.542   9.705  53.813  1.00  0.00     0.010 A 
ATOM      5  C   UNL     1       5.425  10.654  53.144  1.00  0.00     0.001 A 
ATOM      6  C   UNL     1       6.246   9.544  53.324  1.00  0.00     0.001 A 
ENDROOT
BRANCH   1   7
ATOM      7  C   UNL     1       7.699  13.512  54.070  1.00  0.00     0.072 C 
ATOM      8  O   UNL     1       8.325  14.095  53.146  1.00  0.00    -0.545 OA
ATOM      9  O   UNL     1       7.405  14.214  55.233  1.00  0.00    -0.545 OA
ENDBRANCH   1   7
BRANCH   2  10
ATOM     10  C   UNL     1       9.380  11.077  54.751  1.00  0.00     0.072 C 
ATOM     11  O   UNL     1      10.417  10.927  54.052  1.00  0.00    -0.545 OA
ATOM     12  O   UNL     1       9.513  11.265  56.122  1.00  0.00    -0.545 OA
ENDBRANCH   2  10
TORSDOF 2
ENDMDL
MODEL 6
REMARK VINA RESULT:    -4.277      1.417      2.064
REMARK INTER + INTRA:          -5.008
REMARK INTER:                  -4.792
REMARK INTRA:                  -0.215
REMARK UNBOUND:                -0.230
REMARK SMILES O=C([O-])c1ccccc1C(=O)[O-]
REMARK SMILES IDX 4 1 9 2 5 3 8 4 6 5 7 6 2 7 1 8 3 9 10 10 11 11 12 12
REMARK H PARENT
REMARK Flexibility Score: inf
ROOT
ATOM      1  C   UNL     1       7.917  10.960  54.193  1.00  0.00     0.006 A 
ATOM      2  C   UNL     1       7.171  12.143  53.936  1.00  0.00     0.006 A 
ATOM      3  C   UNL     1       7.361   9.712  53.856  1.00  0.00     0.010 A 
ATOM      4  C   UNL     1       5.869  12.030  53.412  1.00  0.00     0.010 A 
ATOM      5  C   UNL     1       6.077   9.626  53.317  1.00  0.00     0.001 A 
ATOM      6  C   UNL     1       5.329  10.781  53.106  1.00  0.00     0.001 A 
ENDROOT
BRANCH   1   7
ATOM      7  C   UNL     1       9.236  10.970  54.868  1.00  0.00     0.072 C 
ATOM      8  O   UNL     1       9.317  10.962  56.125  1.00  0.00    -0.545 OA
ATOM      9  O   UNL     1      10.405  10.921  54.117  1.00  0.00    -0.545 OA
ENDBRANCH   1   7
BRANCH   2  10
ATOM     10  C   UNL     1       7.730  13.501  54.129  1.00  0.00     0.072 C 
ATOM     11  O   UNL     1       7.551  14.112  55.215  1.00  0.00    -0.545 OA
ATOM     12  O   UNL     1       8.401  14.144  53.096  1.00  0.00    -0.545 OA
ENDBRANCH   2  10
TORSDOF 2
ENDMDL
MODEL 7
REMARK VINA RESULT:    -4.133      2.263      4.489
REMARK INTER + INTRA:          -4.846
REMARK INTER:                  -4.623
REMARK INTRA:                  -0.223
REMARK UNBOUND:                -0.230
REMARK SMILES O=C([O-])c1ccccc1C(=O)[O-]
REMARK SMILES IDX 4 1 9 2 5 3 8 4 6 5 7 6 2 7 1 8 3 9 10 10 11 11 12 12
REMARK H PARENT
REMARK Flexibility Score: inf
ROOT
ATOM      1  C   UNL     1       7.795  14.599  52.481  1.00  0.00     0.006 A 
ATOM      2  C   UNL     1       9.079  14.182  52.928  1.00  0.00     0.006 A 
ATOM      3  C   UNL     1       7.695  15.362  51.303  1.00  0.00     0.010 A 
ATOM      4  C   UNL     1      10.220  14.599  52.217  1.00  0.00     0.010 A 
ATOM      5  C   UNL     1       8.839  15.746  50.602  1.00  0.00     0.001 A 
ATOM      6  C   UNL     1      10.098  15.376  51.064  1.00  0.00     0.001 A 
ENDROOT
BRANCH   1   7
ATOM      7  C   UNL     1       6.550  14.326  53.236  1.00  0.00     0.072 C 
ATOM      8  O   UNL     1       5.906  13.259  53.055  1.00  0.00    -0.545 OA
ATOM      9  O   UNL     1       6.113  15.221  54.207  1.00  0.00    -0.545 OA
ENDBRANCH   1   7
BRANCH   2  10
ATOM     10  C   UNL     1       9.267  13.264  54.075  1.00  0.00     0.072 C 
ATOM     11  O   UNL     1       9.263  12.017  53.897  1.00  0.00    -0.545 OA
ATOM     12  O   UNL     1       9.385  13.760  55.368  1.00  0.00    -0.545 OA
ENDBRANCH   2  10
TORSDOF 2
ENDMDL
MODEL 8
REMARK VINA RESULT:    -4.123      2.272      3.602
REMARK INTER + INTRA:          -4.835
REMARK INTER:                  -4.622
REMARK INTRA:                  -0.213
REMARK UNBOUND:                -0.230
REMARK SMILES O=C([O-])c1ccccc1C(=O)[O-]
REMARK SMILES IDX 4 1 9 2 5 3 8 4 6 5 7 6 2 7 1 8 3 9 10 10 11 11 12 12
REMARK H PARENT
REMARK Flexibility Score: inf
ROOT
ATOM      1  C   UNL     1       9.058  14.176  53.057  1.00  0.00     0.006 A 
ATOM      2  C   UNL     1       7.796  14.615  52.571  1.00  0.00     0.006 A 
ATOM      3  C   UNL     1      10.226  14.553  52.367  1.00  0.00     0.010 A 
ATOM      4  C   UNL     1       7.743  15.360  51.378  1.00  0.00     0.010 A 
ATOM      5  C   UNL     1      10.150  15.310  51.198  1.00  0.00     0.001 A 
ATOM      6  C   UNL     1       8.912  15.703  50.698  1.00  0.00     0.001 A 
ENDROOT
BRANCH   1   7
ATOM      7  C   UNL     1       9.205  13.275  54.224  1.00  0.00     0.072 C 
ATOM      8  O   UNL     1       9.201  12.024  54.077  1.00  0.00    -0.545 OA
ATOM      9  O   UNL     1       9.415  13.804  55.492  1.00  0.00    -0.545 OA
ENDBRANCH   1   7
BRANCH   2  10
ATOM     10  C   UNL     1       6.531  14.384  53.307  1.00  0.00     0.072 C 
ATOM     11  O   UNL     1       5.844  13.353  53.079  1.00  0.00    -0.545 OA
ATOM     12  O   UNL     1       6.052  15.329  54.207  1.00  0.00    -0.545 OA
ENDBRANCH   2  10
TORSDOF 2
ENDMDL
MODEL 9
REMARK VINA RESULT:    -1.962      2.454      4.332
REMARK INTER + INTRA:          -2.422
REMARK INTER:                  -2.570
REMARK INTRA:                   0.148
REMARK UNBOUND:                -0.230
REMARK SMILES O=C([O-])c1ccccc1C(=O)[O-]
REMARK SMILES IDX 4 1 9 2 5 3 8 4 6 5 7 6 2 7 1 8 3 9 10 10 11 11 12 12
REMARK H PARENT
REMARK Flexibility Score: inf
ROOT
ATOM      1  C   UNL     1       6.289  12.236  53.662  1.00  0.00     0.006 A 
ATOM      2  C   UNL     1       7.092  12.166  54.834  1.00  0.00     0.006 A 
ATOM      3  C   UNL     1       6.086  13.485  53.044  1.00  0.00     0.010 A 
ATOM      4  C   UNL     1       7.608  13.356  55.382  1.00  0.00     0.010 A 
ATOM      5  C   UNL     1       6.625  14.648  53.594  1.00  0.00     0.001 A 
ATOM      6  C   UNL     1       7.374  14.586  54.766  1.00  0.00     0.001 A 
ENDROOT
BRANCH   1   7
ATOM      7  C   UNL     1       5.592  11.061  53.091  1.00  0.00     0.072 C 
ATOM      8  O   UNL     1       4.375  11.124  52.774  1.00  0.00    -0.545 OA
ATOM      9  O   UNL     1       6.295   9.889  52.836  1.00  0.00    -0.545 OA
ENDBRANCH   1   7
BRANCH   2  10
ATOM     10  C   UNL     1       7.472  10.883  55.468  1.00  0.00     0.072 C 
ATOM     11  O   UNL     1       6.623  10.224  56.125  1.00  0.00    -0.545 OA
ATOM     12  O   UNL     1       8.782  10.422  55.405  1.00  0.00    -0.545 OA
ENDBRANCH   2  10
TORSDOF 2
ENDMDL
