MODEL 1
REMARK VINA RESULT:    -4.687      0.000      0.000
REMARK INTER + INTRA:          -6.888
REMARK INTER:                  -6.605
REMARK INTRA:                  -0.283
REMARK UNBOUND:                -0.283
REMARK SMILES C=CCCCCCCC(=O)[O-]
REMARK SMILES IDX 6 1 7 2 8 3 9 4 10 5 11 6 5 7 4 8 3 9 2 10 1 11
REMARK H PARENT
REMARK Flexibility Score: inf
ROOT
ATOM      1  C   UNL     1       7.119 -13.172  -3.955  1.00  0.00     0.000 C 
ENDROOT
BRANCH   1   2
ATOM      2  C   UNL     1       5.587 -13.133  -3.896  1.00  0.00     0.006 C 
BRANCH   2   3
ATOM      3  C   UNL     1       4.989 -12.919  -5.288  1.00  0.00     0.053 C 
BRANCH   3   4
ATOM      4  C   UNL     1       4.817 -11.459  -5.566  1.00  0.00     0.041 C 
ATOM      5  O   UNL     1       4.813 -11.035  -6.751  1.00  0.00    -0.550 OA
ATOM      6  O   UNL     1       4.711 -10.558  -4.513  1.00  0.00    -0.550 OA
ENDBRANCH   3   4
ENDBRANCH   2   3
ENDBRANCH   1   2
BRANCH   1   7
ATOM      7  C   UNL     1       7.704 -13.816  -2.693  1.00  0.00     0.000 C 
BRANCH   7   8
ATOM      8  C   UNL     1       7.244 -13.074  -1.433  1.00  0.00     0.004 C 
BRANCH   8   9
ATOM      9  C   UNL     1       8.441 -12.690  -0.554  1.00  0.00     0.027 C 
BRANCH   9  10
ATOM     10  C   UNL     1       8.564 -11.197  -0.422  1.00  0.00    -0.035 C 
ATOM     11  C   UNL     1       9.345 -10.635   0.506  1.00  0.00     0.004 C 
ENDBRANCH   9  10
ENDBRANCH   8   9
ENDBRANCH   7   8
ENDBRANCH   1   7
TORSDOF 7
ENDMDL
MODEL 2
REMARK VINA RESULT:    -4.562      2.435      5.003
REMARK INTER + INTRA:          -6.711
REMARK INTER:                  -6.234
REMARK INTRA:                  -0.477
REMARK UNBOUND:                -0.283
REMARK SMILES C=CCCCCCCC(=O)[O-]
REMARK SMILES IDX 6 1 7 2 8 3 9 4 10 5 11 6 5 7 4 8 3 9 2 10 1 11
REMARK H PARENT
REMARK Flexibility Score: inf
ROOT
ATOM      1  C   UNL     1       8.306 -12.491  -0.446  1.00  0.00     0.000 C 
ENDROOT
BRANCH   1   2
ATOM      2  C   UNL     1       8.544 -10.977  -0.478  1.00  0.00     0.006 C 
BRANCH   2   3
ATOM      3  C   UNL     1       7.512 -10.277  -1.366  1.00  0.00     0.053 C 
BRANCH   3   4
ATOM      4  C   UNL     1       6.731  -9.277  -0.573  1.00  0.00     0.041 C 
ATOM      5  O   UNL     1       7.326  -8.363   0.055  1.00  0.00    -0.550 OA
ATOM      6  O   UNL     1       5.348  -9.383  -0.488  1.00  0.00    -0.550 OA
ENDBRANCH   3   4
ENDBRANCH   2   3
ENDBRANCH   1   2
BRANCH   1   7
ATOM      7  C   UNL     1       7.197 -12.897  -1.424  1.00  0.00     0.000 C 
BRANCH   7   8
ATOM      8  C   UNL     1       7.747 -13.787  -2.544  1.00  0.00     0.004 C 
BRANCH   8   9
ATOM      9  C   UNL     1       7.256 -13.310  -3.916  1.00  0.00     0.027 C 
BRANCH   9  10
ATOM     10  C   UNL     1       5.772 -13.061  -3.909  1.00  0.00    -0.035 C 
ATOM     11  C   UNL     1       5.053 -13.065  -5.035  1.00  0.00     0.004 C 
ENDBRANCH   9  10
ENDBRANCH   8   9
ENDBRANCH   7   8
ENDBRANCH   1   7
TORSDOF 7
ENDMDL
MODEL 3
REMARK VINA RESULT:    -4.473      1.507      2.070
REMARK INTER + INTRA:          -6.586
REMARK INTER:                  -6.219
REMARK INTRA:                  -0.367
REMARK UNBOUND:                -0.283
REMARK SMILES C=CCCCCCCC(=O)[O-]
REMARK SMILES IDX 6 1 7 2 8 3 9 4 10 5 11 6 5 7 4 8 3 9 2 10 1 11
REMARK H PARENT
REMARK Flexibility Score: inf
ROOT
ATOM      1  C   UNL     1       7.563 -13.796  -2.325  1.00  0.00     0.000 C 
ENDROOT
BRANCH   1   2
ATOM      2  C   UNL     1       7.275 -13.297  -3.746  1.00  0.00     0.006 C 
BRANCH   2   3
ATOM      3  C   UNL     1       6.141 -12.269  -3.749  1.00  0.00     0.053 C 
BRANCH   3   4
ATOM      4  C   UNL     1       4.860 -12.903  -4.192  1.00  0.00     0.041 C 
ATOM      5  O   UNL     1       4.736 -13.324  -5.371  1.00  0.00    -0.550 OA
ATOM      6  O   UNL     1       3.785 -12.985  -3.315  1.00  0.00    -0.550 OA
ENDBRANCH   3   4
ENDBRANCH   2   3
ENDBRANCH   1   2
BRANCH   1   7
ATOM      7  C   UNL     1       7.427 -12.661  -1.304  1.00  0.00     0.000 C 
BRANCH   7   8
ATOM      8  C   UNL     1       8.653 -12.596  -0.386  1.00  0.00     0.004 C 
BRANCH   8   9
ATOM      9  C   UNL     1       9.042 -11.142  -0.091  1.00  0.00     0.027 C 
BRANCH   9  10
ATOM     10  C   UNL     1       7.862 -10.352   0.409  1.00  0.00    -0.035 C 
ATOM     11  C   UNL     1       7.451  -9.238  -0.204  1.00  0.00     0.004 C 
ENDBRANCH   9  10
ENDBRANCH   8   9
ENDBRANCH   7   8
ENDBRANCH   1   7
TORSDOF 7
ENDMDL
MODEL 4
REMARK VINA RESULT:    -4.456      2.483      5.407
REMARK INTER + INTRA:          -6.563
REMARK INTER:                  -6.220
REMARK INTRA:                  -0.342
REMARK UNBOUND:                -0.283
REMARK SMILES C=CCCCCCCC(=O)[O-]
REMARK SMILES IDX 6 1 7 2 8 3 9 4 10 5 11 6 5 7 4 8 3 9 2 10 1 11
REMARK H PARENT
REMARK Flexibility Score: inf
ROOT
ATOM      1  C   UNL     1       7.618 -13.571  -2.937  1.00  0.00     0.000 C 
ENDROOT
BRANCH   1   2
ATOM      2  C   UNL     1       7.017 -12.839  -1.732  1.00  0.00     0.006 C 
BRANCH   2   3
ATOM      3  C   UNL     1       8.071 -12.608  -0.647  1.00  0.00     0.053 C 
BRANCH   3   4
ATOM      4  C   UNL     1       8.391 -11.151  -0.529  1.00  0.00     0.041 C 
ATOM      5  O   UNL     1       7.720 -10.301  -1.169  1.00  0.00    -0.550 OA
ATOM      6  O   UNL     1       9.463 -10.736   0.252  1.00  0.00    -0.550 OA
ENDBRANCH   3   4
ENDBRANCH   2   3
ENDBRANCH   1   2
BRANCH   1   7
ATOM      7  C   UNL     1       6.872 -13.214  -4.229  1.00  0.00     0.000 C 
BRANCH   7   8
ATOM      8  C   UNL     1       5.361 -13.132  -3.987  1.00  0.00     0.004 C 
BRANCH   8   9
ATOM      9  C   UNL     1       4.594 -13.090  -5.315  1.00  0.00     0.027 C 
BRANCH   9  10
ATOM     10  C   UNL     1       4.751 -11.757  -5.994  1.00  0.00    -0.035 C 
ATOM     11  C   UNL     1       4.261 -10.634  -5.461  1.00  0.00     0.004 C 
ENDBRANCH   9  10
ENDBRANCH   8   9
ENDBRANCH   7   8
ENDBRANCH   1   7
TORSDOF 7
ENDMDL
MODEL 5
REMARK VINA RESULT:    -4.455      2.838      5.351
REMARK INTER + INTRA:          -6.562
REMARK INTER:                  -5.959
REMARK INTRA:                  -0.602
REMARK UNBOUND:                -0.283
REMARK SMILES C=CCCCCCCC(=O)[O-]
REMARK SMILES IDX 6 1 7 2 8 3 9 4 10 5 11 6 5 7 4 8 3 9 2 10 1 11
REMARK H PARENT
REMARK Flexibility Score: inf
ROOT
ATOM      1  C   UNL     1       7.284 -13.391  -3.780  1.00  0.00     0.000 C 
ENDROOT
BRANCH   1   2
ATOM      2  C   UNL     1       7.423 -13.600  -2.267  1.00  0.00     0.006 C 
BRANCH   2   3
ATOM      3  C   UNL     1       6.906 -12.385  -1.494  1.00  0.00     0.053 C 
BRANCH   3   4
ATOM      4  C   UNL     1       8.004 -11.773  -0.683  1.00  0.00     0.041 C 
ATOM      5  O   UNL     1       8.097 -10.522  -0.583  1.00  0.00    -0.550 OA
ATOM      6  O   UNL     1       8.956 -12.584  -0.077  1.00  0.00    -0.550 OA
ENDBRANCH   3   4
ENDBRANCH   2   3
ENDBRANCH   1   2
BRANCH   1   7
ATOM      7  C   UNL     1       6.087 -12.489  -4.104  1.00  0.00     0.000 C 
BRANCH   7   8
ATOM      8  C   UNL     1       5.121 -13.182  -5.071  1.00  0.00     0.004 C 
BRANCH   8   9
ATOM      9  C   UNL     1       3.703 -13.235  -4.488  1.00  0.00     0.027 C 
BRANCH   9  10
ATOM     10  C   UNL     1       3.720 -13.689  -3.053  1.00  0.00    -0.035 C 
ATOM     11  C   UNL     1       3.127 -14.822  -2.667  1.00  0.00     0.004 C 
ENDBRANCH   9  10
ENDBRANCH   8   9
ENDBRANCH   7   8
ENDBRANCH   1   7
TORSDOF 7
ENDMDL
MODEL 6
REMARK VINA RESULT:    -4.441      1.806      2.194
REMARK INTER + INTRA:          -6.542
REMARK INTER:                  -5.946
REMARK INTRA:                  -0.596
REMARK UNBOUND:                -0.283
REMARK SMILES C=CCCCCCCC(=O)[O-]
REMARK SMILES IDX 6 1 7 2 8 3 9 4 10 5 11 6 5 7 4 8 3 9 2 10 1 11
REMARK H PARENT
REMARK Flexibility Score: inf
ROOT
ATOM      1  C   UNL     1       7.264 -12.714  -3.739  1.00  0.00     0.000 C 
ENDROOT
BRANCH   1   2
ATOM      2  C   UNL     1       6.115 -13.265  -4.593  1.00  0.00     0.006 C 
BRANCH   2   3
ATOM      3  C   UNL     1       4.843 -12.435  -4.404  1.00  0.00     0.053 C 
BRANCH   3   4
ATOM      4  C   UNL     1       4.156 -12.813  -3.130  1.00  0.00     0.041 C 
ATOM      5  O   UNL     1       3.821 -11.926  -2.303  1.00  0.00    -0.550 OA
ATOM      6  O   UNL     1       3.929 -14.152  -2.832  1.00  0.00    -0.550 OA
ENDBRANCH   3   4
ENDBRANCH   2   3
ENDBRANCH   1   2
BRANCH   1   7
ATOM      7  C   UNL     1       7.584 -13.655  -2.572  1.00  0.00     0.000 C 
BRANCH   7   8
ATOM      8  C   UNL     1       7.606 -12.895  -1.241  1.00  0.00     0.004 C 
BRANCH   8   9
ATOM      9  C   UNL     1       7.406 -11.392  -1.464  1.00  0.00     0.027 C 
BRANCH   9  10
ATOM     10  C   UNL     1       8.018 -10.588  -0.350  1.00  0.00    -0.035 C 
ATOM     11  C   UNL     1       9.123 -10.992   0.284  1.00  0.00     0.004 C 
ENDBRANCH   9  10
ENDBRANCH   8   9
ENDBRANCH   7   8
ENDBRANCH   1   7
TORSDOF 7
ENDMDL
MODEL 7
REMARK VINA RESULT:    -4.383      1.956      4.347
REMARK INTER + INTRA:          -6.459
REMARK INTER:                  -5.851
REMARK INTRA:                  -0.608
REMARK UNBOUND:                -0.283
REMARK SMILES C=CCCCCCCC(=O)[O-]
REMARK SMILES IDX 6 1 7 2 8 3 9 4 10 5 11 6 5 7 4 8 3 9 2 10 1 11
REMARK H PARENT
REMARK Flexibility Score: inf
ROOT
ATOM      1  C   UNL     1       8.488 -11.145  -0.969  1.00  0.00     0.000 C 
ENDROOT
BRANCH   1   2
ATOM      2  C   UNL     1       7.775 -10.118  -0.082  1.00  0.00     0.006 C 
BRANCH   2   3
ATOM      3  C   UNL     1       6.891  -9.189  -0.917  1.00  0.00     0.053 C 
BRANCH   3   4
ATOM      4  C   UNL     1       5.728  -9.940  -1.482  1.00  0.00     0.041 C 
ATOM      5  O   UNL     1       5.503  -9.922  -2.720  1.00  0.00    -0.550 OA
ATOM      6  O   UNL     1       4.861 -10.621  -0.635  1.00  0.00    -0.550 OA
ENDBRANCH   3   4
ENDBRANCH   2   3
ENDBRANCH   1   2
BRANCH   1   7
ATOM      7  C   UNL     1       8.351 -12.561  -0.395  1.00  0.00     0.000 C 
BRANCH   7   8
ATOM      8  C   UNL     1       8.121 -13.587  -1.510  1.00  0.00     0.004 C 
BRANCH   8   9
ATOM      9  C   UNL     1       6.806 -13.310  -2.250  1.00  0.00     0.027 C 
BRANCH   9  10
ATOM     10  C   UNL     1       7.014 -13.280  -3.740  1.00  0.00    -0.035 C 
ATOM     11  C   UNL     1       6.001 -13.076  -4.587  1.00  0.00     0.004 C 
ENDBRANCH   9  10
ENDBRANCH   8   9
ENDBRANCH   7   8
ENDBRANCH   1   7
TORSDOF 7
ENDMDL
MODEL 8
REMARK VINA RESULT:    -4.351      2.879      5.738
REMARK INTER + INTRA:          -6.415
REMARK INTER:                  -6.263
REMARK INTRA:                  -0.151
REMARK UNBOUND:                -0.283
REMARK SMILES C=CCCCCCCC(=O)[O-]
REMARK SMILES IDX 6 1 7 2 8 3 9 4 10 5 11 6 5 7 4 8 3 9 2 10 1 11
REMARK H PARENT
REMARK Flexibility Score: inf
ROOT
ATOM      1  C   UNL     1       7.199 -13.496  -2.370  1.00  0.00     0.000 C 
ENDROOT
BRANCH   1   2
ATOM      2  C   UNL     1       7.304 -12.160  -1.626  1.00  0.00     0.006 C 
BRANCH   2   3
ATOM      3  C   UNL     1       8.338 -12.238  -0.500  1.00  0.00     0.053 C 
BRANCH   3   4
ATOM      4  C   UNL     1       8.726 -10.865  -0.048  1.00  0.00     0.041 C 
ATOM      5  O   UNL     1       9.782 -10.690   0.613  1.00  0.00    -0.550 OA
ATOM      6  O   UNL     1       7.894  -9.784  -0.315  1.00  0.00    -0.550 OA
ENDBRANCH   3   4
ENDBRANCH   2   3
ENDBRANCH   1   2
BRANCH   1   7
ATOM      7  C   UNL     1       7.279 -13.290  -3.888  1.00  0.00     0.000 C 
BRANCH   7   8
ATOM      8  C   UNL     1       5.882 -13.113  -4.493  1.00  0.00     0.004 C 
BRANCH   8   9
ATOM      9  C   UNL     1       4.792 -13.435  -3.464  1.00  0.00     0.027 C 
BRANCH   9  10
ATOM     10  C   UNL     1       3.484 -13.757  -4.135  1.00  0.00    -0.035 C 
ATOM     11  C   UNL     1       3.327 -13.646  -5.457  1.00  0.00     0.004 C 
ENDBRANCH   9  10
ENDBRANCH   8   9
ENDBRANCH   7   8
ENDBRANCH   1   7
TORSDOF 7
ENDMDL
MODEL 9
REMARK VINA RESULT:    -4.175      1.909      3.433
REMARK INTER + INTRA:          -6.166
REMARK INTER:                  -5.890
REMARK INTRA:                  -0.276
REMARK UNBOUND:                -0.283
REMARK SMILES C=CCCCCCCC(=O)[O-]
REMARK SMILES IDX 6 1 7 2 8 3 9 4 10 5 11 6 5 7 4 8 3 9 2 10 1 11
REMARK H PARENT
REMARK Flexibility Score: inf
ROOT
ATOM      1  C   UNL     1       4.134 -12.475  -5.707  1.00  0.00     0.000 C 
ENDROOT
BRANCH   1   2
ATOM      2  C   UNL     1       4.665 -11.082  -6.063  1.00  0.00     0.006 C 
BRANCH   2   3
ATOM      3  C   UNL     1       3.639 -10.296  -6.883  1.00  0.00     0.053 C 
BRANCH   3   4
ATOM      4  C   UNL     1       4.312  -9.216  -7.670  1.00  0.00     0.041 C 
ATOM      5  O   UNL     1       5.128  -8.439  -7.111  1.00  0.00    -0.550 OA
ATOM      6  O   UNL     1       4.001  -9.038  -9.013  1.00  0.00    -0.550 OA
ENDBRANCH   3   4
ENDBRANCH   2   3
ENDBRANCH   1   2
BRANCH   1   7
ATOM      7  C   UNL     1       4.964 -13.112  -4.587  1.00  0.00     0.000 C 
BRANCH   7   8
ATOM      8  C   UNL     1       6.398 -12.570  -4.586  1.00  0.00     0.004 C 
BRANCH   8   9
ATOM      9  C   UNL     1       7.297 -13.394  -3.658  1.00  0.00     0.027 C 
BRANCH   9  10
ATOM     10  C   UNL     1       6.845 -13.291  -2.227  1.00  0.00    -0.035 C 
ATOM     11  C   UNL     1       7.714 -13.137  -1.223  1.00  0.00     0.004 C 
ENDBRANCH   9  10
ENDBRANCH   8   9
ENDBRANCH   7   8
ENDBRANCH   1   7
TORSDOF 7
ENDMDL
