MODEL 1
REMARK VINA RESULT:    -5.110      0.000      0.000
REMARK INTER + INTRA:          -5.788
REMARK INTER:                  -5.558
REMARK INTRA:                  -0.231
REMARK UNBOUND:                -0.231
REMARK SMILES O=C([O-])c1ccccc1O
REMARK SMILES IDX 4 1 9 2 5 3 8 4 6 5 7 6 2 7 1 8 3 9 10 10
REMARK H PARENT 10 11
REMARK Flexibility Score: inf
ROOT
ATOM      1  C   UNL     1     -15.515 -37.346   7.895  1.00  0.00     0.039 A 
ATOM      2  C   UNL     1     -14.624 -38.362   8.325  1.00  0.00     0.124 A 
ATOM      3  C   UNL     1     -16.125 -37.464   6.631  1.00  0.00     0.014 A 
ATOM      4  C   UNL     1     -14.320 -39.425   7.464  1.00  0.00     0.047 A 
ATOM      5  C   UNL     1     -15.826 -38.541   5.794  1.00  0.00     0.001 A 
ATOM      6  C   UNL     1     -14.917 -39.515   6.206  1.00  0.00     0.004 A 
ENDROOT
BRANCH   1   7
ATOM      7  C   UNL     1     -15.802 -36.145   8.711  1.00  0.00     0.075 C 
ATOM      8  O   UNL     1     -16.125 -35.064   8.152  1.00  0.00    -0.545 OA
ATOM      9  O   UNL     1     -15.652 -36.171  10.092  1.00  0.00    -0.545 OA
ENDBRANCH   1   7
BRANCH   2  10
ATOM     10  O   UNL     1     -14.054 -38.374   9.599  1.00  0.00    -0.507 OA
ATOM     11  H   UNL     1     -14.030 -37.565  10.204  1.00  0.00     0.293 HD
ENDBRANCH   2  10
TORSDOF 2
ENDMDL
MODEL 2
REMARK VINA RESULT:    -4.779      2.493      4.279
REMARK INTER + INTRA:          -5.429
REMARK INTER:                  -5.206
REMARK INTRA:                  -0.223
REMARK UNBOUND:                -0.231
REMARK SMILES O=C([O-])c1ccccc1O
REMARK SMILES IDX 4 1 9 2 5 3 8 4 6 5 7 6 2 7 1 8 3 9 10 10
REMARK H PARENT 10 11
REMARK Flexibility Score: inf
ROOT
ATOM      1  C   UNL     1     -14.772 -38.835   7.138  1.00  0.00     0.039 A 
ATOM      2  C   UNL     1     -15.658 -37.897   6.551  1.00  0.00     0.124 A 
ATOM      3  C   UNL     1     -14.430 -38.692   8.497  1.00  0.00     0.014 A 
ATOM      4  C   UNL     1     -16.125 -36.816   7.310  1.00  0.00     0.047 A 
ATOM      5  C   UNL     1     -14.922 -37.621   9.245  1.00  0.00     0.001 A 
ATOM      6  C   UNL     1     -15.760 -36.678   8.651  1.00  0.00     0.004 A 
ENDROOT
BRANCH   1   7
ATOM      7  C   UNL     1     -14.162 -39.941   6.367  1.00  0.00     0.075 C 
ATOM      8  O   UNL     1     -13.079 -40.457   6.751  1.00  0.00    -0.545 OA
ATOM      9  O   UNL     1     -14.731 -40.375   5.176  1.00  0.00    -0.545 OA
ENDBRANCH   1   7
BRANCH   2  10
ATOM     10  O   UNL     1     -16.125 -38.020   5.241  1.00  0.00    -0.507 OA
ATOM     11  H   UNL     1     -15.543 -38.317   4.470  1.00  0.00     0.293 HD
ENDBRANCH   2  10
TORSDOF 2
ENDMDL
MODEL 3
REMARK VINA RESULT:    -4.692      4.259      5.728
REMARK INTER + INTRA:          -5.334
REMARK INTER:                  -5.086
REMARK INTRA:                  -0.248
REMARK UNBOUND:                -0.231
REMARK SMILES O=C([O-])c1ccccc1O
REMARK SMILES IDX 4 1 9 2 5 3 8 4 6 5 7 6 2 7 1 8 3 9 10 10
REMARK H PARENT 10 11
REMARK Flexibility Score: inf
ROOT
ATOM      1  C   UNL     1     -13.968 -40.659   5.082  1.00  0.00     0.039 A 
ATOM      2  C   UNL     1     -15.036 -39.976   4.447  1.00  0.00     0.124 A 
ATOM      3  C   UNL     1     -13.701 -40.395   6.439  1.00  0.00     0.014 A 
ATOM      4  C   UNL     1     -15.762 -39.012   5.159  1.00  0.00     0.047 A 
ATOM      5  C   UNL     1     -14.448 -39.445   7.140  1.00  0.00     0.001 A 
ATOM      6  C   UNL     1     -15.471 -38.748   6.498  1.00  0.00     0.004 A 
ENDROOT
BRANCH   1   7
ATOM      7  C   UNL     1     -13.096 -41.613   4.361  1.00  0.00     0.075 C 
ATOM      8  O   UNL     1     -13.604 -42.533   3.667  1.00  0.00    -0.545 OA
ATOM      9  O   UNL     1     -11.714 -41.554   4.495  1.00  0.00    -0.545 OA
ENDBRANCH   1   7
BRANCH   2  10
ATOM     10  O   UNL     1     -15.430 -40.250   3.136  1.00  0.00    -0.507 OA
ATOM     11  H   UNL     1     -16.270 -39.874   2.718  1.00  0.00     0.293 HD
ENDBRANCH   2  10
TORSDOF 2
ENDMDL
MODEL 4
REMARK VINA RESULT:    -4.642      3.350      4.390
REMARK INTER + INTRA:          -5.280
REMARK INTER:                  -5.059
REMARK INTRA:                  -0.221
REMARK UNBOUND:                -0.231
REMARK SMILES O=C([O-])c1ccccc1O
REMARK SMILES IDX 4 1 9 2 5 3 8 4 6 5 7 6 2 7 1 8 3 9 10 10
REMARK H PARENT 10 11
REMARK Flexibility Score: inf
ROOT
ATOM      1  C   UNL     1     -15.190 -39.372   5.333  1.00  0.00     0.039 A 
ATOM      2  C   UNL     1     -14.403 -39.780   6.440  1.00  0.00     0.124 A 
ATOM      3  C   UNL     1     -16.024 -38.245   5.468  1.00  0.00     0.014 A 
ATOM      4  C   UNL     1     -14.515 -39.098   7.658  1.00  0.00     0.047 A 
ATOM      5  C   UNL     1     -16.108 -37.564   6.684  1.00  0.00     0.001 A 
ATOM      6  C   UNL     1     -15.363 -37.995   7.781  1.00  0.00     0.004 A 
ENDROOT
BRANCH   1   7
ATOM      7  C   UNL     1     -15.197 -40.108   4.049  1.00  0.00     0.075 C 
ATOM      8  O   UNL     1     -15.756 -39.609   3.037  1.00  0.00    -0.545 OA
ATOM      9  O   UNL     1     -14.654 -41.384   3.959  1.00  0.00    -0.545 OA
ENDBRANCH   1   7
BRANCH   2  10
ATOM     10  O   UNL     1     -13.478 -40.823   6.361  1.00  0.00    -0.507 OA
ATOM     11  H   UNL     1     -13.555 -41.585   5.701  1.00  0.00     0.293 HD
ENDBRANCH   2  10
TORSDOF 2
ENDMDL
MODEL 5
REMARK VINA RESULT:    -4.543      3.746      5.160
REMARK INTER + INTRA:          -5.172
REMARK INTER:                  -4.934
REMARK INTRA:                  -0.238
REMARK UNBOUND:                -0.231
REMARK SMILES O=C([O-])c1ccccc1O
REMARK SMILES IDX 4 1 9 2 5 3 8 4 6 5 7 6 2 7 1 8 3 9 10 10
REMARK H PARENT 10 11
REMARK Flexibility Score: inf
ROOT
ATOM      1  C   UNL     1     -14.366 -40.180   4.806  1.00  0.00     0.039 A 
ATOM      2  C   UNL     1     -13.859 -40.292   6.126  1.00  0.00     0.124 A 
ATOM      3  C   UNL     1     -15.398 -39.258   4.549  1.00  0.00     0.014 A 
ATOM      4  C   UNL     1     -14.433 -39.534   7.155  1.00  0.00     0.047 A 
ATOM      5  C   UNL     1     -15.945 -38.494   5.582  1.00  0.00     0.001 A 
ATOM      6  C   UNL     1     -15.470 -38.639   6.885  1.00  0.00     0.004 A 
ENDROOT
BRANCH   1   7
ATOM      7  C   UNL     1     -13.876 -41.024   3.694  1.00  0.00     0.075 C 
ATOM      8  O   UNL     1     -13.835 -42.277   3.822  1.00  0.00    -0.545 OA
ATOM      9  O   UNL     1     -13.390 -40.450   2.526  1.00  0.00    -0.545 OA
ENDBRANCH   1   7
BRANCH   2  10
ATOM     10  O   UNL     1     -12.773 -41.108   6.448  1.00  0.00    -0.507 OA
ATOM     11  H   UNL     1     -12.770 -41.745   7.233  1.00  0.00     0.293 HD
ENDBRANCH   2  10
TORSDOF 2
ENDMDL
MODEL 6
REMARK VINA RESULT:    -4.413     17.025     17.374
REMARK INTER + INTRA:          -5.031
REMARK INTER:                  -4.780
REMARK INTRA:                  -0.251
REMARK UNBOUND:                -0.231
REMARK SMILES O=C([O-])c1ccccc1O
REMARK SMILES IDX 4 1 9 2 5 3 8 4 6 5 7 6 2 7 1 8 3 9 10 10
REMARK H PARENT 10 11
REMARK Flexibility Score: inf
ROOT
ATOM      1  C   UNL     1       1.048 -35.455   3.028  1.00  0.00     0.039 A 
ATOM      2  C   UNL     1       0.687 -34.100   3.235  1.00  0.00     0.124 A 
ATOM      3  C   UNL     1       0.957 -35.994   1.730  1.00  0.00     0.014 A 
ATOM      4  C   UNL     1       0.191 -33.344   2.165  1.00  0.00     0.047 A 
ATOM      5  C   UNL     1       0.480 -35.221   0.670  1.00  0.00     0.001 A 
ATOM      6  C   UNL     1       0.088 -33.900   0.888  1.00  0.00     0.004 A 
ENDROOT
BRANCH   1   7
ATOM      7  C   UNL     1       1.482 -36.339   4.133  1.00  0.00     0.075 C 
ATOM      8  O   UNL     1       0.931 -37.460   4.299  1.00  0.00    -0.545 OA
ATOM      9  O   UNL     1       2.446 -35.920   5.041  1.00  0.00    -0.545 OA
ENDBRANCH   1   7
BRANCH   2  10
ATOM     10  O   UNL     1       0.840 -33.460   4.467  1.00  0.00    -0.507 OA
ATOM     11  H   UNL     1       0.649 -32.479   4.610  1.00  0.00     0.293 HD
ENDBRANCH   2  10
TORSDOF 2
ENDMDL
MODEL 7
REMARK VINA RESULT:    -4.342     17.280     17.629
REMARK INTER + INTRA:          -4.953
REMARK INTER:                  -4.705
REMARK INTRA:                  -0.249
REMARK UNBOUND:                -0.231
REMARK SMILES O=C([O-])c1ccccc1O
REMARK SMILES IDX 4 1 9 2 5 3 8 4 6 5 7 6 2 7 1 8 3 9 10 10
REMARK H PARENT 10 11
REMARK Flexibility Score: inf
ROOT
ATOM      1  C   UNL     1       1.100 -35.621   2.469  1.00  0.00     0.039 A 
ATOM      2  C   UNL     1       1.199 -34.974   3.727  1.00  0.00     0.124 A 
ATOM      3  C   UNL     1       0.678 -34.877   1.350  1.00  0.00     0.014 A 
ATOM      4  C   UNL     1       0.818 -33.631   3.846  1.00  0.00     0.047 A 
ATOM      5  C   UNL     1       0.322 -33.533   1.483  1.00  0.00     0.001 A 
ATOM      6  C   UNL     1       0.382 -32.914   2.731  1.00  0.00     0.004 A 
ENDROOT
BRANCH   1   7
ATOM      7  C   UNL     1       1.388 -37.062   2.293  1.00  0.00     0.075 C 
ATOM      8  O   UNL     1       0.535 -37.816   1.755  1.00  0.00    -0.545 OA
ATOM      9  O   UNL     1       2.567 -37.616   2.778  1.00  0.00    -0.545 OA
ENDBRANCH   1   7
BRANCH   2  10
ATOM     10  O   UNL     1       1.702 -35.611   4.863  1.00  0.00    -0.507 OA
ATOM     11  H   UNL     1       1.490 -35.315   5.805  1.00  0.00     0.293 HD
ENDBRANCH   2  10
TORSDOF 2
ENDMDL
MODEL 8
REMARK VINA RESULT:    -4.311      3.494      4.541
REMARK INTER + INTRA:          -4.920
REMARK INTER:                  -4.698
REMARK INTRA:                  -0.222
REMARK UNBOUND:                -0.231
REMARK SMILES O=C([O-])c1ccccc1O
REMARK SMILES IDX 4 1 9 2 5 3 8 4 6 5 7 6 2 7 1 8 3 9 10 10
REMARK H PARENT 10 11
REMARK Flexibility Score: inf
ROOT
ATOM      1  C   UNL     1     -14.258 -40.082   5.506  1.00  0.00     0.039 A 
ATOM      2  C   UNL     1     -14.375 -40.824   4.303  1.00  0.00     0.124 A 
ATOM      3  C   UNL     1     -13.173 -40.343   6.364  1.00  0.00     0.014 A 
ATOM      4  C   UNL     1     -13.451 -41.839   4.022  1.00  0.00     0.047 A 
ATOM      5  C   UNL     1     -12.248 -41.345   6.059  1.00  0.00     0.001 A 
ATOM      6  C   UNL     1     -12.393 -42.099   4.895  1.00  0.00     0.004 A 
ENDROOT
BRANCH   1   7
ATOM      7  C   UNL     1     -15.255 -39.067   5.913  1.00  0.00     0.075 C 
ATOM      8  O   UNL     1     -15.958 -38.488   5.043  1.00  0.00    -0.545 OA
ATOM      9  O   UNL     1     -15.381 -38.689   7.244  1.00  0.00    -0.545 OA
ENDBRANCH   1   7
BRANCH   2  10
ATOM     10  O   UNL     1     -15.362 -40.562   3.351  1.00  0.00    -0.507 OA
ATOM     11  H   UNL     1     -16.323 -40.360   3.588  1.00  0.00     0.293 HD
ENDBRANCH   2  10
TORSDOF 2
ENDMDL
MODEL 9
REMARK VINA RESULT:    -4.236     17.163     17.526
REMARK INTER + INTRA:          -4.838
REMARK INTER:                  -4.591
REMARK INTRA:                  -0.247
REMARK UNBOUND:                -0.231
REMARK SMILES O=C([O-])c1ccccc1O
REMARK SMILES IDX 4 1 9 2 5 3 8 4 6 5 7 6 2 7 1 8 3 9 10 10
REMARK H PARENT 10 11
REMARK Flexibility Score: inf
ROOT
ATOM      1  C   UNL     1       0.346 -34.356   1.336  1.00  0.00     0.039 A 
ATOM      2  C   UNL     1       0.750 -35.545   1.995  1.00  0.00     0.124 A 
ATOM      3  C   UNL     1       0.355 -33.143   2.051  1.00  0.00     0.014 A 
ATOM      4  C   UNL     1       1.088 -35.502   3.354  1.00  0.00     0.047 A 
ATOM      5  C   UNL     1       0.715 -33.115   3.400  1.00  0.00     0.001 A 
ATOM      6  C   UNL     1       1.072 -34.294   4.053  1.00  0.00     0.004 A 
ENDROOT
BRANCH   1   7
ATOM      7  C   UNL     1      -0.121 -34.347  -0.068  1.00  0.00     0.075 C 
ATOM      8  O   UNL     1      -1.246 -33.859  -0.357  1.00  0.00    -0.545 OA
ATOM      9  O   UNL     1       0.636 -34.936  -1.074  1.00  0.00    -0.545 OA
ENDBRANCH   1   7
BRANCH   2  10
ATOM     10  O   UNL     1       0.864 -36.770   1.335  1.00  0.00    -0.507 OA
ATOM     11  H   UNL     1       0.350 -37.596   1.605  1.00  0.00     0.293 HD
ENDBRANCH   2  10
TORSDOF 2
ENDMDL
