MODEL 1
REMARK VINA RESULT:     2.350      0.000      0.000
REMARK INTER + INTRA:           3.965
REMARK INTER:                   4.273
REMARK INTRA:                  -0.307
REMARK UNBOUND:                -0.307
REMARK SMILES CCCCCCCCCCCCCC[C@H](C)C(=O)[O-]
REMARK SMILES IDX 9 1 10 2 11 3 12 4 13 5 14 6 15 7 16 8 17 9 18 10 19 11 8 12
REMARK SMILES IDX 7 13 6 14 5 15 4 16 3 17 2 18 1 19
REMARK H PARENT
REMARK Flexibility Score: inf
ROOT
ATOM      1  C   UNL     1      58.094  -2.708  -4.619  1.00  0.00     0.000 C 
ENDROOT
BRANCH   1   2
ATOM      2  C   UNL     1      58.464  -1.806  -5.807  1.00  0.00     0.000 C 
BRANCH   2   3
ATOM      3  C   UNL     1      57.739  -0.452  -5.774  1.00  0.00     0.000 C 
BRANCH   3   4
ATOM      4  C   UNL     1      56.244  -0.625  -6.081  1.00  0.00     0.000 C 
BRANCH   4   5
ATOM      5  C   UNL     1      55.415  -1.006  -4.842  1.00  0.00     0.001 C 
BRANCH   5   6
ATOM      6  C   UNL     1      54.097  -1.755  -5.130  1.00  0.00     0.009 C 
BRANCH   6   7
ATOM      7  C   UNL     1      52.825  -0.990  -4.685  1.00  0.00     0.032 C 
ATOM      8  C   UNL     1      52.931  -0.575  -3.213  1.00  0.00     0.014 C 
BRANCH   7   9
ATOM      9  C   UNL     1      51.581  -1.818  -4.871  1.00  0.00     0.044 C 
ATOM     10  O   UNL     1      50.929  -2.213  -3.870  1.00  0.00    -0.550 OA
ATOM     11  O   UNL     1      51.170  -2.194  -6.146  1.00  0.00    -0.550 OA
ENDBRANCH   7   9
ENDBRANCH   6   7
ENDBRANCH   5   6
ENDBRANCH   4   5
ENDBRANCH   3   4
ENDBRANCH   2   3
ENDBRANCH   1   2
BRANCH   1  12
ATOM     12  C   UNL     1      59.122  -3.829  -4.387  1.00  0.00     0.000 C 
BRANCH  12  13
ATOM     13  C   UNL     1      58.476  -5.225  -4.322  1.00  0.00    -0.000 C 
BRANCH  13  14
ATOM     14  C   UNL     1      58.990  -6.133  -3.185  1.00  0.00    -0.000 C 
BRANCH  14  15
ATOM     15  C   UNL     1      59.109  -5.453  -1.806  1.00  0.00    -0.000 C 
BRANCH  15  16
ATOM     16  C   UNL     1      59.006  -6.408  -0.603  1.00  0.00    -0.000 C 
BRANCH  16  17
ATOM     17  C   UNL     1      59.123  -5.680   0.746  1.00  0.00    -0.000 C 
BRANCH  17  18
ATOM     18  C   UNL     1      57.946  -5.984   1.683  1.00  0.00    -0.003 C 
ATOM     19  C   UNL     1      58.271  -7.074   2.704  1.00  0.00     0.004 C 
ENDBRANCH  17  18
ENDBRANCH  16  17
ENDBRANCH  15  16
ENDBRANCH  14  15
ENDBRANCH  13  14
ENDBRANCH  12  13
ENDBRANCH   1  12
TORSDOF 14
ENDMDL
