MODEL 1
REMARK VINA RESULT:    -5.090      0.000      0.000
REMARK INTER + INTRA:          -7.140
REMARK INTER:                  -6.280
REMARK INTRA:                  -0.860
REMARK UNBOUND:                -0.860
REMARK SMILES CC(C)=CCC[C@H](C)c1ccc(C)cc1
REMARK SMILES IDX 6 1 7 2 8 3 9 4 13 5 12 6 11 7 14 8 10 9 15 10 5 11 4 12
REMARK SMILES IDX 2 13 1 14 3 15
REMARK H PARENT
REMARK Flexibility Score: inf
ROOT
ATOM      1  C   UNL     1      28.503  31.447  32.636  1.00  0.00     0.012 C 
ENDROOT
BRANCH   1   2
ATOM      2  C   UNL     1      28.103  30.213  33.476  1.00  0.00     0.016 C 
ATOM      3  C   UNL     1      26.715  30.371  34.118  1.00  0.00     0.013 C 
BRANCH   2   4
ATOM      4  C   UNL     1      29.148  29.938  34.544  1.00  0.00    -0.045 A 
ATOM      5  C   UNL     1      32.095  29.176  37.608  1.00  0.00     0.044 C 
ATOM      6  C   UNL     1      31.070  29.411  36.538  1.00  0.00    -0.051 A 
ATOM      7  C   UNL     1      29.705  29.424  36.857  1.00  0.00     0.004 A 
ATOM      8  C   UNL     1      31.473  29.686  35.222  1.00  0.00     0.004 A 
ATOM      9  C   UNL     1      28.751  29.679  35.868  1.00  0.00     0.004 A 
ATOM     10  C   UNL     1      30.520  29.942  34.232  1.00  0.00     0.004 A 
ENDBRANCH   2   4
ENDBRANCH   1   2
BRANCH   1  11
ATOM     11  C   UNL     1      28.447  31.178  31.125  1.00  0.00     0.028 C 
BRANCH  11  12
ATOM     12  C   UNL     1      29.552  30.239  30.710  1.00  0.00    -0.028 C 
ATOM     13  C   UNL     1      30.743  30.634  30.209  1.00  0.00    -0.080 C 
ATOM     14  C   UNL     1      31.768  29.580  29.875  1.00  0.00     0.039 C 
ATOM     15  C   UNL     1      31.064  32.090  29.959  1.00  0.00     0.039 C 
ENDBRANCH  11  12
ENDBRANCH   1  11
TORSDOF 4
ENDMDL
MODEL 2
REMARK VINA RESULT:    -4.863     13.524     15.528
REMARK INTER + INTRA:          -6.861
REMARK INTER:                  -5.426
REMARK INTRA:                  -1.434
REMARK UNBOUND:                -0.860
REMARK SMILES CC(C)=CCC[C@H](C)c1ccc(C)cc1
REMARK SMILES IDX 6 1 7 2 8 3 9 4 13 5 12 6 11 7 14 8 10 9 15 10 5 11 4 12
REMARK SMILES IDX 2 13 1 14 3 15
REMARK H PARENT
REMARK Flexibility Score: inf
ROOT
ATOM      1  C   UNL     1      20.088  38.479  43.347  1.00  0.00     0.012 C 
ENDROOT
BRANCH   1   2
ATOM      2  C   UNL     1      20.597  39.489  44.400  1.00  0.00     0.016 C 
ATOM      3  C   UNL     1      20.128  40.923  44.104  1.00  0.00     0.013 C 
BRANCH   2   4
ATOM      4  C   UNL     1      22.112  39.440  44.492  1.00  0.00    -0.045 A 
ATOM      5  C   UNL     1      26.418  39.315  44.793  1.00  0.00     0.044 C 
ATOM      6  C   UNL     1      24.923  39.329  44.682  1.00  0.00    -0.051 A 
ATOM      7  C   UNL     1      24.128  39.106  45.815  1.00  0.00     0.004 A 
ATOM      8  C   UNL     1      24.308  39.630  43.457  1.00  0.00     0.004 A 
ATOM      9  C   UNL     1      22.734  39.155  45.720  1.00  0.00     0.004 A 
ATOM     10  C   UNL     1      22.914  39.680  43.361  1.00  0.00     0.004 A 
ENDBRANCH   2   4
ENDBRANCH   1   2
BRANCH   1  11
ATOM     11  C   UNL     1      20.317  37.019  43.768  1.00  0.00     0.028 C 
BRANCH  11  12
ATOM     12  C   UNL     1      21.443  36.406  42.973  1.00  0.00    -0.028 C 
ATOM     13  C   UNL     1      22.523  35.802  43.517  1.00  0.00    -0.080 C 
ATOM     14  C   UNL     1      23.550  35.199  42.594  1.00  0.00     0.039 C 
ATOM     15  C   UNL     1      22.734  35.733  45.012  1.00  0.00     0.039 C 
ENDBRANCH  11  12
ENDBRANCH   1  11
TORSDOF 4
ENDMDL
MODEL 3
REMARK VINA RESULT:    -4.859     12.985     15.069
REMARK INTER + INTRA:          -6.855
REMARK INTER:                  -5.405
REMARK INTRA:                  -1.451
REMARK UNBOUND:                -0.860
REMARK SMILES CC(C)=CCC[C@H](C)c1ccc(C)cc1
REMARK SMILES IDX 6 1 7 2 8 3 9 4 13 5 12 6 11 7 14 8 10 9 15 10 5 11 4 12
REMARK SMILES IDX 2 13 1 14 3 15
REMARK H PARENT
REMARK Flexibility Score: inf
ROOT
ATOM      1  C   UNL     1      20.773  36.997  42.561  1.00  0.00     0.012 C 
ENDROOT
BRANCH   1   2
ATOM      2  C   UNL     1      20.524  37.932  43.767  1.00  0.00     0.016 C 
ATOM      3  C   UNL     1      19.639  39.133  43.398  1.00  0.00     0.013 C 
BRANCH   2   4
ATOM      4  C   UNL     1      21.844  38.409  44.347  1.00  0.00    -0.045 A 
ATOM      5  C   UNL     1      25.615  39.752  45.967  1.00  0.00     0.044 C 
ATOM      6  C   UNL     1      24.295  39.314  45.407  1.00  0.00    -0.051 A 
ATOM      7  C   UNL     1      24.088  39.292  44.020  1.00  0.00     0.004 A 
ATOM      8  C   UNL     1      23.280  38.859  46.262  1.00  0.00     0.004 A 
ATOM      9  C   UNL     1      22.870  38.850  43.494  1.00  0.00     0.004 A 
ATOM     10  C   UNL     1      22.062  38.416  45.738  1.00  0.00     0.004 A 
ENDBRANCH   2   4
ENDBRANCH   1   2
BRANCH   1  11
ATOM     11  C   UNL     1      21.182  35.578  42.987  1.00  0.00     0.028 C 
BRANCH  11  12
ATOM     12  C   UNL     1      22.605  35.290  42.580  1.00  0.00    -0.028 C 
ATOM     13  C   UNL     1      23.617  35.061  43.447  1.00  0.00    -0.080 C 
ATOM     14  C   UNL     1      24.982  34.747  42.891  1.00  0.00     0.039 C 
ATOM     15  C   UNL     1      23.420  35.130  44.944  1.00  0.00     0.039 C 
ENDBRANCH  11  12
ENDBRANCH   1  11
TORSDOF 4
ENDMDL
MODEL 4
REMARK VINA RESULT:    -4.855     11.521     13.660
REMARK INTER + INTRA:          -6.850
REMARK INTER:                  -5.534
REMARK INTRA:                  -1.317
REMARK UNBOUND:                -0.860
REMARK SMILES CC(C)=CCC[C@H](C)c1ccc(C)cc1
REMARK SMILES IDX 6 1 7 2 8 3 9 4 13 5 12 6 11 7 14 8 10 9 15 10 5 11 4 12
REMARK SMILES IDX 2 13 1 14 3 15
REMARK H PARENT
REMARK Flexibility Score: inf
ROOT
ATOM      1  C   UNL     1      27.553  38.249  41.307  1.00  0.00     0.012 C 
ENDROOT
BRANCH   1   2
ATOM      2  C   UNL     1      27.571  39.037  42.637  1.00  0.00     0.016 C 
ATOM      3  C   UNL     1      28.523  38.413  43.670  1.00  0.00     0.013 C 
BRANCH   2   4
ATOM      4  C   UNL     1      26.168  39.141  43.209  1.00  0.00    -0.045 A 
ATOM      5  C   UNL     1      22.176  39.473  44.823  1.00  0.00     0.044 C 
ATOM      6  C   UNL     1      23.554  39.333  44.247  1.00  0.00    -0.051 A 
ATOM      7  C   UNL     1      23.896  40.003  43.064  1.00  0.00     0.004 A 
ATOM      8  C   UNL     1      24.529  38.585  44.923  1.00  0.00     0.004 A 
ATOM      9  C   UNL     1      25.191  39.903  42.545  1.00  0.00     0.004 A 
ATOM     10  C   UNL     1      25.824  38.484  44.406  1.00  0.00     0.004 A 
ENDBRANCH   2   4
ENDBRANCH   1   2
BRANCH   1  11
ATOM     11  C   UNL     1      27.880  36.760  41.497  1.00  0.00     0.028 C 
BRANCH  11  12
ATOM     12  C   UNL     1      26.617  35.956  41.677  1.00  0.00    -0.028 C 
ATOM     13  C   UNL     1      26.353  35.175  42.747  1.00  0.00    -0.080 C 
ATOM     14  C   UNL     1      25.027  34.461  42.807  1.00  0.00     0.039 C 
ATOM     15  C   UNL     1      27.351  34.987  43.867  1.00  0.00     0.039 C 
ENDBRANCH  11  12
ENDBRANCH   1  11
TORSDOF 4
ENDMDL
MODEL 5
REMARK VINA RESULT:    -4.808     11.149     13.638
REMARK INTER + INTRA:          -6.792
REMARK INTER:                  -5.212
REMARK INTRA:                  -1.580
REMARK UNBOUND:                -0.860
REMARK SMILES CC(C)=CCC[C@H](C)c1ccc(C)cc1
REMARK SMILES IDX 6 1 7 2 8 3 9 4 13 5 12 6 11 7 14 8 10 9 15 10 5 11 4 12
REMARK SMILES IDX 2 13 1 14 3 15
REMARK H PARENT
REMARK Flexibility Score: inf
ROOT
ATOM      1  C   UNL     1      29.947  36.678  43.554  1.00  0.00     0.012 C 
ENDROOT
BRANCH   1   2
ATOM      2  C   UNL     1      29.518  37.842  44.475  1.00  0.00     0.016 C 
ATOM      3  C   UNL     1      29.392  37.405  45.944  1.00  0.00     0.013 C 
BRANCH   2   4
ATOM      4  C   UNL     1      28.210  38.445  43.992  1.00  0.00    -0.045 A 
ATOM      5  C   UNL     1      24.511  40.177  42.588  1.00  0.00     0.044 C 
ATOM      6  C   UNL     1      25.784  39.548  43.074  1.00  0.00    -0.051 A 
ATOM      7  C   UNL     1      26.786  39.187  42.163  1.00  0.00     0.004 A 
ATOM      8  C   UNL     1      26.007  39.377  44.448  1.00  0.00     0.004 A 
ATOM      9  C   UNL     1      27.987  38.634  42.617  1.00  0.00     0.004 A 
ATOM     10  C   UNL     1      27.208  38.825  44.904  1.00  0.00     0.004 A 
ENDBRANCH   2   4
ENDBRANCH   1   2
BRANCH   1  11
ATOM     11  C   UNL     1      29.329  35.334  43.970  1.00  0.00     0.028 C 
BRANCH  11  12
ATOM     12  C   UNL     1      28.134  35.010  43.109  1.00  0.00    -0.028 C 
ATOM     13  C   UNL     1      26.860  34.954  43.558  1.00  0.00    -0.080 C 
ATOM     14  C   UNL     1      25.762  34.655  42.570  1.00  0.00     0.039 C 
ATOM     15  C   UNL     1      26.514  35.162  45.015  1.00  0.00     0.039 C 
ENDBRANCH  11  12
ENDBRANCH   1  11
TORSDOF 4
ENDMDL
MODEL 6
REMARK VINA RESULT:    -4.806     14.038     16.219
REMARK INTER + INTRA:          -6.790
REMARK INTER:                  -5.808
REMARK INTRA:                  -0.982
REMARK UNBOUND:                -0.860
REMARK SMILES CC(C)=CCC[C@H](C)c1ccc(C)cc1
REMARK SMILES IDX 6 1 7 2 8 3 9 4 13 5 12 6 11 7 14 8 10 9 15 10 5 11 4 12
REMARK SMILES IDX 2 13 1 14 3 15
REMARK H PARENT
REMARK Flexibility Score: inf
ROOT
ATOM      1  C   UNL     1      24.368  38.365  45.987  1.00  0.00     0.012 C 
ENDROOT
BRANCH   1   2
ATOM      2  C   UNL     1      22.972  38.619  46.601  1.00  0.00     0.016 C 
ATOM      3  C   UNL     1      22.606  37.574  47.667  1.00  0.00     0.013 C 
BRANCH   2   4
ATOM      4  C   UNL     1      21.913  38.653  45.512  1.00  0.00    -0.045 A 
ATOM      5  C   UNL     1      18.927  38.725  42.393  1.00  0.00     0.044 C 
ATOM      6  C   UNL     1      19.943  38.690  43.496  1.00  0.00    -0.051 A 
ATOM      7  C   UNL     1      20.736  37.550  43.690  1.00  0.00     0.004 A 
ATOM      8  C   UNL     1      20.155  39.821  44.298  1.00  0.00     0.004 A 
ATOM      9  C   UNL     1      21.709  37.528  44.694  1.00  0.00     0.004 A 
ATOM     10  C   UNL     1      21.127  39.801  45.302  1.00  0.00     0.004 A 
ENDBRANCH   2   4
ENDBRANCH   1   2
BRANCH   1  11
ATOM     11  C   UNL     1      25.058  39.659  45.529  1.00  0.00     0.028 C 
BRANCH  11  12
ATOM     12  C   UNL     1      26.006  39.382  44.389  1.00  0.00    -0.028 C 
ATOM     13  C   UNL     1      25.720  39.599  43.086  1.00  0.00    -0.080 C 
ATOM     14  C   UNL     1      26.784  39.311  42.059  1.00  0.00     0.039 C 
ATOM     15  C   UNL     1      24.367  40.101  42.636  1.00  0.00     0.039 C 
ENDBRANCH  11  12
ENDBRANCH   1  11
TORSDOF 4
ENDMDL
MODEL 7
REMARK VINA RESULT:    -4.796     12.883     15.048
REMARK INTER + INTRA:          -6.777
REMARK INTER:                  -5.931
REMARK INTRA:                  -0.846
REMARK UNBOUND:                -0.860
REMARK SMILES CC(C)=CCC[C@H](C)c1ccc(C)cc1
REMARK SMILES IDX 6 1 7 2 8 3 9 4 13 5 12 6 11 7 14 8 10 9 15 10 5 11 4 12
REMARK SMILES IDX 2 13 1 14 3 15
REMARK H PARENT
REMARK Flexibility Score: inf
ROOT
ATOM      1  C   UNL     1      23.167  38.948  45.581  1.00  0.00     0.012 C 
ENDROOT
BRANCH   1   2
ATOM      2  C   UNL     1      23.957  39.910  44.663  1.00  0.00     0.016 C 
ATOM      3  C   UNL     1      23.031  40.747  43.765  1.00  0.00     0.013 C 
BRANCH   2   4
ATOM      4  C   UNL     1      24.952  39.136  43.817  1.00  0.00    -0.045 A 
ATOM      5  C   UNL     1      27.777  36.961  41.379  1.00  0.00     0.044 C 
ATOM      6  C   UNL     1      26.817  37.719  42.247  1.00  0.00    -0.051 A 
ATOM      7  C   UNL     1      26.702  39.111  42.125  1.00  0.00     0.004 A 
ATOM      8  C   UNL     1      25.980  37.034  43.140  1.00  0.00     0.004 A 
ATOM      9  C   UNL     1      25.782  39.815  42.908  1.00  0.00     0.004 A 
ATOM     10  C   UNL     1      25.058  37.736  43.923  1.00  0.00     0.004 A 
ENDBRANCH   2   4
ENDBRANCH   1   2
BRANCH   1  11
ATOM     11  C   UNL     1      21.657  38.969  45.301  1.00  0.00     0.028 C 
BRANCH  11  12
ATOM     12  C   UNL     1      21.244  37.747  44.519  1.00  0.00    -0.028 C 
ATOM     13  C   UNL     1      20.308  37.743  43.544  1.00  0.00    -0.080 C 
ATOM     14  C   UNL     1      20.028  36.451  42.821  1.00  0.00     0.039 C 
ATOM     15  C   UNL     1      19.528  38.985  43.177  1.00  0.00     0.039 C 
ENDBRANCH  11  12
ENDBRANCH   1  11
TORSDOF 4
ENDMDL
MODEL 8
REMARK VINA RESULT:    -4.790     11.240     13.211
REMARK INTER + INTRA:          -6.770
REMARK INTER:                  -5.858
REMARK INTRA:                  -0.912
REMARK UNBOUND:                -0.860
REMARK SMILES CC(C)=CCC[C@H](C)c1ccc(C)cc1
REMARK SMILES IDX 6 1 7 2 8 3 9 4 13 5 12 6 11 7 14 8 10 9 15 10 5 11 4 12
REMARK SMILES IDX 2 13 1 14 3 15
REMARK H PARENT
REMARK Flexibility Score: inf
ROOT
ATOM      1  C   UNL     1      26.709  35.904  42.167  1.00  0.00     0.012 C 
ENDROOT
BRANCH   1   2
ATOM      2  C   UNL     1      25.982  35.825  43.529  1.00  0.00     0.016 C 
ATOM      3  C   UNL     1      26.266  34.505  44.264  1.00  0.00     0.013 C 
BRANCH   2   4
ATOM      4  C   UNL     1      24.486  36.012  43.342  1.00  0.00    -0.045 A 
ATOM      5  C   UNL     1      20.233  36.567  42.844  1.00  0.00     0.044 C 
ATOM      6  C   UNL     1      21.714  36.383  42.988  1.00  0.00    -0.051 A 
ATOM      7  C   UNL     1      22.507  37.419  43.502  1.00  0.00     0.004 A 
ATOM      8  C   UNL     1      22.308  35.152  42.674  1.00  0.00     0.004 A 
ATOM      9  C   UNL     1      23.883  37.238  43.671  1.00  0.00     0.004 A 
ATOM     10  C   UNL     1      23.683  34.969  42.844  1.00  0.00     0.004 A 
ENDBRANCH   2   4
ENDBRANCH   1   2
BRANCH   1  11
ATOM     11  C   UNL     1      27.868  36.912  42.172  1.00  0.00     0.028 C 
BRANCH  11  12
ATOM     12  C   UNL     1      27.482  38.170  41.434  1.00  0.00    -0.028 C 
ATOM     13  C   UNL     1      26.993  39.283  42.024  1.00  0.00    -0.080 C 
ATOM     14  C   UNL     1      26.689  40.480  41.161  1.00  0.00     0.039 C 
ATOM     15  C   UNL     1      26.729  39.351  43.511  1.00  0.00     0.039 C 
ENDBRANCH  11  12
ENDBRANCH   1  11
TORSDOF 4
ENDMDL
MODEL 9
REMARK VINA RESULT:    -4.787     11.082     12.897
REMARK INTER + INTRA:          -6.767
REMARK INTER:                  -5.183
REMARK INTRA:                  -1.584
REMARK UNBOUND:                -0.860
REMARK SMILES CC(C)=CCC[C@H](C)c1ccc(C)cc1
REMARK SMILES IDX 6 1 7 2 8 3 9 4 13 5 12 6 11 7 14 8 10 9 15 10 5 11 4 12
REMARK SMILES IDX 2 13 1 14 3 15
REMARK H PARENT
REMARK Flexibility Score: inf
ROOT
ATOM      1  C   UNL     1      28.588  36.656  45.205  1.00  0.00     0.012 C 
ENDROOT
BRANCH   1   2
ATOM      2  C   UNL     1      28.282  35.291  44.548  1.00  0.00     0.016 C 
ATOM      3  C   UNL     1      29.241  34.975  43.389  1.00  0.00     0.013 C 
BRANCH   2   4
ATOM      4  C   UNL     1      26.842  35.246  44.066  1.00  0.00    -0.045 A 
ATOM      5  C   UNL     1      22.736  35.110  42.734  1.00  0.00     0.044 C 
ATOM      6  C   UNL     1      24.165  35.185  43.186  1.00  0.00    -0.051 A 
ATOM      7  C   UNL     1      24.474  35.626  44.480  1.00  0.00     0.004 A 
ATOM      8  C   UNL     1      25.197  34.752  42.341  1.00  0.00     0.004 A 
ATOM      9  C   UNL     1      25.802  35.663  44.915  1.00  0.00     0.004 A 
ATOM     10  C   UNL     1      26.525  34.787  42.774  1.00  0.00     0.004 A 
ENDBRANCH   2   4
ENDBRANCH   1   2
BRANCH   1  11
ATOM     11  C   UNL     1      28.921  37.747  44.176  1.00  0.00     0.028 C 
BRANCH  11  12
ATOM     12  C   UNL     1      27.712  38.607  43.902  1.00  0.00    -0.028 C 
ATOM     13  C   UNL     1      27.100  38.706  42.702  1.00  0.00    -0.080 C 
ATOM     14  C   UNL     1      25.875  39.576  42.589  1.00  0.00     0.039 C 
ATOM     15  C   UNL     1      27.618  37.988  41.476  1.00  0.00     0.039 C 
ENDBRANCH  11  12
ENDBRANCH   1  11
TORSDOF 4
ENDMDL
