MODEL 1
REMARK VINA RESULT:    -2.606      0.000      0.000
REMARK INTER + INTRA:          -2.606
REMARK INTER:                  -2.606
REMARK INTRA:                   0.000
REMARK UNBOUND:                 0.000
REMARK SMILES CC(=O)[O-]
REMARK SMILES IDX 1 1 2 2 3 3 4 4
REMARK H PARENT
REMARK Flexibility Score: inf
ROOT
ATOM      1  C   UNL     1      -0.191  -6.094  -1.122  1.00  0.00     0.063 C 
ATOM      2  C   UNL     1       0.077  -5.465  -2.447  1.00  0.00     0.038 C 
ATOM      3  O   UNL     1       1.112  -5.773  -3.094  1.00  0.00    -0.550 OA
ATOM      4  O   UNL     1      -0.841  -4.578  -2.996  1.00  0.00    -0.550 OA
ENDROOT
TORSDOF 0
ENDMDL
MODEL 2
REMARK VINA RESULT:    -2.510     13.806     14.109
REMARK INTER + INTRA:          -2.510
REMARK INTER:                  -2.510
REMARK INTRA:                   0.000
REMARK UNBOUND:                 0.000
REMARK SMILES CC(=O)[O-]
REMARK SMILES IDX 1 1 2 2 3 3 4 4
REMARK H PARENT
REMARK Flexibility Score: inf
ROOT
ATOM      1  C   UNL     1       1.440   7.332  -8.455  1.00  0.00     0.063 C 
ATOM      2  C   UNL     1      -0.030   7.115  -8.581  1.00  0.00     0.038 C 
ATOM      3  O   UNL     1      -0.469   6.140  -9.246  1.00  0.00    -0.550 OA
ATOM      4  O   UNL     1      -0.917   7.956  -7.923  1.00  0.00    -0.550 OA
ENDROOT
TORSDOF 0
ENDMDL
MODEL 3
REMARK VINA RESULT:    -2.494     13.854     14.173
REMARK INTER + INTRA:          -2.494
REMARK INTER:                  -2.494
REMARK INTRA:                   0.000
REMARK UNBOUND:                 0.000
REMARK SMILES CC(=O)[O-]
REMARK SMILES IDX 1 1 2 2 3 3 4 4
REMARK H PARENT
REMARK Flexibility Score: inf
ROOT
ATOM      1  C   UNL     1       1.471   7.350  -8.384  1.00  0.00     0.063 C 
ATOM      2  C   UNL     1       0.002   7.154  -8.539  1.00  0.00     0.038 C 
ATOM      3  O   UNL     1      -0.803   7.918  -7.943  1.00  0.00    -0.550 OA
ATOM      4  O   UNL     1      -0.484   6.163  -9.381  1.00  0.00    -0.550 OA
ENDROOT
TORSDOF 0
ENDMDL
MODEL 4
REMARK VINA RESULT:    -2.409     14.055     14.231
REMARK INTER + INTRA:          -2.409
REMARK INTER:                  -2.409
REMARK INTRA:                   0.000
REMARK UNBOUND:                 0.000
REMARK SMILES CC(=O)[O-]
REMARK SMILES IDX 1 1 2 2 3 3 4 4
REMARK H PARENT
REMARK Flexibility Score: inf
ROOT
ATOM      1  C   UNL     1      -0.357   6.741  -9.043  1.00  0.00     0.063 C 
ATOM      2  C   UNL     1       0.875   7.277  -8.395  1.00  0.00     0.038 C 
ATOM      3  O   UNL     1       0.829   7.703  -7.211  1.00  0.00    -0.550 OA
ATOM      4  O   UNL     1       2.085   7.257  -9.075  1.00  0.00    -0.550 OA
ENDROOT
TORSDOF 0
ENDMDL
MODEL 5
REMARK VINA RESULT:    -2.359     14.124     14.401
REMARK INTER + INTRA:          -2.359
REMARK INTER:                  -2.359
REMARK INTRA:                   0.000
REMARK UNBOUND:                 0.000
REMARK SMILES CC(=O)[O-]
REMARK SMILES IDX 1 1 2 2 3 3 4 4
REMARK H PARENT
REMARK Flexibility Score: inf
ROOT
ATOM      1  C   UNL     1      -0.127   7.097 -10.771  1.00  0.00     0.063 C 
ATOM      2  C   UNL     1      -0.904   6.824  -9.528  1.00  0.00     0.038 C 
ATOM      3  O   UNL     1      -0.380   7.017  -8.400  1.00  0.00    -0.550 OA
ATOM      4  O   UNL     1      -2.226   6.406  -9.611  1.00  0.00    -0.550 OA
ENDROOT
TORSDOF 0
ENDMDL
MODEL 6
REMARK VINA RESULT:    -2.342     13.804     14.244
REMARK INTER + INTRA:          -2.342
REMARK INTER:                  -2.342
REMARK INTRA:                   0.000
REMARK UNBOUND:                 0.000
REMARK SMILES CC(=O)[O-]
REMARK SMILES IDX 1 1 2 2 3 3 4 4
REMARK H PARENT
REMARK Flexibility Score: inf
ROOT
ATOM      1  C   UNL     1       1.048   7.548 -10.089  1.00  0.00     0.063 C 
ATOM      2  C   UNL     1       0.304   6.977  -8.930  1.00  0.00     0.038 C 
ATOM      3  O   UNL     1      -0.609   6.132  -9.120  1.00  0.00    -0.550 OA
ATOM      4  O   UNL     1       0.653   7.336  -7.634  1.00  0.00    -0.550 OA
ENDROOT
TORSDOF 0
ENDMDL
MODEL 7
REMARK VINA RESULT:    -2.301     17.923     18.255
REMARK INTER + INTRA:          -2.301
REMARK INTER:                  -2.301
REMARK INTRA:                   0.000
REMARK UNBOUND:                 0.000
REMARK SMILES CC(=O)[O-]
REMARK SMILES IDX 1 1 2 2 3 3 4 4
REMARK H PARENT
REMARK Flexibility Score: inf
ROOT
ATOM      1  C   UNL     1      11.138   9.933  -4.956  1.00  0.00     0.063 C 
ATOM      2  C   UNL     1      11.250   8.479  -5.268  1.00  0.00     0.038 C 
ATOM      3  O   UNL     1      10.958   7.622  -4.393  1.00  0.00    -0.550 OA
ATOM      4  O   UNL     1      11.625   8.066  -6.539  1.00  0.00    -0.550 OA
ENDROOT
TORSDOF 0
ENDMDL
MODEL 8
REMARK VINA RESULT:    -2.225      1.703      2.021
REMARK INTER + INTRA:          -2.225
REMARK INTER:                  -2.225
REMARK INTRA:                   0.000
REMARK UNBOUND:                 0.000
REMARK SMILES CC(=O)[O-]
REMARK SMILES IDX 1 1 2 2 3 3 4 4
REMARK H PARENT
REMARK Flexibility Score: inf
ROOT
ATOM      1  C   UNL     1       0.444  -5.794  -2.667  1.00  0.00     0.063 C 
ATOM      2  C   UNL     1      -0.923  -5.219  -2.516  1.00  0.00     0.038 C 
ATOM      3  O   UNL     1      -1.265  -4.216  -3.196  1.00  0.00    -0.550 OA
ATOM      4  O   UNL     1      -1.842  -5.821  -1.666  1.00  0.00    -0.550 OA
ENDROOT
TORSDOF 0
ENDMDL
MODEL 9
REMARK VINA RESULT:    -2.189      2.393      2.688
REMARK INTER + INTRA:          -2.189
REMARK INTER:                  -2.189
REMARK INTRA:                   0.000
REMARK UNBOUND:                 0.000
REMARK SMILES CC(=O)[O-]
REMARK SMILES IDX 1 1 2 2 3 3 4 4
REMARK H PARENT
REMARK Flexibility Score: inf
ROOT
ATOM      1  C   UNL     1      -2.932  -4.988  -1.694  1.00  0.00     0.063 C 
ATOM      2  C   UNL     1      -2.288  -4.786  -3.024  1.00  0.00     0.038 C 
ATOM      3  O   UNL     1      -1.136  -4.284  -3.097  1.00  0.00    -0.550 OA
ATOM      4  O   UNL     1      -2.935  -5.200  -4.181  1.00  0.00    -0.550 OA
ENDROOT
TORSDOF 0
ENDMDL
