MODEL 1
REMARK VINA RESULT:    -4.312      0.000      0.000
REMARK INTER + INTRA:          -8.736
REMARK INTER:                  -7.590
REMARK INTRA:                  -1.146
REMARK UNBOUND:                -1.146
REMARK SMILES CCCCCCCCCCCCCCC(=O)[O-]
REMARK SMILES IDX 9 1 10 2 11 3 12 4 13 5 14 6 15 7 16 8 17 9 8 10 7 11 6 12
REMARK SMILES IDX 5 13 4 14 3 15 2 16 1 17
REMARK H PARENT
REMARK Flexibility Score: inf
ROOT
ATOM      1  C   UNL     1      31.352  26.106  71.135  1.00  0.00     0.000 C 
ENDROOT
BRANCH   1   2
ATOM      2  C   UNL     1      31.280  24.656  70.640  1.00  0.00     0.000 C 
BRANCH   2   3
ATOM      3  C   UNL     1      30.833  24.595  69.175  1.00  0.00     0.000 C 
BRANCH   3   4
ATOM      4  C   UNL     1      31.880  23.878  68.310  1.00  0.00     0.000 C 
BRANCH   4   5
ATOM      5  C   UNL     1      32.135  24.594  66.974  1.00  0.00     0.006 C 
BRANCH   5   6
ATOM      6  C   UNL     1      31.125  24.199  65.890  1.00  0.00     0.053 C 
BRANCH   6   7
ATOM      7  C   UNL     1      31.432  24.909  64.609  1.00  0.00     0.041 C 
ATOM      8  O   UNL     1      30.500  25.376  63.903  1.00  0.00    -0.550 OA
ATOM      9  O   UNL     1      32.752  25.097  64.219  1.00  0.00    -0.550 OA
ENDBRANCH   6   7
ENDBRANCH   5   6
ENDBRANCH   4   5
ENDBRANCH   3   4
ENDBRANCH   2   3
ENDBRANCH   1   2
BRANCH   1  10
ATOM     10  C   UNL     1      32.751  26.695  70.914  1.00  0.00     0.000 C 
BRANCH  10  11
ATOM     11  C   UNL     1      33.832  25.615  71.066  1.00  0.00    -0.000 C 
BRANCH  11  12
ATOM     12  C   UNL     1      34.826  25.610  69.893  1.00  0.00    -0.000 C 
BRANCH  12  13
ATOM     13  C   UNL     1      35.231  24.187  69.469  1.00  0.00    -0.000 C 
BRANCH  13  14
ATOM     14  C   UNL     1      36.756  23.966  69.561  1.00  0.00    -0.000 C 
BRANCH  14  15
ATOM     15  C   UNL     1      37.378  24.496  70.865  1.00  0.00    -0.000 C 
BRANCH  15  16
ATOM     16  C   UNL     1      38.774  23.921  71.139  1.00  0.00    -0.003 C 
ATOM     17  C   UNL     1      39.242  24.260  72.551  1.00  0.00     0.004 C 
ENDBRANCH  15  16
ENDBRANCH  14  15
ENDBRANCH  13  14
ENDBRANCH  12  13
ENDBRANCH  11  12
ENDBRANCH  10  11
ENDBRANCH   1  10
TORSDOF 13
ENDMDL
MODEL 2
REMARK VINA RESULT:    -4.226      3.048      7.480
REMARK INTER + INTRA:          -8.583
REMARK INTER:                  -7.663
REMARK INTRA:                  -0.920
REMARK UNBOUND:                -1.146
REMARK SMILES CCCCCCCCCCCCCCC(=O)[O-]
REMARK SMILES IDX 9 1 10 2 11 3 12 4 13 5 14 6 15 7 16 8 17 9 8 10 7 11 6 12
REMARK SMILES IDX 5 13 4 14 3 15 2 16 1 17
REMARK H PARENT
REMARK Flexibility Score: inf
ROOT
ATOM      1  C   UNL     1      33.686  24.368  68.245  1.00  0.00     0.000 C 
ENDROOT
BRANCH   1   2
ATOM      2  C   UNL     1      35.215  24.376  68.365  1.00  0.00     0.000 C 
BRANCH   2   3
ATOM      3  C   UNL     1      35.656  24.840  69.758  1.00  0.00     0.000 C 
BRANCH   3   4
ATOM      4  C   UNL     1      34.493  24.762  70.758  1.00  0.00     0.000 C 
BRANCH   4   5
ATOM      5  C   UNL     1      34.157  26.126  71.382  1.00  0.00     0.006 C 
BRANCH   5   6
ATOM      6  C   UNL     1      32.903  26.762  70.772  1.00  0.00     0.053 C 
BRANCH   6   7
ATOM      7  C   UNL     1      31.677  26.035  71.226  1.00  0.00     0.041 C 
ATOM      8  O   UNL     1      31.045  25.294  70.429  1.00  0.00    -0.550 OA
ATOM      9  O   UNL     1      31.258  26.139  72.548  1.00  0.00    -0.550 OA
ENDBRANCH   6   7
ENDBRANCH   5   6
ENDBRANCH   4   5
ENDBRANCH   3   4
ENDBRANCH   2   3
ENDBRANCH   1   2
BRANCH   1  10
ATOM     10  C   UNL     1      33.249  24.206  66.783  1.00  0.00     0.000 C 
BRANCH  10  11
ATOM     11  C   UNL     1      31.735  23.969  66.686  1.00  0.00    -0.000 C 
BRANCH  11  12
ATOM     12  C   UNL     1      31.110  24.655  65.460  1.00  0.00    -0.000 C 
BRANCH  12  13
ATOM     13  C   UNL     1      32.168  25.233  64.505  1.00  0.00    -0.000 C 
BRANCH  13  14
ATOM     14  C   UNL     1      31.563  25.632  63.142  1.00  0.00    -0.000 C 
BRANCH  14  15
ATOM     15  C   UNL     1      31.360  27.148  62.978  1.00  0.00    -0.000 C 
BRANCH  15  16
ATOM     16  C   UNL     1      29.883  27.561  63.021  1.00  0.00    -0.003 C 
ATOM     17  C   UNL     1      28.968  26.343  62.939  1.00  0.00     0.004 C 
ENDBRANCH  15  16
ENDBRANCH  14  15
ENDBRANCH  13  14
ENDBRANCH  12  13
ENDBRANCH  11  12
ENDBRANCH  10  11
ENDBRANCH   1  10
TORSDOF 13
ENDMDL
MODEL 3
REMARK VINA RESULT:    -4.154      1.337      2.706
REMARK INTER + INTRA:          -8.456
REMARK INTER:                  -7.431
REMARK INTRA:                  -1.026
REMARK UNBOUND:                -1.146
REMARK SMILES CCCCCCCCCCCCCCC(=O)[O-]
REMARK SMILES IDX 9 1 10 2 11 3 12 4 13 5 14 6 15 7 16 8 17 9 8 10 7 11 6 12
REMARK SMILES IDX 5 13 4 14 3 15 2 16 1 17
REMARK H PARENT
REMARK Flexibility Score: inf
ROOT
ATOM      1  C   UNL     1      31.347  24.496  68.127  1.00  0.00     0.000 C 
ENDROOT
BRANCH   1   2
ATOM      2  C   UNL     1      32.699  23.885  67.737  1.00  0.00     0.000 C 
BRANCH   2   3
ATOM      3  C   UNL     1      32.898  23.911  66.217  1.00  0.00     0.000 C 
BRANCH   3   4
ATOM      4  C   UNL     1      32.033  25.002  65.568  1.00  0.00     0.000 C 
BRANCH   4   5
ATOM      5  C   UNL     1      30.870  24.423  64.745  1.00  0.00     0.006 C 
BRANCH   5   6
ATOM      6  C   UNL     1      30.892  24.888  63.284  1.00  0.00     0.053 C 
BRANCH   6   7
ATOM      7  C   UNL     1      30.208  26.212  63.149  1.00  0.00     0.041 C 
ATOM      8  O   UNL     1      30.885  27.268  63.038  1.00  0.00    -0.550 OA
ATOM      9  O   UNL     1      28.821  26.275  63.097  1.00  0.00    -0.550 OA
ENDBRANCH   6   7
ENDBRANCH   5   6
ENDBRANCH   4   5
ENDBRANCH   3   4
ENDBRANCH   2   3
ENDBRANCH   1   2
BRANCH   1  10
ATOM     10  C   UNL     1      31.229  24.646  69.649  1.00  0.00     0.000 C 
BRANCH  10  11
ATOM     11  C   UNL     1      32.607  24.538  70.319  1.00  0.00    -0.000 C 
BRANCH  11  12
ATOM     12  C   UNL     1      33.101  25.886  70.869  1.00  0.00    -0.000 C 
BRANCH  12  13
ATOM     13  C   UNL     1      34.635  25.969  70.938  1.00  0.00    -0.000 C 
BRANCH  13  14
ATOM     14  C   UNL     1      35.295  25.680  69.573  1.00  0.00    -0.000 C 
BRANCH  14  15
ATOM     15  C   UNL     1      36.108  24.374  69.546  1.00  0.00    -0.000 C 
BRANCH  15  16
ATOM     16  C   UNL     1      36.618  23.959  70.932  1.00  0.00    -0.003 C 
ATOM     17  C   UNL     1      38.129  24.142  71.040  1.00  0.00     0.004 C 
ENDBRANCH  15  16
ENDBRANCH  14  15
ENDBRANCH  13  14
ENDBRANCH  12  13
ENDBRANCH  11  12
ENDBRANCH  10  11
ENDBRANCH   1  10
TORSDOF 13
ENDMDL
MODEL 4
REMARK VINA RESULT:    -4.134      1.827      4.316
REMARK INTER + INTRA:          -8.422
REMARK INTER:                  -7.499
REMARK INTRA:                  -0.922
REMARK UNBOUND:                -1.146
REMARK SMILES CCCCCCCCCCCCCCC(=O)[O-]
REMARK SMILES IDX 9 1 10 2 11 3 12 4 13 5 14 6 15 7 16 8 17 9 8 10 7 11 6 12
REMARK SMILES IDX 5 13 4 14 3 15 2 16 1 17
REMARK H PARENT
REMARK Flexibility Score: inf
ROOT
ATOM      1  C   UNL     1      30.880  24.677  65.845  1.00  0.00     0.000 C 
ENDROOT
BRANCH   1   2
ATOM      2  C   UNL     1      32.280  25.000  65.307  1.00  0.00     0.000 C 
BRANCH   2   3
ATOM      3  C   UNL     1      32.502  24.364  63.930  1.00  0.00     0.000 C 
BRANCH   3   4
ATOM      4  C   UNL     1      32.635  25.441  62.842  1.00  0.00     0.000 C 
BRANCH   4   5
ATOM      5  C   UNL     1      32.063  26.799  63.281  1.00  0.00     0.006 C 
BRANCH   5   6
ATOM      6  C   UNL     1      31.004  27.334  62.310  1.00  0.00     0.053 C 
BRANCH   6   7
ATOM      7  C   UNL     1      29.631  27.010  62.807  1.00  0.00     0.041 C 
ATOM      8  O   UNL     1      28.833  27.933  63.117  1.00  0.00    -0.550 OA
ATOM      9  O   UNL     1      29.215  25.686  62.883  1.00  0.00    -0.550 OA
ENDBRANCH   6   7
ENDBRANCH   5   6
ENDBRANCH   4   5
ENDBRANCH   3   4
ENDBRANCH   2   3
ENDBRANCH   1   2
BRANCH   1  10
ATOM     10  C   UNL     1      30.962  23.877  67.151  1.00  0.00     0.000 C 
BRANCH  10  11
ATOM     11  C   UNL     1      32.070  24.426  68.062  1.00  0.00    -0.000 C 
BRANCH  11  12
ATOM     12  C   UNL     1      31.542  24.840  69.445  1.00  0.00    -0.000 C 
BRANCH  12  13
ATOM     13  C   UNL     1      32.610  24.719  70.546  1.00  0.00    -0.000 C 
BRANCH  13  14
ATOM     14  C   UNL     1      33.099  26.099  71.035  1.00  0.00    -0.000 C 
BRANCH  14  15
ATOM     15  C   UNL     1      34.600  26.340  70.796  1.00  0.00    -0.000 C 
BRANCH  15  16
ATOM     16  C   UNL     1      35.264  25.217  69.988  1.00  0.00    -0.003 C 
ATOM     17  C   UNL     1      36.284  24.460  70.834  1.00  0.00     0.004 C 
ENDBRANCH  15  16
ENDBRANCH  14  15
ENDBRANCH  13  14
ENDBRANCH  12  13
ENDBRANCH  11  12
ENDBRANCH  10  11
ENDBRANCH   1  10
TORSDOF 13
ENDMDL
MODEL 5
REMARK VINA RESULT:    -4.087      1.614      4.214
REMARK INTER + INTRA:          -8.339
REMARK INTER:                  -7.291
REMARK INTRA:                  -1.048
REMARK UNBOUND:                -1.146
REMARK SMILES CCCCCCCCCCCCCCC(=O)[O-]
REMARK SMILES IDX 9 1 10 2 11 3 12 4 13 5 14 6 15 7 16 8 17 9 8 10 7 11 6 12
REMARK SMILES IDX 5 13 4 14 3 15 2 16 1 17
REMARK H PARENT
REMARK Flexibility Score: inf
ROOT
ATOM      1  C   UNL     1      35.034  24.144  67.407  1.00  0.00     0.000 C 
ENDROOT
BRANCH   1   2
ATOM      2  C   UNL     1      33.714  23.879  68.143  1.00  0.00     0.000 C 
BRANCH   2   3
ATOM      3  C   UNL     1      32.515  24.046  67.204  1.00  0.00     0.000 C 
BRANCH   3   4
ATOM      4  C   UNL     1      32.977  24.282  65.758  1.00  0.00     0.000 C 
BRANCH   4   5
ATOM      5  C   UNL     1      31.864  24.856  64.867  1.00  0.00     0.006 C 
BRANCH   5   6
ATOM      6  C   UNL     1      32.410  25.704  63.712  1.00  0.00     0.053 C 
BRANCH   6   7
ATOM      7  C   UNL     1      31.339  26.596  63.169  1.00  0.00     0.041 C 
ATOM      8  O   UNL     1      31.638  27.703  62.649  1.00  0.00    -0.550 OA
ATOM      9  O   UNL     1      30.013  26.183  63.194  1.00  0.00    -0.550 OA
ENDBRANCH   6   7
ENDBRANCH   5   6
ENDBRANCH   4   5
ENDBRANCH   3   4
ENDBRANCH   2   3
ENDBRANCH   1   2
BRANCH   1  10
ATOM     10  C   UNL     1      36.058  24.813  68.333  1.00  0.00     0.000 C 
BRANCH  10  11
ATOM     11  C   UNL     1      36.452  23.875  69.484  1.00  0.00    -0.000 C 
BRANCH  11  12
ATOM     12  C   UNL     1      36.169  24.489  70.865  1.00  0.00    -0.000 C 
BRANCH  12  13
ATOM     13  C   UNL     1      34.665  24.646  71.145  1.00  0.00    -0.000 C 
BRANCH  13  14
ATOM     14  C   UNL     1      34.266  26.121  71.365  1.00  0.00    -0.000 C 
BRANCH  14  15
ATOM     15  C   UNL     1      32.957  26.517  70.659  1.00  0.00    -0.000 C 
BRANCH  15  16
ATOM     16  C   UNL     1      31.705  26.074  71.429  1.00  0.00    -0.003 C 
ATOM     17  C   UNL     1      30.920  25.027  70.646  1.00  0.00     0.004 C 
ENDBRANCH  15  16
ENDBRANCH  14  15
ENDBRANCH  13  14
ENDBRANCH  12  13
ENDBRANCH  11  12
ENDBRANCH  10  11
ENDBRANCH   1  10
TORSDOF 13
ENDMDL
MODEL 6
REMARK VINA RESULT:    -4.071      4.337      9.495
REMARK INTER + INTRA:          -8.311
REMARK INTER:                  -7.098
REMARK INTRA:                  -1.213
REMARK UNBOUND:                -1.146
REMARK SMILES CCCCCCCCCCCCCCC(=O)[O-]
REMARK SMILES IDX 9 1 10 2 11 3 12 4 13 5 14 6 15 7 16 8 17 9 8 10 7 11 6 12
REMARK SMILES IDX 5 13 4 14 3 15 2 16 1 17
REMARK H PARENT
REMARK Flexibility Score: inf
ROOT
ATOM      1  C   UNL     1      31.597  27.191  63.186  1.00  0.00     0.000 C 
ENDROOT
BRANCH   1   2
ATOM      2  C   UNL     1      32.519  26.029  62.794  1.00  0.00     0.000 C 
BRANCH   2   3
ATOM      3  C   UNL     1      32.670  25.032  63.949  1.00  0.00     0.000 C 
BRANCH   3   4
ATOM      4  C   UNL     1      31.503  25.156  64.939  1.00  0.00     0.000 C 
BRANCH   4   5
ATOM      5  C   UNL     1      31.347  23.912  65.829  1.00  0.00     0.006 C 
BRANCH   5   6
ATOM      6  C   UNL     1      30.634  24.218  67.152  1.00  0.00     0.053 C 
BRANCH   6   7
ATOM      7  C   UNL     1      31.634  24.497  68.230  1.00  0.00     0.041 C 
ATOM      8  O   UNL     1      31.251  24.742  69.403  1.00  0.00    -0.550 OA
ATOM      9  O   UNL     1      32.994  24.439  67.947  1.00  0.00    -0.550 OA
ENDBRANCH   6   7
ENDBRANCH   5   6
ENDBRANCH   4   5
ENDBRANCH   3   4
ENDBRANCH   2   3
ENDBRANCH   1   2
BRANCH   1  10
ATOM     10  C   UNL     1      30.451  27.348  62.179  1.00  0.00     0.000 C 
BRANCH  10  11
ATOM     11  C   UNL     1      29.119  27.605  62.900  1.00  0.00    -0.000 C 
BRANCH  11  12
ATOM     12  C   UNL     1      28.394  26.303  63.276  1.00  0.00    -0.000 C 
BRANCH  12  13
ATOM     13  C   UNL     1      28.719  25.147  62.314  1.00  0.00    -0.000 C 
BRANCH  13  14
ATOM     14  C   UNL     1      27.459  24.347  61.921  1.00  0.00    -0.000 C 
BRANCH  14  15
ATOM     15  C   UNL     1      26.153  25.149  62.055  1.00  0.00    -0.000 C 
BRANCH  15  16
ATOM     16  C   UNL     1      24.915  24.255  62.208  1.00  0.00    -0.003 C 
ATOM     17  C   UNL     1      23.964  24.809  63.266  1.00  0.00     0.004 C 
ENDBRANCH  15  16
ENDBRANCH  14  15
ENDBRANCH  13  14
ENDBRANCH  12  13
ENDBRANCH  11  12
ENDBRANCH  10  11
ENDBRANCH   1  10
TORSDOF 13
ENDMDL
MODEL 7
REMARK VINA RESULT:    -4.069      3.675      7.097
REMARK INTER + INTRA:          -8.307
REMARK INTER:                  -7.505
REMARK INTRA:                  -0.802
REMARK UNBOUND:                -1.146
REMARK SMILES CCCCCCCCCCCCCCC(=O)[O-]
REMARK SMILES IDX 9 1 10 2 11 3 12 4 13 5 14 6 15 7 16 8 17 9 8 10 7 11 6 12
REMARK SMILES IDX 5 13 4 14 3 15 2 16 1 17
REMARK H PARENT
REMARK Flexibility Score: inf
ROOT
ATOM      1  C   UNL     1      32.977  26.202  70.394  1.00  0.00     0.000 C 
ENDROOT
BRANCH   1   2
ATOM      2  C   UNL     1      34.242  26.091  71.254  1.00  0.00     0.000 C 
BRANCH   2   3
ATOM      3  C   UNL     1      34.947  24.749  71.026  1.00  0.00     0.000 C 
BRANCH   3   4
ATOM      4  C   UNL     1      35.687  24.737  69.681  1.00  0.00     0.000 C 
BRANCH   4   5
ATOM      5  C   UNL     1      37.141  24.253  69.810  1.00  0.00     0.006 C 
BRANCH   5   6
ATOM      6  C   UNL     1      37.512  23.875  71.249  1.00  0.00     0.053 C 
BRANCH   6   7
ATOM      7  C   UNL     1      38.886  24.366  71.578  1.00  0.00     0.041 C 
ATOM      8  O   UNL     1      39.707  24.618  70.659  1.00  0.00    -0.550 OA
ATOM      9  O   UNL     1      39.244  24.592  72.902  1.00  0.00    -0.550 OA
ENDBRANCH   6   7
ENDBRANCH   5   6
ENDBRANCH   4   5
ENDBRANCH   3   4
ENDBRANCH   2   3
ENDBRANCH   1   2
BRANCH   1  10
ATOM     10  C   UNL     1      31.719  25.916  71.225  1.00  0.00     0.000 C 
BRANCH  10  11
ATOM     11  C   UNL     1      31.162  24.519  70.913  1.00  0.00    -0.000 C 
BRANCH  11  12
ATOM     12  C   UNL     1      31.804  23.897  69.663  1.00  0.00    -0.000 C 
BRANCH  12  13
ATOM     13  C   UNL     1      31.050  24.254  68.370  1.00  0.00    -0.000 C 
BRANCH  13  14
ATOM     14  C   UNL     1      32.011  24.612  67.217  1.00  0.00    -0.000 C 
BRANCH  14  15
ATOM     15  C   UNL     1      31.335  24.629  65.835  1.00  0.00    -0.000 C 
BRANCH  15  16
ATOM     16  C   UNL     1      32.341  24.665  64.677  1.00  0.00    -0.003 C 
ATOM     17  C   UNL     1      31.993  25.765  63.679  1.00  0.00     0.004 C 
ENDBRANCH  15  16
ENDBRANCH  14  15
ENDBRANCH  13  14
ENDBRANCH  12  13
ENDBRANCH  11  12
ENDBRANCH  10  11
ENDBRANCH   1  10
TORSDOF 13
ENDMDL
MODEL 8
REMARK VINA RESULT:    -3.923      3.113      7.466
REMARK INTER + INTRA:          -8.050
REMARK INTER:                  -7.095
REMARK INTRA:                  -0.955
REMARK UNBOUND:                -1.146
REMARK SMILES CCCCCCCCCCCCCCC(=O)[O-]
REMARK SMILES IDX 9 1 10 2 11 3 12 4 13 5 14 6 15 7 16 8 17 9 8 10 7 11 6 12
REMARK SMILES IDX 5 13 4 14 3 15 2 16 1 17
REMARK H PARENT
REMARK Flexibility Score: inf
ROOT
ATOM      1  C   UNL     1      32.122  23.879  68.493  1.00  0.00     0.000 C 
ENDROOT
BRANCH   1   2
ATOM      2  C   UNL     1      31.696  24.924  69.531  1.00  0.00     0.000 C 
BRANCH   2   3
ATOM      3  C   UNL     1      32.632  24.911  70.744  1.00  0.00     0.000 C 
BRANCH   3   4
ATOM      4  C   UNL     1      33.410  26.232  70.853  1.00  0.00     0.000 C 
BRANCH   4   5
ATOM      5  C   UNL     1      34.925  26.016  71.001  1.00  0.00     0.006 C 
BRANCH   5   6
ATOM      6  C   UNL     1      35.304  24.532  71.086  1.00  0.00     0.053 C 
BRANCH   6   7
ATOM      7  C   UNL     1      36.687  24.318  70.557  1.00  0.00     0.041 C 
ATOM      8  O   UNL     1      37.652  24.153  71.348  1.00  0.00    -0.550 OA
ATOM      9  O   UNL     1      36.903  24.252  69.185  1.00  0.00    -0.550 OA
ENDBRANCH   6   7
ENDBRANCH   5   6
ENDBRANCH   4   5
ENDBRANCH   3   4
ENDBRANCH   2   3
ENDBRANCH   1   2
BRANCH   1  10
ATOM     10  C   UNL     1      33.507  24.206  67.918  1.00  0.00     0.000 C 
BRANCH  10  11
ATOM     11  C   UNL     1      33.568  23.882  66.418  1.00  0.00    -0.000 C 
BRANCH  11  12
ATOM     12  C   UNL     1      32.196  24.003  65.735  1.00  0.00    -0.000 C 
BRANCH  12  13
ATOM     13  C   UNL     1      31.983  25.376  65.075  1.00  0.00    -0.000 C 
BRANCH  13  14
ATOM     14  C   UNL     1      31.885  25.273  63.538  1.00  0.00    -0.000 C 
BRANCH  14  15
ATOM     15  C   UNL     1      31.083  26.418  62.895  1.00  0.00    -0.000 C 
BRANCH  15  16
ATOM     16  C   UNL     1      29.568  26.267  63.086  1.00  0.00    -0.003 C 
ATOM     17  C   UNL     1      28.886  27.629  63.169  1.00  0.00     0.004 C 
ENDBRANCH  15  16
ENDBRANCH  14  15
ENDBRANCH  13  14
ENDBRANCH  12  13
ENDBRANCH  11  12
ENDBRANCH  10  11
ENDBRANCH   1  10
TORSDOF 13
ENDMDL
MODEL 9
REMARK VINA RESULT:    -3.860      4.830     10.237
REMARK INTER + INTRA:          -7.940
REMARK INTER:                  -7.588
REMARK INTRA:                  -0.352
REMARK UNBOUND:                -1.146
REMARK SMILES CCCCCCCCCCCCCCC(=O)[O-]
REMARK SMILES IDX 9 1 10 2 11 3 12 4 13 5 14 6 15 7 16 8 17 9 8 10 7 11 6 12
REMARK SMILES IDX 5 13 4 14 3 15 2 16 1 17
REMARK H PARENT
REMARK Flexibility Score: inf
ROOT
ATOM      1  C   UNL     1      29.649  27.430  62.762  1.00  0.00     0.000 C 
ENDROOT
BRANCH   1   2
ATOM      2  C   UNL     1      31.092  27.275  63.260  1.00  0.00     0.000 C 
BRANCH   2   3
ATOM      3  C   UNL     1      31.576  25.829  63.103  1.00  0.00     0.000 C 
BRANCH   3   4
ATOM      4  C   UNL     1      32.315  25.357  64.364  1.00  0.00     0.000 C 
BRANCH   4   5
ATOM      5  C   UNL     1      31.377  24.699  65.389  1.00  0.00     0.006 C 
BRANCH   5   6
ATOM      6  C   UNL     1      31.973  24.670  66.802  1.00  0.00     0.053 C 
BRANCH   6   7
ATOM      7  C   UNL     1      30.915  24.337  67.806  1.00  0.00     0.041 C 
ATOM      8  O   UNL     1      31.127  24.515  69.034  1.00  0.00    -0.550 OA
ATOM      9  O   UNL     1      29.675  23.875  67.381  1.00  0.00    -0.550 OA
ENDBRANCH   6   7
ENDBRANCH   5   6
ENDBRANCH   4   5
ENDBRANCH   3   4
ENDBRANCH   2   3
ENDBRANCH   1   2
BRANCH   1  10
ATOM     10  C   UNL     1      28.788  26.234  63.187  1.00  0.00     0.000 C 
BRANCH  10  11
ATOM     11  C   UNL     1      28.841  25.118  62.134  1.00  0.00    -0.000 C 
BRANCH  11  12
ATOM     12  C   UNL     1      27.562  24.265  62.117  1.00  0.00    -0.000 C 
BRANCH  12  13
ATOM     13  C   UNL     1      26.284  25.118  62.043  1.00  0.00    -0.000 C 
BRANCH  13  14
ATOM     14  C   UNL     1      25.126  24.371  61.348  1.00  0.00    -0.000 C 
BRANCH  14  15
ATOM     15  C   UNL     1      23.975  23.998  62.299  1.00  0.00    -0.000 C 
BRANCH  15  16
ATOM     16  C   UNL     1      23.781  25.016  63.430  1.00  0.00    -0.003 C 
ATOM     17  C   UNL     1      22.481  24.758  64.186  1.00  0.00     0.004 C 
ENDBRANCH  15  16
ENDBRANCH  14  15
ENDBRANCH  13  14
ENDBRANCH  12  13
ENDBRANCH  11  12
ENDBRANCH  10  11
ENDBRANCH   1  10
TORSDOF 13
ENDMDL
