MODEL 1
REMARK VINA RESULT:    -3.935      0.000      0.000
REMARK INTER + INTRA:          -5.112
REMARK INTER:                  -4.855
REMARK INTRA:                  -0.257
REMARK UNBOUND:                -0.257
REMARK SMILES CCCCCC(=O)[O-]
REMARK SMILES IDX 4 1 5 2 6 3 7 4 8 5 3 6 2 7 1 8
REMARK H PARENT
REMARK Flexibility Score: inf
ROOT
ATOM      1  C   UNL     1     -99.316 -62.136 -65.672  1.00  0.00     0.006 C 
ENDROOT
BRANCH   1   2
ATOM      2  C   UNL     1     -98.807 -61.607 -64.322  1.00  0.00     0.053 C 
BRANCH   2   3
ATOM      3  C   UNL     1     -97.339 -61.312 -64.354  1.00  0.00     0.041 C 
ATOM      4  O   UNL     1     -96.502 -62.252 -64.327  1.00  0.00    -0.550 OA
ATOM      5  O   UNL     1     -96.895 -59.996 -64.381  1.00  0.00    -0.550 OA
ENDBRANCH   2   3
ENDBRANCH   1   2
BRANCH   1   6
ATOM      6  C   UNL     1     -99.046 -61.198 -66.863  1.00  0.00     0.000 C 
BRANCH   6   7
ATOM      7  C   UNL     1     -99.820 -59.876 -66.765  1.00  0.00    -0.003 C 
ATOM      8  C   UNL     1     -98.915 -58.685 -67.072  1.00  0.00     0.004 C 
ENDBRANCH   6   7
ENDBRANCH   1   6
TORSDOF 4
ENDMDL
MODEL 2
REMARK VINA RESULT:    -3.906      1.869      2.374
REMARK INTER + INTRA:          -5.077
REMARK INTER:                  -4.913
REMARK INTRA:                  -0.164
REMARK UNBOUND:                -0.257
REMARK SMILES CCCCCC(=O)[O-]
REMARK SMILES IDX 4 1 5 2 6 3 7 4 8 5 3 6 2 7 1 8
REMARK H PARENT
REMARK Flexibility Score: inf
ROOT
ATOM      1  C   UNL     1     -99.791 -61.383 -67.156  1.00  0.00     0.006 C 
ENDROOT
BRANCH   1   2
ATOM      2  C   UNL     1     -99.735 -62.359 -65.970  1.00  0.00     0.053 C 
BRANCH   2   3
ATOM      3  C   UNL     1     -99.853 -61.651 -64.656  1.00  0.00     0.041 C 
ATOM      4  O   UNL     1    -100.923 -61.065 -64.346  1.00  0.00    -0.550 OA
ATOM      5  O   UNL     1     -98.769 -61.611 -63.788  1.00  0.00    -0.550 OA
ENDBRANCH   2   3
ENDBRANCH   1   2
BRANCH   1   6
ATOM      6  C   UNL     1     -98.635 -60.367 -67.196  1.00  0.00     0.000 C 
BRANCH   6   7
ATOM      7  C   UNL     1     -99.121 -58.912 -67.135  1.00  0.00    -0.003 C 
ATOM      8  C   UNL     1     -98.002 -57.977 -66.685  1.00  0.00     0.004 C 
ENDBRANCH   6   7
ENDBRANCH   1   6
TORSDOF 4
ENDMDL
MODEL 3
REMARK VINA RESULT:    -3.901      2.406      3.771
REMARK INTER + INTRA:          -5.071
REMARK INTER:                  -4.882
REMARK INTRA:                  -0.189
REMARK UNBOUND:                -0.257
REMARK SMILES CCCCCC(=O)[O-]
REMARK SMILES IDX 4 1 5 2 6 3 7 4 8 5 3 6 2 7 1 8
REMARK H PARENT
REMARK Flexibility Score: inf
ROOT
ATOM      1  C   UNL     1     -97.744 -61.099 -66.648  1.00  0.00     0.006 C 
ENDROOT
BRANCH   1   2
ATOM      2  C   UNL     1     -97.594 -59.838 -67.513  1.00  0.00     0.053 C 
BRANCH   2   3
ATOM      3  C   UNL     1     -98.487 -58.730 -67.046  1.00  0.00     0.041 C 
ATOM      4  O   UNL     1     -99.730 -58.794 -67.237  1.00  0.00    -0.550 OA
ATOM      5  O   UNL     1     -97.942 -57.611 -66.429  1.00  0.00    -0.550 OA
ENDBRANCH   2   3
ENDBRANCH   1   2
BRANCH   1   6
ATOM      6  C   UNL     1     -96.964 -61.055 -65.321  1.00  0.00     0.000 C 
BRANCH   6   7
ATOM      7  C   UNL     1     -97.739 -61.687 -64.156  1.00  0.00    -0.003 C 
ATOM      8  C   UNL     1     -99.234 -61.744 -64.457  1.00  0.00     0.004 C 
ENDBRANCH   6   7
ENDBRANCH   1   6
TORSDOF 4
ENDMDL
MODEL 4
REMARK VINA RESULT:    -3.887      2.427      3.896
REMARK INTER + INTRA:          -5.053
REMARK INTER:                  -4.839
REMARK INTRA:                  -0.214
REMARK UNBOUND:                -0.257
REMARK SMILES CCCCCC(=O)[O-]
REMARK SMILES IDX 4 1 5 2 6 3 7 4 8 5 3 6 2 7 1 8
REMARK H PARENT
REMARK Flexibility Score: inf
ROOT
ATOM      1  C   UNL     1     -97.552 -61.098 -66.923  1.00  0.00     0.006 C 
ENDROOT
BRANCH   1   2
ATOM      2  C   UNL     1     -97.728 -59.830 -67.773  1.00  0.00     0.053 C 
BRANCH   2   3
ATOM      3  C   UNL     1     -98.561 -58.800 -67.075  1.00  0.00     0.041 C 
ATOM      4  O   UNL     1     -98.027 -57.755 -66.618  1.00  0.00    -0.550 OA
ATOM      5  O   UNL     1     -99.923 -59.009 -66.899  1.00  0.00    -0.550 OA
ENDBRANCH   2   3
ENDBRANCH   1   2
BRANCH   1   6
ATOM      6  C   UNL     1     -96.485 -60.979 -65.820  1.00  0.00     0.000 C 
BRANCH   6   7
ATOM      7  C   UNL     1     -96.957 -61.545 -64.473  1.00  0.00    -0.003 C 
ATOM      8  C   UNL     1     -98.478 -61.666 -64.431  1.00  0.00     0.004 C 
ENDBRANCH   6   7
ENDBRANCH   1   6
TORSDOF 4
ENDMDL
MODEL 5
REMARK VINA RESULT:    -3.819      2.572      3.831
REMARK INTER + INTRA:          -4.969
REMARK INTER:                  -4.719
REMARK INTRA:                  -0.250
REMARK UNBOUND:                -0.257
REMARK SMILES CCCCCC(=O)[O-]
REMARK SMILES IDX 4 1 5 2 6 3 7 4 8 5 3 6 2 7 1 8
REMARK H PARENT
REMARK Flexibility Score: inf
ROOT
ATOM      1  C   UNL     1     -99.627 -62.197 -66.376  1.00  0.00     0.006 C 
ENDROOT
BRANCH   1   2
ATOM      2  C   UNL     1    -100.769 -61.373 -66.991  1.00  0.00     0.053 C 
BRANCH   2   3
ATOM      3  C   UNL     1    -100.852 -60.000 -66.400  1.00  0.00     0.041 C 
ATOM      4  O   UNL     1     -99.986 -59.132 -66.688  1.00  0.00    -0.550 OA
ATOM      5  O   UNL     1    -101.866 -59.688 -65.504  1.00  0.00    -0.550 OA
ENDBRANCH   2   3
ENDBRANCH   1   2
BRANCH   1   6
ATOM      6  C   UNL     1     -99.796 -62.490 -64.873  1.00  0.00     0.000 C 
BRANCH   6   7
ATOM      7  C   UNL     1     -98.670 -61.887 -64.021  1.00  0.00    -0.003 C 
ATOM      8  C   UNL     1     -97.465 -61.520 -64.882  1.00  0.00     0.004 C 
ENDBRANCH   6   7
ENDBRANCH   1   6
TORSDOF 4
ENDMDL
MODEL 6
REMARK VINA RESULT:    -3.816      2.077      2.683
REMARK INTER + INTRA:          -4.965
REMARK INTER:                  -4.731
REMARK INTRA:                  -0.235
REMARK UNBOUND:                -0.257
REMARK SMILES CCCCCC(=O)[O-]
REMARK SMILES IDX 4 1 5 2 6 3 7 4 8 5 3 6 2 7 1 8
REMARK H PARENT
REMARK Flexibility Score: inf
ROOT
ATOM      1  C   UNL     1     -96.996 -60.281 -64.764  1.00  0.00     0.006 C 
ENDROOT
BRANCH   1   2
ATOM      2  C   UNL     1     -97.567 -61.705 -64.685  1.00  0.00     0.053 C 
BRANCH   2   3
ATOM      3  C   UNL     1     -99.016 -61.750 -65.061  1.00  0.00     0.041 C 
ATOM      4  O   UNL     1     -99.899 -61.427 -64.223  1.00  0.00    -0.550 OA
ATOM      5  O   UNL     1     -99.393 -62.179 -66.327  1.00  0.00    -0.550 OA
ENDBRANCH   2   3
ENDBRANCH   1   2
BRANCH   1   6
ATOM      6  C   UNL     1     -96.752 -59.775 -66.197  1.00  0.00     0.000 C 
BRANCH   6   7
ATOM      7  C   UNL     1     -97.420 -58.419 -66.470  1.00  0.00    -0.003 C 
ATOM      8  C   UNL     1     -98.810 -58.603 -67.074  1.00  0.00     0.004 C 
ENDBRANCH   6   7
ENDBRANCH   1   6
TORSDOF 4
ENDMDL
MODEL 7
REMARK VINA RESULT:    -3.767      2.934      4.380
REMARK INTER + INTRA:          -4.905
REMARK INTER:                  -4.816
REMARK INTRA:                  -0.089
REMARK UNBOUND:                -0.257
REMARK SMILES CCCCCC(=O)[O-]
REMARK SMILES IDX 4 1 5 2 6 3 7 4 8 5 3 6 2 7 1 8
REMARK H PARENT
REMARK Flexibility Score: inf
ROOT
ATOM      1  C   UNL     1     -97.431 -60.970 -66.687  1.00  0.00     0.006 C 
ENDROOT
BRANCH   1   2
ATOM      2  C   UNL     1     -97.655 -59.825 -67.686  1.00  0.00     0.053 C 
BRANCH   2   3
ATOM      3  C   UNL     1     -98.505 -58.736 -67.108  1.00  0.00     0.041 C 
ATOM      4  O   UNL     1     -99.759 -58.785 -67.216  1.00  0.00    -0.550 OA
ATOM      5  O   UNL     1     -97.911 -57.650 -66.479  1.00  0.00    -0.550 OA
ENDBRANCH   2   3
ENDBRANCH   1   2
BRANCH   1   6
ATOM      6  C   UNL     1     -96.043 -60.967 -66.020  1.00  0.00     0.000 C 
BRANCH   6   7
ATOM      7  C   UNL     1     -94.912 -61.310 -67.001  1.00  0.00    -0.003 C 
ATOM      8  C   UNL     1     -94.026 -62.424 -66.450  1.00  0.00     0.004 C 
ENDBRANCH   6   7
ENDBRANCH   1   6
TORSDOF 4
ENDMDL
MODEL 8
REMARK VINA RESULT:    -3.735      2.586      3.938
REMARK INTER + INTRA:          -4.866
REMARK INTER:                  -4.614
REMARK INTRA:                  -0.251
REMARK UNBOUND:                -0.257
REMARK SMILES CCCCCC(=O)[O-]
REMARK SMILES IDX 4 1 5 2 6 3 7 4 8 5 3 6 2 7 1 8
REMARK H PARENT
REMARK Flexibility Score: inf
ROOT
ATOM      1  C   UNL     1     -97.948 -59.369 -67.314  1.00  0.00     0.006 C 
ENDROOT
BRANCH   1   2
ATOM      2  C   UNL     1     -99.372 -58.826 -67.116  1.00  0.00     0.053 C 
BRANCH   2   3
ATOM      3  C   UNL     1    -100.321 -59.893 -66.668  1.00  0.00     0.041 C 
ATOM      4  O   UNL     1    -100.235 -61.058 -67.139  1.00  0.00    -0.550 OA
ATOM      5  O   UNL     1    -101.323 -59.594 -65.753  1.00  0.00    -0.550 OA
ENDBRANCH   2   3
ENDBRANCH   1   2
BRANCH   1   6
ATOM      6  C   UNL     1     -97.132 -59.496 -66.014  1.00  0.00     0.000 C 
BRANCH   6   7
ATOM      7  C   UNL     1     -96.799 -60.953 -65.662  1.00  0.00    -0.003 C 
ATOM      8  C   UNL     1     -97.611 -61.426 -64.458  1.00  0.00     0.004 C 
ENDBRANCH   6   7
ENDBRANCH   1   6
TORSDOF 4
ENDMDL
MODEL 9
REMARK VINA RESULT:    -3.718      2.073      3.361
REMARK INTER + INTRA:          -4.844
REMARK INTER:                  -4.650
REMARK INTRA:                  -0.194
REMARK UNBOUND:                -0.257
REMARK SMILES CCCCCC(=O)[O-]
REMARK SMILES IDX 4 1 5 2 6 3 7 4 8 5 3 6 2 7 1 8
REMARK H PARENT
REMARK Flexibility Score: inf
ROOT
ATOM      1  C   UNL     1     -99.379 -61.557 -66.561  1.00  0.00     0.006 C 
ENDROOT
BRANCH   1   2
ATOM      2  C   UNL     1     -99.650 -60.045 -66.532  1.00  0.00     0.053 C 
BRANCH   2   3
ATOM      3  C   UNL     1     -98.526 -59.263 -67.137  1.00  0.00     0.041 C 
ATOM      4  O   UNL     1     -97.713 -59.823 -67.919  1.00  0.00    -0.550 OA
ATOM      5  O   UNL     1     -98.356 -57.924 -66.811  1.00  0.00    -0.550 OA
ENDBRANCH   2   3
ENDBRANCH   1   2
BRANCH   1   6
ATOM      6  C   UNL     1     -99.408 -62.232 -65.177  1.00  0.00     0.000 C 
BRANCH   6   7
ATOM      7  C   UNL     1     -98.453 -61.570 -64.173  1.00  0.00    -0.003 C 
ATOM      8  C   UNL     1     -96.996 -61.812 -64.559  1.00  0.00     0.004 C 
ENDBRANCH   6   7
ENDBRANCH   1   6
TORSDOF 4
ENDMDL
