MODEL 1
REMARK VINA RESULT:    -3.843      0.000      0.000
REMARK INTER + INTRA:          -5.193
REMARK INTER:                  -4.967
REMARK INTRA:                  -0.226
REMARK UNBOUND:                -0.226
REMARK SMILES CCCCCCC(=O)[O-]
REMARK SMILES IDX 5 1 6 2 7 3 8 4 9 5 4 6 3 7 2 8 1 9
REMARK H PARENT
REMARK Flexibility Score: inf
ROOT
ATOM      1  C   UNL     1      53.421  -2.250  12.690  1.00  0.00     0.006 C 
ENDROOT
BRANCH   1   2
ATOM      2  C   UNL     1      53.631  -3.290  11.582  1.00  0.00     0.053 C 
BRANCH   2   3
ATOM      3  C   UNL     1      52.456  -4.211  11.453  1.00  0.00     0.041 C 
ATOM      4  O   UNL     1      52.423  -5.069  10.532  1.00  0.00    -0.550 OA
ATOM      5  O   UNL     1      51.383  -4.098  12.328  1.00  0.00    -0.550 OA
ENDBRANCH   2   3
ENDBRANCH   1   2
BRANCH   1   6
ATOM      6  C   UNL     1      54.558  -2.261  13.723  1.00  0.00     0.000 C 
BRANCH   6   7
ATOM      7  C   UNL     1      55.290  -3.611  13.719  1.00  0.00    -0.000 C 
BRANCH   7   8
ATOM      8  C   UNL     1      56.815  -3.457  13.817  1.00  0.00    -0.003 C 
ATOM      9  C   UNL     1      57.235  -2.231  14.628  1.00  0.00     0.004 C 
ENDBRANCH   7   8
ENDBRANCH   6   7
ENDBRANCH   1   6
TORSDOF 5
ENDMDL
MODEL 2
REMARK VINA RESULT:    -3.820      0.116      1.085
REMARK INTER + INTRA:          -5.163
REMARK INTER:                  -4.920
REMARK INTRA:                  -0.243
REMARK UNBOUND:                -0.226
REMARK SMILES CCCCCCC(=O)[O-]
REMARK SMILES IDX 5 1 6 2 7 3 8 4 9 5 4 6 3 7 2 8 1 9
REMARK H PARENT
REMARK Flexibility Score: inf
ROOT
ATOM      1  C   UNL     1      53.472  -2.275  12.625  1.00  0.00     0.006 C 
ENDROOT
BRANCH   1   2
ATOM      2  C   UNL     1      53.691  -3.345  11.547  1.00  0.00     0.053 C 
BRANCH   2   3
ATOM      3  C   UNL     1      52.482  -4.212  11.370  1.00  0.00     0.041 C 
ATOM      4  O   UNL     1      51.519  -4.127  12.175  1.00  0.00    -0.550 OA
ATOM      5  O   UNL     1      52.436  -5.139  10.336  1.00  0.00    -0.550 OA
ENDBRANCH   2   3
ENDBRANCH   1   2
BRANCH   1   6
ATOM      6  C   UNL     1      54.548  -2.324  13.721  1.00  0.00     0.000 C 
BRANCH   6   7
ATOM      7  C   UNL     1      55.302  -3.662  13.691  1.00  0.00    -0.000 C 
BRANCH   7   8
ATOM      8  C   UNL     1      56.821  -3.487  13.835  1.00  0.00    -0.003 C 
ATOM      9  C   UNL     1      57.201  -2.218  14.599  1.00  0.00     0.004 C 
ENDBRANCH   7   8
ENDBRANCH   6   7
ENDBRANCH   1   6
TORSDOF 5
ENDMDL
MODEL 3
REMARK VINA RESULT:    -3.687      3.227      4.834
REMARK INTER + INTRA:          -4.991
REMARK INTER:                  -4.758
REMARK INTRA:                  -0.233
REMARK UNBOUND:                -0.226
REMARK SMILES CCCCCCC(=O)[O-]
REMARK SMILES IDX 5 1 6 2 7 3 8 4 9 5 4 6 3 7 2 8 1 9
REMARK H PARENT
REMARK Flexibility Score: inf
ROOT
ATOM      1  C   UNL     1      54.543  -3.869  13.419  1.00  0.00     0.006 C 
ENDROOT
BRANCH   1   2
ATOM      2  C   UNL     1      55.237  -2.620  13.978  1.00  0.00     0.053 C 
BRANCH   2   3
ATOM      3  C   UNL     1      56.716  -2.817  14.111  1.00  0.00     0.041 C 
ATOM      4  O   UNL     1      57.268  -3.827  13.600  1.00  0.00    -0.550 OA
ATOM      5  O   UNL     1      57.479  -1.905  14.829  1.00  0.00    -0.550 OA
ENDBRANCH   2   3
ENDBRANCH   1   2
BRANCH   1   6
ATOM      6  C   UNL     1      53.678  -3.554  12.190  1.00  0.00     0.000 C 
BRANCH   6   7
ATOM      7  C   UNL     1      52.193  -3.822  12.480  1.00  0.00    -0.000 C 
BRANCH   7   8
ATOM      8  C   UNL     1      51.273  -2.735  11.905  1.00  0.00    -0.003 C 
ATOM      9  C   UNL     1      51.924  -1.351  11.899  1.00  0.00     0.004 C 
ENDBRANCH   7   8
ENDBRANCH   6   7
ENDBRANCH   1   6
TORSDOF 5
ENDMDL
MODEL 4
REMARK VINA RESULT:    -3.679      3.276      5.017
REMARK INTER + INTRA:          -4.980
REMARK INTER:                  -4.786
REMARK INTRA:                  -0.194
REMARK UNBOUND:                -0.226
REMARK SMILES CCCCCCC(=O)[O-]
REMARK SMILES IDX 5 1 6 2 7 3 8 4 9 5 4 6 3 7 2 8 1 9
REMARK H PARENT
REMARK Flexibility Score: inf
ROOT
ATOM      1  C   UNL     1      55.363  -3.864  13.811  1.00  0.00     0.006 C 
ENDROOT
BRANCH   1   2
ATOM      2  C   UNL     1      56.810  -3.358  13.878  1.00  0.00     0.053 C 
BRANCH   2   3
ATOM      3  C   UNL     1      56.929  -2.119  14.711  1.00  0.00     0.041 C 
ATOM      4  O   UNL     1      58.008  -1.470  14.731  1.00  0.00    -0.550 OA
ATOM      5  O   UNL     1      55.860  -1.701  15.493  1.00  0.00    -0.550 OA
ENDBRANCH   2   3
ENDBRANCH   1   2
BRANCH   1   6
ATOM      6  C   UNL     1      54.579  -3.234  12.650  1.00  0.00     0.000 C 
BRANCH   6   7
ATOM      7  C   UNL     1      53.137  -2.911  13.072  1.00  0.00    -0.000 C 
BRANCH   7   8
ATOM      8  C   UNL     1      52.128  -3.957  12.574  1.00  0.00    -0.003 C 
ATOM      9  C   UNL     1      52.488  -4.519  11.199  1.00  0.00     0.004 C 
ENDBRANCH   7   8
ENDBRANCH   6   7
ENDBRANCH   1   6
TORSDOF 5
ENDMDL
MODEL 5
REMARK VINA RESULT:    -3.608     10.664     12.291
REMARK INTER + INTRA:          -4.888
REMARK INTER:                  -4.656
REMARK INTRA:                  -0.232
REMARK UNBOUND:                -0.226
REMARK SMILES CCCCCCC(=O)[O-]
REMARK SMILES IDX 5 1 6 2 7 3 8 4 9 5 4 6 3 7 2 8 1 9
REMARK H PARENT
REMARK Flexibility Score: inf
ROOT
ATOM      1  C   UNL     1      61.411  -3.918  20.831  1.00  0.00     0.006 C 
ENDROOT
BRANCH   1   2
ATOM      2  C   UNL     1      62.706  -4.655  20.464  1.00  0.00     0.053 C 
BRANCH   2   3
ATOM      3  C   UNL     1      63.791  -4.408  21.467  1.00  0.00     0.041 C 
ATOM      4  O   UNL     1      64.353  -3.283  21.528  1.00  0.00    -0.550 OA
ATOM      5  O   UNL     1      64.205  -5.431  22.311  1.00  0.00    -0.550 OA
ENDBRANCH   2   3
ENDBRANCH   1   2
BRANCH   1   6
ATOM      6  C   UNL     1      60.915  -4.280  22.240  1.00  0.00     0.000 C 
BRANCH   6   7
ATOM      7  C   UNL     1      59.380  -4.244  22.307  1.00  0.00    -0.000 C 
BRANCH   7   8
ATOM      8  C   UNL     1      58.727  -4.281  20.917  1.00  0.00    -0.003 C 
ATOM      9  C   UNL     1      57.466  -3.421  20.834  1.00  0.00     0.004 C 
ENDBRANCH   7   8
ENDBRANCH   6   7
ENDBRANCH   1   6
TORSDOF 5
ENDMDL
MODEL 6
REMARK VINA RESULT:    -3.606      1.314      1.762
REMARK INTER + INTRA:          -4.886
REMARK INTER:                  -4.693
REMARK INTRA:                  -0.192
REMARK UNBOUND:                -0.226
REMARK SMILES CCCCCCC(=O)[O-]
REMARK SMILES IDX 5 1 6 2 7 3 8 4 9 5 4 6 3 7 2 8 1 9
REMARK H PARENT
REMARK Flexibility Score: inf
ROOT
ATOM      1  C   UNL     1      52.680  -3.683  13.054  1.00  0.00     0.006 C 
ENDROOT
BRANCH   1   2
ATOM      2  C   UNL     1      52.023  -3.096  11.798  1.00  0.00     0.053 C 
BRANCH   2   3
ATOM      3  C   UNL     1      52.623  -3.654  10.543  1.00  0.00     0.041 C 
ATOM      4  O   UNL     1      53.196  -2.891   9.722  1.00  0.00    -0.550 OA
ATOM      5  O   UNL     1      52.519  -5.010  10.266  1.00  0.00    -0.550 OA
ENDBRANCH   2   3
ENDBRANCH   1   2
BRANCH   1   6
ATOM      6  C   UNL     1      54.212  -3.584  13.011  1.00  0.00     0.000 C 
BRANCH   6   7
ATOM      7  C   UNL     1      54.701  -2.315  13.726  1.00  0.00    -0.000 C 
BRANCH   7   8
ATOM      8  C   UNL     1      56.091  -2.489  14.355  1.00  0.00    -0.003 C 
ATOM      9  C   UNL     1      56.912  -3.589  13.682  1.00  0.00     0.004 C 
ENDBRANCH   7   8
ENDBRANCH   6   7
ENDBRANCH   1   6
TORSDOF 5
ENDMDL
MODEL 7
REMARK VINA RESULT:    -3.601      3.256      4.256
REMARK INTER + INTRA:          -4.879
REMARK INTER:                  -4.778
REMARK INTRA:                  -0.101
REMARK UNBOUND:                -0.226
REMARK SMILES CCCCCCC(=O)[O-]
REMARK SMILES IDX 5 1 6 2 7 3 8 4 9 5 4 6 3 7 2 8 1 9
REMARK H PARENT
REMARK Flexibility Score: inf
ROOT
ATOM      1  C   UNL     1      52.829  -4.693   9.898  1.00  0.00     0.006 C 
ENDROOT
BRANCH   1   2
ATOM      2  C   UNL     1      52.490  -3.438  10.714  1.00  0.00     0.053 C 
BRANCH   2   3
ATOM      3  C   UNL     1      52.178  -3.769  12.142  1.00  0.00     0.041 C 
ATOM      4  O   UNL     1      53.074  -4.235  12.893  1.00  0.00    -0.550 OA
ATOM      5  O   UNL     1      50.890  -3.596  12.631  1.00  0.00    -0.550 OA
ENDBRANCH   2   3
ENDBRANCH   1   2
BRANCH   1   6
ATOM      6  C   UNL     1      53.537  -4.355   8.577  1.00  0.00     0.000 C 
BRANCH   6   7
ATOM      7  C   UNL     1      54.989  -3.922   8.828  1.00  0.00    -0.000 C 
BRANCH   7   8
ATOM      8  C   UNL     1      55.973  -4.546   7.827  1.00  0.00    -0.003 C 
ATOM      9  C   UNL     1      57.419  -4.514   8.321  1.00  0.00     0.004 C 
ENDBRANCH   7   8
ENDBRANCH   6   7
ENDBRANCH   1   6
TORSDOF 5
ENDMDL
MODEL 8
REMARK VINA RESULT:    -3.557     10.188     12.177
REMARK INTER + INTRA:          -4.822
REMARK INTER:                  -4.460
REMARK INTRA:                  -0.362
REMARK UNBOUND:                -0.226
REMARK SMILES CCCCCCC(=O)[O-]
REMARK SMILES IDX 5 1 6 2 7 3 8 4 9 5 4 6 3 7 2 8 1 9
REMARK H PARENT
REMARK Flexibility Score: inf
ROOT
ATOM      1  C   UNL     1      61.770  -4.607  23.143  1.00  0.00     0.006 C 
ENDROOT
BRANCH   1   2
ATOM      2  C   UNL     1      62.309  -3.472  22.261  1.00  0.00     0.053 C 
BRANCH   2   3
ATOM      3  C   UNL     1      63.101  -3.996  21.103  1.00  0.00     0.041 C 
ATOM      4  O   UNL     1      62.579  -4.807  20.293  1.00  0.00    -0.550 OA
ATOM      5  O   UNL     1      64.426  -3.614  20.937  1.00  0.00    -0.550 OA
ENDBRANCH   2   3
ENDBRANCH   1   2
BRANCH   1   6
ATOM      6  C   UNL     1      60.236  -4.604  23.224  1.00  0.00     0.000 C 
BRANCH   6   7
ATOM      7  C   UNL     1      59.635  -3.616  22.213  1.00  0.00    -0.000 C 
BRANCH   7   8
ATOM      8  C   UNL     1      58.712  -4.300  21.194  1.00  0.00    -0.003 C 
ATOM      9  C   UNL     1      59.168  -4.091  19.749  1.00  0.00     0.004 C 
ENDBRANCH   7   8
ENDBRANCH   6   7
ENDBRANCH   1   6
TORSDOF 5
ENDMDL
MODEL 9
REMARK VINA RESULT:    -3.534      2.098      3.072
REMARK INTER + INTRA:          -4.793
REMARK INTER:                  -4.504
REMARK INTRA:                  -0.289
REMARK UNBOUND:                -0.226
REMARK SMILES CCCCCCC(=O)[O-]
REMARK SMILES IDX 5 1 6 2 7 3 8 4 9 5 4 6 3 7 2 8 1 9
REMARK H PARENT
REMARK Flexibility Score: inf
ROOT
ATOM      1  C   UNL     1      51.877  -3.425  10.801  1.00  0.00     0.006 C 
ENDROOT
BRANCH   1   2
ATOM      2  C   UNL     1      52.371  -4.611   9.961  1.00  0.00     0.053 C 
BRANCH   2   3
ATOM      3  C   UNL     1      53.490  -4.217   9.046  1.00  0.00     0.041 C 
ATOM      4  O   UNL     1      54.450  -3.528   9.481  1.00  0.00    -0.550 OA
ATOM      5  O   UNL     1      53.456  -4.581   7.707  1.00  0.00    -0.550 OA
ENDBRANCH   2   3
ENDBRANCH   1   2
BRANCH   1   6
ATOM      6  C   UNL     1      51.792  -3.766  12.296  1.00  0.00     0.000 C 
BRANCH   6   7
ATOM      7  C   UNL     1      53.151  -4.247  12.828  1.00  0.00    -0.000 C 
BRANCH   7   8
ATOM      8  C   UNL     1      54.153  -3.098  13.011  1.00  0.00    -0.003 C 
ATOM      9  C   UNL     1      55.411  -3.525  13.767  1.00  0.00     0.004 C 
ENDBRANCH   7   8
ENDBRANCH   6   7
ENDBRANCH   1   6
TORSDOF 5
ENDMDL
