MODEL 1
REMARK VINA RESULT:    -4.114      0.000      0.000
REMARK INTER + INTRA:          -6.580
REMARK INTER:                  -6.278
REMARK INTRA:                  -0.302
REMARK UNBOUND:                -0.302
REMARK SMILES CC1=CCC[C@@H](C)C(=O)C[C@H](C(C)C)C(=O)C1
REMARK SMILES IDX 8 1 9 2 6 3 7 4 5 5 4 6 3 7 2 8 1 9 10 11 11 12 15 13 16 14
REMARK SMILES IDX 17 15 12 17 13 18 14 19
REMARK H PARENT
REMARK Flexibility Score: 70.00
ROOT
ATOM      1  C   UNL     1     -40.795  16.923  16.917  1.00  0.00     0.136 C 
ATOM      2  O   UNL     1     -41.215  16.378  17.928  1.00  0.00    -0.299 OA
ENDROOT
BRANCH   1   3
ATOM      3  C   UNL     1     -41.550  18.098  16.328  1.00  0.00     0.053 C 
ATOM      4  C   UNL     1     -41.953  19.091  17.430  1.00  0.00     0.016 C 
BRANCH   3   5
ATOM      5  C   UNL     1     -42.795  17.588  15.544  1.00  0.00     0.015 C 
BRANCH   5   6
ATOM      6  C   UNL     1     -42.817  17.891  14.027  1.00  0.00     0.028 C 
BRANCH   6   7
ATOM      7  C   UNL     1     -41.680  18.736  13.500  1.00  0.00    -0.028 C 
ATOM      8  C   UNL     1     -40.571  18.288  12.869  1.00  0.00    -0.070 CG0
ATOM      9  C   UNL     1     -39.651  19.328  12.275  1.00  0.00     0.039 C 
ATOM     10  G   UNL     1     -40.287  16.819  12.618  1.00  0.00     0.000 G0
ENDBRANCH   6   7
ENDBRANCH   5   6
ENDBRANCH   3   5
ENDBRANCH   1   3
BRANCH   1  11
ATOM     11  C   UNL     1     -39.565  16.362  16.244  1.00  0.00     0.087 C 
BRANCH  11  12
ATOM     12  C   UNL     1     -39.933  15.540  14.983  1.00  0.00     0.066 C 
BRANCH  12  13
ATOM     13  C   UNL     1     -39.416  16.153  13.677  1.00  0.00     0.140 C 
ATOM     14  O   UNL     1     -38.204  16.185  13.513  1.00  0.00    -0.299 OA
BRANCH  13  15
ATOM     15  C   UNL     1     -40.269  16.816  12.614  1.00  0.00     0.106 CG0
ATOM     16  G   UNL     1     -40.572  18.285  12.847  1.00  0.00     0.000 G0
ENDBRANCH  13  15
ENDBRANCH  12  13
BRANCH  12  17
ATOM     17  C   UNL     1     -39.691  14.008  15.149  1.00  0.00    -0.006 C 
ATOM     18  C   UNL     1     -40.750  13.259  15.969  1.00  0.00     0.008 C 
ATOM     19  C   UNL     1     -38.285  13.708  15.691  1.00  0.00     0.008 C 
ENDBRANCH  12  17
ENDBRANCH  11  12
ENDBRANCH   1  11
TORSDOF 1
ENDMDL
MODEL 2
REMARK VINA RESULT:    -3.961      1.824      4.273
REMARK INTER + INTRA:          -6.347
REMARK INTER:                  -6.060
REMARK INTRA:                  -0.287
REMARK UNBOUND:                -0.302
REMARK SMILES CC1=CCC[C@@H](C)C(=O)C[C@H](C(C)C)C(=O)C1
REMARK SMILES IDX 8 1 9 2 6 3 7 4 5 5 4 6 3 7 2 8 1 9 10 11 11 12 15 13 16 14
REMARK SMILES IDX 17 15 12 17 13 18 14 19
REMARK H PARENT
REMARK Flexibility Score: 70.00
ROOT
ATOM      1  C   UNL     1     -42.151  18.255  14.120  1.00  0.00     0.136 C 
ATOM      2  O   UNL     1     -42.429  19.441  14.009  1.00  0.00    -0.299 OA
ENDROOT
BRANCH   1   3
ATOM      3  C   UNL     1     -42.488  17.521  15.403  1.00  0.00     0.053 C 
ATOM      4  C   UNL     1     -43.982  17.667  15.734  1.00  0.00     0.016 C 
BRANCH   3   5
ATOM      5  C   UNL     1     -41.598  18.050  16.565  1.00  0.00     0.015 C 
BRANCH   5   6
ATOM      6  C   UNL     1     -40.482  17.098  17.057  1.00  0.00     0.028 C 
BRANCH   6   7
ATOM      7  C   UNL     1     -40.575  15.665  16.586  1.00  0.00    -0.028 C 
ATOM      8  C   UNL     1     -39.825  15.086  15.621  1.00  0.00    -0.070 CG0
ATOM      9  C   UNL     1     -39.972  13.594  15.438  1.00  0.00     0.039 C 
ATOM     10  G   UNL     1     -38.768  15.828  14.825  1.00  0.00     0.000 G0
ENDBRANCH   6   7
ENDBRANCH   5   6
ENDBRANCH   3   5
ENDBRANCH   1   3
BRANCH   1  11
ATOM     11  C   UNL     1     -41.415  17.571  12.992  1.00  0.00     0.087 C 
BRANCH  11  12
ATOM     12  C   UNL     1     -39.880  17.665  13.178  1.00  0.00     0.066 C 
BRANCH  12  13
ATOM     13  C   UNL     1     -39.209  16.315  13.453  1.00  0.00     0.140 C 
ATOM     14  O   UNL     1     -39.097  15.541  12.512  1.00  0.00    -0.299 OA
BRANCH  13  15
ATOM     15  C   UNL     1     -38.762  15.811  14.811  1.00  0.00     0.106 CG0
ATOM     16  G   UNL     1     -39.824  15.081  15.614  1.00  0.00     0.000 G0
ENDBRANCH  13  15
ENDBRANCH  12  13
BRANCH  12  17
ATOM     17  C   UNL     1     -39.179  18.558  12.107  1.00  0.00    -0.006 C 
ATOM     18  C   UNL     1     -37.665  18.737  12.289  1.00  0.00     0.008 C 
ATOM     19  C   UNL     1     -39.865  19.925  11.966  1.00  0.00     0.008 C 
ENDBRANCH  12  17
ENDBRANCH  11  12
ENDBRANCH   1  11
TORSDOF 1
ENDMDL
MODEL 3
REMARK VINA RESULT:    -3.884      1.853      4.126
REMARK INTER + INTRA:          -6.230
REMARK INTER:                  -5.988
REMARK INTRA:                  -0.242
REMARK UNBOUND:                -0.302
REMARK SMILES CC1=CCC[C@@H](C)C(=O)C[C@H](C(C)C)C(=O)C1
REMARK SMILES IDX 8 1 9 2 6 3 7 4 5 5 4 6 3 7 2 8 1 9 10 11 11 12 15 13 16 14
REMARK SMILES IDX 17 15 12 17 13 18 14 19
REMARK H PARENT
REMARK Flexibility Score: 70.00
ROOT
ATOM      1  C   UNL     1     -39.197  15.351  13.971  1.00  0.00     0.136 C 
ATOM      2  O   UNL     1     -39.515  14.524  13.128  1.00  0.00    -0.299 OA
ENDROOT
BRANCH   1   3
ATOM      3  C   UNL     1     -39.220  14.975  15.440  1.00  0.00     0.053 C 
ATOM      4  C   UNL     1     -40.035  13.690  15.657  1.00  0.00     0.016 C 
BRANCH   3   5
ATOM      5  C   UNL     1     -39.793  16.156  16.278  1.00  0.00     0.015 C 
BRANCH   5   6
ATOM      6  C   UNL     1     -41.317  16.397  16.162  1.00  0.00     0.028 C 
BRANCH   6   7
ATOM      7  C   UNL     1     -41.757  17.840  16.064  1.00  0.00    -0.028 C 
ATOM      8  C   UNL     1     -42.089  18.503  14.934  1.00  0.00    -0.070 CG0
ATOM      9  C   UNL     1     -42.667  19.889  15.095  1.00  0.00     0.039 C 
ATOM     10  G   UNL     1     -42.037  17.880  13.551  1.00  0.00     0.000 G0
ENDBRANCH   6   7
ENDBRANCH   5   6
ENDBRANCH   3   5
ENDBRANCH   1   3
BRANCH   1  11
ATOM     11  C   UNL     1     -38.849  16.751  13.523  1.00  0.00     0.087 C 
BRANCH  11  12
ATOM     12  C   UNL     1     -39.726  17.196  12.325  1.00  0.00     0.066 C 
BRANCH  12  13
ATOM     13  C   UNL     1     -40.820  18.200  12.703  1.00  0.00     0.140 C 
ATOM     14  O   UNL     1     -40.645  19.368  12.382  1.00  0.00    -0.299 OA
BRANCH  13  15
ATOM     15  C   UNL     1     -42.053  17.894  13.529  1.00  0.00     0.106 CG0
ATOM     16  G   UNL     1     -42.070  18.500  14.920  1.00  0.00     0.000 G0
ENDBRANCH  13  15
ENDBRANCH  12  13
BRANCH  12  17
ATOM     17  C   UNL     1     -38.899  17.551  11.050  1.00  0.00    -0.006 C 
ATOM     18  C   UNL     1     -38.915  16.491   9.940  1.00  0.00     0.008 C 
ATOM     19  C   UNL     1     -37.454  17.938  11.397  1.00  0.00     0.008 C 
ENDBRANCH  12  17
ENDBRANCH  11  12
ENDBRANCH   1  11
TORSDOF 1
ENDMDL
MODEL 4
REMARK VINA RESULT:    -3.835      1.656      3.966
REMARK INTER + INTRA:          -6.156
REMARK INTER:                  -6.030
REMARK INTRA:                  -0.126
REMARK UNBOUND:                -0.302
REMARK SMILES CC1=CCC[C@@H](C)C(=O)C[C@H](C(C)C)C(=O)C1
REMARK SMILES IDX 8 1 9 2 6 3 7 4 5 5 4 6 3 7 2 8 1 9 10 11 11 12 15 13 16 14
REMARK SMILES IDX 17 15 12 17 13 18 14 19
REMARK H PARENT
REMARK Flexibility Score: 70.00
ROOT
ATOM      1  C   UNL     1     -40.310  16.129  16.015  1.00  0.00     0.136 C 
ATOM      2  O   UNL     1     -39.737  16.757  16.895  1.00  0.00    -0.299 OA
ENDROOT
BRANCH   1   3
ATOM      3  C   UNL     1     -39.595  14.988  15.318  1.00  0.00     0.053 C 
ATOM      4  C   UNL     1     -38.120  14.930  15.746  1.00  0.00     0.016 C 
BRANCH   3   5
ATOM      5  C   UNL     1     -39.729  15.146  13.775  1.00  0.00     0.015 C 
BRANCH   5   6
ATOM      6  C   UNL     1     -38.978  16.342  13.144  1.00  0.00     0.028 C 
BRANCH   6   7
ATOM      7  C   UNL     1     -39.553  16.886  11.856  1.00  0.00    -0.028 C 
ATOM      8  C   UNL     1     -40.304  18.002  11.720  1.00  0.00    -0.070 CG0
ATOM      9  C   UNL     1     -40.623  18.448  10.313  1.00  0.00     0.039 C 
ATOM     10  G   UNL     1     -40.715  18.882  12.886  1.00  0.00     0.000 G0
ENDBRANCH   6   7
ENDBRANCH   5   6
ENDBRANCH   3   5
ENDBRANCH   1   3
BRANCH   1  11
ATOM     11  C   UNL     1     -41.699  16.556  15.604  1.00  0.00     0.087 C 
BRANCH  11  12
ATOM     12  C   UNL     1     -41.748  18.065  15.256  1.00  0.00     0.066 C 
BRANCH  12  13
ATOM     13  C   UNL     1     -41.845  18.348  13.753  1.00  0.00     0.140 C 
ATOM     14  O   UNL     1     -42.881  18.027  13.187  1.00  0.00    -0.299 OA
BRANCH  13  15
ATOM     15  C   UNL     1     -40.732  18.897  12.883  1.00  0.00     0.106 CG0
ATOM     16  G   UNL     1     -40.304  18.004  11.734  1.00  0.00     0.000 G0
ENDBRANCH  13  15
ENDBRANCH  12  13
BRANCH  12  17
ATOM     17  C   UNL     1     -42.729  18.878  16.157  1.00  0.00    -0.006 C 
ATOM     18  C   UNL     1     -42.080  19.622  17.333  1.00  0.00     0.008 C 
ATOM     19  C   UNL     1     -43.897  18.012  16.653  1.00  0.00     0.008 C 
ENDBRANCH  12  17
ENDBRANCH  11  12
ENDBRANCH   1  11
TORSDOF 1
ENDMDL
MODEL 5
REMARK VINA RESULT:    -3.795      1.483      3.830
REMARK INTER + INTRA:          -6.095
REMARK INTER:                  -5.950
REMARK INTRA:                  -0.144
REMARK UNBOUND:                -0.302
REMARK SMILES CC1=CCC[C@@H](C)C(=O)C[C@H](C(C)C)C(=O)C1
REMARK SMILES IDX 8 1 9 2 6 3 7 4 5 5 4 6 3 7 2 8 1 9 10 11 11 12 15 13 16 14
REMARK SMILES IDX 17 15 12 17 13 18 14 19
REMARK H PARENT
REMARK Flexibility Score: 70.00
ROOT
ATOM      1  C   UNL     1     -39.491  16.741  12.715  1.00  0.00     0.136 C 
ATOM      2  O   UNL     1     -38.284  16.887  12.850  1.00  0.00    -0.299 OA
ENDROOT
BRANCH   1   3
ATOM      3  C   UNL     1     -40.233  17.544  11.664  1.00  0.00     0.053 C 
ATOM      4  C   UNL     1     -39.350  17.759  10.424  1.00  0.00     0.016 C 
BRANCH   3   5
ATOM      5  C   UNL     1     -40.699  18.901  12.267  1.00  0.00     0.015 C 
BRANCH   5   6
ATOM      6  C   UNL     1     -42.172  18.967  12.738  1.00  0.00     0.028 C 
BRANCH   6   7
ATOM      7  C   UNL     1     -42.402  19.508  14.131  1.00  0.00    -0.028 C 
ATOM      8  C   UNL     1     -42.451  18.788  15.275  1.00  0.00    -0.070 CG0
ATOM      9  C   UNL     1     -42.519  19.560  16.571  1.00  0.00     0.039 C 
ATOM     10  G   UNL     1     -42.306  17.278  15.320  1.00  0.00     0.000 G0
ENDBRANCH   6   7
ENDBRANCH   5   6
ENDBRANCH   3   5
ENDBRANCH   1   3
BRANCH   1  11
ATOM     11  C   UNL     1     -40.221  15.806  13.650  1.00  0.00     0.087 C 
BRANCH  11  12
ATOM     12  C   UNL     1     -39.865  16.094  15.130  1.00  0.00     0.066 C 
BRANCH  12  13
ATOM     13  C   UNL     1     -40.997  16.768  15.915  1.00  0.00     0.140 C 
ATOM     14  O   UNL     1     -40.874  16.837  17.130  1.00  0.00    -0.299 OA
BRANCH  13  15
ATOM     15  C   UNL     1     -42.302  17.268  15.328  1.00  0.00     0.106 CG0
ATOM     16  G   UNL     1     -42.449  18.777  15.259  1.00  0.00     0.000 G0
ENDBRANCH  13  15
ENDBRANCH  12  13
BRANCH  12  17
ATOM     17  C   UNL     1     -39.174  14.893  15.847  1.00  0.00    -0.006 C 
ATOM     18  C   UNL     1     -37.649  14.818  15.683  1.00  0.00     0.008 C 
ATOM     19  C   UNL     1     -39.818  13.552  15.463  1.00  0.00     0.008 C 
ENDBRANCH  12  17
ENDBRANCH  11  12
ENDBRANCH   1  11
TORSDOF 1
ENDMDL
MODEL 6
REMARK VINA RESULT:    -3.556      1.781      4.669
REMARK INTER + INTRA:          -5.730
REMARK INTER:                  -5.492
REMARK INTRA:                  -0.237
REMARK UNBOUND:                -0.302
REMARK SMILES CC1=CCC[C@@H](C)C(=O)C[C@H](C(C)C)C(=O)C1
REMARK SMILES IDX 8 1 9 2 6 3 7 4 5 5 4 6 3 7 2 8 1 9 10 11 11 12 15 13 16 14
REMARK SMILES IDX 17 15 12 17 13 18 14 19
REMARK H PARENT
REMARK Flexibility Score: 70.00
ROOT
ATOM      1  C   UNL     1     -41.790  18.269  13.439  1.00  0.00     0.136 C 
ATOM      2  O   UNL     1     -42.914  17.876  13.162  1.00  0.00    -0.299 OA
ENDROOT
BRANCH   1   3
ATOM      3  C   UNL     1     -40.704  18.246  12.380  1.00  0.00     0.053 C 
ATOM      4  C   UNL     1     -41.020  19.247  11.258  1.00  0.00     0.016 C 
BRANCH   3   5
ATOM      5  C   UNL     1     -40.543  16.802  11.820  1.00  0.00     0.015 C 
BRANCH   5   6
ATOM      6  C   UNL     1     -39.333  15.996  12.352  1.00  0.00     0.028 C 
BRANCH   6   7
ATOM      7  C   UNL     1     -39.650  14.885  13.327  1.00  0.00    -0.028 C 
ATOM      8  C   UNL     1     -39.753  15.000  14.670  1.00  0.00    -0.070 CG0
ATOM      9  C   UNL     1     -40.250  13.792  15.428  1.00  0.00     0.039 C 
ATOM     10  G   UNL     1     -39.527  16.301  15.418  1.00  0.00     0.000 G0
ENDBRANCH   6   7
ENDBRANCH   5   6
ENDBRANCH   3   5
ENDBRANCH   1   3
BRANCH   1  11
ATOM     11  C   UNL     1     -41.499  18.708  14.854  1.00  0.00     0.087 C 
BRANCH  11  12
ATOM     12  C   UNL     1     -41.879  17.608  15.877  1.00  0.00     0.066 C 
BRANCH  12  13
ATOM     13  C   UNL     1     -40.695  16.736  16.311  1.00  0.00     0.140 C 
ATOM     14  O   UNL     1     -40.626  16.430  17.493  1.00  0.00    -0.299 OA
BRANCH  13  15
ATOM     15  C   UNL     1     -39.545  16.303  15.423  1.00  0.00     0.106 CG0
ATOM     16  G   UNL     1     -39.756  14.998  14.677  1.00  0.00     0.000 G0
ENDBRANCH  13  15
ENDBRANCH  12  13
BRANCH  12  17
ATOM     17  C   UNL     1     -42.792  18.124  17.033  1.00  0.00    -0.006 C 
ATOM     18  C   UNL     1     -44.301  18.027  16.771  1.00  0.00     0.008 C 
ATOM     19  C   UNL     1     -42.415  19.549  17.464  1.00  0.00     0.008 C 
ENDBRANCH  12  17
ENDBRANCH  11  12
ENDBRANCH   1  11
TORSDOF 1
ENDMDL
MODEL 7
REMARK VINA RESULT:    -3.459      3.839      5.807
REMARK INTER + INTRA:          -5.581
REMARK INTER:                  -5.671
REMARK INTRA:                   0.091
REMARK UNBOUND:                -0.302
REMARK SMILES CC1=CCC[C@@H](C)C(=O)C[C@H](C(C)C)C(=O)C1
REMARK SMILES IDX 8 1 9 2 6 3 7 4 5 5 4 6 3 7 2 8 1 9 10 11 11 12 15 13 16 14
REMARK SMILES IDX 17 15 12 17 13 18 14 19
REMARK H PARENT
REMARK Flexibility Score: 70.00
ROOT
ATOM      1  C   UNL     1     -39.645  15.789  10.982  1.00  0.00     0.136 C 
ATOM      2  O   UNL     1     -40.625  15.065  10.870  1.00  0.00    -0.299 OA
ENDROOT
BRANCH   1   3
ATOM      3  C   UNL     1     -39.791  17.158  11.617  1.00  0.00     0.053 C 
ATOM      4  C   UNL     1     -40.842  17.128  12.737  1.00  0.00     0.016 C 
BRANCH   3   5
ATOM      5  C   UNL     1     -40.157  18.209  10.527  1.00  0.00     0.015 C 
BRANCH   5   6
ATOM      6  C   UNL     1     -39.270  19.476  10.477  1.00  0.00     0.028 C 
BRANCH   6   7
ATOM      7  C   UNL     1     -38.276  19.638  11.604  1.00  0.00    -0.028 C 
ATOM      8  C   UNL     1     -36.972  19.281  11.584  1.00  0.00    -0.070 CG0
ATOM      9  C   UNL     1     -36.127  19.698  12.764  1.00  0.00     0.039 C 
ATOM     10  G   UNL     1     -36.306  18.614  10.394  1.00  0.00     0.000 G0
ENDBRANCH   6   7
ENDBRANCH   5   6
ENDBRANCH   3   5
ENDBRANCH   1   3
BRANCH   1  11
ATOM     11  C   UNL     1     -38.324  15.318  10.422  1.00  0.00     0.087 C 
BRANCH  11  12
ATOM     12  C   UNL     1     -37.646  16.419   9.569  1.00  0.00     0.066 C 
BRANCH  12  13
ATOM     13  C   UNL     1     -36.480  17.117  10.278  1.00  0.00     0.140 C 
ATOM     14  O   UNL     1     -35.677  16.408  10.868  1.00  0.00    -0.299 OA
BRANCH  13  15
ATOM     15  C   UNL     1     -36.291  18.616  10.401  1.00  0.00     0.106 CG0
ATOM     16  G   UNL     1     -36.979  19.263  11.589  1.00  0.00     0.000 G0
ENDBRANCH  13  15
ENDBRANCH  12  13
BRANCH  12  17
ATOM     17  C   UNL     1     -37.371  15.982   8.096  1.00  0.00    -0.006 C 
ATOM     18  C   UNL     1     -36.893  14.534   7.919  1.00  0.00     0.008 C 
ATOM     19  C   UNL     1     -36.415  16.950   7.383  1.00  0.00     0.008 C 
ENDBRANCH  12  17
ENDBRANCH  11  12
ENDBRANCH   1  11
TORSDOF 1
ENDMDL
MODEL 8
REMARK VINA RESULT:    -3.419      2.799      4.960
REMARK INTER + INTRA:          -5.520
REMARK INTER:                  -5.825
REMARK INTRA:                   0.305
REMARK UNBOUND:                -0.302
REMARK SMILES CC1=CCC[C@@H](C)C(=O)C[C@H](C(C)C)C(=O)C1
REMARK SMILES IDX 8 1 9 2 6 3 7 4 5 5 4 6 3 7 2 8 1 9 10 11 11 12 15 13 16 14
REMARK SMILES IDX 17 15 12 17 13 18 14 19
REMARK H PARENT
REMARK Flexibility Score: 70.00
ROOT
ATOM      1  C   UNL     1     -36.911  17.611  12.304  1.00  0.00     0.136 C 
ATOM      2  O   UNL     1     -36.201  16.740  11.822  1.00  0.00    -0.299 OA
ENDROOT
BRANCH   1   3
ATOM      3  C   UNL     1     -36.677  19.063  11.933  1.00  0.00     0.053 C 
ATOM      4  C   UNL     1     -35.882  19.782  13.034  1.00  0.00     0.016 C 
BRANCH   3   5
ATOM      5  C   UNL     1     -38.040  19.767  11.668  1.00  0.00     0.015 C 
BRANCH   5   6
ATOM      6  C   UNL     1     -38.566  19.707  10.214  1.00  0.00     0.028 C 
BRANCH   6   7
ATOM      7  C   UNL     1     -37.982  18.623   9.338  1.00  0.00    -0.028 C 
ATOM      8  C   UNL     1     -38.447  17.361   9.203  1.00  0.00    -0.070 CG0
ATOM      9  C   UNL     1     -37.806  16.502   8.138  1.00  0.00     0.039 C 
ATOM     10  G   UNL     1     -39.647  16.826   9.962  1.00  0.00     0.000 G0
ENDBRANCH   6   7
ENDBRANCH   5   6
ENDBRANCH   3   5
ENDBRANCH   1   3
BRANCH   1  11
ATOM     11  C   UNL     1     -37.965  17.217  13.312  1.00  0.00     0.087 C 
BRANCH  11  12
ATOM     12  C   UNL     1     -39.362  17.098  12.652  1.00  0.00     0.066 C 
BRANCH  12  13
ATOM     13  C   UNL     1     -39.362  16.281  11.355  1.00  0.00     0.140 C 
ATOM     14  O   UNL     1     -39.024  15.108  11.431  1.00  0.00    -0.299 OA
BRANCH  13  15
ATOM     15  C   UNL     1     -39.647  16.824   9.969  1.00  0.00     0.106 CG0
ATOM     16  G   UNL     1     -38.437  17.339   9.212  1.00  0.00     0.000 G0
ENDBRANCH  13  15
ENDBRANCH  12  13
BRANCH  12  17
ATOM     17  C   UNL     1     -40.498  16.752  13.665  1.00  0.00    -0.006 C 
ATOM     18  C   UNL     1     -41.459  17.903  13.993  1.00  0.00     0.008 C 
ATOM     19  C   UNL     1     -39.942  16.135  14.957  1.00  0.00     0.008 C 
ENDBRANCH  12  17
ENDBRANCH  11  12
ENDBRANCH   1  11
TORSDOF 1
ENDMDL
MODEL 9
REMARK VINA RESULT:    -3.360      4.437      6.561
REMARK INTER + INTRA:          -5.431
REMARK INTER:                  -5.572
REMARK INTRA:                   0.141
REMARK UNBOUND:                -0.302
REMARK SMILES CC1=CCC[C@@H](C)C(=O)C[C@H](C(C)C)C(=O)C1
REMARK SMILES IDX 8 1 9 2 6 3 7 4 5 5 4 6 3 7 2 8 1 9 10 11 11 12 15 13 16 14
REMARK SMILES IDX 17 15 12 17 13 18 14 19
REMARK H PARENT
REMARK Flexibility Score: 70.00
ROOT
ATOM      1  C   UNL     1     -36.150  18.483  10.983  1.00  0.00     0.136 C 
ATOM      2  O   UNL     1     -35.860  17.513  11.669  1.00  0.00    -0.299 OA
ENDROOT
BRANCH   1   3
ATOM      3  C   UNL     1     -36.468  19.807  11.649  1.00  0.00     0.053 C 
ATOM      4  C   UNL     1     -35.497  20.077  12.809  1.00  0.00     0.016 C 
BRANCH   3   5
ATOM      5  C   UNL     1     -37.947  19.811  12.138  1.00  0.00     0.015 C 
BRANCH   5   6
ATOM      6  C   UNL     1     -39.004  19.333  11.114  1.00  0.00     0.028 C 
BRANCH   6   7
ATOM      7  C   UNL     1     -39.693  18.025  11.429  1.00  0.00    -0.028 C 
ATOM      8  C   UNL     1     -39.684  16.908  10.668  1.00  0.00    -0.070 CG0
ATOM      9  C   UNL     1     -40.298  15.664  11.265  1.00  0.00     0.039 C 
ATOM     10  G   UNL     1     -38.980  16.815   9.327  1.00  0.00     0.000 G0
ENDBRANCH   6   7
ENDBRANCH   5   6
ENDBRANCH   3   5
ENDBRANCH   1   3
BRANCH   1  11
ATOM     11  C   UNL     1     -36.245  18.314   9.485  1.00  0.00     0.087 C 
BRANCH  11  12
ATOM     12  C   UNL     1     -36.269  16.817   9.085  1.00  0.00     0.066 C 
BRANCH  12  13
ATOM     13  C   UNL     1     -37.615  16.132   9.344  1.00  0.00     0.140 C 
ATOM     14  O   UNL     1     -37.606  14.920   9.507  1.00  0.00    -0.299 OA
BRANCH  13  15
ATOM     15  C   UNL     1     -38.971  16.810   9.317  1.00  0.00     0.106 CG0
ATOM     16  G   UNL     1     -39.676  16.907  10.657  1.00  0.00     0.000 G0
ENDBRANCH  13  15
ENDBRANCH  12  13
BRANCH  12  17
ATOM     17  C   UNL     1     -35.632  16.538   7.688  1.00  0.00    -0.006 C 
ATOM     18  C   UNL     1     -34.388  15.639   7.700  1.00  0.00     0.008 C 
ATOM     19  C   UNL     1     -35.342  17.839   6.923  1.00  0.00     0.008 C 
ENDBRANCH  12  17
ENDBRANCH  11  12
ENDBRANCH   1  11
TORSDOF 1
ENDMDL
