MODEL 1
REMARK VINA RESULT:    -5.233      0.000      0.000
REMARK INTER + INTRA:         -10.525
REMARK INTER:                  -9.517
REMARK INTRA:                  -1.008
REMARK UNBOUND:                -1.008
REMARK SMILES CCCCCCCCCCCCCC[C@@H](C)C(=O)[O-]
REMARK SMILES IDX 9 1 10 2 11 3 12 4 13 5 14 6 15 7 16 8 17 9 18 10 19 11 8 12
REMARK SMILES IDX 7 13 6 14 5 15 4 16 3 17 2 18 1 19
REMARK H PARENT
REMARK Flexibility Score: inf
ROOT
ATOM      1  C   UNL     1      12.287  -8.470   2.492  1.00  0.00     0.000 C 
ENDROOT
BRANCH   1   2
ATOM      2  C   UNL     1      12.784  -9.784   1.859  1.00  0.00     0.000 C 
BRANCH   2   3
ATOM      3  C   UNL     1      13.608  -9.616   0.569  1.00  0.00     0.000 C 
BRANCH   3   4
ATOM      4  C   UNL     1      13.554  -8.212  -0.063  1.00  0.00     0.000 C 
BRANCH   4   5
ATOM      5  C   UNL     1      14.798  -7.862  -0.909  1.00  0.00     0.001 C 
BRANCH   5   6
ATOM      6  C   UNL     1      14.472  -7.755  -2.412  1.00  0.00     0.009 C 
BRANCH   6   7
ATOM      7  C   UNL     1      12.970  -7.888  -2.751  1.00  0.00     0.032 C 
ATOM      8  C   UNL     1      12.330  -6.547  -3.135  1.00  0.00     0.014 C 
BRANCH   7   9
ATOM      9  C   UNL     1      12.725  -8.942  -3.800  1.00  0.00     0.044 C 
ATOM     10  O   UNL     1      13.085 -10.130  -3.591  1.00  0.00    -0.550 OA
ATOM     11  O   UNL     1      12.152  -8.608  -5.022  1.00  0.00    -0.550 OA
ENDBRANCH   7   9
ENDBRANCH   6   7
ENDBRANCH   5   6
ENDBRANCH   4   5
ENDBRANCH   3   4
ENDBRANCH   2   3
ENDBRANCH   1   2
BRANCH   1  12
ATOM     12  C   UNL     1      12.319  -8.496   4.029  1.00  0.00     0.000 C 
BRANCH  12  13
ATOM     13  C   UNL     1      13.086  -9.708   4.582  1.00  0.00    -0.000 C 
BRANCH  13  14
ATOM     14  C   UNL     1      12.221 -10.595   5.491  1.00  0.00    -0.000 C 
BRANCH  14  15
ATOM     15  C   UNL     1      11.420 -11.610   4.665  1.00  0.00    -0.000 C 
BRANCH  15  16
ATOM     16  C   UNL     1      10.028 -11.835   5.267  1.00  0.00    -0.000 C 
BRANCH  16  17
ATOM     17  C   UNL     1       9.806 -13.319   5.598  1.00  0.00    -0.000 C 
BRANCH  17  18
ATOM     18  C   UNL     1       8.569 -13.548   6.480  1.00  0.00    -0.003 C 
ATOM     19  C   UNL     1       7.874 -12.245   6.874  1.00  0.00     0.004 C 
ENDBRANCH  17  18
ENDBRANCH  16  17
ENDBRANCH  15  16
ENDBRANCH  14  15
ENDBRANCH  13  14
ENDBRANCH  12  13
ENDBRANCH   1  12
TORSDOF 14
ENDMDL
MODEL 2
REMARK VINA RESULT:    -5.233      7.534     11.640
REMARK INTER + INTRA:         -10.524
REMARK INTER:                  -9.594
REMARK INTRA:                  -0.931
REMARK UNBOUND:                -1.008
REMARK SMILES CCCCCCCCCCCCCC[C@@H](C)C(=O)[O-]
REMARK SMILES IDX 9 1 10 2 11 3 12 4 13 5 14 6 15 7 16 8 17 9 18 10 19 11 8 12
REMARK SMILES IDX 7 13 6 14 5 15 4 16 3 17 2 18 1 19
REMARK H PARENT
REMARK Flexibility Score: inf
ROOT
ATOM      1  C   UNL     1       4.633 -16.883   4.056  1.00  0.00     0.000 C 
ENDROOT
BRANCH   1   2
ATOM      2  C   UNL     1       6.089 -17.374   3.940  1.00  0.00     0.000 C 
BRANCH   2   3
ATOM      3  C   UNL     1       7.161 -16.297   4.193  1.00  0.00     0.000 C 
BRANCH   3   4
ATOM      4  C   UNL     1       6.871 -15.349   5.372  1.00  0.00     0.000 C 
BRANCH   4   5
ATOM      5  C   UNL     1       7.698 -15.661   6.639  1.00  0.00     0.001 C 
BRANCH   5   6
ATOM      6  C   UNL     1       8.674 -14.522   6.996  1.00  0.00     0.009 C 
BRANCH   6   7
ATOM      7  C   UNL     1       8.453 -13.218   6.197  1.00  0.00     0.032 C 
ATOM      8  C   UNL     1       7.815 -12.108   7.045  1.00  0.00     0.014 C 
BRANCH   7   9
ATOM      9  C   UNL     1       9.720 -12.749   5.530  1.00  0.00     0.044 C 
ATOM     10  O   UNL     1      10.033 -11.531   5.567  1.00  0.00    -0.550 OA
ATOM     11  O   UNL     1      10.524 -13.640   4.828  1.00  0.00    -0.550 OA
ENDBRANCH   7   9
ENDBRANCH   6   7
ENDBRANCH   5   6
ENDBRANCH   4   5
ENDBRANCH   3   4
ENDBRANCH   2   3
ENDBRANCH   1   2
BRANCH   1  12
ATOM     12  C   UNL     1       3.617 -17.886   3.483  1.00  0.00     0.000 C 
BRANCH  12  13
ATOM     13  C   UNL     1       4.188 -18.699   2.310  1.00  0.00    -0.000 C 
BRANCH  13  14
ATOM     14  C   UNL     1       3.771 -18.140   0.941  1.00  0.00    -0.000 C 
BRANCH  14  15
ATOM     15  C   UNL     1       4.798 -18.506  -0.138  1.00  0.00    -0.000 C 
BRANCH  15  16
ATOM     16  C   UNL     1       4.279 -18.151  -1.536  1.00  0.00    -0.000 C 
BRANCH  16  17
ATOM     17  C   UNL     1       2.797 -17.751  -1.488  1.00  0.00    -0.000 C 
BRANCH  17  18
ATOM     18  C   UNL     1       2.077 -17.985  -2.825  1.00  0.00    -0.003 C 
ATOM     19  C   UNL     1       2.937 -18.746  -3.833  1.00  0.00     0.004 C 
ENDBRANCH  17  18
ENDBRANCH  16  17
ENDBRANCH  15  16
ENDBRANCH  14  15
ENDBRANCH  13  14
ENDBRANCH  12  13
ENDBRANCH   1  12
TORSDOF 14
ENDMDL
MODEL 3
REMARK VINA RESULT:    -5.203      6.544     10.044
REMARK INTER + INTRA:         -10.469
REMARK INTER:                  -9.543
REMARK INTRA:                  -0.926
REMARK UNBOUND:                -1.008
REMARK SMILES CCCCCCCCCCCCCC[C@@H](C)C(=O)[O-]
REMARK SMILES IDX 9 1 10 2 11 3 12 4 13 5 14 6 15 7 16 8 17 9 18 10 19 11 8 12
REMARK SMILES IDX 7 13 6 14 5 15 4 16 3 17 2 18 1 19
REMARK H PARENT
REMARK Flexibility Score: inf
ROOT
ATOM      1  C   UNL     1      11.414 -12.179  -7.245  1.00  0.00     0.000 C 
ENDROOT
BRANCH   1   2
ATOM      2  C   UNL     1      11.355 -10.905  -8.108  1.00  0.00     0.000 C 
BRANCH   2   3
ATOM      3  C   UNL     1      11.531  -9.584  -7.334  1.00  0.00     0.000 C 
BRANCH   3   4
ATOM      4  C   UNL     1      12.355  -9.692  -6.038  1.00  0.00     0.000 C 
BRANCH   4   5
ATOM      5  C   UNL     1      11.685  -9.024  -4.816  1.00  0.00     0.001 C 
BRANCH   5   6
ATOM      6  C   UNL     1      12.582  -9.062  -3.563  1.00  0.00     0.009 C 
BRANCH   6   7
ATOM      7  C   UNL     1      13.202  -7.700  -3.179  1.00  0.00     0.032 C 
ATOM      8  C   UNL     1      12.166  -6.718  -2.614  1.00  0.00     0.014 C 
BRANCH   7   9
ATOM      9  C   UNL     1      14.378  -7.862  -2.252  1.00  0.00     0.044 C 
ATOM     10  O   UNL     1      15.524  -8.081  -2.725  1.00  0.00    -0.550 OA
ATOM     11  O   UNL     1      14.205  -7.825  -0.873  1.00  0.00    -0.550 OA
ENDBRANCH   7   9
ENDBRANCH   6   7
ENDBRANCH   5   6
ENDBRANCH   4   5
ENDBRANCH   3   4
ENDBRANCH   2   3
ENDBRANCH   1   2
BRANCH   1  12
ATOM     12  C   UNL     1      10.034 -12.615  -6.727  1.00  0.00     0.000 C 
BRANCH  12  13
ATOM     13  C   UNL     1       8.890 -12.179  -7.657  1.00  0.00    -0.000 C 
BRANCH  13  14
ATOM     14  C   UNL     1       7.676 -13.118  -7.586  1.00  0.00    -0.000 C 
BRANCH  14  15
ATOM     15  C   UNL     1       7.637 -14.058  -8.798  1.00  0.00    -0.000 C 
BRANCH  15  16
ATOM     16  C   UNL     1       6.513 -15.091  -8.659  1.00  0.00    -0.000 C 
BRANCH  16  17
ATOM     17  C   UNL     1       5.225 -14.436  -8.136  1.00  0.00    -0.000 C 
BRANCH  17  18
ATOM     18  C   UNL     1       4.654 -15.156  -6.905  1.00  0.00    -0.003 C 
ATOM     19  C   UNL     1       5.689 -16.031  -6.198  1.00  0.00     0.004 C 
ENDBRANCH  17  18
ENDBRANCH  16  17
ENDBRANCH  15  16
ENDBRANCH  14  15
ENDBRANCH  13  14
ENDBRANCH  12  13
ENDBRANCH   1  12
TORSDOF 14
ENDMDL
MODEL 4
REMARK VINA RESULT:    -5.156      2.582      5.179
REMARK INTER + INTRA:         -10.383
REMARK INTER:                  -9.429
REMARK INTRA:                  -0.955
REMARK UNBOUND:                -1.008
REMARK SMILES CCCCCCCCCCCCCC[C@@H](C)C(=O)[O-]
REMARK SMILES IDX 9 1 10 2 11 3 12 4 13 5 14 6 15 7 16 8 17 9 18 10 19 11 8 12
REMARK SMILES IDX 7 13 6 14 5 15 4 16 3 17 2 18 1 19
REMARK H PARENT
REMARK Flexibility Score: inf
ROOT
ATOM      1  C   UNL     1      14.343  -7.763  -2.011  1.00  0.00     0.000 C 
ENDROOT
BRANCH   1   2
ATOM      2  C   UNL     1      13.140  -7.039  -2.644  1.00  0.00     0.000 C 
BRANCH   2   3
ATOM      3  C   UNL     1      12.530  -7.739  -3.873  1.00  0.00     0.000 C 
BRANCH   3   4
ATOM      4  C   UNL     1      12.597  -9.278  -3.848  1.00  0.00     0.000 C 
BRANCH   4   5
ATOM      5  C   UNL     1      12.482  -9.929  -5.244  1.00  0.00     0.001 C 
BRANCH   5   6
ATOM      6  C   UNL     1      11.343  -9.316  -6.083  1.00  0.00     0.009 C 
BRANCH   6   7
ATOM      7  C   UNL     1      11.196  -9.919  -7.499  1.00  0.00     0.032 C 
ATOM      8  C   UNL     1      11.864 -11.296  -7.625  1.00  0.00     0.014 C 
BRANCH   7   9
ATOM      9  C   UNL     1       9.758  -9.956  -7.944  1.00  0.00     0.044 C 
ATOM     10  O   UNL     1       9.151  -8.881  -8.191  1.00  0.00    -0.550 OA
ATOM     11  O   UNL     1       9.073 -11.162  -8.035  1.00  0.00    -0.550 OA
ENDBRANCH   7   9
ENDBRANCH   6   7
ENDBRANCH   5   6
ENDBRANCH   4   5
ENDBRANCH   3   4
ENDBRANCH   2   3
ENDBRANCH   1   2
BRANCH   1  12
ATOM     12  C   UNL     1      14.146  -8.054  -0.514  1.00  0.00     0.000 C 
BRANCH  12  13
ATOM     13  C   UNL     1      13.589  -9.464  -0.255  1.00  0.00    -0.000 C 
BRANCH  13  14
ATOM     14  C   UNL     1      12.481  -9.478   0.810  1.00  0.00    -0.000 C 
BRANCH  14  15
ATOM     15  C   UNL     1      12.649  -8.312   1.792  1.00  0.00    -0.000 C 
BRANCH  15  16
ATOM     16  C   UNL     1      11.831  -8.543   3.068  1.00  0.00    -0.000 C 
BRANCH  16  17
ATOM     17  C   UNL     1      12.750  -8.733   4.284  1.00  0.00    -0.000 C 
BRANCH  17  18
ATOM     18  C   UNL     1      13.103 -10.207   4.533  1.00  0.00    -0.003 C 
ATOM     19  C   UNL     1      11.977 -10.976   5.225  1.00  0.00     0.004 C 
ENDBRANCH  17  18
ENDBRANCH  16  17
ENDBRANCH  15  16
ENDBRANCH  14  15
ENDBRANCH  13  14
ENDBRANCH  12  13
ENDBRANCH   1  12
TORSDOF 14
ENDMDL
MODEL 5
REMARK VINA RESULT:    -5.155      7.025     10.617
REMARK INTER + INTRA:         -10.383
REMARK INTER:                  -9.399
REMARK INTRA:                  -0.984
REMARK UNBOUND:                -1.008
REMARK SMILES CCCCCCCCCCCCCC[C@@H](C)C(=O)[O-]
REMARK SMILES IDX 9 1 10 2 11 3 12 4 13 5 14 6 15 7 16 8 17 9 18 10 19 11 8 12
REMARK SMILES IDX 7 13 6 14 5 15 4 16 3 17 2 18 1 19
REMARK H PARENT
REMARK Flexibility Score: inf
ROOT
ATOM      1  C   UNL     1      10.976 -10.296  -7.941  1.00  0.00     0.000 C 
ENDROOT
BRANCH   1   2
ATOM      2  C   UNL     1       9.464 -10.057  -7.773  1.00  0.00     0.000 C 
BRANCH   2   3
ATOM      3  C   UNL     1       8.607 -11.334  -7.685  1.00  0.00     0.000 C 
BRANCH   3   4
ATOM      4  C   UNL     1       9.392 -12.628  -7.399  1.00  0.00     0.000 C 
BRANCH   4   5
ATOM      5  C   UNL     1       8.559 -13.916  -7.588  1.00  0.00     0.001 C 
BRANCH   5   6
ATOM      6  C   UNL     1       7.432 -13.737  -8.625  1.00  0.00     0.009 C 
BRANCH   6   7
ATOM      7  C   UNL     1       6.472 -14.943  -8.738  1.00  0.00     0.032 C 
ATOM      8  C   UNL     1       7.204 -16.290  -8.663  1.00  0.00     0.014 C 
BRANCH   7   9
ATOM      9  C   UNL     1       5.352 -14.861  -7.733  1.00  0.00     0.044 C 
ATOM     10  O   UNL     1       5.410 -15.539  -6.674  1.00  0.00    -0.550 OA
ATOM     11  O   UNL     1       4.227 -14.083  -7.985  1.00  0.00    -0.550 OA
ENDBRANCH   7   9
ENDBRANCH   6   7
ENDBRANCH   5   6
ENDBRANCH   4   5
ENDBRANCH   3   4
ENDBRANCH   2   3
ENDBRANCH   1   2
BRANCH   1  12
ATOM     12  C   UNL     1      11.811  -9.652  -6.822  1.00  0.00     0.000 C 
BRANCH  12  13
ATOM     13  C   UNL     1      10.961  -9.258  -5.603  1.00  0.00    -0.000 C 
BRANCH  13  14
ATOM     14  C   UNL     1      11.808  -8.998  -4.347  1.00  0.00    -0.000 C 
BRANCH  14  15
ATOM     15  C   UNL     1      10.950  -8.414  -3.218  1.00  0.00    -0.000 C 
BRANCH  15  16
ATOM     16  C   UNL     1      11.655  -7.230  -2.546  1.00  0.00    -0.000 C 
BRANCH  16  17
ATOM     17  C   UNL     1      13.079  -7.054  -3.095  1.00  0.00    -0.000 C 
BRANCH  17  18
ATOM     18  C   UNL     1      14.158  -7.400  -2.058  1.00  0.00    -0.003 C 
ATOM     19  C   UNL     1      15.175  -8.416  -2.578  1.00  0.00     0.004 C 
ENDBRANCH  17  18
ENDBRANCH  16  17
ENDBRANCH  15  16
ENDBRANCH  14  15
ENDBRANCH  13  14
ENDBRANCH  12  13
ENDBRANCH   1  12
TORSDOF 14
ENDMDL
MODEL 6
REMARK VINA RESULT:    -5.117      9.465     11.271
REMARK INTER + INTRA:         -10.313
REMARK INTER:                  -9.169
REMARK INTRA:                  -1.144
REMARK UNBOUND:                -1.008
REMARK SMILES CCCCCCCCCCCCCC[C@@H](C)C(=O)[O-]
REMARK SMILES IDX 9 1 10 2 11 3 12 4 13 5 14 6 15 7 16 8 17 9 18 10 19 11 8 12
REMARK SMILES IDX 7 13 6 14 5 15 4 16 3 17 2 18 1 19
REMARK H PARENT
REMARK Flexibility Score: inf
ROOT
ATOM      1  C   UNL     1       6.724 -16.412  -6.316  1.00  0.00     0.000 C 
ENDROOT
BRANCH   1   2
ATOM      2  C   UNL     1       7.547 -16.241  -7.607  1.00  0.00     0.000 C 
BRANCH   2   3
ATOM      3  C   UNL     1       6.911 -15.325  -8.669  1.00  0.00     0.000 C 
BRANCH   3   4
ATOM      4  C   UNL     1       7.634 -13.984  -8.894  1.00  0.00     0.000 C 
BRANCH   4   5
ATOM      5  C   UNL     1       7.651 -13.069  -7.649  1.00  0.00     0.001 C 
BRANCH   5   6
ATOM      6  C   UNL     1       9.068 -12.563  -7.314  1.00  0.00     0.009 C 
BRANCH   6   7
ATOM      7  C   UNL     1       9.329 -11.090  -7.701  1.00  0.00     0.032 C 
ATOM      8  C   UNL     1       8.677 -10.099  -6.726  1.00  0.00     0.014 C 
BRANCH   7   9
ATOM      9  C   UNL     1      10.799 -10.811  -7.879  1.00  0.00     0.044 C 
ATOM     10  O   UNL     1      11.190  -9.635  -8.101  1.00  0.00    -0.550 OA
ATOM     11  O   UNL     1      11.726 -11.845  -7.853  1.00  0.00    -0.550 OA
ENDBRANCH   7   9
ENDBRANCH   6   7
ENDBRANCH   5   6
ENDBRANCH   4   5
ENDBRANCH   3   4
ENDBRANCH   2   3
ENDBRANCH   1   2
BRANCH   1  12
ATOM     12  C   UNL     1       5.323 -15.786  -6.413  1.00  0.00     0.000 C 
BRANCH  12  13
ATOM     13  C   UNL     1       4.400 -16.222  -5.262  1.00  0.00    -0.000 C 
BRANCH  13  14
ATOM     14  C   UNL     1       4.736 -17.624  -4.731  1.00  0.00    -0.000 C 
BRANCH  14  15
ATOM     15  C   UNL     1       3.562 -18.588  -4.944  1.00  0.00    -0.000 C 
BRANCH  15  16
ATOM     16  C   UNL     1       3.191 -19.302  -3.640  1.00  0.00    -0.000 C 
BRANCH  16  17
ATOM     17  C   UNL     1       3.241 -18.334  -2.448  1.00  0.00    -0.000 C 
BRANCH  17  18
ATOM     18  C   UNL     1       1.957 -17.502  -2.308  1.00  0.00    -0.003 C 
ATOM     19  C   UNL     1       2.221 -15.997  -2.334  1.00  0.00     0.004 C 
ENDBRANCH  17  18
ENDBRANCH  16  17
ENDBRANCH  15  16
ENDBRANCH  14  15
ENDBRANCH  13  14
ENDBRANCH  12  13
ENDBRANCH   1  12
TORSDOF 14
ENDMDL
MODEL 7
REMARK VINA RESULT:    -5.090      3.839      8.997
REMARK INTER + INTRA:         -10.265
REMARK INTER:                  -9.050
REMARK INTRA:                  -1.214
REMARK UNBOUND:                -1.008
REMARK SMILES CCCCCCCCCCCCCC[C@@H](C)C(=O)[O-]
REMARK SMILES IDX 9 1 10 2 11 3 12 4 13 5 14 6 15 7 16 8 17 9 18 10 19 11 8 12
REMARK SMILES IDX 7 13 6 14 5 15 4 16 3 17 2 18 1 19
REMARK H PARENT
REMARK Flexibility Score: inf
ROOT
ATOM      1  C   UNL     1      13.148  -9.763   4.373  1.00  0.00     0.000 C 
ENDROOT
BRANCH   1   2
ATOM      2  C   UNL     1      12.428 -10.575   5.467  1.00  0.00     0.000 C 
BRANCH   2   3
ATOM      3  C   UNL     1      11.013 -11.057   5.097  1.00  0.00     0.000 C 
BRANCH   3   4
ATOM      4  C   UNL     1      10.945 -12.037   3.911  1.00  0.00     0.000 C 
BRANCH   4   5
ATOM      5  C   UNL     1      10.551 -13.476   4.315  1.00  0.00     0.001 C 
BRANCH   5   6
ATOM      6  C   UNL     1      10.121 -13.573   5.792  1.00  0.00     0.009 C 
BRANCH   6   7
ATOM      7  C   UNL     1       8.621 -13.880   6.002  1.00  0.00     0.032 C 
ATOM      8  C   UNL     1       8.383 -14.943   7.084  1.00  0.00     0.014 C 
BRANCH   7   9
ATOM      9  C   UNL     1       7.826 -12.628   6.268  1.00  0.00     0.044 C 
ATOM     10  O   UNL     1       7.665 -12.228   7.450  1.00  0.00    -0.550 OA
ATOM     11  O   UNL     1       7.221 -11.937   5.225  1.00  0.00    -0.550 OA
ENDBRANCH   7   9
ENDBRANCH   6   7
ENDBRANCH   5   6
ENDBRANCH   4   5
ENDBRANCH   3   4
ENDBRANCH   2   3
ENDBRANCH   1   2
BRANCH   1  12
ATOM     12  C   UNL     1      12.254  -8.679   3.748  1.00  0.00     0.000 C 
BRANCH  12  13
ATOM     13  C   UNL     1      12.509  -8.500   2.242  1.00  0.00    -0.000 C 
BRANCH  13  14
ATOM     14  C   UNL     1      12.638  -9.838   1.498  1.00  0.00    -0.000 C 
BRANCH  14  15
ATOM     15  C   UNL     1      13.288  -9.640   0.123  1.00  0.00    -0.000 C 
BRANCH  15  16
ATOM     16  C   UNL     1      13.372  -8.153  -0.239  1.00  0.00    -0.000 C 
BRANCH  16  17
ATOM     17  C   UNL     1      14.562  -7.880  -1.171  1.00  0.00    -0.000 C 
BRANCH  17  18
ATOM     18  C   UNL     1      14.125  -7.535  -2.603  1.00  0.00    -0.003 C 
ATOM     19  C   UNL     1      12.743  -6.885  -2.658  1.00  0.00     0.004 C 
ENDBRANCH  17  18
ENDBRANCH  16  17
ENDBRANCH  15  16
ENDBRANCH  14  15
ENDBRANCH  13  14
ENDBRANCH  12  13
ENDBRANCH   1  12
TORSDOF 14
ENDMDL
MODEL 8
REMARK VINA RESULT:    -5.076      3.770      9.131
REMARK INTER + INTRA:         -10.239
REMARK INTER:                  -9.225
REMARK INTRA:                  -1.014
REMARK UNBOUND:                -1.008
REMARK SMILES CCCCCCCCCCCCCC[C@@H](C)C(=O)[O-]
REMARK SMILES IDX 9 1 10 2 11 3 12 4 13 5 14 6 15 7 16 8 17 9 18 10 19 11 8 12
REMARK SMILES IDX 7 13 6 14 5 15 4 16 3 17 2 18 1 19
REMARK H PARENT
REMARK Flexibility Score: inf
ROOT
ATOM      1  C   UNL     1      13.088  -7.037  -2.774  1.00  0.00     0.000 C 
ENDROOT
BRANCH   1   2
ATOM      2  C   UNL     1      14.390  -7.780  -2.420  1.00  0.00     0.000 C 
BRANCH   2   3
ATOM      3  C   UNL     1      14.598  -8.052  -0.918  1.00  0.00     0.000 C 
BRANCH   3   4
ATOM      4  C   UNL     1      13.579  -9.017  -0.282  1.00  0.00     0.000 C 
BRANCH   4   5
ATOM      5  C   UNL     1      12.868  -8.441   0.962  1.00  0.00     0.001 C 
BRANCH   5   6
ATOM      6  C   UNL     1      12.573  -9.521   2.022  1.00  0.00     0.009 C 
BRANCH   6   7
ATOM      7  C   UNL     1      12.603  -9.011   3.480  1.00  0.00     0.032 C 
ATOM      8  C   UNL     1      11.769  -7.737   3.676  1.00  0.00     0.014 C 
BRANCH   7   9
ATOM      9  C   UNL     1      12.210 -10.088   4.457  1.00  0.00     0.044 C 
ATOM     10  O   UNL     1      11.238 -10.845   4.198  1.00  0.00    -0.550 OA
ATOM     11  O   UNL     1      12.877 -10.225   5.669  1.00  0.00    -0.550 OA
ENDBRANCH   7   9
ENDBRANCH   6   7
ENDBRANCH   5   6
ENDBRANCH   4   5
ENDBRANCH   3   4
ENDBRANCH   2   3
ENDBRANCH   1   2
BRANCH   1  12
ATOM     12  C   UNL     1      12.322  -7.693  -3.935  1.00  0.00     0.000 C 
BRANCH  12  13
ATOM     13  C   UNL     1      12.356  -9.229  -3.871  1.00  0.00    -0.000 C 
BRANCH  13  14
ATOM     14  C   UNL     1      11.657  -9.889  -5.070  1.00  0.00    -0.000 C 
BRANCH  14  15
ATOM     15  C   UNL     1      12.414  -9.603  -6.372  1.00  0.00    -0.000 C 
BRANCH  15  16
ATOM     16  C   UNL     1      11.487  -9.722  -7.587  1.00  0.00    -0.000 C 
BRANCH  16  17
ATOM     17  C   UNL     1      10.031  -9.421  -7.199  1.00  0.00    -0.000 C 
BRANCH  17  18
ATOM     18  C   UNL     1       9.034 -10.398  -7.841  1.00  0.00    -0.003 C 
ATOM     19  C   UNL     1       9.285 -11.850  -7.436  1.00  0.00     0.004 C 
ENDBRANCH  17  18
ENDBRANCH  16  17
ENDBRANCH  15  16
ENDBRANCH  14  15
ENDBRANCH  13  14
ENDBRANCH  12  13
ENDBRANCH   1  12
TORSDOF 14
ENDMDL
MODEL 9
REMARK VINA RESULT:    -5.004      4.448      9.286
REMARK INTER + INTRA:         -10.107
REMARK INTER:                  -9.117
REMARK INTRA:                  -0.991
REMARK UNBOUND:                -1.008
REMARK SMILES CCCCCCCCCCCCCC[C@@H](C)C(=O)[O-]
REMARK SMILES IDX 9 1 10 2 11 3 12 4 13 5 14 6 15 7 16 8 17 9 18 10 19 11 8 12
REMARK SMILES IDX 7 13 6 14 5 15 4 16 3 17 2 18 1 19
REMARK H PARENT
REMARK Flexibility Score: inf
ROOT
ATOM      1  C   UNL     1      11.872  -8.699   3.379  1.00  0.00     0.000 C 
ENDROOT
BRANCH   1   2
ATOM      2  C   UNL     1      12.794  -9.462   4.349  1.00  0.00     0.000 C 
BRANCH   2   3
ATOM      3  C   UNL     1      12.158 -10.696   5.018  1.00  0.00     0.000 C 
BRANCH   3   4
ATOM      4  C   UNL     1      11.203 -11.506   4.120  1.00  0.00     0.000 C 
BRANCH   4   5
ATOM      5  C   UNL     1       9.847 -11.829   4.787  1.00  0.00     0.001 C 
BRANCH   5   6
ATOM      6  C   UNL     1       9.972 -12.923   5.866  1.00  0.00     0.009 C 
BRANCH   6   7
ATOM      7  C   UNL     1       8.634 -13.320   6.530  1.00  0.00     0.032 C 
ATOM      8  C   UNL     1       7.428 -13.094   5.608  1.00  0.00     0.014 C 
BRANCH   7   9
ATOM      9  C   UNL     1       8.671 -14.730   7.062  1.00  0.00     0.044 C 
ATOM     10  O   UNL     1       9.752 -15.208   7.494  1.00  0.00    -0.550 OA
ATOM     11  O   UNL     1       7.534 -15.530   7.032  1.00  0.00    -0.550 OA
ENDBRANCH   7   9
ENDBRANCH   6   7
ENDBRANCH   5   6
ENDBRANCH   4   5
ENDBRANCH   3   4
ENDBRANCH   2   3
ENDBRANCH   1   2
BRANCH   1  12
ATOM     12  C   UNL     1      12.524  -8.446   2.009  1.00  0.00     0.000 C 
BRANCH  12  13
ATOM     13  C   UNL     1      12.670  -9.731   1.179  1.00  0.00    -0.000 C 
BRANCH  13  14
ATOM     14  C   UNL     1      13.461  -9.512  -0.121  1.00  0.00    -0.000 C 
BRANCH  14  15
ATOM     15  C   UNL     1      13.883  -8.045  -0.265  1.00  0.00    -0.000 C 
BRANCH  15  16
ATOM     16  C   UNL     1      14.586  -7.803  -1.606  1.00  0.00    -0.000 C 
BRANCH  16  17
ATOM     17  C   UNL     1      13.582  -7.841  -2.768  1.00  0.00    -0.000 C 
BRANCH  17  18
ATOM     18  C   UNL     1      12.633  -6.633  -2.769  1.00  0.00    -0.003 C 
ATOM     19  C   UNL     1      11.202  -7.004  -2.384  1.00  0.00     0.004 C 
ENDBRANCH  17  18
ENDBRANCH  16  17
ENDBRANCH  15  16
ENDBRANCH  14  15
ENDBRANCH  13  14
ENDBRANCH  12  13
ENDBRANCH   1  12
TORSDOF 14
ENDMDL
