MODEL 1
REMARK VINA RESULT:    -3.249      0.000      0.000
REMARK INTER + INTRA:         -10.729
REMARK INTER:                  -7.047
REMARK INTRA:                  -3.682
REMARK UNBOUND:                -3.682
REMARK SMILES CCCCCCCCCCCCCCCCCCCCCC(=O)[O-]
REMARK SMILES IDX 12 1 11 2 10 3 9 4 8 5 7 6 6 7 5 8 4 9 3 10 2 11 1 12 13 13
REMARK SMILES IDX 14 14 15 15 16 16 17 17 18 18 19 19 20 20 21 21 22 22 23 23
REMARK SMILES IDX 24 24
REMARK H PARENT
REMARK Flexibility Score: inf
ROOT
ATOM      1  C   UNL     1       3.735   0.851  -6.276  1.00  0.00     0.000 C 
ENDROOT
BRANCH   1   2
ATOM      2  C   UNL     1       4.864   0.525  -5.281  1.00  0.00     0.000 C 
BRANCH   2   3
ATOM      3  C   UNL     1       5.597  -0.800  -5.579  1.00  0.00     0.000 C 
BRANCH   3   4
ATOM      4  C   UNL     1       6.976  -0.581  -6.225  1.00  0.00    -0.000 C 
BRANCH   4   5
ATOM      5  C   UNL     1       7.312   0.907  -6.413  1.00  0.00    -0.000 C 
BRANCH   5   6
ATOM      6  C   UNL     1       8.747   1.129  -6.914  1.00  0.00    -0.000 C 
BRANCH   6   7
ATOM      7  C   UNL     1       8.860   0.814  -8.411  1.00  0.00    -0.000 C 
BRANCH   7   8
ATOM      8  C   UNL     1       9.561   1.956  -9.162  1.00  0.00    -0.000 C 
BRANCH   8   9
ATOM      9  C   UNL     1       8.620   2.710 -10.120  1.00  0.00    -0.000 C 
BRANCH   9  10
ATOM     10  C   UNL     1       7.284   3.171  -9.503  1.00  0.00    -0.000 C 
BRANCH  10  11
ATOM     11  C   UNL     1       7.405   4.300  -8.465  1.00  0.00    -0.003 C 
ATOM     12  C   UNL     1       6.059   4.929  -8.111  1.00  0.00     0.004 C 
ENDBRANCH  10  11
ENDBRANCH   9  10
ENDBRANCH   8   9
ENDBRANCH   7   8
ENDBRANCH   6   7
ENDBRANCH   5   6
ENDBRANCH   4   5
ENDBRANCH   3   4
ENDBRANCH   2   3
ENDBRANCH   1   2
BRANCH   1  13
ATOM     13  C   UNL     1       3.999   2.060  -7.194  1.00  0.00     0.000 C 
BRANCH  13  14
ATOM     14  C   UNL     1       4.113   1.729  -8.694  1.00  0.00     0.000 C 
BRANCH  14  15
ATOM     15  C   UNL     1       4.183   0.221  -8.975  1.00  0.00     0.000 C 
BRANCH  15  16
ATOM     16  C   UNL     1       5.490  -0.141  -9.696  1.00  0.00     0.000 C 
BRANCH  16  17
ATOM     17  C   UNL     1       5.951  -1.578  -9.407  1.00  0.00     0.000 C 
BRANCH  17  18
ATOM     18  C   UNL     1       4.781  -2.569  -9.313  1.00  0.00     0.000 C 
BRANCH  18  19
ATOM     19  C   UNL     1       5.261  -3.927  -8.778  1.00  0.00     0.000 C 
BRANCH  19  20
ATOM     20  C   UNL     1       6.267  -3.791  -7.624  1.00  0.00     0.006 C 
BRANCH  20  21
ATOM     21  C   UNL     1       5.794  -4.491  -6.343  1.00  0.00     0.053 C 
BRANCH  21  22
ATOM     22  C   UNL     1       6.926  -4.625  -5.374  1.00  0.00     0.041 C 
ATOM     23  O   UNL     1       7.180  -3.696  -4.562  1.00  0.00    -0.550 OA
ATOM     24  O   UNL     1       7.737  -5.752  -5.407  1.00  0.00    -0.550 OA
ENDBRANCH  21  22
ENDBRANCH  20  21
ENDBRANCH  19  20
ENDBRANCH  18  19
ENDBRANCH  17  18
ENDBRANCH  16  17
ENDBRANCH  15  16
ENDBRANCH  14  15
ENDBRANCH  13  14
ENDBRANCH   1  13
TORSDOF 20
ENDMDL
MODEL 2
REMARK VINA RESULT:    -3.225      2.132      4.370
REMARK INTER + INTRA:         -10.677
REMARK INTER:                  -7.271
REMARK INTRA:                  -3.407
REMARK UNBOUND:                -3.682
REMARK SMILES CCCCCCCCCCCCCCCCCCCCCC(=O)[O-]
REMARK SMILES IDX 12 1 11 2 10 3 9 4 8 5 7 6 6 7 5 8 4 9 3 10 2 11 1 12 13 13
REMARK SMILES IDX 14 14 15 15 16 16 17 17 18 18 19 19 20 20 21 21 22 22 23 23
REMARK SMILES IDX 24 24
REMARK H PARENT
REMARK Flexibility Score: inf
ROOT
ATOM      1  C   UNL     1       4.705  -0.583  -5.249  1.00  0.00     0.000 C 
ENDROOT
BRANCH   1   2
ATOM      2  C   UNL     1       5.344   0.779  -4.919  1.00  0.00     0.000 C 
BRANCH   2   3
ATOM      3  C   UNL     1       5.647   1.645  -6.161  1.00  0.00     0.000 C 
BRANCH   3   4
ATOM      4  C   UNL     1       4.409   2.407  -6.667  1.00  0.00    -0.000 C 
BRANCH   4   5
ATOM      5  C   UNL     1       4.085   2.100  -8.137  1.00  0.00    -0.000 C 
BRANCH   5   6
ATOM      6  C   UNL     1       4.771   0.820  -8.636  1.00  0.00    -0.000 C 
BRANCH   6   7
ATOM      7  C   UNL     1       5.867   1.148  -9.659  1.00  0.00    -0.000 C 
BRANCH   7   8
ATOM      8  C   UNL     1       6.723  -0.091  -9.965  1.00  0.00    -0.000 C 
BRANCH   8   9
ATOM      9  C   UNL     1       8.212   0.113  -9.631  1.00  0.00    -0.000 C 
BRANCH   9  10
ATOM     10  C   UNL     1       8.494   0.843  -8.302  1.00  0.00    -0.000 C 
BRANCH  10  11
ATOM     11  C   UNL     1       8.852  -0.074  -7.120  1.00  0.00    -0.003 C 
ATOM     12  C   UNL     1       9.314  -1.462  -7.563  1.00  0.00     0.004 C 
ENDBRANCH  10  11
ENDBRANCH   9  10
ENDBRANCH   8   9
ENDBRANCH   7   8
ENDBRANCH   6   7
ENDBRANCH   5   6
ENDBRANCH   4   5
ENDBRANCH   3   4
ENDBRANCH   2   3
ENDBRANCH   1   2
BRANCH   1  13
ATOM     13  C   UNL     1       5.552  -1.504  -6.148  1.00  0.00     0.000 C 
BRANCH  13  14
ATOM     14  C   UNL     1       6.473  -2.482  -5.396  1.00  0.00     0.000 C 
BRANCH  14  15
ATOM     15  C   UNL     1       5.967  -3.932  -5.427  1.00  0.00     0.000 C 
BRANCH  15  16
ATOM     16  C   UNL     1       6.997  -4.886  -4.804  1.00  0.00     0.000 C 
BRANCH  16  17
ATOM     17  C   UNL     1       7.670  -5.795  -5.843  1.00  0.00     0.000 C 
BRANCH  17  18
ATOM     18  C   UNL     1       8.203  -5.017  -7.056  1.00  0.00     0.000 C 
BRANCH  18  19
ATOM     19  C   UNL     1       7.956  -5.799  -8.355  1.00  0.00     0.000 C 
BRANCH  19  20
ATOM     20  C   UNL     1       7.412  -4.915  -9.488  1.00  0.00     0.006 C 
BRANCH  20  21
ATOM     21  C   UNL     1       6.688  -3.666  -8.967  1.00  0.00     0.053 C 
BRANCH  21  22
ATOM     22  C   UNL     1       5.206  -3.839  -9.072  1.00  0.00     0.041 C 
ATOM     23  O   UNL     1       4.497  -2.934  -9.587  1.00  0.00    -0.550 OA
ATOM     24  O   UNL     1       4.601  -4.974  -8.549  1.00  0.00    -0.550 OA
ENDBRANCH  21  22
ENDBRANCH  20  21
ENDBRANCH  19  20
ENDBRANCH  18  19
ENDBRANCH  17  18
ENDBRANCH  16  17
ENDBRANCH  15  16
ENDBRANCH  14  15
ENDBRANCH  13  14
ENDBRANCH   1  13
TORSDOF 20
ENDMDL
MODEL 3
REMARK VINA RESULT:    -3.141      1.197      2.555
REMARK INTER + INTRA:         -10.496
REMARK INTER:                  -7.085
REMARK INTRA:                  -3.411
REMARK UNBOUND:                -3.682
REMARK SMILES CCCCCCCCCCCCCCCCCCCCCC(=O)[O-]
REMARK SMILES IDX 12 1 11 2 10 3 9 4 8 5 7 6 6 7 5 8 4 9 3 10 2 11 1 12 13 13
REMARK SMILES IDX 14 14 15 15 16 16 17 17 18 18 19 19 20 20 21 21 22 22 23 23
REMARK SMILES IDX 24 24
REMARK H PARENT
REMARK Flexibility Score: inf
ROOT
ATOM      1  C   UNL     1       5.255   0.742  -4.806  1.00  0.00     0.000 C 
ENDROOT
BRANCH   1   2
ATOM      2  C   UNL     1       4.874   1.819  -5.839  1.00  0.00     0.000 C 
BRANCH   2   3
ATOM      3  C   UNL     1       3.736   1.395  -6.794  1.00  0.00     0.000 C 
BRANCH   3   4
ATOM      4  C   UNL     1       3.977   1.856  -8.242  1.00  0.00    -0.000 C 
BRANCH   4   5
ATOM      5  C   UNL     1       5.257   2.693  -8.391  1.00  0.00    -0.000 C 
BRANCH   5   6
ATOM      6  C   UNL     1       6.153   2.200  -9.537  1.00  0.00    -0.000 C 
BRANCH   6   7
ATOM      7  C   UNL     1       7.625   2.538  -9.266  1.00  0.00    -0.000 C 
BRANCH   7   8
ATOM      8  C   UNL     1       7.774   3.355  -7.973  1.00  0.00    -0.000 C 
BRANCH   8   9
ATOM      9  C   UNL     1       8.133   4.829  -8.233  1.00  0.00    -0.000 C 
BRANCH   9  10
ATOM     10  C   UNL     1       7.885   5.322  -9.673  1.00  0.00    -0.000 C 
BRANCH  10  11
ATOM     11  C   UNL     1       6.545   6.046  -9.889  1.00  0.00    -0.003 C 
ATOM     12  C   UNL     1       5.853   6.420  -8.579  1.00  0.00     0.004 C 
ENDBRANCH  10  11
ENDBRANCH   9  10
ENDBRANCH   8   9
ENDBRANCH   7   8
ENDBRANCH   6   7
ENDBRANCH   5   6
ENDBRANCH   4   5
ENDBRANCH   3   4
ENDBRANCH   2   3
ENDBRANCH   1   2
BRANCH   1  13
ATOM     13  C   UNL     1       6.241  -0.328  -5.309  1.00  0.00     0.000 C 
BRANCH  13  14
ATOM     14  C   UNL     1       7.162   0.120  -6.459  1.00  0.00     0.000 C 
BRANCH  14  15
ATOM     15  C   UNL     1       7.859  -1.051  -7.165  1.00  0.00     0.000 C 
BRANCH  15  16
ATOM     16  C   UNL     1       7.268  -1.277  -8.565  1.00  0.00     0.000 C 
BRANCH  16  17
ATOM     17  C   UNL     1       5.734  -1.345  -8.559  1.00  0.00     0.000 C 
BRANCH  17  18
ATOM     18  C   UNL     1       5.198  -2.725  -8.971  1.00  0.00     0.000 C 
BRANCH  18  19
ATOM     19  C   UNL     1       6.030  -3.845  -8.328  1.00  0.00     0.000 C 
BRANCH  19  20
ATOM     20  C   UNL     1       5.369  -4.429  -7.070  1.00  0.00     0.006 C 
BRANCH  20  21
ATOM     21  C   UNL     1       6.003  -3.909  -5.773  1.00  0.00     0.053 C 
BRANCH  21  22
ATOM     22  C   UNL     1       6.861  -4.964  -5.151  1.00  0.00     0.041 C 
ATOM     23  O   UNL     1       7.105  -4.937  -3.916  1.00  0.00    -0.550 OA
ATOM     24  O   UNL     1       7.440  -5.945  -5.946  1.00  0.00    -0.550 OA
ENDBRANCH  21  22
ENDBRANCH  20  21
ENDBRANCH  19  20
ENDBRANCH  18  19
ENDBRANCH  17  18
ENDBRANCH  16  17
ENDBRANCH  15  16
ENDBRANCH  14  15
ENDBRANCH  13  14
ENDBRANCH   1  13
TORSDOF 20
ENDMDL
MODEL 4
REMARK VINA RESULT:    -3.093      3.368      6.371
REMARK INTER + INTRA:         -10.392
REMARK INTER:                  -6.531
REMARK INTRA:                  -3.862
REMARK UNBOUND:                -3.682
REMARK SMILES CCCCCCCCCCCCCCCCCCCCCC(=O)[O-]
REMARK SMILES IDX 12 1 11 2 10 3 9 4 8 5 7 6 6 7 5 8 4 9 3 10 2 11 1 12 13 13
REMARK SMILES IDX 14 14 15 15 16 16 17 17 18 18 19 19 20 20 21 21 22 22 23 23
REMARK SMILES IDX 24 24
REMARK H PARENT
REMARK Flexibility Score: inf
ROOT
ATOM      1  C   UNL     1       3.829   1.916  -6.997  1.00  0.00     0.000 C 
ENDROOT
BRANCH   1   2
ATOM      2  C   UNL     1       4.977   2.255  -6.028  1.00  0.00     0.000 C 
BRANCH   2   3
ATOM      3  C   UNL     1       5.422   1.068  -5.146  1.00  0.00     0.000 C 
BRANCH   3   4
ATOM      4  C   UNL     1       4.486  -0.147  -5.273  1.00  0.00    -0.000 C 
BRANCH   4   5
ATOM      5  C   UNL     1       5.155  -1.338  -5.977  1.00  0.00    -0.000 C 
BRANCH   5   6
ATOM      6  C   UNL     1       6.618  -1.528  -5.552  1.00  0.00    -0.000 C 
BRANCH   6   7
ATOM      7  C   UNL     1       6.954  -3.016  -5.389  1.00  0.00    -0.000 C 
BRANCH   7   8
ATOM      8  C   UNL     1       5.690  -3.881  -5.507  1.00  0.00    -0.000 C 
BRANCH   8   9
ATOM      9  C   UNL     1       5.599  -4.631  -6.848  1.00  0.00    -0.000 C 
BRANCH   9  10
ATOM     10  C   UNL     1       6.781  -4.400  -7.812  1.00  0.00    -0.000 C 
BRANCH  10  11
ATOM     11  C   UNL     1       6.400  -3.789  -9.171  1.00  0.00    -0.003 C 
ATOM     12  C   UNL     1       4.916  -3.436  -9.270  1.00  0.00     0.004 C 
ENDBRANCH  10  11
ENDBRANCH   9  10
ENDBRANCH   8   9
ENDBRANCH   7   8
ENDBRANCH   6   7
ENDBRANCH   5   6
ENDBRANCH   4   5
ENDBRANCH   3   4
ENDBRANCH   2   3
ENDBRANCH   1   2
BRANCH   1  13
ATOM     13  C   UNL     1       3.928   2.577  -8.385  1.00  0.00     0.000 C 
BRANCH  13  14
ATOM     14  C   UNL     1       3.803   1.613  -9.579  1.00  0.00     0.000 C 
BRANCH  14  15
ATOM     15  C   UNL     1       4.452   0.245  -9.319  1.00  0.00     0.000 C 
BRANCH  15  16
ATOM     16  C   UNL     1       5.869   0.191  -9.909  1.00  0.00     0.000 C 
BRANCH  16  17
ATOM     17  C   UNL     1       6.933  -0.185  -8.866  1.00  0.00     0.000 C 
BRANCH  17  18
ATOM     18  C   UNL     1       7.606   1.043  -8.235  1.00  0.00     0.000 C 
BRANCH  18  19
ATOM     19  C   UNL     1       8.476   1.777  -9.268  1.00  0.00     0.000 C 
BRANCH  19  20
ATOM     20  C   UNL     1       7.977   3.201  -9.560  1.00  0.00     0.006 C 
BRANCH  20  21
ATOM     21  C   UNL     1       7.268   3.838  -8.357  1.00  0.00     0.053 C 
BRANCH  21  22
ATOM     22  C   UNL     1       6.756   5.198  -8.713  1.00  0.00     0.041 C 
ATOM     23  O   UNL     1       7.261   5.834  -9.676  1.00  0.00    -0.550 OA
ATOM     24  O   UNL     1       5.760   5.787  -7.945  1.00  0.00    -0.550 OA
ENDBRANCH  21  22
ENDBRANCH  20  21
ENDBRANCH  19  20
ENDBRANCH  18  19
ENDBRANCH  17  18
ENDBRANCH  16  17
ENDBRANCH  15  16
ENDBRANCH  14  15
ENDBRANCH  13  14
ENDBRANCH   1  13
TORSDOF 20
ENDMDL
MODEL 5
REMARK VINA RESULT:    -3.093      1.166      3.112
REMARK INTER + INTRA:         -10.391
REMARK INTER:                  -6.777
REMARK INTRA:                  -3.614
REMARK UNBOUND:                -3.682
REMARK SMILES CCCCCCCCCCCCCCCCCCCCCC(=O)[O-]
REMARK SMILES IDX 12 1 11 2 10 3 9 4 8 5 7 6 6 7 5 8 4 9 3 10 2 11 1 12 13 13
REMARK SMILES IDX 14 14 15 15 16 16 17 17 18 18 19 19 20 20 21 21 22 22 23 23
REMARK SMILES IDX 24 24
REMARK H PARENT
REMARK Flexibility Score: inf
ROOT
ATOM      1  C   UNL     1       6.550  -0.411  -5.656  1.00  0.00     0.000 C 
ENDROOT
BRANCH   1   2
ATOM      2  C   UNL     1       5.454   0.514  -5.095  1.00  0.00     0.000 C 
BRANCH   2   3
ATOM      3  C   UNL     1       4.092   0.377  -5.809  1.00  0.00     0.000 C 
BRANCH   3   4
ATOM      4  C   UNL     1       3.883   1.448  -6.894  1.00  0.00    -0.000 C 
BRANCH   4   5
ATOM      5  C   UNL     1       4.182   0.925  -8.307  1.00  0.00    -0.000 C 
BRANCH   5   6
ATOM      6  C   UNL     1       5.058   1.891  -9.120  1.00  0.00    -0.000 C 
BRANCH   6   7
ATOM      7  C   UNL     1       4.408   3.278  -9.209  1.00  0.00    -0.000 C 
BRANCH   7   8
ATOM      8  C   UNL     1       5.422   4.383  -8.875  1.00  0.00    -0.000 C 
BRANCH   8   9
ATOM      9  C   UNL     1       6.473   3.940  -7.840  1.00  0.00    -0.000 C 
BRANCH   9  10
ATOM     10  C   UNL     1       7.927   4.335  -8.170  1.00  0.00    -0.000 C 
BRANCH  10  11
ATOM     11  C   UNL     1       8.877   3.153  -8.429  1.00  0.00    -0.003 C 
ATOM     12  C   UNL     1       9.937   2.992  -7.340  1.00  0.00     0.004 C 
ENDBRANCH  10  11
ENDBRANCH   9  10
ENDBRANCH   8   9
ENDBRANCH   7   8
ENDBRANCH   6   7
ENDBRANCH   5   6
ENDBRANCH   4   5
ENDBRANCH   3   4
ENDBRANCH   2   3
ENDBRANCH   1   2
BRANCH   1  13
ATOM     13  C   UNL     1       7.492   0.239  -6.686  1.00  0.00     0.000 C 
BRANCH  13  14
ATOM     14  C   UNL     1       8.807  -0.520  -6.940  1.00  0.00     0.000 C 
BRANCH  14  15
ATOM     15  C   UNL     1       9.110  -0.721  -8.432  1.00  0.00     0.000 C 
BRANCH  15  16
ATOM     16  C   UNL     1       7.817  -0.702  -9.261  1.00  0.00     0.000 C 
BRANCH  16  17
ATOM     17  C   UNL     1       7.219  -2.102  -9.463  1.00  0.00     0.000 C 
BRANCH  17  18
ATOM     18  C   UNL     1       5.733  -2.175  -9.081  1.00  0.00     0.000 C 
BRANCH  18  19
ATOM     19  C   UNL     1       5.510  -3.195  -7.954  1.00  0.00     0.000 C 
BRANCH  19  20
ATOM     20  C   UNL     1       6.817  -3.613  -7.263  1.00  0.00     0.006 C 
BRANCH  20  21
ATOM     21  C   UNL     1       6.683  -4.934  -6.493  1.00  0.00     0.053 C 
BRANCH  21  22
ATOM     22  C   UNL     1       7.075  -4.746  -5.062  1.00  0.00     0.041 C 
ATOM     23  O   UNL     1       7.119  -3.590  -4.563  1.00  0.00    -0.550 OA
ATOM     24  O   UNL     1       7.447  -5.842  -4.295  1.00  0.00    -0.550 OA
ENDBRANCH  21  22
ENDBRANCH  20  21
ENDBRANCH  19  20
ENDBRANCH  18  19
ENDBRANCH  17  18
ENDBRANCH  16  17
ENDBRANCH  15  16
ENDBRANCH  14  15
ENDBRANCH  13  14
ENDBRANCH   1  13
TORSDOF 20
ENDMDL
MODEL 6
REMARK VINA RESULT:    -3.063      2.051      3.776
REMARK INTER + INTRA:         -10.327
REMARK INTER:                  -7.727
REMARK INTRA:                  -2.599
REMARK UNBOUND:                -3.682
REMARK SMILES CCCCCCCCCCCCCCCCCCCCCC(=O)[O-]
REMARK SMILES IDX 12 1 11 2 10 3 9 4 8 5 7 6 6 7 5 8 4 9 3 10 2 11 1 12 13 13
REMARK SMILES IDX 14 14 15 15 16 16 17 17 18 18 19 19 20 20 21 21 22 22 23 23
REMARK SMILES IDX 24 24
REMARK H PARENT
REMARK Flexibility Score: inf
ROOT
ATOM      1  C   UNL     1       4.230   0.607  -5.944  1.00  0.00     0.000 C 
ENDROOT
BRANCH   1   2
ATOM      2  C   UNL     1       3.732   1.849  -6.708  1.00  0.00     0.000 C 
BRANCH   2   3
ATOM      3  C   UNL     1       4.074   1.836  -8.213  1.00  0.00     0.000 C 
BRANCH   3   4
ATOM      4  C   UNL     1       4.763   3.132  -8.674  1.00  0.00    -0.000 C 
BRANCH   4   5
ATOM      5  C   UNL     1       5.715   3.706  -7.613  1.00  0.00    -0.000 C 
BRANCH   5   6
ATOM      6  C   UNL     1       6.926   4.420  -8.232  1.00  0.00    -0.000 C 
BRANCH   6   7
ATOM      7  C   UNL     1       6.479   5.603  -9.101  1.00  0.00    -0.000 C 
BRANCH   7   8
ATOM      8  C   UNL     1       6.528   6.918  -8.308  1.00  0.00    -0.000 C 
BRANCH   8   9
ATOM      9  C   UNL     1       5.171   7.646  -8.270  1.00  0.00    -0.000 C 
BRANCH   9  10
ATOM     10  C   UNL     1       5.061   8.777  -7.227  1.00  0.00    -0.000 C 
BRANCH  10  11
ATOM     11  C   UNL     1       4.649   8.321  -5.817  1.00  0.00    -0.003 C 
ATOM     12  C   UNL     1       3.780   9.346  -5.090  1.00  0.00     0.004 C 
ENDBRANCH  10  11
ENDBRANCH   9  10
ENDBRANCH   8   9
ENDBRANCH   7   8
ENDBRANCH   6   7
ENDBRANCH   5   6
ENDBRANCH   4   5
ENDBRANCH   3   4
ENDBRANCH   2   3
ENDBRANCH   1   2
BRANCH   1  13
ATOM     13  C   UNL     1       5.608   0.760  -5.272  1.00  0.00     0.000 C 
BRANCH  13  14
ATOM     14  C   UNL     1       6.708  -0.169  -5.818  1.00  0.00     0.000 C 
BRANCH  14  15
ATOM     15  C   UNL     1       7.677   0.541  -6.774  1.00  0.00     0.000 C 
BRANCH  15  16
ATOM     16  C   UNL     1       7.260   0.327  -8.237  1.00  0.00     0.000 C 
BRANCH  16  17
ATOM     17  C   UNL     1       7.112  -1.158  -8.602  1.00  0.00     0.000 C 
BRANCH  17  18
ATOM     18  C   UNL     1       5.645  -1.592  -8.739  1.00  0.00     0.000 C 
BRANCH  18  19
ATOM     19  C   UNL     1       5.455  -3.032  -8.237  1.00  0.00     0.000 C 
BRANCH  19  20
ATOM     20  C   UNL     1       6.618  -3.513  -7.356  1.00  0.00     0.006 C 
BRANCH  20  21
ATOM     21  C   UNL     1       6.186  -3.801  -5.912  1.00  0.00     0.053 C 
BRANCH  21  22
ATOM     22  C   UNL     1       7.151  -4.736  -5.255  1.00  0.00     0.041 C 
ATOM     23  O   UNL     1       7.015  -5.038  -4.039  1.00  0.00    -0.550 OA
ATOM     24  O   UNL     1       8.235  -5.229  -5.969  1.00  0.00    -0.550 OA
ENDBRANCH  21  22
ENDBRANCH  20  21
ENDBRANCH  19  20
ENDBRANCH  18  19
ENDBRANCH  17  18
ENDBRANCH  16  17
ENDBRANCH  15  16
ENDBRANCH  14  15
ENDBRANCH  13  14
ENDBRANCH   1  13
TORSDOF 20
ENDMDL
MODEL 7
REMARK VINA RESULT:    -3.041      4.587      8.291
REMARK INTER + INTRA:         -10.278
REMARK INTER:                  -7.566
REMARK INTRA:                  -2.713
REMARK UNBOUND:                -3.682
REMARK SMILES CCCCCCCCCCCCCCCCCCCCCC(=O)[O-]
REMARK SMILES IDX 12 1 11 2 10 3 9 4 8 5 7 6 6 7 5 8 4 9 3 10 2 11 1 12 13 13
REMARK SMILES IDX 14 14 15 15 16 16 17 17 18 18 19 19 20 20 21 21 22 22 23 23
REMARK SMILES IDX 24 24
REMARK H PARENT
REMARK Flexibility Score: inf
ROOT
ATOM      1  C   UNL     1       4.501  -0.009  -5.588  1.00  0.00     0.000 C 
ENDROOT
BRANCH   1   2
ATOM      2  C   UNL     1       6.002   0.238  -5.349  1.00  0.00     0.000 C 
BRANCH   2   3
ATOM      3  C   UNL     1       6.926  -0.585  -6.273  1.00  0.00     0.000 C 
BRANCH   3   4
ATOM      4  C   UNL     1       7.230   0.135  -7.599  1.00  0.00    -0.000 C 
BRANCH   4   5
ATOM      5  C   UNL     1       6.842  -0.702  -8.828  1.00  0.00    -0.000 C 
BRANCH   5   6
ATOM      6  C   UNL     1       5.374  -0.504  -9.236  1.00  0.00    -0.000 C 
BRANCH   6   7
ATOM      7  C   UNL     1       4.633  -1.847  -9.285  1.00  0.00    -0.000 C 
BRANCH   7   8
ATOM      8  C   UNL     1       5.620  -3.015  -9.427  1.00  0.00    -0.000 C 
BRANCH   8   9
ATOM      9  C   UNL     1       5.391  -4.124  -8.384  1.00  0.00    -0.000 C 
BRANCH   9  10
ATOM     10  C   UNL     1       6.428  -4.178  -7.243  1.00  0.00    -0.000 C 
BRANCH  10  11
ATOM     11  C   UNL     1       5.842  -4.045  -5.827  1.00  0.00    -0.003 C 
ATOM     12  C   UNL     1       6.775  -4.583  -4.744  1.00  0.00     0.004 C 
ENDBRANCH  10  11
ENDBRANCH   9  10
ENDBRANCH   8   9
ENDBRANCH   7   8
ENDBRANCH   6   7
ENDBRANCH   5   6
ENDBRANCH   4   5
ENDBRANCH   3   4
ENDBRANCH   2   3
ENDBRANCH   1   2
BRANCH   1  13
ATOM     13  C   UNL     1       3.776   1.088  -6.391  1.00  0.00     0.000 C 
BRANCH  13  14
ATOM     14  C   UNL     1       4.535   2.423  -6.506  1.00  0.00     0.000 C 
BRANCH  14  15
ATOM     15  C   UNL     1       4.774   2.857  -7.960  1.00  0.00     0.000 C 
BRANCH  15  16
ATOM     16  C   UNL     1       5.900   3.899  -8.042  1.00  0.00     0.000 C 
BRANCH  16  17
ATOM     17  C   UNL     1       5.937   4.630  -9.393  1.00  0.00     0.000 C 
BRANCH  17  18
ATOM     18  C   UNL     1       5.357   6.050  -9.316  1.00  0.00     0.000 C 
BRANCH  18  19
ATOM     19  C   UNL     1       5.718   6.714  -7.979  1.00  0.00     0.000 C 
BRANCH  19  20
ATOM     20  C   UNL     1       5.546   8.241  -8.007  1.00  0.00     0.006 C 
BRANCH  20  21
ATOM     21  C   UNL     1       5.101   8.811  -6.653  1.00  0.00     0.053 C 
BRANCH  21  22
ATOM     22  C   UNL     1       3.702   9.334  -6.741  1.00  0.00     0.041 C 
ATOM     23  O   UNL     1       3.104   9.723  -5.703  1.00  0.00    -0.550 OA
ATOM     24  O   UNL     1       3.039   9.338  -7.961  1.00  0.00    -0.550 OA
ENDBRANCH  21  22
ENDBRANCH  20  21
ENDBRANCH  19  20
ENDBRANCH  18  19
ENDBRANCH  17  18
ENDBRANCH  16  17
ENDBRANCH  15  16
ENDBRANCH  14  15
ENDBRANCH  13  14
ENDBRANCH   1  13
TORSDOF 20
ENDMDL
MODEL 8
REMARK VINA RESULT:    -3.026      2.819      5.975
REMARK INTER + INTRA:         -10.246
REMARK INTER:                  -6.071
REMARK INTRA:                  -4.175
REMARK UNBOUND:                -3.682
REMARK SMILES CCCCCCCCCCCCCCCCCCCCCC(=O)[O-]
REMARK SMILES IDX 12 1 11 2 10 3 9 4 8 5 7 6 6 7 5 8 4 9 3 10 2 11 1 12 13 13
REMARK SMILES IDX 14 14 15 15 16 16 17 17 18 18 19 19 20 20 21 21 22 22 23 23
REMARK SMILES IDX 24 24
REMARK H PARENT
REMARK Flexibility Score: inf
ROOT
ATOM      1  C   UNL     1       5.546  -2.932  -5.418  1.00  0.00     0.000 C 
ENDROOT
BRANCH   1   2
ATOM      2  C   UNL     1       6.818  -3.659  -5.892  1.00  0.00     0.000 C 
BRANCH   2   3
ATOM      3  C   UNL     1       7.268  -3.268  -7.316  1.00  0.00     0.000 C 
BRANCH   3   4
ATOM      4  C   UNL     1       6.777  -4.260  -8.385  1.00  0.00    -0.000 C 
BRANCH   4   5
ATOM      5  C   UNL     1       5.376  -3.915  -8.913  1.00  0.00    -0.000 C 
BRANCH   5   6
ATOM      6  C   UNL     1       5.391  -2.738  -9.899  1.00  0.00    -0.000 C 
BRANCH   6   7
ATOM      7  C   UNL     1       4.489  -1.598  -9.408  1.00  0.00    -0.000 C 
BRANCH   7   8
ATOM      8  C   UNL     1       5.185  -0.238  -9.568  1.00  0.00    -0.000 C 
BRANCH   8   9
ATOM      9  C   UNL     1       6.720  -0.351  -9.612  1.00  0.00    -0.000 C 
BRANCH   9  10
ATOM     10  C   UNL     1       7.461   0.291  -8.421  1.00  0.00    -0.000 C 
BRANCH  10  11
ATOM     11  C   UNL     1       8.955  -0.064  -8.320  1.00  0.00    -0.003 C 
ATOM     12  C   UNL     1       9.477  -0.035  -6.884  1.00  0.00     0.004 C 
ENDBRANCH  10  11
ENDBRANCH   9  10
ENDBRANCH   8   9
ENDBRANCH   7   8
ENDBRANCH   6   7
ENDBRANCH   5   6
ENDBRANCH   4   5
ENDBRANCH   3   4
ENDBRANCH   2   3
ENDBRANCH   1   2
BRANCH   1  13
ATOM     13  C   UNL     1       5.351  -1.514  -5.988  1.00  0.00     0.000 C 
BRANCH  13  14
ATOM     14  C   UNL     1       6.053  -0.391  -5.202  1.00  0.00     0.000 C 
BRANCH  14  15
ATOM     15  C   UNL     1       5.278   0.934  -5.221  1.00  0.00     0.000 C 
BRANCH  15  16
ATOM     16  C   UNL     1       4.090   0.860  -6.193  1.00  0.00     0.000 C 
BRANCH  16  17
ATOM     17  C   UNL     1       3.811   2.198  -6.895  1.00  0.00     0.000 C 
BRANCH  17  18
ATOM     18  C   UNL     1       5.096   2.957  -7.259  1.00  0.00     0.000 C 
BRANCH  18  19
ATOM     19  C   UNL     1       5.119   3.300  -8.756  1.00  0.00     0.000 C 
BRANCH  19  20
ATOM     20  C   UNL     1       6.525   3.659  -9.262  1.00  0.00     0.006 C 
BRANCH  20  21
ATOM     21  C   UNL     1       7.410   4.269  -8.167  1.00  0.00     0.053 C 
BRANCH  21  22
ATOM     22  C   UNL     1       8.838   3.872  -8.368  1.00  0.00     0.041 C 
ATOM     23  O   UNL     1       9.518   3.437  -7.400  1.00  0.00    -0.550 OA
ATOM     24  O   UNL     1       9.436   4.035  -9.610  1.00  0.00    -0.550 OA
ENDBRANCH  21  22
ENDBRANCH  20  21
ENDBRANCH  19  20
ENDBRANCH  18  19
ENDBRANCH  17  18
ENDBRANCH  16  17
ENDBRANCH  15  16
ENDBRANCH  14  15
ENDBRANCH  13  14
ENDBRANCH   1  13
TORSDOF 20
ENDMDL
