MODEL 1
REMARK VINA RESULT:    -5.425      0.000      0.000
REMARK INTER + INTRA:         -11.584
REMARK INTER:                 -10.182
REMARK INTRA:                  -1.402
REMARK UNBOUND:                -1.402
REMARK SMILES O=C([O-])CCCCCCCCCCCCCCC(=O)[O-]
REMARK SMILES IDX 10 1 9 2 8 3 7 4 6 5 5 6 4 7 2 8 1 9 3 10 11 11 12 12 13 13
REMARK SMILES IDX 14 14 15 15 16 16 17 17 18 18 19 19 20 20
REMARK H PARENT
REMARK Flexibility Score: inf
ROOT
ATOM      1  C   UNL     1       9.751  11.923  38.521  1.00  0.00     0.000 C 
ENDROOT
BRANCH   1   2
ATOM      2  C   UNL     1       9.861  13.035  39.576  1.00  0.00     0.000 C 
BRANCH   2   3
ATOM      3  C   UNL     1       8.640  13.093  40.506  1.00  0.00     0.000 C 
BRANCH   3   4
ATOM      4  C   UNL     1       9.022  13.673  41.875  1.00  0.00     0.000 C 
BRANCH   4   5
ATOM      5  C   UNL     1      10.179  14.685  41.797  1.00  0.00     0.000 C 
BRANCH   5   6
ATOM      6  C   UNL     1       9.753  16.162  41.687  1.00  0.00     0.006 C 
BRANCH   6   7
ATOM      7  C   UNL     1       8.242  16.364  41.472  1.00  0.00     0.053 C 
BRANCH   7   8
ATOM      8  C   UNL     1       7.564  16.937  42.681  1.00  0.00     0.041 C 
ATOM      9  O   UNL     1       7.901  16.562  43.835  1.00  0.00    -0.550 OA
ATOM     10  O   UNL     1       6.589  17.916  42.536  1.00  0.00    -0.550 OA
ENDBRANCH   7   8
ENDBRANCH   6   7
ENDBRANCH   5   6
ENDBRANCH   4   5
ENDBRANCH   3   4
ENDBRANCH   2   3
ENDBRANCH   1   2
BRANCH   1  11
ATOM     11  C   UNL     1       9.735  10.518  39.143  1.00  0.00     0.000 C 
BRANCH  11  12
ATOM     12  C   UNL     1       8.388   9.826  38.899  1.00  0.00     0.000 C 
BRANCH  12  13
ATOM     13  C   UNL     1       7.654   9.572  40.223  1.00  0.00     0.000 C 
BRANCH  13  14
ATOM     14  C   UNL     1       8.608   9.205  41.373  1.00  0.00     0.000 C 
BRANCH  14  15
ATOM     15  C   UNL     1       8.434  10.047  42.653  1.00  0.00     0.000 C 
BRANCH  15  16
ATOM     16  C   UNL     1       8.479   9.218  43.953  1.00  0.00     0.006 C 
BRANCH  16  17
ATOM     17  C   UNL     1       9.769   8.395  44.074  1.00  0.00     0.053 C 
BRANCH  17  18
ATOM     18  C   UNL     1      10.695   9.018  45.070  1.00  0.00     0.041 C 
ATOM     19  O   UNL     1      10.589  10.241  45.356  1.00  0.00    -0.550 OA
ATOM     20  O   UNL     1      11.645   8.239  45.718  1.00  0.00    -0.550 OA
ENDBRANCH  17  18
ENDBRANCH  16  17
ENDBRANCH  15  16
ENDBRANCH  14  15
ENDBRANCH  13  14
ENDBRANCH  12  13
ENDBRANCH  11  12
ENDBRANCH   1  11
TORSDOF 15
ENDMDL
MODEL 2
REMARK VINA RESULT:    -5.268      0.411      6.806
REMARK INTER + INTRA:         -11.289
REMARK INTER:                  -9.885
REMARK INTRA:                  -1.404
REMARK UNBOUND:                -1.402
REMARK SMILES O=C([O-])CCCCCCCCCCCCCCC(=O)[O-]
REMARK SMILES IDX 10 1 9 2 8 3 7 4 6 5 5 6 4 7 2 8 1 9 3 10 11 11 12 12 13 13
REMARK SMILES IDX 14 14 15 15 16 16 17 17 18 18 19 19 20 20
REMARK H PARENT
REMARK Flexibility Score: inf
ROOT
ATOM      1  C   UNL     1       9.722  10.596  39.370  1.00  0.00     0.000 C 
ENDROOT
BRANCH   1   2
ATOM      2  C   UNL     1       8.492   9.745  39.017  1.00  0.00     0.000 C 
BRANCH   2   3
ATOM      3  C   UNL     1       7.721   9.275  40.259  1.00  0.00     0.000 C 
BRANCH   3   4
ATOM      4  C   UNL     1       8.662   9.124  41.463  1.00  0.00     0.000 C 
BRANCH   4   5
ATOM      5  C   UNL     1       8.184   9.903  42.700  1.00  0.00     0.000 C 
BRANCH   5   6
ATOM      6  C   UNL     1       8.453   9.216  44.053  1.00  0.00     0.006 C 
BRANCH   6   7
ATOM      7  C   UNL     1       9.745   8.379  44.085  1.00  0.00     0.053 C 
BRANCH   7   8
ATOM      8  C   UNL     1      10.804   8.995  44.949  1.00  0.00     0.041 C 
ATOM      9  O   UNL     1      10.676  10.177  45.365  1.00  0.00    -0.550 OA
ATOM     10  O   UNL     1      11.914   8.252  45.330  1.00  0.00    -0.550 OA
ENDBRANCH   7   8
ENDBRANCH   6   7
ENDBRANCH   5   6
ENDBRANCH   4   5
ENDBRANCH   3   4
ENDBRANCH   2   3
ENDBRANCH   1   2
BRANCH   1  11
ATOM     11  C   UNL     1       9.779  11.911  38.576  1.00  0.00     0.000 C 
BRANCH  11  12
ATOM     12  C   UNL     1       9.703  13.122  39.514  1.00  0.00     0.000 C 
BRANCH  12  13
ATOM     13  C   UNL     1       8.733  12.857  40.675  1.00  0.00     0.000 C 
BRANCH  13  14
ATOM     14  C   UNL     1       9.013  13.744  41.900  1.00  0.00     0.000 C 
BRANCH  14  15
ATOM     15  C   UNL     1       9.963  14.929  41.638  1.00  0.00     0.000 C 
BRANCH  15  16
ATOM     16  C   UNL     1       9.452  16.271  42.204  1.00  0.00     0.006 C 
BRANCH  16  17
ATOM     17  C   UNL     1       8.134  16.713  41.555  1.00  0.00     0.053 C 
BRANCH  17  18
ATOM     18  C   UNL     1       7.070  16.879  42.594  1.00  0.00     0.041 C 
ATOM     19  O   UNL     1       6.356  17.916  42.611  1.00  0.00    -0.550 OA
ATOM     20  O   UNL     1       6.834  15.865  43.514  1.00  0.00    -0.550 OA
ENDBRANCH  17  18
ENDBRANCH  16  17
ENDBRANCH  15  16
ENDBRANCH  14  15
ENDBRANCH  13  14
ENDBRANCH  12  13
ENDBRANCH  11  12
ENDBRANCH   1  11
TORSDOF 15
ENDMDL
MODEL 3
REMARK VINA RESULT:    -5.074      1.033      6.424
REMARK INTER + INTRA:         -10.926
REMARK INTER:                  -9.324
REMARK INTRA:                  -1.602
REMARK UNBOUND:                -1.402
REMARK SMILES O=C([O-])CCCCCCCCCCCCCCC(=O)[O-]
REMARK SMILES IDX 10 1 9 2 8 3 7 4 6 5 5 6 4 7 2 8 1 9 3 10 11 11 12 12 13 13
REMARK SMILES IDX 14 14 15 15 16 16 17 17 18 18 19 19 20 20
REMARK H PARENT
REMARK Flexibility Score: inf
ROOT
ATOM      1  C   UNL     1       7.835   9.596  39.529  1.00  0.00     0.000 C 
ENDROOT
BRANCH   1   2
ATOM      2  C   UNL     1       6.997  10.175  40.680  1.00  0.00     0.000 C 
BRANCH   2   3
ATOM      3  C   UNL     1       7.860  10.679  41.847  1.00  0.00     0.000 C 
BRANCH   3   4
ATOM      4  C   UNL     1       7.297  10.197  43.191  1.00  0.00     0.000 C 
BRANCH   4   5
ATOM      5  C   UNL     1       7.572   8.707  43.458  1.00  0.00     0.000 C 
BRANCH   5   6
ATOM      6  C   UNL     1       9.033   8.361  43.807  1.00  0.00     0.006 C 
BRANCH   6   7
ATOM      7  C   UNL     1       9.409   8.637  45.275  1.00  0.00     0.053 C 
BRANCH   7   8
ATOM      8  C   UNL     1      10.751   9.293  45.408  1.00  0.00     0.041 C 
ATOM      9  O   UNL     1      10.849  10.549  45.379  1.00  0.00    -0.550 OA
ATOM     10  O   UNL     1      11.889   8.522  45.605  1.00  0.00    -0.550 OA
ENDBRANCH   7   8
ENDBRANCH   6   7
ENDBRANCH   5   6
ENDBRANCH   4   5
ENDBRANCH   3   4
ENDBRANCH   2   3
ENDBRANCH   1   2
BRANCH   1  11
ATOM     11  C   UNL     1       9.299  10.062  39.570  1.00  0.00     0.000 C 
BRANCH  11  12
ATOM     12  C   UNL     1       9.743  10.597  38.202  1.00  0.00     0.000 C 
BRANCH  12  13
ATOM     13  C   UNL     1       9.816  12.130  38.211  1.00  0.00     0.000 C 
BRANCH  13  14
ATOM     14  C   UNL     1      10.119  12.705  39.606  1.00  0.00     0.000 C 
BRANCH  14  15
ATOM     15  C   UNL     1       9.022  13.624  40.179  1.00  0.00     0.000 C 
BRANCH  15  16
ATOM     16  C   UNL     1       9.278  14.062  41.637  1.00  0.00     0.006 C 
BRANCH  16  17
ATOM     17  C   UNL     1       8.084  14.820  42.234  1.00  0.00     0.053 C 
BRANCH  17  18
ATOM     18  C   UNL     1       8.510  16.170  42.717  1.00  0.00     0.041 C 
ATOM     19  O   UNL     1       7.964  16.683  43.730  1.00  0.00    -0.550 OA
ATOM     20  O   UNL     1       9.544  16.842  42.078  1.00  0.00    -0.550 OA
ENDBRANCH  17  18
ENDBRANCH  16  17
ENDBRANCH  15  16
ENDBRANCH  14  15
ENDBRANCH  13  14
ENDBRANCH  12  13
ENDBRANCH  11  12
ENDBRANCH   1  11
TORSDOF 15
ENDMDL
MODEL 4
REMARK VINA RESULT:    -5.040     10.955     12.584
REMARK INTER + INTRA:         -10.862
REMARK INTER:                  -9.447
REMARK INTRA:                  -1.415
REMARK UNBOUND:                -1.402
REMARK SMILES O=C([O-])CCCCCCCCCCCCCCC(=O)[O-]
REMARK SMILES IDX 10 1 9 2 8 3 7 4 6 5 5 6 4 7 2 8 1 9 3 10 11 11 12 12 13 13
REMARK SMILES IDX 14 14 15 15 16 16 17 17 18 18 19 19 20 20
REMARK H PARENT
REMARK Flexibility Score: inf
ROOT
ATOM      1  C   UNL     1      19.699  12.163  46.189  1.00  0.00     0.000 C 
ENDROOT
BRANCH   1   2
ATOM      2  C   UNL     1      19.264  13.089  45.042  1.00  0.00     0.000 C 
BRANCH   2   3
ATOM      3  C   UNL     1      20.447  13.820  44.389  1.00  0.00     0.000 C 
BRANCH   3   4
ATOM      4  C   UNL     1      20.239  13.951  42.874  1.00  0.00     0.000 C 
BRANCH   4   5
ATOM      5  C   UNL     1      19.545  15.264  42.474  1.00  0.00     0.000 C 
BRANCH   5   6
ATOM      6  C   UNL     1      20.439  16.281  41.737  1.00  0.00     0.006 C 
BRANCH   6   7
ATOM      7  C   UNL     1      21.668  16.736  42.544  1.00  0.00     0.053 C 
BRANCH   7   8
ATOM      8  C   UNL     1      22.935  16.671  41.744  1.00  0.00     0.041 C 
ATOM      9  O   UNL     1      23.093  15.769  40.879  1.00  0.00    -0.550 OA
ATOM     10  O   UNL     1      23.924  17.629  41.923  1.00  0.00    -0.550 OA
ENDBRANCH   7   8
ENDBRANCH   6   7
ENDBRANCH   5   6
ENDBRANCH   4   5
ENDBRANCH   3   4
ENDBRANCH   2   3
ENDBRANCH   1   2
BRANCH   1  11
ATOM     11  C   UNL     1      19.804  10.692  45.755  1.00  0.00     0.000 C 
BRANCH  11  12
ATOM     12  C   UNL     1      21.250  10.329  45.393  1.00  0.00     0.000 C 
BRANCH  12  13
ATOM     13  C   UNL     1      21.303   9.532  44.082  1.00  0.00     0.000 C 
BRANCH  13  14
ATOM     14  C   UNL     1      20.677  10.289  42.898  1.00  0.00     0.000 C 
BRANCH  14  15
ATOM     15  C   UNL     1      21.585  10.421  41.660  1.00  0.00     0.000 C 
BRANCH  15  16
ATOM     16  C   UNL     1      21.274   9.397  40.549  1.00  0.00     0.006 C 
BRANCH  16  17
ATOM     17  C   UNL     1      19.984   8.612  40.825  1.00  0.00     0.053 C 
BRANCH  17  18
ATOM     18  C   UNL     1      18.913   9.011  39.860  1.00  0.00     0.041 C 
ATOM     19  O   UNL     1      18.759  10.222  39.548  1.00  0.00    -0.550 OA
ATOM     20  O   UNL     1      18.115   8.041  39.268  1.00  0.00    -0.550 OA
ENDBRANCH  17  18
ENDBRANCH  16  17
ENDBRANCH  15  16
ENDBRANCH  14  15
ENDBRANCH  13  14
ENDBRANCH  12  13
ENDBRANCH  11  12
ENDBRANCH   1  11
TORSDOF 15
ENDMDL
MODEL 5
REMARK VINA RESULT:    -5.038      1.744      2.235
REMARK INTER + INTRA:         -10.858
REMARK INTER:                  -9.227
REMARK INTRA:                  -1.632
REMARK UNBOUND:                -1.402
REMARK SMILES O=C([O-])CCCCCCCCCCCCCCC(=O)[O-]
REMARK SMILES IDX 10 1 9 2 8 3 7 4 6 5 5 6 4 7 2 8 1 9 3 10 11 11 12 12 13 13
REMARK SMILES IDX 14 14 15 15 16 16 17 17 18 18 19 19 20 20
REMARK H PARENT
REMARK Flexibility Score: inf
ROOT
ATOM      1  C   UNL     1       9.459  12.367  39.581  1.00  0.00     0.000 C 
ENDROOT
BRANCH   1   2
ATOM      2  C   UNL     1       8.647  12.192  40.874  1.00  0.00     0.000 C 
BRANCH   2   3
ATOM      3  C   UNL     1       7.394  13.080  40.912  1.00  0.00     0.000 C 
BRANCH   3   4
ATOM      4  C   UNL     1       7.029  13.449  42.357  1.00  0.00     0.000 C 
BRANCH   4   5
ATOM      5  C   UNL     1       6.690  14.940  42.529  1.00  0.00     0.000 C 
BRANCH   5   6
ATOM      6  C   UNL     1       7.847  15.823  43.034  1.00  0.00     0.006 C 
BRANCH   6   7
ATOM      7  C   UNL     1       8.673  16.477  41.911  1.00  0.00     0.053 C 
BRANCH   7   8
ATOM      8  C   UNL     1      10.124  16.101  41.974  1.00  0.00     0.041 C 
ATOM      9  O   UNL     1      10.467  14.889  41.950  1.00  0.00    -0.550 OA
ATOM     10  O   UNL     1      11.099  17.089  42.018  1.00  0.00    -0.550 OA
ENDBRANCH   7   8
ENDBRANCH   6   7
ENDBRANCH   5   6
ENDBRANCH   4   5
ENDBRANCH   3   4
ENDBRANCH   2   3
ENDBRANCH   1   2
BRANCH   1  11
ATOM     11  C   UNL     1       9.646  11.047  38.817  1.00  0.00     0.000 C 
BRANCH  11  12
ATOM     12  C   UNL     1       8.664   9.980  39.316  1.00  0.00     0.000 C 
BRANCH  12  13
ATOM     13  C   UNL     1       9.411   8.724  39.788  1.00  0.00     0.000 C 
BRANCH  13  14
ATOM     14  C   UNL     1       8.635   7.934  40.856  1.00  0.00     0.000 C 
BRANCH  14  15
ATOM     15  C   UNL     1       9.039   8.242  42.311  1.00  0.00     0.000 C 
BRANCH  15  16
ATOM     16  C   UNL     1       8.204   9.364  42.964  1.00  0.00     0.006 C 
BRANCH  16  17
ATOM     17  C   UNL     1       9.005  10.155  44.007  1.00  0.00     0.053 C 
BRANCH  17  18
ATOM     18  C   UNL     1       9.432   9.259  45.127  1.00  0.00     0.041 C 
ATOM     19  O   UNL     1      10.647   9.184  45.451  1.00  0.00    -0.550 OA
ATOM     20  O   UNL     1       8.482   8.544  45.844  1.00  0.00    -0.550 OA
ENDBRANCH  17  18
ENDBRANCH  16  17
ENDBRANCH  15  16
ENDBRANCH  14  15
ENDBRANCH  13  14
ENDBRANCH  12  13
ENDBRANCH  11  12
ENDBRANCH   1  11
TORSDOF 15
ENDMDL
MODEL 6
REMARK VINA RESULT:    -4.988     11.199     13.806
REMARK INTER + INTRA:         -10.764
REMARK INTER:                  -9.186
REMARK INTRA:                  -1.578
REMARK UNBOUND:                -1.402
REMARK SMILES O=C([O-])CCCCCCCCCCCCCCC(=O)[O-]
REMARK SMILES IDX 10 1 9 2 8 3 7 4 6 5 5 6 4 7 2 8 1 9 3 10 11 11 12 12 13 13
REMARK SMILES IDX 14 14 15 15 16 16 17 17 18 18 19 19 20 20
REMARK H PARENT
REMARK Flexibility Score: inf
ROOT
ATOM      1  C   UNL     1      21.436  12.804  42.407  1.00  0.00     0.000 C 
ENDROOT
BRANCH   1   2
ATOM      2  C   UNL     1      20.845  11.392  42.266  1.00  0.00     0.000 C 
BRANCH   2   3
ATOM      3  C   UNL     1      20.783  10.639  43.603  1.00  0.00     0.000 C 
BRANCH   3   4
ATOM      4  C   UNL     1      20.691   9.124  43.373  1.00  0.00     0.000 C 
BRANCH   4   5
ATOM      5  C   UNL     1      21.564   8.640  42.201  1.00  0.00     0.000 C 
BRANCH   5   6
ATOM      6  C   UNL     1      20.812   7.875  41.095  1.00  0.00     0.006 C 
BRANCH   6   7
ATOM      7  C   UNL     1      19.279   7.918  41.233  1.00  0.00     0.053 C 
BRANCH   7   8
ATOM      8  C   UNL     1      18.610   8.477  40.013  1.00  0.00     0.041 C 
ATOM      9  O   UNL     1      17.575   7.929  39.551  1.00  0.00    -0.550 OA
ATOM     10  O   UNL     1      19.104   9.627  39.412  1.00  0.00    -0.550 OA
ENDBRANCH   7   8
ENDBRANCH   6   7
ENDBRANCH   5   6
ENDBRANCH   4   5
ENDBRANCH   3   4
ENDBRANCH   2   3
ENDBRANCH   1   2
BRANCH   1  11
ATOM     11  C   UNL     1      21.236  13.391  43.813  1.00  0.00     0.000 C 
BRANCH  11  12
ATOM     12  C   UNL     1      19.929  14.190  43.893  1.00  0.00     0.000 C 
BRANCH  12  13
ATOM     13  C   UNL     1      19.474  14.637  42.496  1.00  0.00     0.000 C 
BRANCH  13  14
ATOM     14  C   UNL     1      19.229  16.153  42.405  1.00  0.00     0.000 C 
BRANCH  14  15
ATOM     15  C   UNL     1      20.507  17.012  42.338  1.00  0.00     0.000 C 
BRANCH  15  16
ATOM     16  C   UNL     1      21.592  16.439  41.402  1.00  0.00     0.006 C 
BRANCH  16  17
ATOM     17  C   UNL     1      23.002  16.578  41.992  1.00  0.00     0.053 C 
BRANCH  17  18
ATOM     18  C   UNL     1      23.922  15.560  41.394  1.00  0.00     0.041 C 
ATOM     19  O   UNL     1      24.216  15.613  40.170  1.00  0.00    -0.550 OA
ATOM     20  O   UNL     1      24.492  14.582  42.198  1.00  0.00    -0.550 OA
ENDBRANCH  17  18
ENDBRANCH  16  17
ENDBRANCH  15  16
ENDBRANCH  14  15
ENDBRANCH  13  14
ENDBRANCH  12  13
ENDBRANCH  11  12
ENDBRANCH   1  11
TORSDOF 15
ENDMDL
MODEL 7
REMARK VINA RESULT:    -4.894     11.049     13.522
REMARK INTER + INTRA:         -10.588
REMARK INTER:                  -9.021
REMARK INTRA:                  -1.566
REMARK UNBOUND:                -1.402
REMARK SMILES O=C([O-])CCCCCCCCCCCCCCC(=O)[O-]
REMARK SMILES IDX 10 1 9 2 8 3 7 4 6 5 5 6 4 7 2 8 1 9 3 10 11 11 12 12 13 13
REMARK SMILES IDX 14 14 15 15 16 16 17 17 18 18 19 19 20 20
REMARK H PARENT
REMARK Flexibility Score: inf
ROOT
ATOM      1  C   UNL     1      21.209   9.507  45.219  1.00  0.00     0.000 C 
ENDROOT
BRANCH   1   2
ATOM      2  C   UNL     1      21.732   9.150  43.819  1.00  0.00     0.000 C 
BRANCH   2   3
ATOM      3  C   UNL     1      22.152  10.386  43.010  1.00  0.00     0.000 C 
BRANCH   3   4
ATOM      4  C   UNL     1      21.421  10.431  41.660  1.00  0.00     0.000 C 
BRANCH   4   5
ATOM      5  C   UNL     1      21.719   9.208  40.776  1.00  0.00     0.000 C 
BRANCH   5   6
ATOM      6  C   UNL     1      20.967   9.172  39.431  1.00  0.00     0.006 C 
BRANCH   6   7
ATOM      7  C   UNL     1      19.749   8.230  39.418  1.00  0.00     0.053 C 
BRANCH   7   8
ATOM      8  C   UNL     1      18.449   8.975  39.498  1.00  0.00     0.041 C 
ATOM      9  O   UNL     1      17.364   8.345  39.610  1.00  0.00    -0.550 OA
ATOM     10  O   UNL     1      18.439  10.363  39.489  1.00  0.00    -0.550 OA
ENDBRANCH   7   8
ENDBRANCH   6   7
ENDBRANCH   5   6
ENDBRANCH   4   5
ENDBRANCH   3   4
ENDBRANCH   2   3
ENDBRANCH   1   2
BRANCH   1  11
ATOM     11  C   UNL     1      19.873  10.265  45.176  1.00  0.00     0.000 C 
BRANCH  11  12
ATOM     12  C   UNL     1      19.851  11.399  46.209  1.00  0.00     0.000 C 
BRANCH  12  13
ATOM     13  C   UNL     1      19.400  12.718  45.566  1.00  0.00     0.000 C 
BRANCH  13  14
ATOM     14  C   UNL     1      20.427  13.277  44.566  1.00  0.00     0.000 C 
BRANCH  14  15
ATOM     15  C   UNL     1      19.821  13.870  43.279  1.00  0.00     0.000 C 
BRANCH  15  16
ATOM     16  C   UNL     1      20.837  14.649  42.416  1.00  0.00     0.006 C 
BRANCH  16  17
ATOM     17  C   UNL     1      22.205  13.956  42.359  1.00  0.00     0.053 C 
BRANCH  17  18
ATOM     18  C   UNL     1      23.265  14.926  41.946  1.00  0.00     0.041 C 
ATOM     19  O   UNL     1      24.318  15.044  42.627  1.00  0.00    -0.550 OA
ATOM     20  O   UNL     1      23.113  15.667  40.781  1.00  0.00    -0.550 OA
ENDBRANCH  17  18
ENDBRANCH  16  17
ENDBRANCH  15  16
ENDBRANCH  14  15
ENDBRANCH  13  14
ENDBRANCH  12  13
ENDBRANCH  11  12
ENDBRANCH   1  11
TORSDOF 15
ENDMDL
MODEL 8
REMARK VINA RESULT:    -4.856     11.405     12.892
REMARK INTER + INTRA:         -10.516
REMARK INTER:                  -8.664
REMARK INTRA:                  -1.851
REMARK UNBOUND:                -1.402
REMARK SMILES O=C([O-])CCCCCCCCCCCCCCC(=O)[O-]
REMARK SMILES IDX 10 1 9 2 8 3 7 4 6 5 5 6 4 7 2 8 1 9 3 10 11 11 12 12 13 13
REMARK SMILES IDX 14 14 15 15 16 16 17 17 18 18 19 19 20 20
REMARK H PARENT
REMARK Flexibility Score: inf
ROOT
ATOM      1  C   UNL     1      20.386  12.811  43.199  1.00  0.00     0.000 C 
ENDROOT
BRANCH   1   2
ATOM      2  C   UNL     1      20.100  14.244  43.677  1.00  0.00     0.000 C 
BRANCH   2   3
ATOM      3  C   UNL     1      19.117  14.989  42.761  1.00  0.00     0.000 C 
BRANCH   3   4
ATOM      4  C   UNL     1      19.607  16.417  42.480  1.00  0.00     0.000 C 
BRANCH   4   5
ATOM      5  C   UNL     1      21.090  16.623  42.832  1.00  0.00     0.000 C 
BRANCH   5   6
ATOM      6  C   UNL     1      22.026  16.843  41.628  1.00  0.00     0.006 C 
BRANCH   6   7
ATOM      7  C   UNL     1      22.516  15.541  40.968  1.00  0.00     0.053 C 
BRANCH   7   8
ATOM      8  C   UNL     1      24.003  15.373  41.068  1.00  0.00     0.041 C 
ATOM      9  O   UNL     1      24.489  14.371  41.655  1.00  0.00    -0.550 OA
ATOM     10  O   UNL     1      24.851  16.300  40.477  1.00  0.00    -0.550 OA
ENDBRANCH   7   8
ENDBRANCH   6   7
ENDBRANCH   5   6
ENDBRANCH   4   5
ENDBRANCH   3   4
ENDBRANCH   2   3
ENDBRANCH   1   2
BRANCH   1  11
ATOM     11  C   UNL     1      21.888  12.492  43.153  1.00  0.00     0.000 C 
BRANCH  11  12
ATOM     12  C   UNL     1      22.148  11.182  42.398  1.00  0.00     0.000 C 
BRANCH  12  13
ATOM     13  C   UNL     1      20.853  10.643  41.775  1.00  0.00     0.000 C 
BRANCH  13  14
ATOM     14  C   UNL     1      20.629   9.148  42.064  1.00  0.00     0.000 C 
BRANCH  14  15
ATOM     15  C   UNL     1      21.676   8.505  42.994  1.00  0.00     0.000 C 
BRANCH  15  16
ATOM     16  C   UNL     1      21.124   8.131  44.386  1.00  0.00     0.006 C 
BRANCH  16  17
ATOM     17  C   UNL     1      20.070   9.130  44.882  1.00  0.00     0.053 C 
BRANCH  17  18
ATOM     18  C   UNL     1      20.681  10.100  45.843  1.00  0.00     0.041 C 
ATOM     19  O   UNL     1      21.927  10.108  46.030  1.00  0.00    -0.550 OA
ATOM     20  O   UNL     1      19.881  11.027  46.498  1.00  0.00    -0.550 OA
ENDBRANCH  17  18
ENDBRANCH  16  17
ENDBRANCH  15  16
ENDBRANCH  14  15
ENDBRANCH  13  14
ENDBRANCH  12  13
ENDBRANCH  11  12
ENDBRANCH   1  11
TORSDOF 15
ENDMDL
MODEL 9
REMARK VINA RESULT:    -4.827     11.605     13.792
REMARK INTER + INTRA:         -10.461
REMARK INTER:                  -8.300
REMARK INTRA:                  -2.162
REMARK UNBOUND:                -1.402
REMARK SMILES O=C([O-])CCCCCCCCCCCCCCC(=O)[O-]
REMARK SMILES IDX 10 1 9 2 8 3 7 4 6 5 5 6 4 7 2 8 1 9 3 10 11 11 12 12 13 13
REMARK SMILES IDX 14 14 15 15 16 16 17 17 18 18 19 19 20 20
REMARK H PARENT
REMARK Flexibility Score: inf
ROOT
ATOM      1  C   UNL     1      20.484  16.934  42.296  1.00  0.00     0.000 C 
ENDROOT
BRANCH   1   2
ATOM      2  C   UNL     1      21.331  16.178  41.260  1.00  0.00     0.000 C 
BRANCH   2   3
ATOM      3  C   UNL     1      22.813  16.094  41.653  1.00  0.00     0.000 C 
BRANCH   3   4
ATOM      4  C   UNL     1      23.316  14.645  41.585  1.00  0.00     0.000 C 
BRANCH   4   5
ATOM      5  C   UNL     1      24.094  14.219  42.842  1.00  0.00     0.000 C 
BRANCH   5   6
ATOM      6  C   UNL     1      24.501  12.733  42.890  1.00  0.00     0.006 C 
BRANCH   6   7
ATOM      7  C   UNL     1      24.480  12.123  44.303  1.00  0.00     0.053 C 
BRANCH   7   8
ATOM      8  C   UNL     1      23.978  10.709  44.308  1.00  0.00     0.041 C 
ATOM      9  O   UNL     1      24.153   9.970  43.303  1.00  0.00    -0.550 OA
ATOM     10  O   UNL     1      23.353  10.195  45.437  1.00  0.00    -0.550 OA
ENDBRANCH   7   8
ENDBRANCH   6   7
ENDBRANCH   5   6
ENDBRANCH   4   5
ENDBRANCH   3   4
ENDBRANCH   2   3
ENDBRANCH   1   2
BRANCH   1  11
ATOM     11  C   UNL     1      19.263  16.127  42.765  1.00  0.00     0.000 C 
BRANCH  11  12
ATOM     12  C   UNL     1      19.531  14.620  42.666  1.00  0.00     0.000 C 
BRANCH  12  13
ATOM     13  C   UNL     1      19.926  14.042  44.032  1.00  0.00     0.000 C 
BRANCH  13  14
ATOM     14  C   UNL     1      20.793  12.776  43.916  1.00  0.00     0.000 C 
BRANCH  14  15
ATOM     15  C   UNL     1      20.797  12.120  42.522  1.00  0.00     0.000 C 
BRANCH  15  16
ATOM     16  C   UNL     1      20.736  10.578  42.560  1.00  0.00     0.006 C 
BRANCH  16  17
ATOM     17  C   UNL     1      21.115   9.947  41.214  1.00  0.00     0.053 C 
BRANCH  17  18
ATOM     18  C   UNL     1      19.951   9.202  40.640  1.00  0.00     0.041 C 
ATOM     19  O   UNL     1      19.571   8.121  41.161  1.00  0.00    -0.550 OA
ATOM     20  O   UNL     1      19.256   9.727  39.558  1.00  0.00    -0.550 OA
ENDBRANCH  17  18
ENDBRANCH  16  17
ENDBRANCH  15  16
ENDBRANCH  14  15
ENDBRANCH  13  14
ENDBRANCH  12  13
ENDBRANCH  11  12
ENDBRANCH   1  11
TORSDOF 15
ENDMDL
