MODEL 1
REMARK VINA RESULT:    -4.896      0.000      0.000
REMARK INTER + INTRA:          -5.039
REMARK INTER:                  -5.039
REMARK INTRA:                   0.000
REMARK UNBOUND:                 0.000
REMARK SMILES Oc1ccc2[nH]ccc2c1
REMARK SMILES IDX 3 1 4 2 5 3 9 4 8 5 7 6 6 7 10 8 2 9 1 11
REMARK H PARENT 6 10 1 12
REMARK Flexibility Score: inf
ROOT
ATOM      1  C   UNL     1     -10.841   5.076 -10.063  1.00  0.00     0.048 A 
ATOM      2  C   UNL     1     -10.148   6.154  -9.482  1.00  0.00     0.030 A 
ATOM      3  C   UNL     1      -8.850   6.408  -9.922  1.00  0.00     0.046 A 
ATOM      4  C   UNL     1      -8.255   5.641 -10.888  1.00  0.00     0.003 A 
ATOM      5  C   UNL     1      -6.991   6.147 -11.093  1.00  0.00     0.028 A 
ATOM      6  C   UNL     1      -6.882   7.223 -10.218  1.00  0.00     0.083 A 
ATOM      7  N   UNL     1      -8.021   7.378  -9.505  1.00  0.00    -0.361 N 
ATOM      8  C   UNL     1      -8.912   4.566 -11.483  1.00  0.00     0.056 A 
ATOM      9  C   UNL     1     -10.226   4.281 -11.063  1.00  0.00     0.116 A 
ATOM     10  H   UNL     1      -8.212   8.105  -8.779  1.00  0.00     0.166 HD
ENDROOT
BRANCH   9  11
ATOM     11  O   UNL     1     -10.911   3.214 -11.638  1.00  0.00    -0.508 OA
ATOM     12  H   UNL     1     -11.923   3.193 -11.673  1.00  0.00     0.293 HD
ENDBRANCH   9  11
TORSDOF 1
ENDMDL
MODEL 2
REMARK VINA RESULT:    -4.801      2.455      3.641
REMARK INTER + INTRA:          -4.942
REMARK INTER:                  -4.942
REMARK INTRA:                   0.000
REMARK UNBOUND:                 0.000
REMARK SMILES Oc1ccc2[nH]ccc2c1
REMARK SMILES IDX 3 1 4 2 5 3 9 4 8 5 7 6 6 7 10 8 2 9 1 11
REMARK H PARENT 6 10 1 12
REMARK Flexibility Score: inf
ROOT
ATOM      1  C   UNL     1      -7.468   7.970 -10.483  1.00  0.00     0.048 A 
ATOM      2  C   UNL     1      -8.766   7.668 -10.030  1.00  0.00     0.030 A 
ATOM      3  C   UNL     1      -9.276   6.402 -10.314  1.00  0.00     0.046 A 
ATOM      4  C   UNL     1      -8.550   5.473 -11.010  1.00  0.00     0.003 A 
ATOM      5  C   UNL     1      -9.328   4.342 -11.121  1.00  0.00     0.028 A 
ATOM      6  C   UNL     1     -10.518   4.653 -10.469  1.00  0.00     0.083 A 
ATOM      7  N   UNL     1     -10.481   5.912  -9.977  1.00  0.00    -0.361 N 
ATOM      8  C   UNL     1      -7.263   5.740 -11.473  1.00  0.00     0.056 A 
ATOM      9  C   UNL     1      -6.716   7.009 -11.204  1.00  0.00     0.116 A 
ATOM     10  H   UNL     1     -11.235   6.400  -9.445  1.00  0.00     0.166 HD
ENDROOT
BRANCH   9  11
ATOM     11  O   UNL     1      -5.432   7.309 -11.652  1.00  0.00    -0.508 OA
ATOM     12  H   UNL     1      -4.898   8.072 -11.255  1.00  0.00     0.293 HD
ENDBRANCH   9  11
TORSDOF 1
ENDMDL
MODEL 3
REMARK VINA RESULT:    -4.750      2.568      4.166
REMARK INTER + INTRA:          -4.889
REMARK INTER:                  -4.889
REMARK INTRA:                   0.000
REMARK UNBOUND:                 0.000
REMARK SMILES Oc1ccc2[nH]ccc2c1
REMARK SMILES IDX 3 1 4 2 5 3 9 4 8 5 7 6 6 7 10 8 2 9 1 11
REMARK H PARENT 6 10 1 12
REMARK Flexibility Score: inf
ROOT
ATOM      1  C   UNL     1      -7.918   5.669 -10.805  1.00  0.00     0.048 A 
ATOM      2  C   UNL     1      -8.589   4.560 -11.353  1.00  0.00     0.030 A 
ATOM      3  C   UNL     1      -9.939   4.398 -11.046  1.00  0.00     0.046 A 
ATOM      4  C   UNL     1     -10.604   5.281 -10.238  1.00  0.00     0.003 A 
ATOM      5  C   UNL     1     -11.906   4.844 -10.135  1.00  0.00     0.028 A 
ATOM      6  C   UNL     1     -11.963   3.686 -10.906  1.00  0.00     0.083 A 
ATOM      7  N   UNL     1     -10.759   3.419 -11.461  1.00  0.00    -0.361 N 
ATOM      8  C   UNL     1      -9.970   6.389  -9.679  1.00  0.00     0.056 A 
ATOM      9  C   UNL     1      -8.606   6.584  -9.968  1.00  0.00     0.116 A 
ATOM     10  H   UNL     1     -10.520   2.615 -12.083  1.00  0.00     0.166 HD
ENDROOT
BRANCH   9  11
ATOM     11  O   UNL     1      -7.942   7.681  -9.426  1.00  0.00    -0.508 OA
ATOM     12  H   UNL     1      -6.932   7.757  -9.457  1.00  0.00     0.293 HD
ENDBRANCH   9  11
TORSDOF 1
ENDMDL
MODEL 4
REMARK VINA RESULT:    -4.606      1.746      2.616
REMARK INTER + INTRA:          -4.741
REMARK INTER:                  -4.741
REMARK INTRA:                   0.000
REMARK UNBOUND:                 0.000
REMARK SMILES Oc1ccc2[nH]ccc2c1
REMARK SMILES IDX 3 1 4 2 5 3 9 4 8 5 7 6 6 7 10 8 2 9 1 11
REMARK H PARENT 6 10 1 12
REMARK Flexibility Score: inf
ROOT
ATOM      1  C   UNL     1      -8.672   4.898 -10.757  1.00  0.00     0.048 A 
ATOM      2  C   UNL     1      -7.345   5.109 -11.174  1.00  0.00     0.030 A 
ATOM      3  C   UNL     1      -6.864   6.418 -11.179  1.00  0.00     0.046 A 
ATOM      4  C   UNL     1      -7.647   7.473 -10.793  1.00  0.00     0.003 A 
ATOM      5  C   UNL     1      -6.885   8.614 -10.910  1.00  0.00     0.028 A 
ATOM      6  C   UNL     1      -5.647   8.180 -11.374  1.00  0.00     0.083 A 
ATOM      7  N   UNL     1      -5.640   6.838 -11.536  1.00  0.00    -0.361 N 
ATOM      8  C   UNL     1      -8.965   7.299 -10.375  1.00  0.00     0.056 A 
ATOM      9  C   UNL     1      -9.483   5.990 -10.358  1.00  0.00     0.116 A 
ATOM     10  H   UNL     1      -4.843   6.251 -11.870  1.00  0.00     0.166 HD
ENDROOT
BRANCH   9  11
ATOM     11  O   UNL     1     -10.796   5.780  -9.946  1.00  0.00    -0.508 OA
ATOM     12  H   UNL     1     -11.540   6.418 -10.202  1.00  0.00     0.293 HD
ENDBRANCH   9  11
TORSDOF 1
ENDMDL
MODEL 5
REMARK VINA RESULT:    -4.488      3.602      5.250
REMARK INTER + INTRA:          -4.619
REMARK INTER:                  -4.619
REMARK INTRA:                   0.000
REMARK UNBOUND:                 0.000
REMARK SMILES Oc1ccc2[nH]ccc2c1
REMARK SMILES IDX 3 1 4 2 5 3 9 4 8 5 7 6 6 7 10 8 2 9 1 11
REMARK H PARENT 6 10 1 12
REMARK Flexibility Score: inf
ROOT
ATOM      1  C   UNL     1      -4.726   8.847 -10.608  1.00  0.00     0.048 A 
ATOM      2  C   UNL     1      -4.863   7.464 -10.827  1.00  0.00     0.030 A 
ATOM      3  C   UNL     1      -6.151   6.955 -10.988  1.00  0.00     0.046 A 
ATOM      4  C   UNL     1      -7.255   7.763 -10.937  1.00  0.00     0.003 A 
ATOM      5  C   UNL     1      -8.359   6.962 -11.131  1.00  0.00     0.028 A 
ATOM      6  C   UNL     1      -7.853   5.676 -11.294  1.00  0.00     0.083 A 
ATOM      7  N   UNL     1      -6.503   5.678 -11.206  1.00  0.00    -0.361 N 
ATOM      8  C   UNL     1      -7.155   9.136 -10.721  1.00  0.00     0.056 A 
ATOM      9  C   UNL     1      -5.869   9.684 -10.555  1.00  0.00     0.116 A 
ATOM     10  H   UNL     1      -5.868   4.853 -11.291  1.00  0.00     0.166 HD
ENDROOT
BRANCH   9  11
ATOM     11  O   UNL     1      -5.732  11.053 -10.337  1.00  0.00    -0.508 OA
ATOM     12  H   UNL     1      -6.377  11.562  -9.745  1.00  0.00     0.293 HD
ENDBRANCH   9  11
TORSDOF 1
ENDMDL
MODEL 6
REMARK VINA RESULT:    -4.434      2.691      3.762
REMARK INTER + INTRA:          -4.563
REMARK INTER:                  -4.563
REMARK INTRA:                   0.000
REMARK UNBOUND:                 0.000
REMARK SMILES Oc1ccc2[nH]ccc2c1
REMARK SMILES IDX 3 1 4 2 5 3 9 4 8 5 7 6 6 7 10 8 2 9 1 11
REMARK H PARENT 6 10 1 12
REMARK Flexibility Score: inf
ROOT
ATOM      1  C   UNL     1      -6.920   7.436 -11.183  1.00  0.00     0.048 A 
ATOM      2  C   UNL     1      -5.559   7.255 -10.875  1.00  0.00     0.030 A 
ATOM      3  C   UNL     1      -5.127   5.966 -10.569  1.00  0.00     0.046 A 
ATOM      4  C   UNL     1      -5.987   4.901 -10.562  1.00  0.00     0.003 A 
ATOM      5  C   UNL     1      -5.256   3.784 -10.224  1.00  0.00     0.028 A 
ATOM      6  C   UNL     1      -3.955   4.242 -10.038  1.00  0.00     0.083 A 
ATOM      7  N   UNL     1      -3.882   5.576 -10.250  1.00  0.00    -0.361 N 
ATOM      8  C   UNL     1      -7.340   5.045 -10.861  1.00  0.00     0.056 A 
ATOM      9  C   UNL     1      -7.812   6.334 -11.176  1.00  0.00     0.116 A 
ATOM     10  H   UNL     1      -3.030   6.176 -10.179  1.00  0.00     0.166 HD
ENDROOT
BRANCH   9  11
ATOM     11  O   UNL     1      -9.159   6.513 -11.480  1.00  0.00    -0.508 OA
ATOM     12  H   UNL     1      -9.545   7.435 -11.649  1.00  0.00     0.293 HD
ENDBRANCH   9  11
TORSDOF 1
ENDMDL
MODEL 7
REMARK VINA RESULT:    -4.431      1.556      2.089
REMARK INTER + INTRA:          -4.561
REMARK INTER:                  -4.561
REMARK INTRA:                   0.000
REMARK UNBOUND:                 0.000
REMARK SMILES Oc1ccc2[nH]ccc2c1
REMARK SMILES IDX 3 1 4 2 5 3 9 4 8 5 7 6 6 7 10 8 2 9 1 11
REMARK H PARENT 6 10 1 12
REMARK Flexibility Score: inf
ROOT
ATOM      1  C   UNL     1      -9.096   6.451 -10.972  1.00  0.00     0.048 A 
ATOM      2  C   UNL     1      -8.364   7.449 -10.304  1.00  0.00     0.030 A 
ATOM      3  C   UNL     1      -7.032   7.182  -9.994  1.00  0.00     0.046 A 
ATOM      4  C   UNL     1      -6.442   5.990 -10.322  1.00  0.00     0.003 A 
ATOM      5  C   UNL     1      -5.137   6.043  -9.883  1.00  0.00     0.028 A 
ATOM      6  C   UNL     1      -5.001   7.297  -9.295  1.00  0.00     0.083 A 
ATOM      7  N   UNL     1      -6.161   7.989  -9.366  1.00  0.00    -0.361 N 
ATOM      8  C   UNL     1      -7.138   4.980 -10.982  1.00  0.00     0.056 A 
ATOM      9  C   UNL     1      -8.487   5.217 -11.311  1.00  0.00     0.116 A 
ATOM     10  H   UNL     1      -6.339   8.953  -9.005  1.00  0.00     0.166 HD
ENDROOT
BRANCH   9  11
ATOM     11  O   UNL     1      -9.213   4.229 -11.972  1.00  0.00    -0.508 OA
ATOM     12  H   UNL     1      -9.952   3.715 -11.507  1.00  0.00     0.293 HD
ENDBRANCH   9  11
TORSDOF 1
ENDMDL
MODEL 8
REMARK VINA RESULT:    -4.283      4.156      5.693
REMARK INTER + INTRA:          -4.408
REMARK INTER:                  -4.408
REMARK INTRA:                   0.000
REMARK UNBOUND:                 0.000
REMARK SMILES Oc1ccc2[nH]ccc2c1
REMARK SMILES IDX 3 1 4 2 5 3 9 4 8 5 7 6 6 7 10 8 2 9 1 11
REMARK H PARENT 6 10 1 12
REMARK Flexibility Score: inf
ROOT
ATOM      1  C   UNL     1      -5.023  10.700 -10.887  1.00  0.00     0.048 A 
ATOM      2  C   UNL     1      -5.059   9.703  -9.896  1.00  0.00     0.030 A 
ATOM      3  C   UNL     1      -5.780   8.541 -10.167  1.00  0.00     0.046 A 
ATOM      4  C   UNL     1      -6.438   8.363 -11.355  1.00  0.00     0.003 A 
ATOM      5  C   UNL     1      -7.045   7.128 -11.308  1.00  0.00     0.028 A 
ATOM      6  C   UNL     1      -6.715   6.607 -10.061  1.00  0.00     0.083 A 
ATOM      7  N   UNL     1      -5.943   7.474  -9.368  1.00  0.00    -0.361 N 
ATOM      8  C   UNL     1      -6.423   9.331 -12.358  1.00  0.00     0.056 A 
ATOM      9  C   UNL     1      -5.703  10.517 -12.118  1.00  0.00     0.116 A 
ATOM     10  H   UNL     1      -5.554   7.339  -8.408  1.00  0.00     0.166 HD
ENDROOT
BRANCH   9  11
ATOM     11  O   UNL     1      -5.667  11.505 -13.098  1.00  0.00    -0.508 OA
ATOM     12  H   UNL     1      -6.468  12.097 -13.283  1.00  0.00     0.293 HD
ENDBRANCH   9  11
TORSDOF 1
ENDMDL
MODEL 9
REMARK VINA RESULT:    -4.181      5.097      6.295
REMARK INTER + INTRA:          -4.304
REMARK INTER:                  -4.304
REMARK INTRA:                   0.000
REMARK UNBOUND:                 0.000
REMARK SMILES Oc1ccc2[nH]ccc2c1
REMARK SMILES IDX 3 1 4 2 5 3 9 4 8 5 7 6 6 7 10 8 2 9 1 11
REMARK H PARENT 6 10 1 12
REMARK Flexibility Score: inf
ROOT
ATOM      1  C   UNL     1      -6.605   9.197 -12.568  1.00  0.00     0.048 A 
ATOM      2  C   UNL     1      -6.255   8.763 -11.276  1.00  0.00     0.030 A 
ATOM      3  C   UNL     1      -5.458   9.602 -10.501  1.00  0.00     0.046 A 
ATOM      4  C   UNL     1      -5.019  10.813 -10.968  1.00  0.00     0.003 A 
ATOM      5  C   UNL     1      -4.264  11.389  -9.971  1.00  0.00     0.028 A 
ATOM      6  C   UNL     1      -4.282  10.473  -8.924  1.00  0.00     0.083 A 
ATOM      7  N   UNL     1      -5.013   9.383  -9.252  1.00  0.00    -0.361 N 
ATOM      8  C   UNL     1      -5.346  11.272 -12.242  1.00  0.00     0.056 A 
ATOM      9  C   UNL     1      -6.151  10.450 -13.053  1.00  0.00     0.116 A 
ATOM     10  H   UNL     1      -5.194   8.546  -8.655  1.00  0.00     0.166 HD
ENDROOT
BRANCH   9  11
ATOM     11  O   UNL     1      -6.497  10.879 -14.332  1.00  0.00    -0.508 OA
ATOM     12  H   UNL     1      -7.465  10.951 -14.623  1.00  0.00     0.293 HD
ENDBRANCH   9  11
TORSDOF 1
ENDMDL
