MODEL 1
REMARK VINA RESULT:    -4.183      0.000      0.000
REMARK INTER + INTRA:          -4.664
REMARK INTER:                  -4.427
REMARK INTRA:                  -0.236
REMARK UNBOUND:                -0.236
REMARK SMILES C=C(C)[C@H]1CC=C(C)CC1
REMARK SMILES IDX 8 1 7 2 6 3 5 4 4 5 10 6 9 7 2 8 1 9 3 10
REMARK H PARENT
REMARK Flexibility Score: inf
ROOT
ATOM      1  C   UNL     1     141.544 137.752 131.249  1.00  0.00     0.039 C 
ATOM      2  C   UNL     1     140.350 136.918 131.618  1.00  0.00    -0.077 C 
ATOM      3  C   UNL     1     140.505 135.809 132.363  1.00  0.00    -0.027 C 
ATOM      4  C   UNL     1     139.309 134.965 132.718  1.00  0.00     0.035 C 
ATOM      5  C   UNL     1     138.307 134.806 131.537  1.00  0.00     0.018 C 
ATOM      6  C   UNL     1     138.340 135.979 130.511  1.00  0.00     0.013 C 
ATOM      7  C   UNL     1     138.973 137.249 131.095  1.00  0.00     0.031 C 
ENDROOT
BRANCH   5   8
ATOM      8  C   UNL     1     138.498 133.469 130.830  1.00  0.00    -0.077 C 
ATOM      9  C   UNL     1     139.365 133.355 129.812  1.00  0.00     0.008 C 
ATOM     10  C   UNL     1     137.737 132.245 131.275  1.00  0.00     0.039 C 
ENDBRANCH   5   8
TORSDOF 1
ENDMDL
MODEL 2
REMARK VINA RESULT:    -4.175      3.580      5.054
REMARK INTER + INTRA:          -4.656
REMARK INTER:                  -4.420
REMARK INTRA:                  -0.236
REMARK UNBOUND:                -0.236
REMARK SMILES C=C(C)[C@H]1CC=C(C)CC1
REMARK SMILES IDX 8 1 7 2 6 3 5 4 4 5 10 6 9 7 2 8 1 9 3 10
REMARK H PARENT
REMARK Flexibility Score: inf
ROOT
ATOM      1  C   UNL     1     135.978 141.524 131.222  1.00  0.00     0.039 C 
ATOM      2  C   UNL     1     136.829 140.352 131.625  1.00  0.00    -0.077 C 
ATOM      3  C   UNL     1     137.949 140.546 132.343  1.00  0.00    -0.027 C 
ATOM      4  C   UNL     1     138.810 139.372 132.731  1.00  0.00     0.035 C 
ATOM      5  C   UNL     1     138.957 138.325 131.589  1.00  0.00     0.018 C 
ATOM      6  C   UNL     1     137.766 138.306 130.585  1.00  0.00     0.013 C 
ATOM      7  C   UNL     1     136.501 138.952 131.165  1.00  0.00     0.031 C 
ENDROOT
BRANCH   5   8
ATOM      8  C   UNL     1     140.280 138.497 130.852  1.00  0.00    -0.077 C 
ATOM      9  C   UNL     1     140.371 139.330 129.804  1.00  0.00     0.008 C 
ATOM     10  C   UNL     1     141.515 137.756 131.299  1.00  0.00     0.039 C 
ENDBRANCH   5   8
TORSDOF 1
ENDMDL
MODEL 3
REMARK VINA RESULT:    -4.165      3.604      5.066
REMARK INTER + INTRA:          -4.644
REMARK INTER:                  -4.407
REMARK INTRA:                  -0.238
REMARK UNBOUND:                -0.236
REMARK SMILES C=C(C)[C@H]1CC=C(C)CC1
REMARK SMILES IDX 8 1 7 2 6 3 5 4 4 5 10 6 9 7 2 8 1 9 3 10
REMARK H PARENT
REMARK Flexibility Score: inf
ROOT
ATOM      1  C   UNL     1     137.733 132.219 131.229  1.00  0.00     0.039 C 
ATOM      2  C   UNL     1     136.888 133.399 131.621  1.00  0.00    -0.077 C 
ATOM      3  C   UNL     1     135.763 133.217 132.332  1.00  0.00    -0.027 C 
ATOM      4  C   UNL     1     134.909 134.399 132.709  1.00  0.00     0.035 C 
ATOM      5  C   UNL     1     134.776 135.442 131.561  1.00  0.00     0.018 C 
ATOM      6  C   UNL     1     135.974 135.446 130.564  1.00  0.00     0.013 C 
ATOM      7  C   UNL     1     137.230 134.794 131.155  1.00  0.00     0.031 C 
ENDROOT
BRANCH   5   8
ATOM      8  C   UNL     1     133.457 135.275 130.817  1.00  0.00    -0.077 C 
ATOM      9  C   UNL     1     133.374 134.461 129.753  1.00  0.00     0.008 C 
ATOM     10  C   UNL     1     132.216 136.001 131.273  1.00  0.00     0.039 C 
ENDBRANCH   5   8
TORSDOF 1
ENDMDL
MODEL 4
REMARK VINA RESULT:    -4.154      5.006      7.135
REMARK INTER + INTRA:          -4.633
REMARK INTER:                  -4.391
REMARK INTRA:                  -0.242
REMARK UNBOUND:                -0.236
REMARK SMILES C=C(C)[C@H]1CC=C(C)CC1
REMARK SMILES IDX 8 1 7 2 6 3 5 4 4 5 10 6 9 7 2 8 1 9 3 10
REMARK H PARENT
REMARK Flexibility Score: inf
ROOT
ATOM      1  C   UNL     1     132.139 136.009 131.244  1.00  0.00     0.039 C 
ATOM      2  C   UNL     1     133.358 136.820 131.587  1.00  0.00    -0.077 C 
ATOM      3  C   UNL     1     133.242 137.927 132.341  1.00  0.00    -0.027 C 
ATOM      4  C   UNL     1     134.461 138.747 132.670  1.00  0.00     0.035 C 
ATOM      5  C   UNL     1     135.436 138.895 131.465  1.00  0.00     0.018 C 
ATOM      6  C   UNL     1     135.356 137.728 130.435  1.00  0.00     0.013 C 
ATOM      7  C   UNL     1     134.715 136.467 131.028  1.00  0.00     0.031 C 
ENDROOT
BRANCH   5   8
ATOM      8  C   UNL     1     135.251 140.239 130.770  1.00  0.00    -0.077 C 
ATOM      9  C   UNL     1     134.431 140.352 129.714  1.00  0.00     0.008 C 
ATOM     10  C   UNL     1     135.966 141.470 131.269  1.00  0.00     0.039 C 
ENDBRANCH   5   8
TORSDOF 1
ENDMDL
MODEL 5
REMARK VINA RESULT:    -3.945      1.952      3.442
REMARK INTER + INTRA:          -4.411
REMARK INTER:                  -4.301
REMARK INTRA:                  -0.110
REMARK UNBOUND:                -0.236
REMARK SMILES C=C(C)[C@H]1CC=C(C)CC1
REMARK SMILES IDX 8 1 7 2 6 3 5 4 4 5 10 6 9 7 2 8 1 9 3 10
REMARK H PARENT
REMARK Flexibility Score: inf
ROOT
ATOM      1  C   UNL     1     139.321 139.212 128.764  1.00  0.00     0.039 C 
ATOM      2  C   UNL     1     139.906 138.858 130.103  1.00  0.00    -0.077 C 
ATOM      3  C   UNL     1     140.874 137.930 130.192  1.00  0.00    -0.027 C 
ATOM      4  C   UNL     1     141.447 137.564 131.536  1.00  0.00     0.035 C 
ATOM      5  C   UNL     1     140.365 137.467 132.650  1.00  0.00     0.018 C 
ATOM      6  C   UNL     1     139.103 138.343 132.391  1.00  0.00     0.013 C 
ATOM      7  C   UNL     1     139.367 139.463 131.376  1.00  0.00     0.031 C 
ENDROOT
BRANCH   5   8
ATOM      8  C   UNL     1     139.970 136.017 132.908  1.00  0.00    -0.077 C 
ATOM      9  C   UNL     1     139.697 135.598 134.153  1.00  0.00     0.008 C 
ATOM     10  C   UNL     1     139.856 135.035 131.769  1.00  0.00     0.039 C 
ENDBRANCH   5   8
TORSDOF 1
ENDMDL
MODEL 6
REMARK VINA RESULT:    -3.943      5.217      6.776
REMARK INTER + INTRA:          -4.410
REMARK INTER:                  -4.304
REMARK INTRA:                  -0.105
REMARK UNBOUND:                -0.236
REMARK SMILES C=C(C)[C@H]1CC=C(C)CC1
REMARK SMILES IDX 8 1 7 2 6 3 5 4 4 5 10 6 9 7 2 8 1 9 3 10
REMARK H PARENT
REMARK Flexibility Score: inf
ROOT
ATOM      1  C   UNL     1     134.641 138.994 128.881  1.00  0.00     0.039 C 
ATOM      2  C   UNL     1     134.944 139.714 130.165  1.00  0.00    -0.077 C 
ATOM      3  C   UNL     1     135.852 140.705 130.185  1.00  0.00    -0.027 C 
ATOM      4  C   UNL     1     136.166 141.415 131.475  1.00  0.00     0.035 C 
ATOM      5  C   UNL     1     136.249 140.449 132.693  1.00  0.00     0.018 C 
ATOM      6  C   UNL     1     135.404 139.150 132.535  1.00  0.00     0.013 C 
ATOM      7  C   UNL     1     134.310 139.290 131.468  1.00  0.00     0.031 C 
ENDROOT
BRANCH   5   8
ATOM      8  C   UNL     1     137.697 140.111 133.029  1.00  0.00    -0.077 C 
ATOM      9  C   UNL     1     138.072 139.915 134.303  1.00  0.00     0.008 C 
ATOM     10  C   UNL     1     138.729 139.969 131.939  1.00  0.00     0.039 C 
ENDBRANCH   5   8
TORSDOF 1
ENDMDL
MODEL 7
REMARK VINA RESULT:    -3.864      4.123      5.167
REMARK INTER + INTRA:          -4.326
REMARK INTER:                  -4.085
REMARK INTRA:                  -0.241
REMARK UNBOUND:                -0.236
REMARK SMILES C=C(C)[C@H]1CC=C(C)CC1
REMARK SMILES IDX 8 1 7 2 6 3 5 4 4 5 10 6 9 7 2 8 1 9 3 10
REMARK H PARENT
REMARK Flexibility Score: inf
ROOT
ATOM      1  C   UNL     1     133.237 138.108 132.340  1.00  0.00     0.039 C 
ATOM      2  C   UNL     1     133.521 136.632 132.352  1.00  0.00    -0.077 C 
ATOM      3  C   UNL     1     134.469 136.134 133.164  1.00  0.00    -0.027 C 
ATOM      4  C   UNL     1     134.764 134.657 133.163  1.00  0.00     0.035 C 
ATOM      5  C   UNL     1     134.759 134.039 131.734  1.00  0.00     0.018 C 
ATOM      6  C   UNL     1     133.865 134.805 130.712  1.00  0.00     0.013 C 
ATOM      7  C   UNL     1     132.820 135.693 131.400  1.00  0.00     0.031 C 
ENDROOT
BRANCH   5   8
ATOM      8  C   UNL     1     136.177 133.883 131.197  1.00  0.00    -0.077 C 
ATOM      9  C   UNL     1     136.590 134.608 130.146  1.00  0.00     0.008 C 
ATOM     10  C   UNL     1     137.148 132.931 131.849  1.00  0.00     0.039 C 
ENDBRANCH   5   8
TORSDOF 1
ENDMDL
MODEL 8
REMARK VINA RESULT:    -3.859      1.652      4.535
REMARK INTER + INTRA:          -4.320
REMARK INTER:                  -4.078
REMARK INTRA:                  -0.242
REMARK UNBOUND:                -0.236
REMARK SMILES C=C(C)[C@H]1CC=C(C)CC1
REMARK SMILES IDX 8 1 7 2 6 3 5 4 4 5 10 6 9 7 2 8 1 9 3 10
REMARK H PARENT
REMARK Flexibility Score: inf
ROOT
ATOM      1  C   UNL     1     139.293 133.979 130.584  1.00  0.00     0.039 C 
ATOM      2  C   UNL     1     139.260 135.156 131.519  1.00  0.00    -0.077 C 
ATOM      3  C   UNL     1     138.160 135.925 131.597  1.00  0.00    -0.027 C 
ATOM      4  C   UNL     1     138.135 137.113 132.523  1.00  0.00     0.035 C 
ATOM      5  C   UNL     1     139.472 137.910 132.522  1.00  0.00     0.018 C 
ATOM      6  C   UNL     1     140.721 137.058 132.145  1.00  0.00     0.013 C 
ATOM      7  C   UNL     1     140.477 135.554 132.319  1.00  0.00     0.031 C 
ENDROOT
BRANCH   5   8
ATOM      8  C   UNL     1     139.375 139.146 131.634  1.00  0.00    -0.077 C 
ATOM      9  C   UNL     1     138.559 140.158 131.964  1.00  0.00     0.008 C 
ATOM     10  C   UNL     1     140.210 139.264 130.384  1.00  0.00     0.039 C 
ENDBRANCH   5   8
TORSDOF 1
ENDMDL
MODEL 9
REMARK VINA RESULT:    -3.814      4.817      5.676
REMARK INTER + INTRA:          -4.273
REMARK INTER:                  -4.031
REMARK INTRA:                  -0.242
REMARK UNBOUND:                -0.236
REMARK SMILES C=C(C)[C@H]1CC=C(C)CC1
REMARK SMILES IDX 8 1 7 2 6 3 5 4 4 5 10 6 9 7 2 8 1 9 3 10
REMARK H PARENT
REMARK Flexibility Score: inf
ROOT
ATOM      1  C   UNL     1     137.852 140.661 132.397  1.00  0.00     0.039 C 
ATOM      2  C   UNL     1     136.401 140.270 132.348  1.00  0.00    -0.077 C 
ATOM      3  C   UNL     1     135.921 139.349 133.202  1.00  0.00    -0.027 C 
ATOM      4  C   UNL     1     134.471 138.947 133.140  1.00  0.00     0.035 C 
ATOM      5  C   UNL     1     133.943 138.803 131.683  1.00  0.00     0.018 C 
ATOM      6  C   UNL     1     134.706 139.674 130.640  1.00  0.00     0.013 C 
ATOM      7  C   UNL     1     135.476 140.829 131.294  1.00  0.00     0.031 C 
ENDROOT
BRANCH   5   8
ATOM      8  C   UNL     1     133.919 137.342 131.249  1.00  0.00    -0.077 C 
ATOM      9  C   UNL     1     134.923 136.833 130.519  1.00  0.00     0.008 C 
ATOM     10  C   UNL     1     132.781 136.437 131.649  1.00  0.00     0.039 C 
ENDBRANCH   5   8
TORSDOF 1
ENDMDL
