MODEL 1
REMARK VINA RESULT:    -5.733      0.000      0.000
REMARK INTER + INTRA:         -12.120
REMARK INTER:                 -10.424
REMARK INTRA:                  -1.695
REMARK UNBOUND:                -1.695
REMARK SMILES CCCCCCCCCCCCCC[C@H](C)C(=O)[O-]
REMARK SMILES IDX 9 1 10 2 11 3 12 4 13 5 14 6 15 7 16 8 17 9 18 10 19 11 8 12
REMARK SMILES IDX 7 13 6 14 5 15 4 16 3 17 2 18 1 19
REMARK H PARENT
REMARK Flexibility Score: inf
ROOT
ATOM      1  C   UNL     1      61.668 151.914   3.470  1.00  0.00     0.000 C 
ENDROOT
BRANCH   1   2
ATOM      2  C   UNL     1      63.127 151.519   3.162  1.00  0.00     0.000 C 
BRANCH   2   3
ATOM      3  C   UNL     1      64.191 152.217   4.028  1.00  0.00     0.000 C 
BRANCH   3   4
ATOM      4  C   UNL     1      65.008 151.277   4.934  1.00  0.00     0.000 C 
BRANCH   4   5
ATOM      5  C   UNL     1      64.854 149.782   4.579  1.00  0.00     0.001 C 
BRANCH   5   6
ATOM      6  C   UNL     1      64.303 148.952   5.759  1.00  0.00     0.009 C 
BRANCH   6   7
ATOM      7  C   UNL     1      62.816 149.219   6.084  1.00  0.00     0.032 C 
ATOM      8  C   UNL     1      62.601 149.670   7.536  1.00  0.00     0.014 C 
BRANCH   7   9
ATOM      9  C   UNL     1      61.947 148.042   5.721  1.00  0.00     0.044 C 
ATOM     10  O   UNL     1      62.429 147.040   5.129  1.00  0.00    -0.550 OA
ATOM     11  O   UNL     1      60.583 148.087   5.984  1.00  0.00    -0.550 OA
ENDBRANCH   7   9
ENDBRANCH   6   7
ENDBRANCH   5   6
ENDBRANCH   4   5
ENDBRANCH   3   4
ENDBRANCH   2   3
ENDBRANCH   1   2
BRANCH   1  12
ATOM     12  C   UNL     1      61.287 151.900   4.961  1.00  0.00     0.000 C 
BRANCH  12  13
ATOM     13  C   UNL     1      60.103 152.821   5.287  1.00  0.00    -0.000 C 
BRANCH  13  14
ATOM     14  C   UNL     1      59.201 153.009   4.062  1.00  0.00    -0.000 C 
BRANCH  14  15
ATOM     15  C   UNL     1      58.649 154.438   3.999  1.00  0.00    -0.000 C 
BRANCH  15  16
ATOM     16  C   UNL     1      58.316 154.836   2.553  1.00  0.00    -0.000 C 
BRANCH  16  17
ATOM     17  C   UNL     1      58.691 153.743   1.540  1.00  0.00    -0.000 C 
BRANCH  17  18
ATOM     18  C   UNL     1      59.530 154.286   0.374  1.00  0.00    -0.003 C 
ATOM     19  C   UNL     1      60.987 153.849   0.497  1.00  0.00     0.004 C 
ENDBRANCH  17  18
ENDBRANCH  16  17
ENDBRANCH  15  16
ENDBRANCH  14  15
ENDBRANCH  13  14
ENDBRANCH  12  13
ENDBRANCH   1  12
TORSDOF 14
ENDMDL
MODEL 2
REMARK VINA RESULT:    -5.718      0.821      2.508
REMARK INTER + INTRA:         -12.094
REMARK INTER:                 -10.355
REMARK INTRA:                  -1.738
REMARK UNBOUND:                -1.695
REMARK SMILES CCCCCCCCCCCCCC[C@H](C)C(=O)[O-]
REMARK SMILES IDX 9 1 10 2 11 3 12 4 13 5 14 6 15 7 16 8 17 9 18 10 19 11 8 12
REMARK SMILES IDX 7 13 6 14 5 15 4 16 3 17 2 18 1 19
REMARK H PARENT
REMARK Flexibility Score: inf
ROOT
ATOM      1  C   UNL     1      62.588 151.524   2.724  1.00  0.00     0.000 C 
ENDROOT
BRANCH   1   2
ATOM      2  C   UNL     1      63.044 152.031   4.108  1.00  0.00     0.000 C 
BRANCH   2   3
ATOM      3  C   UNL     1      64.566 152.182   4.281  1.00  0.00     0.000 C 
BRANCH   3   4
ATOM      4  C   UNL     1      65.223 151.124   5.186  1.00  0.00     0.000 C 
BRANCH   4   5
ATOM      5  C   UNL     1      64.945 149.670   4.746  1.00  0.00     0.001 C 
BRANCH   5   6
ATOM      6  C   UNL     1      64.221 148.854   5.838  1.00  0.00     0.009 C 
BRANCH   6   7
ATOM      7  C   UNL     1      62.710 149.155   5.959  1.00  0.00     0.032 C 
ATOM      8  C   UNL     1      62.357 149.891   7.261  1.00  0.00     0.014 C 
BRANCH   7   9
ATOM      9  C   UNL     1      61.878 147.914   5.766  1.00  0.00     0.044 C 
ATOM     10  O   UNL     1      60.837 147.719   6.450  1.00  0.00    -0.550 OA
ATOM     11  O   UNL     1      62.295 146.938   4.869  1.00  0.00    -0.550 OA
ENDBRANCH   7   9
ENDBRANCH   6   7
ENDBRANCH   5   6
ENDBRANCH   4   5
ENDBRANCH   3   4
ENDBRANCH   2   3
ENDBRANCH   1   2
BRANCH   1  12
ATOM     12  C   UNL     1      61.166 151.943   2.310  1.00  0.00     0.000 C 
BRANCH  12  13
ATOM     13  C   UNL     1      61.152 153.067   1.265  1.00  0.00    -0.000 C 
BRANCH  13  14
ATOM     14  C   UNL     1      59.755 153.686   1.144  1.00  0.00    -0.000 C 
BRANCH  14  15
ATOM     15  C   UNL     1      58.882 153.314   2.348  1.00  0.00    -0.000 C 
BRANCH  15  16
ATOM     16  C   UNL     1      58.548 154.555   3.189  1.00  0.00    -0.000 C 
BRANCH  16  17
ATOM     17  C   UNL     1      58.829 154.347   4.686  1.00  0.00    -0.000 C 
BRANCH  17  18
ATOM     18  C   UNL     1      58.510 152.919   5.150  1.00  0.00    -0.003 C 
ATOM     19  C   UNL     1      59.743 152.247   5.746  1.00  0.00     0.004 C 
ENDBRANCH  17  18
ENDBRANCH  16  17
ENDBRANCH  15  16
ENDBRANCH  14  15
ENDBRANCH  13  14
ENDBRANCH  12  13
ENDBRANCH   1  12
TORSDOF 14
ENDMDL
MODEL 3
REMARK VINA RESULT:    -5.617      3.014      5.863
REMARK INTER + INTRA:         -11.910
REMARK INTER:                  -9.737
REMARK INTRA:                  -2.173
REMARK UNBOUND:                -1.695
REMARK SMILES CCCCCCCCCCCCCC[C@H](C)C(=O)[O-]
REMARK SMILES IDX 9 1 10 2 11 3 12 4 13 5 14 6 15 7 16 8 17 9 18 10 19 11 8 12
REMARK SMILES IDX 7 13 6 14 5 15 4 16 3 17 2 18 1 19
REMARK H PARENT
REMARK Flexibility Score: inf
ROOT
ATOM      1  C   UNL     1      64.952 149.784   4.816  1.00  0.00     0.000 C 
ENDROOT
BRANCH   1   2
ATOM      2  C   UNL     1      65.026 151.282   5.177  1.00  0.00     0.000 C 
BRANCH   2   3
ATOM      3  C   UNL     1      64.253 152.221   4.233  1.00  0.00     0.000 C 
BRANCH   3   4
ATOM      4  C   UNL     1      63.447 151.512   3.130  1.00  0.00     0.000 C 
BRANCH   4   5
ATOM      5  C   UNL     1      61.920 151.702   3.255  1.00  0.00     0.001 C 
BRANCH   5   6
ATOM      6  C   UNL     1      61.282 152.217   1.946  1.00  0.00     0.009 C 
BRANCH   6   7
ATOM      7  C   UNL     1      60.153 153.251   2.154  1.00  0.00     0.032 C 
ATOM      8  C   UNL     1      58.894 152.633   2.779  1.00  0.00     0.014 C 
BRANCH   7   9
ATOM      9  C   UNL     1      59.846 154.002   0.884  1.00  0.00     0.044 C 
ATOM     10  O   UNL     1      60.610 153.924  -0.115  1.00  0.00    -0.550 OA
ATOM     11  O   UNL     1      58.742 154.844   0.832  1.00  0.00    -0.550 OA
ENDBRANCH   7   9
ENDBRANCH   6   7
ENDBRANCH   5   6
ENDBRANCH   4   5
ENDBRANCH   3   4
ENDBRANCH   2   3
ENDBRANCH   1   2
BRANCH   1  12
ATOM     12  C   UNL     1      64.269 148.890   5.866  1.00  0.00     0.000 C 
BRANCH  12  13
ATOM     13  C   UNL     1      62.929 148.316   5.385  1.00  0.00    -0.000 C 
BRANCH  13  14
ATOM     14  C   UNL     1      61.752 149.105   5.971  1.00  0.00    -0.000 C 
BRANCH  14  15
ATOM     15  C   UNL     1      62.195 149.936   7.181  1.00  0.00    -0.000 C 
BRANCH  15  16
ATOM     16  C   UNL     1      61.218 151.092   7.443  1.00  0.00    -0.000 C 
BRANCH  16  17
ATOM     17  C   UNL     1      61.680 152.411   6.803  1.00  0.00    -0.000 C 
BRANCH  17  18
ATOM     18  C   UNL     1      60.527 153.181   6.146  1.00  0.00    -0.003 C 
ATOM     19  C   UNL     1      60.562 154.656   6.532  1.00  0.00     0.004 C 
ENDBRANCH  17  18
ENDBRANCH  16  17
ENDBRANCH  15  16
ENDBRANCH  14  15
ENDBRANCH  13  14
ENDBRANCH  12  13
ENDBRANCH   1  12
TORSDOF 14
ENDMDL
MODEL 4
REMARK VINA RESULT:    -5.553      1.282      2.907
REMARK INTER + INTRA:         -11.793
REMARK INTER:                  -9.745
REMARK INTRA:                  -2.048
REMARK UNBOUND:                -1.695
REMARK SMILES CCCCCCCCCCCCCC[C@H](C)C(=O)[O-]
REMARK SMILES IDX 9 1 10 2 11 3 12 4 13 5 14 6 15 7 16 8 17 9 18 10 19 11 8 12
REMARK SMILES IDX 7 13 6 14 5 15 4 16 3 17 2 18 1 19
REMARK H PARENT
REMARK Flexibility Score: inf
ROOT
ATOM      1  C   UNL     1      63.497 151.451   3.215  1.00  0.00     0.000 C 
ENDROOT
BRANCH   1   2
ATOM      2  C   UNL     1      64.446 152.068   4.262  1.00  0.00     0.000 C 
BRANCH   2   3
ATOM      3  C   UNL     1      65.024 151.076   5.288  1.00  0.00     0.000 C 
BRANCH   3   4
ATOM      4  C   UNL     1      64.758 149.592   4.973  1.00  0.00     0.000 C 
BRANCH   4   5
ATOM      5  C   UNL     1      63.831 148.896   5.993  1.00  0.00     0.001 C 
BRANCH   5   6
ATOM      6  C   UNL     1      62.438 148.585   5.404  1.00  0.00     0.009 C 
BRANCH   6   7
ATOM      7  C   UNL     1      61.283 149.382   6.050  1.00  0.00     0.032 C 
ATOM      8  C   UNL     1      61.782 150.482   6.999  1.00  0.00     0.014 C 
BRANCH   7   9
ATOM      9  C   UNL     1      60.280 148.473   6.712  1.00  0.00     0.044 C 
ATOM     10  O   UNL     1      60.583 147.289   7.016  1.00  0.00    -0.550 OA
ATOM     11  O   UNL     1      58.984 148.923   6.933  1.00  0.00    -0.550 OA
ENDBRANCH   7   9
ENDBRANCH   6   7
ENDBRANCH   5   6
ENDBRANCH   4   5
ENDBRANCH   3   4
ENDBRANCH   2   3
ENDBRANCH   1   2
BRANCH   1  12
ATOM     12  C   UNL     1      62.018 151.851   3.356  1.00  0.00     0.000 C 
BRANCH  12  13
ATOM     13  C   UNL     1      61.262 151.836   2.020  1.00  0.00    -0.000 C 
BRANCH  13  14
ATOM     14  C   UNL     1      60.473 153.135   1.822  1.00  0.00    -0.000 C 
BRANCH  14  15
ATOM     15  C   UNL     1      59.054 153.009   2.390  1.00  0.00    -0.000 C 
BRANCH  15  16
ATOM     16  C   UNL     1      58.791 154.085   3.455  1.00  0.00    -0.000 C 
BRANCH  16  17
ATOM     17  C   UNL     1      59.339 153.694   4.836  1.00  0.00    -0.000 C 
BRANCH  17  18
ATOM     18  C   UNL     1      58.497 152.604   5.515  1.00  0.00    -0.003 C 
ATOM     19  C   UNL     1      58.597 152.700   7.034  1.00  0.00     0.004 C 
ENDBRANCH  17  18
ENDBRANCH  16  17
ENDBRANCH  15  16
ENDBRANCH  14  15
ENDBRANCH  13  14
ENDBRANCH  12  13
ENDBRANCH   1  12
TORSDOF 14
ENDMDL
MODEL 5
REMARK VINA RESULT:    -5.492      2.933      6.609
REMARK INTER + INTRA:         -11.682
REMARK INTER:                  -9.778
REMARK INTRA:                  -1.904
REMARK UNBOUND:                -1.695
REMARK SMILES CCCCCCCCCCCCCC[C@H](C)C(=O)[O-]
REMARK SMILES IDX 9 1 10 2 11 3 12 4 13 5 14 6 15 7 16 8 17 9 18 10 19 11 8 12
REMARK SMILES IDX 7 13 6 14 5 15 4 16 3 17 2 18 1 19
REMARK H PARENT
REMARK Flexibility Score: inf
ROOT
ATOM      1  C   UNL     1      61.480 150.597   6.053  1.00  0.00     0.000 C 
ENDROOT
BRANCH   1   2
ATOM      2  C   UNL     1      60.083 151.157   6.390  1.00  0.00     0.000 C 
BRANCH   2   3
ATOM      3  C   UNL     1      60.004 152.690   6.510  1.00  0.00     0.000 C 
BRANCH   3   4
ATOM      4  C   UNL     1      58.923 153.353   5.636  1.00  0.00     0.000 C 
BRANCH   4   5
ATOM      5  C   UNL     1      59.436 153.812   4.254  1.00  0.00     0.001 C 
BRANCH   5   6
ATOM      6  C   UNL     1      58.841 152.979   3.099  1.00  0.00     0.009 C 
BRANCH   6   7
ATOM      7  C   UNL     1      59.856 152.608   1.994  1.00  0.00     0.032 C 
ATOM      8  C   UNL     1      61.205 152.143   2.564  1.00  0.00     0.014 C 
BRANCH   7   9
ATOM      9  C   UNL     1      60.017 153.720   0.990  1.00  0.00     0.044 C 
ATOM     10  O   UNL     1      59.028 154.406   0.620  1.00  0.00    -0.550 OA
ATOM     11  O   UNL     1      61.261 153.952   0.415  1.00  0.00    -0.550 OA
ENDBRANCH   7   9
ENDBRANCH   6   7
ENDBRANCH   5   6
ENDBRANCH   4   5
ENDBRANCH   3   4
ENDBRANCH   2   3
ENDBRANCH   1   2
BRANCH   1  12
ATOM     12  C   UNL     1      61.483 149.235   5.335  1.00  0.00     0.000 C 
BRANCH  12  13
ATOM     13  C   UNL     1      62.769 148.432   5.577  1.00  0.00    -0.000 C 
BRANCH  13  14
ATOM     14  C   UNL     1      63.849 149.308   6.222  1.00  0.00    -0.000 C 
BRANCH  14  15
ATOM     15  C   UNL     1      65.166 149.223   5.441  1.00  0.00    -0.000 C 
BRANCH  15  16
ATOM     16  C   UNL     1      64.954 149.585   3.963  1.00  0.00    -0.000 C 
BRANCH  16  17
ATOM     17  C   UNL     1      64.414 151.012   3.778  1.00  0.00    -0.000 C 
BRANCH  17  18
ATOM     18  C   UNL     1      65.264 152.061   4.508  1.00  0.00    -0.003 C 
ATOM     19  C   UNL     1      64.421 152.856   5.501  1.00  0.00     0.004 C 
ENDBRANCH  17  18
ENDBRANCH  16  17
ENDBRANCH  15  16
ENDBRANCH  14  15
ENDBRANCH  13  14
ENDBRANCH  12  13
ENDBRANCH   1  12
TORSDOF 14
ENDMDL
MODEL 6
REMARK VINA RESULT:    -5.484      1.614      2.379
REMARK INTER + INTRA:         -11.668
REMARK INTER:                  -9.667
REMARK INTRA:                  -2.001
REMARK UNBOUND:                -1.695
REMARK SMILES CCCCCCCCCCCCCC[C@H](C)C(=O)[O-]
REMARK SMILES IDX 9 1 10 2 11 3 12 4 13 5 14 6 15 7 16 8 17 9 18 10 19 11 8 12
REMARK SMILES IDX 7 13 6 14 5 15 4 16 3 17 2 18 1 19
REMARK H PARENT
REMARK Flexibility Score: inf
ROOT
ATOM      1  C   UNL     1      63.533 152.335   4.239  1.00  0.00     0.000 C 
ENDROOT
BRANCH   1   2
ATOM      2  C   UNL     1      64.961 151.753   4.285  1.00  0.00     0.000 C 
BRANCH   2   3
ATOM      3  C   UNL     1      65.197 150.683   5.367  1.00  0.00     0.000 C 
BRANCH   3   4
ATOM      4  C   UNL     1      64.861 149.243   4.938  1.00  0.00     0.000 C 
BRANCH   4   5
ATOM      5  C   UNL     1      63.579 148.682   5.590  1.00  0.00     0.001 C 
BRANCH   5   6
ATOM      6  C   UNL     1      63.044 149.594   6.715  1.00  0.00     0.009 C 
BRANCH   6   7
ATOM      7  C   UNL     1      61.619 149.240   7.197  1.00  0.00     0.032 C 
ATOM      8  C   UNL     1      60.814 148.468   6.141  1.00  0.00     0.014 C 
BRANCH   7   9
ATOM      9  C   UNL     1      60.882 150.456   7.696  1.00  0.00     0.044 C 
ATOM     10  O   UNL     1      61.505 151.499   8.030  1.00  0.00    -0.550 OA
ATOM     11  O   UNL     1      59.502 150.408   7.851  1.00  0.00    -0.550 OA
ENDBRANCH   7   9
ENDBRANCH   6   7
ENDBRANCH   5   6
ENDBRANCH   4   5
ENDBRANCH   3   4
ENDBRANCH   2   3
ENDBRANCH   1   2
BRANCH   1  12
ATOM     12  C   UNL     1      62.674 151.868   3.051  1.00  0.00     0.000 C 
BRANCH  12  13
ATOM     13  C   UNL     1      61.285 151.370   3.474  1.00  0.00    -0.000 C 
BRANCH  13  14
ATOM     14  C   UNL     1      60.713 152.234   4.603  1.00  0.00    -0.000 C 
BRANCH  14  15
ATOM     15  C   UNL     1      59.673 153.224   4.065  1.00  0.00    -0.000 C 
BRANCH  15  16
ATOM     16  C   UNL     1      59.195 152.813   2.664  1.00  0.00    -0.000 C 
BRANCH  16  17
ATOM     17  C   UNL     1      58.661 154.003   1.851  1.00  0.00    -0.000 C 
BRANCH  17  18
ATOM     18  C   UNL     1      59.375 154.160   0.501  1.00  0.00    -0.003 C 
ATOM     19  C   UNL     1      60.850 153.789   0.614  1.00  0.00     0.004 C 
ENDBRANCH  17  18
ENDBRANCH  16  17
ENDBRANCH  15  16
ENDBRANCH  14  15
ENDBRANCH  13  14
ENDBRANCH  12  13
ENDBRANCH   1  12
TORSDOF 14
ENDMDL
MODEL 7
REMARK VINA RESULT:    -5.481      2.873      6.388
REMARK INTER + INTRA:         -11.662
REMARK INTER:                  -9.527
REMARK INTRA:                  -2.135
REMARK UNBOUND:                -1.695
REMARK SMILES CCCCCCCCCCCCCC[C@H](C)C(=O)[O-]
REMARK SMILES IDX 9 1 10 2 11 3 12 4 13 5 14 6 15 7 16 8 17 9 18 10 19 11 8 12
REMARK SMILES IDX 7 13 6 14 5 15 4 16 3 17 2 18 1 19
REMARK H PARENT
REMARK Flexibility Score: inf
ROOT
ATOM      1  C   UNL     1      64.991 150.780   4.178  1.00  0.00     0.000 C 
ENDROOT
BRANCH   1   2
ATOM      2  C   UNL     1      64.083 151.616   5.103  1.00  0.00     0.000 C 
BRANCH   2   3
ATOM      3  C   UNL     1      62.730 152.028   4.494  1.00  0.00     0.000 C 
BRANCH   3   4
ATOM      4  C   UNL     1      62.634 151.874   2.965  1.00  0.00     0.000 C 
BRANCH   4   5
ATOM      5  C   UNL     1      61.211 151.549   2.460  1.00  0.00     0.001 C 
BRANCH   5   6
ATOM      6  C   UNL     1      60.183 152.627   2.865  1.00  0.00     0.009 C 
BRANCH   6   7
ATOM      7  C   UNL     1      59.479 153.314   1.673  1.00  0.00     0.032 C 
ATOM      8  C   UNL     1      60.465 153.762   0.584  1.00  0.00     0.014 C 
BRANCH   7   9
ATOM      9  C   UNL     1      58.586 154.439   2.128  1.00  0.00     0.044 C 
ATOM     10  O   UNL     1      57.999 155.178   1.293  1.00  0.00    -0.550 OA
ATOM     11  O   UNL     1      58.456 154.710   3.485  1.00  0.00    -0.550 OA
ENDBRANCH   7   9
ENDBRANCH   6   7
ENDBRANCH   5   6
ENDBRANCH   4   5
ENDBRANCH   3   4
ENDBRANCH   2   3
ENDBRANCH   1   2
BRANCH   1  12
ATOM     12  C   UNL     1      64.991 149.266   4.456  1.00  0.00     0.000 C 
BRANCH  12  13
ATOM     13  C   UNL     1      64.223 148.891   5.732  1.00  0.00    -0.000 C 
BRANCH  13  14
ATOM     14  C   UNL     1      62.928 148.144   5.392  1.00  0.00    -0.000 C 
BRANCH  14  15
ATOM     15  C   UNL     1      61.710 148.849   6.001  1.00  0.00    -0.000 C 
BRANCH  15  16
ATOM     16  C   UNL     1      62.066 149.496   7.348  1.00  0.00    -0.000 C 
BRANCH  16  17
ATOM     17  C   UNL     1      61.185 150.714   7.668  1.00  0.00    -0.000 C 
BRANCH  17  18
ATOM     18  C   UNL     1      60.005 150.857   6.696  1.00  0.00    -0.003 C 
ATOM     19  C   UNL     1      59.613 152.320   6.521  1.00  0.00     0.004 C 
ENDBRANCH  17  18
ENDBRANCH  16  17
ENDBRANCH  15  16
ENDBRANCH  14  15
ENDBRANCH  13  14
ENDBRANCH  12  13
ENDBRANCH   1  12
TORSDOF 14
ENDMDL
MODEL 8
REMARK VINA RESULT:    -5.462      2.859      6.473
REMARK INTER + INTRA:         -11.628
REMARK INTER:                  -9.725
REMARK INTRA:                  -1.903
REMARK UNBOUND:                -1.695
REMARK SMILES CCCCCCCCCCCCCC[C@H](C)C(=O)[O-]
REMARK SMILES IDX 9 1 10 2 11 3 12 4 13 5 14 6 15 7 16 8 17 9 18 10 19 11 8 12
REMARK SMILES IDX 7 13 6 14 5 15 4 16 3 17 2 18 1 19
REMARK H PARENT
REMARK Flexibility Score: inf
ROOT
ATOM      1  C   UNL     1      61.322 151.878   2.065  1.00  0.00     0.000 C 
ENDROOT
BRANCH   1   2
ATOM      2  C   UNL     1      60.299 153.032   2.024  1.00  0.00     0.000 C 
BRANCH   2   3
ATOM      3  C   UNL     1      59.244 153.011   3.145  1.00  0.00     0.000 C 
BRANCH   3   4
ATOM      4  C   UNL     1      58.717 154.395   3.565  1.00  0.00     0.000 C 
BRANCH   4   5
ATOM      5  C   UNL     1      59.060 154.776   5.022  1.00  0.00     0.001 C 
BRANCH   5   6
ATOM      6  C   UNL     1      59.543 153.564   5.848  1.00  0.00     0.009 C 
BRANCH   6   7
ATOM      7  C   UNL     1      60.992 153.688   6.369  1.00  0.00     0.032 C 
ATOM      8  C   UNL     1      61.540 152.360   6.911  1.00  0.00     0.014 C 
BRANCH   7   9
ATOM      9  C   UNL     1      61.131 154.809   7.367  1.00  0.00     0.044 C 
ATOM     10  O   UNL     1      60.229 155.033   8.217  1.00  0.00    -0.550 OA
ATOM     11  O   UNL     1      62.237 155.648   7.311  1.00  0.00    -0.550 OA
ENDBRANCH   7   9
ENDBRANCH   6   7
ENDBRANCH   5   6
ENDBRANCH   4   5
ENDBRANCH   3   4
ENDBRANCH   2   3
ENDBRANCH   1   2
BRANCH   1  12
ATOM     12  C   UNL     1      62.053 151.699   3.407  1.00  0.00     0.000 C 
BRANCH  12  13
ATOM     13  C   UNL     1      63.568 151.510   3.245  1.00  0.00    -0.000 C 
BRANCH  13  14
ATOM     14  C   UNL     1      64.336 152.284   4.323  1.00  0.00    -0.000 C 
BRANCH  14  15
ATOM     15  C   UNL     1      64.996 151.327   5.323  1.00  0.00    -0.000 C 
BRANCH  15  16
ATOM     16  C   UNL     1      64.964 149.881   4.805  1.00  0.00    -0.000 C 
BRANCH  16  17
ATOM     17  C   UNL     1      64.353 148.905   5.822  1.00  0.00    -0.000 C 
BRANCH  17  18
ATOM     18  C   UNL     1      62.820 148.878   5.764  1.00  0.00    -0.003 C 
ATOM     19  C   UNL     1      62.311 147.510   5.322  1.00  0.00     0.004 C 
ENDBRANCH  17  18
ENDBRANCH  16  17
ENDBRANCH  15  16
ENDBRANCH  14  15
ENDBRANCH  13  14
ENDBRANCH  12  13
ENDBRANCH   1  12
TORSDOF 14
ENDMDL
MODEL 9
REMARK VINA RESULT:    -5.343      2.705      6.504
REMARK INTER + INTRA:         -11.412
REMARK INTER:                  -9.353
REMARK INTRA:                  -2.059
REMARK UNBOUND:                -1.695
REMARK SMILES CCCCCCCCCCCCCC[C@H](C)C(=O)[O-]
REMARK SMILES IDX 9 1 10 2 11 3 12 4 13 5 14 6 15 7 16 8 17 9 18 10 19 11 8 12
REMARK SMILES IDX 7 13 6 14 5 15 4 16 3 17 2 18 1 19
REMARK H PARENT
REMARK Flexibility Score: inf
ROOT
ATOM      1  C   UNL     1      64.520 151.540   4.509  1.00  0.00     0.000 C 
ENDROOT
BRANCH   1   2
ATOM      2  C   UNL     1      63.607 152.264   3.499  1.00  0.00     0.000 C 
BRANCH   2   3
ATOM      3  C   UNL     1      62.194 151.672   3.352  1.00  0.00     0.000 C 
BRANCH   3   4
ATOM      4  C   UNL     1      61.530 151.912   1.983  1.00  0.00     0.000 C 
BRANCH   4   5
ATOM      5  C   UNL     1      60.268 152.799   2.050  1.00  0.00     0.001 C 
BRANCH   5   6
ATOM      6  C   UNL     1      59.824 153.081   3.502  1.00  0.00     0.009 C 
BRANCH   6   7
ATOM      7  C   UNL     1      58.656 154.085   3.625  1.00  0.00     0.032 C 
ATOM      8  C   UNL     1      58.363 154.815   2.305  1.00  0.00     0.014 C 
BRANCH   7   9
ATOM      9  C   UNL     1      58.864 155.043   4.769  1.00  0.00     0.044 C 
ATOM     10  O   UNL     1      58.208 156.116   4.843  1.00  0.00    -0.550 OA
ATOM     11  O   UNL     1      59.838 154.773   5.724  1.00  0.00    -0.550 OA
ENDBRANCH   7   9
ENDBRANCH   6   7
ENDBRANCH   5   6
ENDBRANCH   4   5
ENDBRANCH   3   4
ENDBRANCH   2   3
ENDBRANCH   1   2
BRANCH   1  12
ATOM     12  C   UNL     1      64.933 150.112   4.111  1.00  0.00     0.000 C 
BRANCH  12  13
ATOM     13  C   UNL     1      65.228 149.213   5.320  1.00  0.00    -0.000 C 
BRANCH  13  14
ATOM     14  C   UNL     1      63.947 148.917   6.108  1.00  0.00    -0.000 C 
BRANCH  14  15
ATOM     15  C   UNL     1      62.919 148.187   5.235  1.00  0.00    -0.000 C 
BRANCH  15  16
ATOM     16  C   UNL     1      61.488 148.606   5.602  1.00  0.00    -0.000 C 
BRANCH  16  17
ATOM     17  C   UNL     1      61.444 149.569   6.799  1.00  0.00    -0.000 C 
BRANCH  17  18
ATOM     18  C   UNL     1      60.777 150.907   6.453  1.00  0.00    -0.003 C 
ATOM     19  C   UNL     1      61.596 152.081   6.980  1.00  0.00     0.004 C 
ENDBRANCH  17  18
ENDBRANCH  16  17
ENDBRANCH  15  16
ENDBRANCH  14  15
ENDBRANCH  13  14
ENDBRANCH  12  13
ENDBRANCH   1  12
TORSDOF 14
ENDMDL
