MODEL 1
REMARK VINA RESULT:    -3.164      0.000      0.000
REMARK INTER + INTRA:          -4.270
REMARK INTER:                  -4.088
REMARK INTRA:                  -0.182
REMARK UNBOUND:                -0.182
REMARK SMILES CCCCCCC(=O)[O-]
REMARK SMILES IDX 5 1 6 2 7 3 8 4 9 5 4 6 3 7 2 8 1 9
REMARK H PARENT
REMARK Flexibility Score: inf
ROOT
ATOM      1  C   UNL     1      37.039 -53.350 -11.426  1.00  0.00     0.006 C 
ENDROOT
BRANCH   1   2
ATOM      2  C   UNL     1      35.689 -54.031 -11.671  1.00  0.00     0.053 C 
BRANCH   2   3
ATOM      3  C   UNL     1      35.435 -55.079 -10.635  1.00  0.00     0.041 C 
ATOM      4  O   UNL     1      36.307 -55.332  -9.762  1.00  0.00    -0.550 OA
ATOM      5  O   UNL     1      34.255 -55.811 -10.661  1.00  0.00    -0.550 OA
ENDBRANCH   2   3
ENDBRANCH   1   2
BRANCH   1   6
ATOM      6  C   UNL     1      36.878 -51.830 -11.320  1.00  0.00     0.000 C 
BRANCH   6   7
ATOM      7  C   UNL     1      35.469 -51.394 -11.738  1.00  0.00    -0.000 C 
BRANCH   7   8
ATOM      8  C   UNL     1      35.246 -49.905 -11.453  1.00  0.00    -0.003 C 
ATOM      9  C   UNL     1      33.830 -49.478 -11.828  1.00  0.00     0.004 C 
ENDBRANCH   7   8
ENDBRANCH   6   7
ENDBRANCH   1   6
TORSDOF 5
ENDMDL
MODEL 2
REMARK VINA RESULT:    -3.116     14.177     14.692
REMARK INTER + INTRA:          -4.209
REMARK INTER:                  -4.045
REMARK INTRA:                  -0.164
REMARK UNBOUND:                -0.182
REMARK SMILES CCCCCCC(=O)[O-]
REMARK SMILES IDX 5 1 6 2 7 3 8 4 9 5 4 6 3 7 2 8 1 9
REMARK H PARENT
REMARK Flexibility Score: inf
ROOT
ATOM      1  C   UNL     1      35.178 -48.114   3.248  1.00  0.00     0.006 C 
ENDROOT
BRANCH   1   2
ATOM      2  C   UNL     1      34.380 -48.779   2.122  1.00  0.00     0.053 C 
BRANCH   2   3
ATOM      3  C   UNL     1      34.337 -50.261   2.315  1.00  0.00     0.041 C 
ATOM      4  O   UNL     1      33.282 -50.902   2.064  1.00  0.00    -0.550 OA
ATOM      5  O   UNL     1      35.445 -50.930   2.818  1.00  0.00    -0.550 OA
ENDBRANCH   2   3
ENDBRANCH   1   2
BRANCH   1   6
ATOM      6  C   UNL     1      35.126 -46.586   3.131  1.00  0.00     0.000 C 
BRANCH   6   7
ATOM      7  C   UNL     1      34.078 -46.146   2.102  1.00  0.00    -0.000 C 
BRANCH   7   8
ATOM      8  C   UNL     1      33.637 -44.700   2.350  1.00  0.00    -0.003 C 
ATOM      9  C   UNL     1      34.790 -43.726   2.123  1.00  0.00     0.004 C 
ENDBRANCH   7   8
ENDBRANCH   6   7
ENDBRANCH   1   6
TORSDOF 5
ENDMDL
MODEL 3
REMARK VINA RESULT:    -3.109     15.131     15.498
REMARK INTER + INTRA:          -4.200
REMARK INTER:                  -3.814
REMARK INTRA:                  -0.386
REMARK UNBOUND:                -0.182
REMARK SMILES CCCCCCC(=O)[O-]
REMARK SMILES IDX 5 1 6 2 7 3 8 4 9 5 4 6 3 7 2 8 1 9
REMARK H PARENT
REMARK Flexibility Score: inf
ROOT
ATOM      1  C   UNL     1      37.294 -49.427   4.730  1.00  0.00     0.006 C 
ENDROOT
BRANCH   1   2
ATOM      2  C   UNL     1      36.656 -50.562   5.535  1.00  0.00     0.053 C 
BRANCH   2   3
ATOM      3  C   UNL     1      36.625 -51.822   4.730  1.00  0.00     0.041 C 
ATOM      4  O   UNL     1      37.204 -51.875   3.613  1.00  0.00    -0.550 OA
ATOM      5  O   UNL     1      35.916 -52.924   5.190  1.00  0.00    -0.550 OA
ENDBRANCH   2   3
ENDBRANCH   1   2
BRANCH   1   6
ATOM      6  C   UNL     1      36.249 -48.377   4.335  1.00  0.00     0.000 C 
BRANCH   6   7
ATOM      7  C   UNL     1      36.044 -48.346   2.816  1.00  0.00    -0.000 C 
BRANCH   7   8
ATOM      8  C   UNL     1      34.584 -48.635   2.451  1.00  0.00    -0.003 C 
ATOM      9  C   UNL     1      34.343 -50.133   2.288  1.00  0.00     0.004 C 
ENDBRANCH   7   8
ENDBRANCH   6   7
ENDBRANCH   1   6
TORSDOF 5
ENDMDL
MODEL 4
REMARK VINA RESULT:    -3.108     14.141     14.470
REMARK INTER + INTRA:          -4.198
REMARK INTER:                  -3.935
REMARK INTRA:                  -0.263
REMARK UNBOUND:                -0.182
REMARK SMILES CCCCCCC(=O)[O-]
REMARK SMILES IDX 5 1 6 2 7 3 8 4 9 5 4 6 3 7 2 8 1 9
REMARK H PARENT
REMARK Flexibility Score: inf
ROOT
ATOM      1  C   UNL     1      35.991 -50.154   2.755  1.00  0.00     0.006 C 
ENDROOT
BRANCH   1   2
ATOM      2  C   UNL     1      36.535 -50.781   4.043  1.00  0.00     0.053 C 
BRANCH   2   3
ATOM      3  C   UNL     1      35.902 -52.115   4.284  1.00  0.00     0.041 C 
ATOM      4  O   UNL     1      36.384 -52.899   5.143  1.00  0.00    -0.550 OA
ATOM      5  O   UNL     1      34.809 -52.514   3.526  1.00  0.00    -0.550 OA
ENDBRANCH   2   3
ENDBRANCH   1   2
BRANCH   1   6
ATOM      6  C   UNL     1      35.181 -48.889   3.058  1.00  0.00     0.000 C 
BRANCH   6   7
ATOM      7  C   UNL     1      34.205 -48.572   1.919  1.00  0.00    -0.000 C 
BRANCH   7   8
ATOM      8  C   UNL     1      33.941 -49.813   1.060  1.00  0.00    -0.003 C 
ATOM      9  C   UNL     1      32.463 -50.193   1.081  1.00  0.00     0.004 C 
ENDBRANCH   7   8
ENDBRANCH   6   7
ENDBRANCH   1   6
TORSDOF 5
ENDMDL
MODEL 5
REMARK VINA RESULT:    -3.090     14.654     15.109
REMARK INTER + INTRA:          -4.175
REMARK INTER:                  -4.017
REMARK INTRA:                  -0.158
REMARK UNBOUND:                -0.182
REMARK SMILES CCCCCCC(=O)[O-]
REMARK SMILES IDX 5 1 6 2 7 3 8 4 9 5 4 6 3 7 2 8 1 9
REMARK H PARENT
REMARK Flexibility Score: inf
ROOT
ATOM      1  C   UNL     1      35.184 -50.430   3.054  1.00  0.00     0.006 C 
ENDROOT
BRANCH   1   2
ATOM      2  C   UNL     1      34.340 -49.833   1.923  1.00  0.00     0.053 C 
BRANCH   2   3
ATOM      3  C   UNL     1      33.087 -50.625   1.730  1.00  0.00     0.041 C 
ATOM      4  O   UNL     1      32.201 -50.224   0.930  1.00  0.00    -0.550 OA
ATOM      5  O   UNL     1      32.874 -51.782   2.467  1.00  0.00    -0.550 OA
ENDBRANCH   2   3
ENDBRANCH   1   2
BRANCH   1   6
ATOM      6  C   UNL     1      36.234 -49.428   3.546  1.00  0.00     0.000 C 
BRANCH   6   7
ATOM      7  C   UNL     1      36.534 -49.630   5.036  1.00  0.00    -0.000 C 
BRANCH   7   8
ATOM      8  C   UNL     1      36.835 -51.100   5.342  1.00  0.00    -0.003 C 
ATOM      9  C   UNL     1      38.252 -51.473   4.915  1.00  0.00     0.004 C 
ENDBRANCH   7   8
ENDBRANCH   6   7
ENDBRANCH   1   6
TORSDOF 5
ENDMDL
MODEL 6
REMARK VINA RESULT:    -3.077     14.780     15.373
REMARK INTER + INTRA:          -4.159
REMARK INTER:                  -3.741
REMARK INTRA:                  -0.418
REMARK UNBOUND:                -0.182
REMARK SMILES CCCCCCC(=O)[O-]
REMARK SMILES IDX 5 1 6 2 7 3 8 4 9 5 4 6 3 7 2 8 1 9
REMARK H PARENT
REMARK Flexibility Score: inf
ROOT
ATOM      1  C   UNL     1      35.485 -47.685   3.719  1.00  0.00     0.006 C 
ENDROOT
BRANCH   1   2
ATOM      2  C   UNL     1      34.583 -47.745   2.482  1.00  0.00     0.053 C 
BRANCH   2   3
ATOM      3  C   UNL     1      34.560 -49.130   1.917  1.00  0.00     0.041 C 
ATOM      4  O   UNL     1      34.301 -50.113   2.659  1.00  0.00    -0.550 OA
ATOM      5  O   UNL     1      34.873 -49.340   0.581  1.00  0.00    -0.550 OA
ENDBRANCH   2   3
ENDBRANCH   1   2
BRANCH   1   6
ATOM      6  C   UNL     1      36.960 -47.838   3.331  1.00  0.00     0.000 C 
BRANCH   6   7
ATOM      7  C   UNL     1      37.642 -48.923   4.174  1.00  0.00    -0.000 C 
BRANCH   7   8
ATOM      8  C   UNL     1      36.674 -49.507   5.207  1.00  0.00    -0.003 C 
ATOM      9  C   UNL     1      36.689 -51.033   5.174  1.00  0.00     0.004 C 
ENDBRANCH   7   8
ENDBRANCH   6   7
ENDBRANCH   1   6
TORSDOF 5
ENDMDL
MODEL 7
REMARK VINA RESULT:    -3.064     13.326     13.774
REMARK INTER + INTRA:          -4.141
REMARK INTER:                  -3.931
REMARK INTRA:                  -0.210
REMARK UNBOUND:                -0.182
REMARK SMILES CCCCCCC(=O)[O-]
REMARK SMILES IDX 5 1 6 2 7 3 8 4 9 5 4 6 3 7 2 8 1 9
REMARK H PARENT
REMARK Flexibility Score: inf
ROOT
ATOM      1  C   UNL     1      33.890 -48.733   0.454  1.00  0.00     0.006 C 
ENDROOT
BRANCH   1   2
ATOM      2  C   UNL     1      32.933 -49.832   0.924  1.00  0.00     0.053 C 
BRANCH   2   3
ATOM      3  C   UNL     1      33.549 -50.626   2.031  1.00  0.00     0.041 C 
ATOM      4  O   UNL     1      34.638 -50.258   2.545  1.00  0.00    -0.550 OA
ATOM      5  O   UNL     1      32.947 -51.800   2.465  1.00  0.00    -0.550 OA
ENDBRANCH   2   3
ENDBRANCH   1   2
BRANCH   1   6
ATOM      6  C   UNL     1      33.387 -47.348   0.876  1.00  0.00     0.000 C 
BRANCH   6   7
ATOM      7  C   UNL     1      34.377 -46.667   1.829  1.00  0.00    -0.000 C 
BRANCH   7   8
ATOM      8  C   UNL     1      33.826 -45.328   2.330  1.00  0.00    -0.003 C 
ATOM      9  C   UNL     1      32.909 -44.686   1.292  1.00  0.00     0.004 C 
ENDBRANCH   7   8
ENDBRANCH   6   7
ENDBRANCH   1   6
TORSDOF 5
ENDMDL
MODEL 8
REMARK VINA RESULT:    -3.055      3.357      5.147
REMARK INTER + INTRA:          -4.130
REMARK INTER:                  -3.957
REMARK INTRA:                  -0.173
REMARK UNBOUND:                -0.182
REMARK SMILES CCCCCCC(=O)[O-]
REMARK SMILES IDX 5 1 6 2 7 3 8 4 9 5 4 6 3 7 2 8 1 9
REMARK H PARENT
REMARK Flexibility Score: inf
ROOT
ATOM      1  C   UNL     1      36.787 -55.559  -9.150  1.00  0.00     0.006 C 
ENDROOT
BRANCH   1   2
ATOM      2  C   UNL     1      36.910 -54.891 -10.522  1.00  0.00     0.053 C 
BRANCH   2   3
ATOM      3  C   UNL     1      35.556 -54.645 -11.109  1.00  0.00     0.041 C 
ATOM      4  O   UNL     1      35.384 -53.711 -11.936  1.00  0.00    -0.550 OA
ATOM      5  O   UNL     1      34.473 -55.416 -10.707  1.00  0.00    -0.550 OA
ENDBRANCH   2   3
ENDBRANCH   1   2
BRANCH   1   6
ATOM      6  C   UNL     1      38.165 -55.940  -8.597  1.00  0.00     0.000 C 
BRANCH   6   7
ATOM      7  C   UNL     1      38.103 -56.189  -7.085  1.00  0.00    -0.000 C 
BRANCH   7   8
ATOM      8  C   UNL     1      37.847 -54.885  -6.323  1.00  0.00    -0.003 C 
ATOM      9  C   UNL     1      36.662 -55.027  -5.371  1.00  0.00     0.004 C 
ENDBRANCH   7   8
ENDBRANCH   6   7
ENDBRANCH   1   6
TORSDOF 5
ENDMDL
MODEL 9
REMARK VINA RESULT:    -2.983     14.103     14.476
REMARK INTER + INTRA:          -4.037
REMARK INTER:                  -3.851
REMARK INTRA:                  -0.186
REMARK UNBOUND:                -0.182
REMARK SMILES CCCCCCC(=O)[O-]
REMARK SMILES IDX 5 1 6 2 7 3 8 4 9 5 4 6 3 7 2 8 1 9
REMARK H PARENT
REMARK Flexibility Score: inf
ROOT
ATOM      1  C   UNL     1      35.027 -50.163   2.263  1.00  0.00     0.006 C 
ENDROOT
BRANCH   1   2
ATOM      2  C   UNL     1      35.799 -51.009   3.280  1.00  0.00     0.053 C 
BRANCH   2   3
ATOM      3  C   UNL     1      36.212 -50.174   4.450  1.00  0.00     0.041 C 
ATOM      4  O   UNL     1      36.191 -48.917   4.371  1.00  0.00    -0.550 OA
ATOM      5  O   UNL     1      36.667 -50.782   5.613  1.00  0.00    -0.550 OA
ENDBRANCH   2   3
ENDBRANCH   1   2
BRANCH   1   6
ATOM      6  C   UNL     1      33.583 -50.657   2.120  1.00  0.00     0.000 C 
BRANCH   6   7
ATOM      7  C   UNL     1      32.865 -49.937   0.972  1.00  0.00    -0.000 C 
BRANCH   7   8
ATOM      8  C   UNL     1      33.768 -48.873   0.340  1.00  0.00    -0.003 C 
ATOM      9  C   UNL     1      33.181 -47.475   0.519  1.00  0.00     0.004 C 
ENDBRANCH   7   8
ENDBRANCH   6   7
ENDBRANCH   1   6
TORSDOF 5
ENDMDL
