MODEL 1
REMARK VINA RESULT:    -4.474      0.000      0.000
REMARK INTER + INTRA:          -6.659
REMARK INTER:                  -6.044
REMARK INTRA:                  -0.615
REMARK UNBOUND:                -0.615
REMARK SMILES O=C[C@@H](O)[C@H](O)[C@H](O)CO
REMARK SMILES IDX 7 1 9 2 10 3 5 5 3 6 2 7 1 8 4 9 6 11 8 13
REMARK H PARENT 10 4 4 10 6 12 8 14
REMARK Flexibility Score: inf
ROOT
ATOM      1  C   UNL     1      21.513  -5.784   3.955  1.00  0.00     0.171 C 
ENDROOT
BRANCH   1   2
ATOM      2  C   UNL     1      23.030  -5.956   3.775  1.00  0.00     0.190 C 
BRANCH   2   3
ATOM      3  O   UNL     1      23.738  -5.035   4.554  1.00  0.00    -0.394 OA
ATOM      4  H   UNL     1      23.163  -4.836   5.337  1.00  0.00     0.210 HD
ENDBRANCH   2   3
ENDBRANCH   1   2
BRANCH   1   5
ATOM      5  C   UNL     1      20.892  -6.780   4.991  1.00  0.00     0.181 C 
BRANCH   5   6
ATOM      6  C   UNL     1      19.346  -6.698   5.151  1.00  0.00     0.209 C 
BRANCH   6   7
ATOM      7  C   UNL     1      18.881  -7.215   6.485  1.00  0.00     0.258 C 
ATOM      8  O   UNL     1      18.651  -6.442   7.402  1.00  0.00    -0.300 OA
ENDBRANCH   6   7
BRANCH   6   9
ATOM      9  O   UNL     1      18.906  -5.372   4.989  1.00  0.00    -0.383 OA
ATOM     10  H   UNL     1      19.440  -4.799   5.600  1.00  0.00     0.211 HD
ENDBRANCH   6   9
ENDBRANCH   5   6
BRANCH   5  11
ATOM     11  O   UNL     1      21.500  -6.588   6.246  1.00  0.00    -0.387 OA
ATOM     12  H   UNL     1      21.215  -7.338   6.832  1.00  0.00     0.211 HD
ENDBRANCH   5  11
ENDBRANCH   1   5
BRANCH   1  13
ATOM     13  O   UNL     1      20.878  -5.863   2.704  1.00  0.00    -0.388 OA
ATOM     14  H   UNL     1      20.496  -4.966   2.519  1.00  0.00     0.211 HD
ENDBRANCH   1  13
TORSDOF 8
ENDMDL
MODEL 2
REMARK VINA RESULT:    -4.394      2.589      4.234
REMARK INTER + INTRA:          -6.550
REMARK INTER:                  -6.023
REMARK INTRA:                  -0.527
REMARK UNBOUND:                -0.615
REMARK SMILES O=C[C@@H](O)[C@H](O)[C@H](O)CO
REMARK SMILES IDX 7 1 9 2 10 3 5 5 3 6 2 7 1 8 4 9 6 11 8 13
REMARK H PARENT 10 4 4 10 6 12 8 14
REMARK Flexibility Score: inf
ROOT
ATOM      1  C   UNL     1      19.097  -7.263   6.409  1.00  0.00     0.171 C 
ENDROOT
BRANCH   1   2
ATOM      2  C   UNL     1      18.879  -6.704   4.993  1.00  0.00     0.190 C 
BRANCH   2   3
ATOM      3  O   UNL     1      18.975  -5.308   4.983  1.00  0.00    -0.394 OA
ATOM      4  H   UNL     1      19.882  -5.091   5.321  1.00  0.00     0.210 HD
ENDBRANCH   2   3
ENDBRANCH   1   2
BRANCH   1   5
ATOM      5  C   UNL     1      17.894  -6.997   7.374  1.00  0.00     0.181 C 
BRANCH   5   6
ATOM      6  C   UNL     1      17.419  -8.227   8.203  1.00  0.00     0.209 C 
BRANCH   6   7
ATOM      7  C   UNL     1      17.430  -9.497   7.398  1.00  0.00     0.258 C 
ATOM      8  O   UNL     1      16.660  -9.644   6.461  1.00  0.00    -0.300 OA
ENDBRANCH   6   7
BRANCH   6   9
ATOM      9  O   UNL     1      18.228  -8.393   9.341  1.00  0.00    -0.383 OA
ATOM     10  H   UNL     1      18.960  -7.723   9.293  1.00  0.00     0.211 HD
ENDBRANCH   6   9
ENDBRANCH   5   6
BRANCH   5  11
ATOM     11  O   UNL     1      16.808  -6.486   6.639  1.00  0.00    -0.387 OA
ATOM     12  H   UNL     1      16.622  -5.572   6.982  1.00  0.00     0.211 HD
ENDBRANCH   5  11
ENDBRANCH   1   5
BRANCH   1  13
ATOM     13  O   UNL     1      20.307  -6.773   6.928  1.00  0.00    -0.388 OA
ATOM     14  H   UNL     1      20.752  -7.533   7.385  1.00  0.00     0.211 HD
ENDBRANCH   1  13
TORSDOF 8
ENDMDL
MODEL 3
REMARK VINA RESULT:    -4.361      2.583      5.314
REMARK INTER + INTRA:          -6.506
REMARK INTER:                  -5.906
REMARK INTRA:                  -0.600
REMARK UNBOUND:                -0.615
REMARK SMILES O=C[C@@H](O)[C@H](O)[C@H](O)CO
REMARK SMILES IDX 7 1 9 2 10 3 5 5 3 6 2 7 1 8 4 9 6 11 8 13
REMARK H PARENT 10 4 4 10 6 12 8 14
REMARK Flexibility Score: inf
ROOT
ATOM      1  C   UNL     1      16.890  -8.292   7.626  1.00  0.00     0.171 C 
ENDROOT
BRANCH   1   2
ATOM      2  C   UNL     1      17.863  -9.238   8.348  1.00  0.00     0.190 C 
BRANCH   2   3
ATOM      3  O   UNL     1      18.349  -8.659   9.525  1.00  0.00    -0.394 OA
ATOM      4  H   UNL     1      18.621  -7.735   9.287  1.00  0.00     0.210 HD
ENDBRANCH   2   3
ENDBRANCH   1   2
BRANCH   1   5
ATOM      5  C   UNL     1      17.490  -7.653   6.329  1.00  0.00     0.181 C 
BRANCH   5   6
ATOM      6  C   UNL     1      18.978  -7.208   6.433  1.00  0.00     0.209 C 
BRANCH   6   7
ATOM      7  C   UNL     1      19.471  -6.561   5.168  1.00  0.00     0.258 C 
ATOM      8  O   UNL     1      18.924  -6.791   4.100  1.00  0.00    -0.300 OA
ENDBRANCH   6   7
BRANCH   6   9
ATOM      9  O   UNL     1      19.150  -6.316   7.506  1.00  0.00    -0.383 OA
ATOM     10  H   UNL     1      20.125  -6.168   7.623  1.00  0.00     0.211 HD
ENDBRANCH   6   9
ENDBRANCH   5   6
BRANCH   5  11
ATOM     11  O   UNL     1      16.702  -6.553   5.942  1.00  0.00    -0.387 OA
ATOM     12  H   UNL     1      17.310  -5.880   5.537  1.00  0.00     0.211 HD
ENDBRANCH   5  11
ENDBRANCH   1   5
BRANCH   1  13
ATOM     13  O   UNL     1      16.425  -7.318   8.526  1.00  0.00    -0.388 OA
ATOM     14  H   UNL     1      17.226  -6.906   8.943  1.00  0.00     0.211 HD
ENDBRANCH   1  13
TORSDOF 8
ENDMDL
MODEL 4
REMARK VINA RESULT:    -4.205      2.788      4.850
REMARK INTER + INTRA:          -6.295
REMARK INTER:                  -5.911
REMARK INTRA:                  -0.384
REMARK UNBOUND:                -0.615
REMARK SMILES O=C[C@@H](O)[C@H](O)[C@H](O)CO
REMARK SMILES IDX 7 1 9 2 10 3 5 5 3 6 2 7 1 8 4 9 6 11 8 13
REMARK H PARENT 10 4 4 10 6 12 8 14
REMARK Flexibility Score: inf
ROOT
ATOM      1  C   UNL     1      17.393  -7.338   7.323  1.00  0.00     0.171 C 
ENDROOT
BRANCH   1   2
ATOM      2  C   UNL     1      17.406  -8.561   8.254  1.00  0.00     0.190 C 
BRANCH   2   3
ATOM      3  O   UNL     1      18.195  -8.325   9.386  1.00  0.00    -0.394 OA
ATOM      4  H   UNL     1      19.073  -8.748   9.203  1.00  0.00     0.210 HD
ENDBRANCH   2   3
ENDBRANCH   1   2
BRANCH   1   5
ATOM      5  C   UNL     1      18.784  -7.041   6.667  1.00  0.00     0.181 C 
BRANCH   5   6
ATOM      6  C   UNL     1      18.741  -6.660   5.158  1.00  0.00     0.209 C 
BRANCH   6   7
ATOM      7  C   UNL     1      17.428  -7.014   4.516  1.00  0.00     0.258 C 
ATOM      8  O   UNL     1      17.313  -8.045   3.870  1.00  0.00    -0.300 OA
ENDBRANCH   6   7
BRANCH   6   9
ATOM      9  O   UNL     1      18.981  -5.284   4.993  1.00  0.00    -0.383 OA
ATOM     10  H   UNL     1      19.734  -5.034   5.590  1.00  0.00     0.211 HD
ENDBRANCH   6   9
ENDBRANCH   5   6
BRANCH   5  11
ATOM     11  O   UNL     1      19.630  -8.152   6.842  1.00  0.00    -0.387 OA
ATOM     12  H   UNL     1      20.403  -7.853   7.388  1.00  0.00     0.211 HD
ENDBRANCH   5  11
ENDBRANCH   1   5
BRANCH   1  13
ATOM     13  O   UNL     1      16.890  -6.224   8.015  1.00  0.00    -0.388 OA
ATOM     14  H   UNL     1      16.371  -6.575   8.785  1.00  0.00     0.211 HD
ENDBRANCH   1  13
TORSDOF 8
ENDMDL
MODEL 5
REMARK VINA RESULT:    -4.199      1.550      2.350
REMARK INTER + INTRA:          -6.287
REMARK INTER:                  -5.737
REMARK INTRA:                  -0.550
REMARK UNBOUND:                -0.615
REMARK SMILES O=C[C@@H](O)[C@H](O)[C@H](O)CO
REMARK SMILES IDX 7 1 9 2 10 3 5 5 3 6 2 7 1 8 4 9 6 11 8 13
REMARK H PARENT 10 4 4 10 6 12 8 14
REMARK Flexibility Score: inf
ROOT
ATOM      1  C   UNL     1      22.049  -6.469   4.628  1.00  0.00     0.171 C 
ENDROOT
BRANCH   1   2
ATOM      2  C   UNL     1      22.913  -5.730   3.593  1.00  0.00     0.190 C 
BRANCH   2   3
ATOM      3  O   UNL     1      23.898  -4.957   4.218  1.00  0.00    -0.394 OA
ATOM      4  H   UNL     1      24.185  -4.283   3.550  1.00  0.00     0.210 HD
ENDBRANCH   2   3
ENDBRANCH   1   2
BRANCH   1   5
ATOM      5  C   UNL     1      20.521  -6.154   4.500  1.00  0.00     0.181 C 
BRANCH   5   6
ATOM      6  C   UNL     1      19.584  -7.028   5.384  1.00  0.00     0.209 C 
BRANCH   6   7
ATOM      7  C   UNL     1      19.794  -8.500   5.159  1.00  0.00     0.258 C 
ATOM      8  O   UNL     1      19.430  -9.026   4.118  1.00  0.00    -0.300 OA
ENDBRANCH   6   7
BRANCH   6   9
ATOM      9  O   UNL     1      19.781  -6.736   6.746  1.00  0.00    -0.383 OA
ATOM     10  H   UNL     1      20.254  -7.507   7.156  1.00  0.00     0.211 HD
ENDBRANCH   6   9
ENDBRANCH   5   6
BRANCH   5  11
ATOM     11  O   UNL     1      20.130  -6.271   3.153  1.00  0.00    -0.387 OA
ATOM     12  H   UNL     1      19.855  -5.368   2.844  1.00  0.00     0.211 HD
ENDBRANCH   5  11
ENDBRANCH   1   5
BRANCH   1  13
ATOM     13  O   UNL     1      22.534  -6.207   5.920  1.00  0.00    -0.388 OA
ATOM     14  H   UNL     1      21.807  -5.744   6.412  1.00  0.00     0.211 HD
ENDBRANCH   1  13
TORSDOF 8
ENDMDL
MODEL 6
REMARK VINA RESULT:    -4.170      2.230      3.990
REMARK INTER + INTRA:          -6.248
REMARK INTER:                  -5.895
REMARK INTRA:                  -0.353
REMARK UNBOUND:                -0.615
REMARK SMILES O=C[C@@H](O)[C@H](O)[C@H](O)CO
REMARK SMILES IDX 7 1 9 2 10 3 5 5 3 6 2 7 1 8 4 9 6 11 8 13
REMARK H PARENT 10 4 4 10 6 12 8 14
REMARK Flexibility Score: inf
ROOT
ATOM      1  C   UNL     1      22.125  -7.057   5.691  1.00  0.00     0.171 C 
ENDROOT
BRANCH   1   2
ATOM      2  C   UNL     1      23.029  -8.293   5.834  1.00  0.00     0.190 C 
BRANCH   2   3
ATOM      3  O   UNL     1      24.328  -7.928   6.205  1.00  0.00    -0.394 OA
ATOM      4  H   UNL     1      24.765  -8.757   6.529  1.00  0.00     0.210 HD
ENDBRANCH   2   3
ENDBRANCH   1   2
BRANCH   1   5
ATOM      5  C   UNL     1      22.458  -6.185   4.435  1.00  0.00     0.181 C 
BRANCH   5   6
ATOM      6  C   UNL     1      22.670  -6.977   3.111  1.00  0.00     0.209 C 
BRANCH   6   7
ATOM      7  C   UNL     1      21.410  -7.075   2.296  1.00  0.00     0.258 C 
ATOM      8  O   UNL     1      20.712  -6.089   2.113  1.00  0.00    -0.300 OA
ENDBRANCH   6   7
BRANCH   6   9
ATOM      9  O   UNL     1      23.678  -6.376   2.336  1.00  0.00    -0.383 OA
ATOM     10  H   UNL     1      23.532  -5.393   2.358  1.00  0.00     0.211 HD
ENDBRANCH   6   9
ENDBRANCH   5   6
BRANCH   5  11
ATOM     11  O   UNL     1      23.600  -5.404   4.697  1.00  0.00    -0.387 OA
ATOM     12  H   UNL     1      23.991  -5.728   5.550  1.00  0.00     0.211 HD
ENDBRANCH   5  11
ENDBRANCH   1   5
BRANCH   1  13
ATOM     13  O   UNL     1      22.164  -6.306   6.878  1.00  0.00    -0.388 OA
ATOM     14  H   UNL     1      23.038  -6.494   7.309  1.00  0.00     0.211 HD
ENDBRANCH   1  13
TORSDOF 8
ENDMDL
MODEL 7
REMARK VINA RESULT:    -4.157      1.318      2.189
REMARK INTER + INTRA:          -6.230
REMARK INTER:                  -5.964
REMARK INTRA:                  -0.266
REMARK UNBOUND:                -0.615
REMARK SMILES O=C[C@@H](O)[C@H](O)[C@H](O)CO
REMARK SMILES IDX 7 1 9 2 10 3 5 5 3 6 2 7 1 8 4 9 6 11 8 13
REMARK H PARENT 10 4 4 10 6 12 8 14
REMARK Flexibility Score: inf
ROOT
ATOM      1  C   UNL     1      21.518  -7.183   5.855  1.00  0.00     0.171 C 
ENDROOT
BRANCH   1   2
ATOM      2  C   UNL     1      22.003  -6.514   4.559  1.00  0.00     0.190 C 
BRANCH   2   3
ATOM      3  O   UNL     1      22.803  -5.400   4.834  1.00  0.00    -0.394 OA
ATOM      4  H   UNL     1      23.552  -5.431   4.184  1.00  0.00     0.210 HD
ENDBRANCH   2   3
ENDBRANCH   1   2
BRANCH   1   5
ATOM      5  C   UNL     1      19.958  -7.263   5.968  1.00  0.00     0.181 C 
BRANCH   5   6
ATOM      6  C   UNL     1      19.171  -6.600   4.801  1.00  0.00     0.209 C 
BRANCH   6   7
ATOM      7  C   UNL     1      17.818  -7.224   4.596  1.00  0.00     0.258 C 
ATOM      8  O   UNL     1      17.296  -7.878   5.486  1.00  0.00    -0.300 OA
ENDBRANCH   6   7
BRANCH   6   9
ATOM      9  O   UNL     1      19.014  -5.222   5.035  1.00  0.00    -0.383 OA
ATOM     10  H   UNL     1      18.052  -5.054   5.217  1.00  0.00     0.211 HD
ENDBRANCH   6   9
ENDBRANCH   5   6
BRANCH   5  11
ATOM     11  O   UNL     1      19.548  -6.694   7.188  1.00  0.00    -0.387 OA
ATOM     12  H   UNL     1      20.004  -7.192   7.916  1.00  0.00     0.211 HD
ENDBRANCH   5  11
ENDBRANCH   1   5
BRANCH   1  13
ATOM     13  O   UNL     1      22.093  -6.536   6.962  1.00  0.00    -0.388 OA
ATOM     14  H   UNL     1      21.347  -6.139   7.482  1.00  0.00     0.211 HD
ENDBRANCH   1  13
TORSDOF 8
ENDMDL
MODEL 8
REMARK VINA RESULT:    -4.127      1.442      3.883
REMARK INTER + INTRA:          -6.189
REMARK INTER:                  -5.843
REMARK INTRA:                  -0.346
REMARK UNBOUND:                -0.615
REMARK SMILES O=C[C@@H](O)[C@H](O)[C@H](O)CO
REMARK SMILES IDX 7 1 9 2 10 3 5 5 3 6 2 7 1 8 4 9 6 11 8 13
REMARK H PARENT 10 4 4 10 6 12 8 14
REMARK Flexibility Score: inf
ROOT
ATOM      1  C   UNL     1      19.248  -6.541   5.074  1.00  0.00     0.171 C 
ENDROOT
BRANCH   1   2
ATOM      2  C   UNL     1      18.842  -7.144   6.428  1.00  0.00     0.190 C 
BRANCH   2   3
ATOM      3  O   UNL     1      19.038  -6.228   7.467  1.00  0.00    -0.394 OA
ATOM      4  H   UNL     1      18.581  -5.393   7.189  1.00  0.00     0.210 HD
ENDBRANCH   2   3
ENDBRANCH   1   2
BRANCH   1   5
ATOM      5  C   UNL     1      20.757  -6.765   4.721  1.00  0.00     0.181 C 
BRANCH   5   6
ATOM      6  C   UNL     1      21.612  -7.428   5.840  1.00  0.00     0.209 C 
BRANCH   6   7
ATOM      7  C   UNL     1      22.804  -8.162   5.291  1.00  0.00     0.258 C 
ATOM      8  O   UNL     1      23.037  -8.156   4.092  1.00  0.00    -0.300 OA
ENDBRANCH   6   7
BRANCH   6   9
ATOM      9  O   UNL     1      22.049  -6.460   6.762  1.00  0.00    -0.383 OA
ATOM     10  H   UNL     1      22.926  -6.759   7.122  1.00  0.00     0.211 HD
ENDBRANCH   6   9
ENDBRANCH   5   6
BRANCH   5  11
ATOM     11  O   UNL     1      21.340  -5.537   4.357  1.00  0.00    -0.387 OA
ATOM     12  H   UNL     1      22.098  -5.736   3.747  1.00  0.00     0.211 HD
ENDBRANCH   5  11
ENDBRANCH   1   5
BRANCH   1  13
ATOM     13  O   UNL     1      18.896  -5.182   5.039  1.00  0.00    -0.388 OA
ATOM     14  H   UNL     1      19.314  -4.756   5.832  1.00  0.00     0.211 HD
ENDBRANCH   1  13
TORSDOF 8
ENDMDL
MODEL 9
REMARK VINA RESULT:    -4.083      1.680      4.802
REMARK INTER + INTRA:          -6.130
REMARK INTER:                  -5.659
REMARK INTRA:                  -0.471
REMARK UNBOUND:                -0.615
REMARK SMILES O=C[C@@H](O)[C@H](O)[C@H](O)CO
REMARK SMILES IDX 7 1 9 2 10 3 5 5 3 6 2 7 1 8 4 9 6 11 8 13
REMARK H PARENT 10 4 4 10 6 12 8 14
REMARK Flexibility Score: inf
ROOT
ATOM      1  C   UNL     1      18.193  -6.582   7.089  1.00  0.00     0.171 C 
ENDROOT
BRANCH   1   2
ATOM      2  C   UNL     1      17.460  -7.867   7.506  1.00  0.00     0.190 C 
BRANCH   2   3
ATOM      3  O   UNL     1      16.472  -7.598   8.460  1.00  0.00    -0.394 OA
ATOM      4  H   UNL     1      16.428  -6.610   8.540  1.00  0.00     0.210 HD
ENDBRANCH   2   3
ENDBRANCH   1   2
BRANCH   1   5
ATOM      5  C   UNL     1      19.000  -6.732   5.756  1.00  0.00     0.181 C 
BRANCH   5   6
ATOM      6  C   UNL     1      20.383  -7.434   5.889  1.00  0.00     0.209 C 
BRANCH   6   7
ATOM      7  C   UNL     1      21.001  -7.739   4.552  1.00  0.00     0.258 C 
ATOM      8  O   UNL     1      21.223  -6.842   3.753  1.00  0.00    -0.300 OA
ENDBRANCH   6   7
BRANCH   6   9
ATOM      9  O   UNL     1      21.268  -6.636   6.637  1.00  0.00    -0.383 OA
ATOM     10  H   UNL     1      22.161  -7.071   6.612  1.00  0.00     0.211 HD
ENDBRANCH   6   9
ENDBRANCH   5   6
BRANCH   5  11
ATOM     11  O   UNL     1      19.177  -5.463   5.171  1.00  0.00    -0.387 OA
ATOM     12  H   UNL     1      19.865  -5.557   4.461  1.00  0.00     0.211 HD
ENDBRANCH   5  11
ENDBRANCH   1   5
BRANCH   1  13
ATOM     13  O   UNL     1      19.003  -6.137   8.147  1.00  0.00    -0.388 OA
ATOM     14  H   UNL     1      19.572  -5.408   7.787  1.00  0.00     0.211 HD
ENDBRANCH   1  13
TORSDOF 8
ENDMDL
