MODEL 1
REMARK VINA RESULT:    26.437      0.000      0.000
REMARK INTER + INTRA:          28.756
REMARK INTER:                  28.756
REMARK INTRA:                   0.000
REMARK UNBOUND:                 0.000
REMARK SMILES Cc1cc(O)c2c(c1)C(=O)c1cc(O)cc(O)c1C2=O
REMARK SMILES IDX 1 1 2 2 8 3 7 4 6 5 4 6 3 7 19 8 20 9 18 10 11 11 9 12 10 13
REMARK SMILES IDX 12 14 13 15 15 16 16 17 5 18 17 20 14 22
REMARK H PARENT 5 19 17 21 14 23
REMARK Flexibility Score: inf
ROOT
ATOM      1  C   UNL     1      19.765  22.230 -12.204  1.00  0.00     0.044 C 
ATOM      2  C   UNL     1      19.859  20.732 -12.209  1.00  0.00    -0.047 A 
ATOM      3  C   UNL     1      18.718  19.957 -12.439  1.00  0.00     0.016 A 
ATOM      4  C   UNL     1      18.799  18.554 -12.471  1.00  0.00     0.038 A 
ATOM      5  C   UNL     1      20.044  17.914 -12.269  1.00  0.00     0.076 A 
ATOM      6  C   UNL     1      21.213  18.712 -12.137  1.00  0.00     0.127 A 
ATOM      7  C   UNL     1      21.102  20.105 -12.082  1.00  0.00     0.050 A 
ATOM      8  C   UNL     1      20.068  16.430 -12.152  1.00  0.00     0.201 C 
ATOM      9  O   UNL     1      21.031  15.855 -11.577  1.00  0.00    -0.288 OA
ATOM     10  C   UNL     1      18.904  15.625 -12.608  1.00  0.00     0.076 A 
ATOM     11  C   UNL     1      17.680  16.277 -12.872  1.00  0.00     0.041 A 
ATOM     12  C   UNL     1      17.582  17.747 -12.727  1.00  0.00     0.194 C 
ATOM     13  O   UNL     1      16.461  18.317 -12.842  1.00  0.00    -0.289 OA
ATOM     14  C   UNL     1      16.560  15.525 -13.268  1.00  0.00     0.059 A 
ATOM     15  C   UNL     1      16.650  14.138 -13.409  1.00  0.00     0.120 A 
ATOM     16  C   UNL     1      17.860  13.492 -13.157  1.00  0.00     0.093 A 
ATOM     17  C   UNL     1      18.988  14.221 -12.759  1.00  0.00     0.131 A 
ENDROOT
BRANCH   6  18
ATOM     18  O   UNL     1      22.501  18.174 -12.096  1.00  0.00    -0.507 OA
ATOM     19  H   UNL     1      22.987  17.819 -12.907  1.00  0.00     0.293 HD
ENDBRANCH   6  18
BRANCH  17  20
ATOM     20  O   UNL     1      20.189  13.551 -12.526  1.00  0.00    -0.507 OA
ATOM     21  H   UNL     1      20.706  13.108 -13.277  1.00  0.00     0.293 HD
ENDBRANCH  17  20
BRANCH  15  22
ATOM     22  O   UNL     1      15.541  13.390 -13.803  1.00  0.00    -0.508 OA
ATOM     23  H   UNL     1      15.026  12.819 -13.143  1.00  0.00     0.293 HD
ENDBRANCH  15  22
TORSDOF 3
ENDMDL
MODEL 2
REMARK VINA RESULT:    28.414      1.277      3.381
REMARK INTER + INTRA:          30.905
REMARK INTER:                  30.905
REMARK INTRA:                   0.000
REMARK UNBOUND:                 0.000
REMARK SMILES Cc1cc(O)c2c(c1)C(=O)c1cc(O)cc(O)c1C2=O
REMARK SMILES IDX 1 1 2 2 8 3 7 4 6 5 4 6 3 7 19 8 20 9 18 10 11 11 9 12 10 13
REMARK SMILES IDX 12 14 13 15 15 16 16 17 5 18 17 20 14 22
REMARK H PARENT 5 19 17 21 14 23
REMARK Flexibility Score: inf
ROOT
ATOM      1  C   UNL     1      21.831  22.495 -11.245  1.00  0.00     0.044 C 
ATOM      2  C   UNL     1      20.884  21.427 -11.706  1.00  0.00    -0.047 A 
ATOM      3  C   UNL     1      21.292  20.089 -11.734  1.00  0.00     0.016 A 
ATOM      4  C   UNL     1      20.405  19.077 -12.140  1.00  0.00     0.038 A 
ATOM      5  C   UNL     1      19.086  19.408 -12.526  1.00  0.00     0.076 A 
ATOM      6  C   UNL     1      18.650  20.756 -12.399  1.00  0.00     0.127 A 
ATOM      7  C   UNL     1      19.559  21.748 -12.018  1.00  0.00     0.050 A 
ATOM      8  C   UNL     1      18.224  18.337 -13.099  1.00  0.00     0.201 C 
ATOM      9  O   UNL     1      17.236  18.638 -13.822  1.00  0.00    -0.288 OA
ATOM     10  C   UNL     1      18.591  16.908 -12.922  1.00  0.00     0.076 A 
ATOM     11  C   UNL     1      19.889  16.584 -12.472  1.00  0.00     0.041 A 
ATOM     12  C   UNL     1      20.850  17.663 -12.152  1.00  0.00     0.194 C 
ATOM     13  O   UNL     1      22.047  17.377 -11.870  1.00  0.00    -0.289 OA
ATOM     14  C   UNL     1      20.263  15.235 -12.334  1.00  0.00     0.059 A 
ATOM     15  C   UNL     1      19.358  14.212 -12.632  1.00  0.00     0.120 A 
ATOM     16  C   UNL     1      18.072  14.530 -13.068  1.00  0.00     0.093 A 
ATOM     17  C   UNL     1      17.679  15.867 -13.215  1.00  0.00     0.131 A 
ENDROOT
BRANCH   6  18
ATOM     18  O   UNL     1      17.326  21.149 -12.600  1.00  0.00    -0.507 OA
ATOM     19  H   UNL     1      16.782  21.660 -11.920  1.00  0.00     0.293 HD
ENDBRANCH   6  18
BRANCH  17  20
ATOM     20  O   UNL     1      16.382  16.156 -13.640  1.00  0.00    -0.507 OA
ATOM     21  H   UNL     1      15.709  15.424 -13.831  1.00  0.00     0.293 HD
ENDBRANCH  17  20
BRANCH  15  22
ATOM     22  O   UNL     1      19.726  12.875 -12.495  1.00  0.00    -0.508 OA
ATOM     23  H   UNL     1      19.233  12.137 -12.984  1.00  0.00     0.293 HD
ENDBRANCH  15  22
TORSDOF 3
ENDMDL
MODEL 3
REMARK VINA RESULT:    28.602      1.543      6.393
REMARK INTER + INTRA:          31.110
REMARK INTER:                  31.110
REMARK INTRA:                   0.000
REMARK UNBOUND:                 0.000
REMARK SMILES Cc1cc(O)c2c(c1)C(=O)c1cc(O)cc(O)c1C2=O
REMARK SMILES IDX 1 1 2 2 8 3 7 4 6 5 4 6 3 7 19 8 20 9 18 10 11 11 9 12 10 13
REMARK SMILES IDX 12 14 13 15 15 16 16 17 5 18 17 20 14 22
REMARK H PARENT 5 19 17 21 14 23
REMARK Flexibility Score: inf
ROOT
ATOM      1  C   UNL     1      19.740  12.875 -12.888  1.00  0.00     0.044 C 
ATOM      2  C   UNL     1      19.337  14.319 -12.815  1.00  0.00    -0.047 A 
ATOM      3  C   UNL     1      20.265  15.288 -12.420  1.00  0.00     0.016 A 
ATOM      4  C   UNL     1      19.907  16.646 -12.373  1.00  0.00     0.038 A 
ATOM      5  C   UNL     1      18.597  17.043 -12.726  1.00  0.00     0.076 A 
ATOM      6  C   UNL     1      17.693  16.064 -13.222  1.00  0.00     0.127 A 
ATOM      7  C   UNL     1      18.064  14.717 -13.234  1.00  0.00     0.050 A 
ATOM      8  C   UNL     1      18.204  18.464 -12.514  1.00  0.00     0.201 C 
ATOM      9  O   UNL     1      16.988  18.777 -12.412  1.00  0.00    -0.288 OA
ATOM     10  C   UNL     1      19.246  19.504 -12.305  1.00  0.00     0.076 A 
ATOM     11  C   UNL     1      20.568  19.102 -12.018  1.00  0.00     0.041 A 
ATOM     12  C   UNL     1      20.907  17.662 -11.963  1.00  0.00     0.194 C 
ATOM     13  O   UNL     1      22.055  17.300 -11.585  1.00  0.00    -0.289 OA
ATOM     14  C   UNL     1      21.557  20.074 -11.781  1.00  0.00     0.059 A 
ATOM     15  C   UNL     1      21.243  21.435 -11.835  1.00  0.00     0.120 A 
ATOM     16  C   UNL     1      19.939  21.835 -12.127  1.00  0.00     0.093 A 
ATOM     17  C   UNL     1      18.938  20.883 -12.364  1.00  0.00     0.131 A 
ENDROOT
BRANCH   6  18
ATOM     18  O   UNL     1      16.438  16.384 -13.745  1.00  0.00    -0.507 OA
ATOM     19  H   UNL     1      15.688  15.716 -13.854  1.00  0.00     0.293 HD
ENDBRANCH   6  18
BRANCH  17  20
ATOM     20  O   UNL     1      17.645  21.312 -12.667  1.00  0.00    -0.507 OA
ATOM     21  H   UNL     1      16.927  21.381 -11.956  1.00  0.00     0.293 HD
ENDBRANCH  17  20
BRANCH  15  22
ATOM     22  O   UNL     1      22.221  22.400 -11.602  1.00  0.00    -0.508 OA
ATOM     23  H   UNL     1      22.177  23.315 -12.035  1.00  0.00     0.293 HD
ENDBRANCH  15  22
TORSDOF 3
ENDMDL
