MODEL 1
REMARK VINA RESULT:    -4.049      0.000      0.000
REMARK INTER + INTRA:          -4.049
REMARK INTER:                  -4.049
REMARK INTRA:                   0.000
REMARK UNBOUND:                 0.000
REMARK SMILES CC1=CC=CC(C)(C)[C@H]1C
REMARK SMILES IDX 10 1 9 2 2 3 3 4 4 5 5 6 6 7 7 8 8 9 1 10
REMARK H PARENT
REMARK Flexibility Score: inf
ROOT
ATOM      1  C   UNL     1     162.245 168.563 199.619  1.00  0.00     0.013 C 
ATOM      2  C   UNL     1     163.650 168.052 199.991  1.00  0.00     0.021 C 
ATOM      3  C   UNL     1     164.437 169.210 200.590  1.00  0.00    -0.070 C 
ATOM      4  C   UNL     1     164.394 169.435 201.913  1.00  0.00    -0.001 C 
ATOM      5  C   UNL     1     163.694 168.503 202.816  1.00  0.00    -0.004 C 
ATOM      6  C   UNL     1     163.292 167.303 202.382  1.00  0.00    -0.020 C 
ATOM      7  C   UNL     1     163.630 166.829 200.980  1.00  0.00    -0.011 C 
ATOM      8  C   UNL     1     162.612 165.752 200.544  1.00  0.00     0.016 C 
ATOM      9  C   UNL     1     165.030 166.176 201.015  1.00  0.00     0.016 C 
ATOM     10  C   UNL     1     165.190 170.155 199.699  1.00  0.00     0.040 C 
ENDROOT
TORSDOF 0
ENDMDL
MODEL 2
REMARK VINA RESULT:    -4.049      4.287      6.768
REMARK INTER + INTRA:          -4.049
REMARK INTER:                  -4.049
REMARK INTRA:                   0.000
REMARK UNBOUND:                 0.000
REMARK SMILES CC1=CC=CC(C)(C)[C@H]1C
REMARK SMILES IDX 10 1 9 2 2 3 3 4 4 5 5 6 6 7 7 8 8 9 1 10
REMARK H PARENT
REMARK Flexibility Score: inf
ROOT
ATOM      1  C   UNL     1     169.742 163.428 199.639  1.00  0.00     0.013 C 
ATOM      2  C   UNL     1     168.333 163.935 199.999  1.00  0.00     0.021 C 
ATOM      3  C   UNL     1     167.547 162.778 200.600  1.00  0.00    -0.070 C 
ATOM      4  C   UNL     1     167.582 162.561 201.924  1.00  0.00    -0.001 C 
ATOM      5  C   UNL     1     168.272 163.502 202.826  1.00  0.00    -0.004 C 
ATOM      6  C   UNL     1     168.672 164.700 202.388  1.00  0.00    -0.020 C 
ATOM      7  C   UNL     1     168.341 165.165 200.980  1.00  0.00    -0.011 C 
ATOM      8  C   UNL     1     169.357 166.243 200.544  1.00  0.00     0.016 C 
ATOM      9  C   UNL     1     166.938 165.812 201.002  1.00  0.00     0.016 C 
ATOM     10  C   UNL     1     166.803 161.824 199.710  1.00  0.00     0.040 C 
ENDROOT
TORSDOF 0
ENDMDL
MODEL 3
REMARK VINA RESULT:    -4.037      1.231      3.612
REMARK INTER + INTRA:          -4.037
REMARK INTER:                  -4.037
REMARK INTRA:                   0.000
REMARK UNBOUND:                 0.000
REMARK SMILES CC1=CC=CC(C)(C)[C@H]1C
REMARK SMILES IDX 10 1 9 2 2 3 3 4 4 5 5 6 6 7 7 8 8 9 1 10
REMARK H PARENT
REMARK Flexibility Score: inf
ROOT
ATOM      1  C   UNL     1     164.506 169.707 201.854  1.00  0.00     0.013 C 
ATOM      2  C   UNL     1     164.700 168.510 200.903  1.00  0.00     0.021 C 
ATOM      3  C   UNL     1     163.455 167.636 200.973  1.00  0.00    -0.070 C 
ATOM      4  C   UNL     1     162.428 167.867 200.139  1.00  0.00    -0.001 C 
ATOM      5  C   UNL     1     162.535 168.876 199.070  1.00  0.00    -0.004 C 
ATOM      6  C   UNL     1     163.717 169.415 198.753  1.00  0.00    -0.020 C 
ATOM      7  C   UNL     1     164.995 168.932 199.417  1.00  0.00    -0.011 C 
ATOM      8  C   UNL     1     166.066 170.042 199.335  1.00  0.00     0.016 C 
ATOM      9  C   UNL     1     165.516 167.708 198.630  1.00  0.00     0.016 C 
ATOM     10  C   UNL     1     163.332 166.574 202.027  1.00  0.00     0.040 C 
ENDROOT
TORSDOF 0
ENDMDL
MODEL 4
REMARK VINA RESULT:    -4.030      5.319      6.704
REMARK INTER + INTRA:          -4.030
REMARK INTER:                  -4.030
REMARK INTRA:                   0.000
REMARK UNBOUND:                 0.000
REMARK SMILES CC1=CC=CC(C)(C)[C@H]1C
REMARK SMILES IDX 10 1 9 2 2 3 3 4 4 5 5 6 6 7 7 8 8 9 1 10
REMARK H PARENT
REMARK Flexibility Score: inf
ROOT
ATOM      1  C   UNL     1     167.530 162.248 201.767  1.00  0.00     0.013 C 
ATOM      2  C   UNL     1     167.311 163.469 200.853  1.00  0.00     0.021 C 
ATOM      3  C   UNL     1     168.559 164.339 200.910  1.00  0.00    -0.070 C 
ATOM      4  C   UNL     1     169.561 164.129 200.042  1.00  0.00    -0.001 C 
ATOM      5  C   UNL     1     169.423 163.147 198.950  1.00  0.00    -0.004 C 
ATOM      6  C   UNL     1     168.231 162.618 198.654  1.00  0.00    -0.020 C 
ATOM      7  C   UNL     1     166.973 163.085 199.365  1.00  0.00    -0.011 C 
ATOM      8  C   UNL     1     165.899 161.979 199.286  1.00  0.00     0.016 C 
ATOM      9  C   UNL     1     166.433 164.330 198.625  1.00  0.00     0.016 C 
ATOM     10  C   UNL     1     168.714 165.374 201.987  1.00  0.00     0.040 C 
ENDROOT
TORSDOF 0
ENDMDL
MODEL 5
REMARK VINA RESULT:    -3.994      1.837      3.472
REMARK INTER + INTRA:          -3.994
REMARK INTER:                  -3.994
REMARK INTRA:                   0.000
REMARK UNBOUND:                 0.000
REMARK SMILES CC1=CC=CC(C)(C)[C@H]1C
REMARK SMILES IDX 10 1 9 2 2 3 3 4 4 5 5 6 6 7 7 8 8 9 1 10
REMARK H PARENT
REMARK Flexibility Score: inf
ROOT
ATOM      1  C   UNL     1     165.521 166.736 200.060  1.00  0.00     0.013 C 
ATOM      2  C   UNL     1     165.698 167.866 201.093  1.00  0.00     0.021 C 
ATOM      3  C   UNL     1     167.076 168.482 200.896  1.00  0.00    -0.070 C 
ATOM      4  C   UNL     1     167.234 169.512 200.050  1.00  0.00    -0.001 C 
ATOM      5  C   UNL     1     166.070 170.140 199.398  1.00  0.00    -0.004 C 
ATOM      6  C   UNL     1     164.826 169.862 199.804  1.00  0.00    -0.020 C 
ATOM      7  C   UNL     1     164.582 168.971 201.009  1.00  0.00    -0.011 C 
ATOM      8  C   UNL     1     163.168 168.356 200.914  1.00  0.00     0.016 C 
ATOM      9  C   UNL     1     164.636 169.850 202.279  1.00  0.00     0.016 C 
ATOM     10  C   UNL     1     168.276 167.888 201.577  1.00  0.00     0.040 C 
ENDROOT
TORSDOF 0
ENDMDL
MODEL 6
REMARK VINA RESULT:    -3.984      4.016      6.193
REMARK INTER + INTRA:          -3.984
REMARK INTER:                  -3.984
REMARK INTRA:                   0.000
REMARK UNBOUND:                 0.000
REMARK SMILES CC1=CC=CC(C)(C)[C@H]1C
REMARK SMILES IDX 10 1 9 2 2 3 3 4 4 5 5 6 6 7 7 8 8 9 1 10
REMARK H PARENT
REMARK Flexibility Score: inf
ROOT
ATOM      1  C   UNL     1     166.415 165.257 199.995  1.00  0.00     0.013 C 
ATOM      2  C   UNL     1     166.275 164.137 201.044  1.00  0.00     0.021 C 
ATOM      3  C   UNL     1     164.903 163.497 200.882  1.00  0.00    -0.070 C 
ATOM      4  C   UNL     1     164.746 162.454 200.052  1.00  0.00    -0.001 C 
ATOM      5  C   UNL     1     165.906 161.837 199.384  1.00  0.00    -0.004 C 
ATOM      6  C   UNL     1     167.153 162.139 199.762  1.00  0.00    -0.020 C 
ATOM      7  C   UNL     1     167.407 163.048 200.952  1.00  0.00    -0.011 C 
ATOM      8  C   UNL     1     168.808 163.683 200.822  1.00  0.00     0.016 C 
ATOM      9  C   UNL     1     167.391 162.184 202.233  1.00  0.00     0.016 C 
ATOM     10  C   UNL     1     163.708 164.081 201.579  1.00  0.00     0.040 C 
ENDROOT
TORSDOF 0
ENDMDL
MODEL 7
REMARK VINA RESULT:    -3.975      4.283      6.491
REMARK INTER + INTRA:          -3.975
REMARK INTER:                  -3.975
REMARK INTRA:                   0.000
REMARK UNBOUND:                 0.000
REMARK SMILES CC1=CC=CC(C)(C)[C@H]1C
REMARK SMILES IDX 10 1 9 2 2 3 3 4 4 5 5 6 6 7 7 8 8 9 1 10
REMARK H PARENT
REMARK Flexibility Score: inf
ROOT
ATOM      1  C   UNL     1     167.111 161.865 200.024  1.00  0.00     0.013 C 
ATOM      2  C   UNL     1     166.359 163.060 199.407  1.00  0.00     0.021 C 
ATOM      3  C   UNL     1     166.325 162.876 197.896  1.00  0.00    -0.070 C 
ATOM      4  C   UNL     1     165.309 162.208 197.327  1.00  0.00    -0.001 C 
ATOM      5  C   UNL     1     164.158 161.754 198.128  1.00  0.00    -0.004 C 
ATOM      6  C   UNL     1     163.981 162.192 199.379  1.00  0.00    -0.020 C 
ATOM      7  C   UNL     1     164.903 163.243 199.974  1.00  0.00    -0.011 C 
ATOM      8  C   UNL     1     164.867 163.142 201.514  1.00  0.00     0.016 C 
ATOM      9  C   UNL     1     164.369 164.636 199.574  1.00  0.00     0.016 C 
ATOM     10  C   UNL     1     167.465 163.361 197.048  1.00  0.00     0.040 C 
ENDROOT
TORSDOF 0
ENDMDL
MODEL 8
REMARK VINA RESULT:    -3.973      2.972      4.425
REMARK INTER + INTRA:          -3.973
REMARK INTER:                  -3.973
REMARK INTRA:                   0.000
REMARK UNBOUND:                 0.000
REMARK SMILES CC1=CC=CC(C)(C)[C@H]1C
REMARK SMILES IDX 10 1 9 2 2 3 3 4 4 5 5 6 6 7 7 8 8 9 1 10
REMARK H PARENT
REMARK Flexibility Score: inf
ROOT
ATOM      1  C   UNL     1     164.873 170.111 200.067  1.00  0.00     0.013 C 
ATOM      2  C   UNL     1     165.620 168.915 199.447  1.00  0.00     0.021 C 
ATOM      3  C   UNL     1     165.623 169.084 197.935  1.00  0.00    -0.070 C 
ATOM      4  C   UNL     1     166.623 169.751 197.338  1.00  0.00    -0.001 C 
ATOM      5  C   UNL     1     167.787 170.220 198.111  1.00  0.00    -0.004 C 
ATOM      6  C   UNL     1     167.992 169.795 199.363  1.00  0.00    -0.020 C 
ATOM      7  C   UNL     1     167.088 168.745 199.987  1.00  0.00    -0.011 C 
ATOM      8  C   UNL     1     167.154 168.861 201.525  1.00  0.00     0.016 C 
ATOM      9  C   UNL     1     167.622 167.351 199.590  1.00  0.00     0.016 C 
ATOM     10  C   UNL     1     164.469 168.584 197.114  1.00  0.00     0.040 C 
ENDROOT
TORSDOF 0
ENDMDL
MODEL 9
REMARK VINA RESULT:    -3.893      3.421      5.863
REMARK INTER + INTRA:          -3.893
REMARK INTER:                  -3.893
REMARK INTRA:                   0.000
REMARK UNBOUND:                 0.000
REMARK SMILES CC1=CC=CC(C)(C)[C@H]1C
REMARK SMILES IDX 10 1 9 2 2 3 3 4 4 5 5 6 6 7 7 8 8 9 1 10
REMARK H PARENT
REMARK Flexibility Score: inf
ROOT
ATOM      1  C   UNL     1     164.114 163.254 201.666  1.00  0.00     0.013 C 
ATOM      2  C   UNL     1     164.828 163.735 200.388  1.00  0.00     0.021 C 
ATOM      3  C   UNL     1     165.506 162.537 199.738  1.00  0.00    -0.070 C 
ATOM      4  C   UNL     1     164.838 161.798 198.838  1.00  0.00    -0.001 C 
ATOM      5  C   UNL     1     163.498 162.200 198.373  1.00  0.00    -0.004 C 
ATOM      6  C   UNL     1     163.015 163.416 198.651  1.00  0.00    -0.020 C 
ATOM      7  C   UNL     1     163.869 164.449 199.365  1.00  0.00    -0.011 C 
ATOM      8  C   UNL     1     162.953 165.481 200.058  1.00  0.00     0.016 C 
ATOM      9  C   UNL     1     164.713 165.194 198.307  1.00  0.00     0.016 C 
ATOM     10  C   UNL     1     166.886 162.124 200.162  1.00  0.00     0.040 C 
ENDROOT
TORSDOF 0
ENDMDL
