MODEL 1
REMARK VINA RESULT:    -4.250      0.000      0.000
REMARK INTER + INTRA:          -9.577
REMARK INTER:                  -7.479
REMARK INTRA:                  -2.098
REMARK UNBOUND:                -2.098
REMARK SMILES CCCCCCCCCCCCCCC(=O)[O-]
REMARK SMILES IDX 9 1 10 2 11 3 12 4 13 5 14 6 15 7 16 8 17 9 8 10 7 11 6 12
REMARK SMILES IDX 5 13 4 14 3 15 2 16 1 17
REMARK H PARENT
REMARK Flexibility Score: inf
ROOT
ATOM      1  C   UNL     1       0.508 -21.892  -5.205  1.00  0.00     0.000 C 
ENDROOT
BRANCH   1   2
ATOM      2  C   UNL     1       0.392 -20.514  -4.542  1.00  0.00     0.000 C 
BRANCH   2   3
ATOM      3  C   UNL     1       0.761 -20.589  -3.053  1.00  0.00     0.000 C 
BRANCH   3   4
ATOM      4  C   UNL     1       1.720 -19.469  -2.621  1.00  0.00     0.000 C 
BRANCH   4   5
ATOM      5  C   UNL     1       1.522 -18.175  -3.430  1.00  0.00     0.006 C 
BRANCH   5   6
ATOM      6  C   UNL     1       2.587 -17.120  -3.106  1.00  0.00     0.053 C 
BRANCH   6   7
ATOM      7  C   UNL     1       2.240 -16.336  -1.877  1.00  0.00     0.041 C 
ATOM      8  O   UNL     1       1.197 -15.631  -1.850  1.00  0.00    -0.550 OA
ATOM      9  O   UNL     1       3.084 -16.359  -0.775  1.00  0.00    -0.550 OA
ENDBRANCH   6   7
ENDBRANCH   5   6
ENDBRANCH   4   5
ENDBRANCH   3   4
ENDBRANCH   2   3
ENDBRANCH   1   2
BRANCH   1  10
ATOM     10  C   UNL     1      -0.070 -21.870  -6.625  1.00  0.00     0.000 C 
BRANCH  10  11
ATOM     11  C   UNL     1       1.014 -22.193  -7.664  1.00  0.00    -0.000 C 
BRANCH  11  12
ATOM     12  C   UNL     1       1.578 -20.935  -8.345  1.00  0.00    -0.000 C 
BRANCH  12  13
ATOM     13  C   UNL     1       2.969 -20.496  -7.844  1.00  0.00    -0.000 C 
BRANCH  13  14
ATOM     14  C   UNL     1       2.921 -19.402  -6.756  1.00  0.00    -0.000 C 
BRANCH  14  15
ATOM     15  C   UNL     1       4.088 -19.520  -5.761  1.00  0.00    -0.000 C 
BRANCH  15  16
ATOM     16  C   UNL     1       4.165 -20.905  -5.100  1.00  0.00    -0.003 C 
ATOM     17  C   UNL     1       4.923 -20.886  -3.773  1.00  0.00     0.004 C 
ENDBRANCH  15  16
ENDBRANCH  14  15
ENDBRANCH  13  14
ENDBRANCH  12  13
ENDBRANCH  11  12
ENDBRANCH  10  11
ENDBRANCH   1  10
TORSDOF 13
ENDMDL
MODEL 2
REMARK VINA RESULT:    -4.196      2.188      3.998
REMARK INTER + INTRA:          -9.482
REMARK INTER:                  -7.579
REMARK INTRA:                  -1.903
REMARK UNBOUND:                -2.098
REMARK SMILES CCCCCCCCCCCCCCC(=O)[O-]
REMARK SMILES IDX 9 1 10 2 11 3 12 4 13 5 14 6 15 7 16 8 17 9 8 10 7 11 6 12
REMARK SMILES IDX 5 13 4 14 3 15 2 16 1 17
REMARK H PARENT
REMARK Flexibility Score: inf
ROOT
ATOM      1  C   UNL     1       3.106 -21.088  -7.419  1.00  0.00     0.000 C 
ENDROOT
BRANCH   1   2
ATOM      2  C   UNL     1       1.859 -21.189  -8.307  1.00  0.00     0.000 C 
BRANCH   2   3
ATOM      3  C   UNL     1       0.663 -21.735  -7.514  1.00  0.00     0.000 C 
BRANCH   3   4
ATOM      4  C   UNL     1       1.015 -22.052  -6.052  1.00  0.00     0.000 C 
BRANCH   4   5
ATOM      5  C   UNL     1       0.174 -21.241  -5.050  1.00  0.00     0.006 C 
BRANCH   5   6
ATOM      6  C   UNL     1       0.968 -20.083  -4.431  1.00  0.00     0.053 C 
BRANCH   6   7
ATOM      7  C   UNL     1       1.066 -20.207  -2.941  1.00  0.00     0.041 C 
ATOM      8  O   UNL     1       0.329 -21.022  -2.324  1.00  0.00    -0.550 OA
ATOM      9  O   UNL     1       1.946 -19.402  -2.231  1.00  0.00    -0.550 OA
ENDBRANCH   6   7
ENDBRANCH   5   6
ENDBRANCH   4   5
ENDBRANCH   3   4
ENDBRANCH   2   3
ENDBRANCH   1   2
BRANCH   1  10
ATOM     10  C   UNL     1       3.616 -19.644  -7.348  1.00  0.00     0.000 C 
BRANCH  10  11
ATOM     11  C   UNL     1       5.123 -19.580  -7.639  1.00  0.00    -0.000 C 
BRANCH  11  12
ATOM     12  C   UNL     1       5.831 -20.925  -7.407  1.00  0.00    -0.000 C 
BRANCH  12  13
ATOM     13  C   UNL     1       7.154 -20.833  -6.620  1.00  0.00    -0.000 C 
BRANCH  13  14
ATOM     14  C   UNL     1       6.974 -20.931  -5.090  1.00  0.00    -0.000 C 
BRANCH  14  15
ATOM     15  C   UNL     1       5.622 -21.554  -4.702  1.00  0.00    -0.000 C 
BRANCH  15  16
ATOM     16  C   UNL     1       4.807 -20.657  -3.757  1.00  0.00    -0.003 C 
ATOM     17  C   UNL     1       5.105 -19.170  -3.950  1.00  0.00     0.004 C 
ENDBRANCH  15  16
ENDBRANCH  14  15
ENDBRANCH  13  14
ENDBRANCH  12  13
ENDBRANCH  11  12
ENDBRANCH  10  11
ENDBRANCH   1  10
TORSDOF 13
ENDMDL
MODEL 3
REMARK VINA RESULT:    -4.153      3.662      5.560
REMARK INTER + INTRA:          -9.406
REMARK INTER:                  -7.356
REMARK INTRA:                  -2.050
REMARK UNBOUND:                -2.098
REMARK SMILES CCCCCCCCCCCCCCC(=O)[O-]
REMARK SMILES IDX 9 1 10 2 11 3 12 4 13 5 14 6 15 7 16 8 17 9 8 10 7 11 6 12
REMARK SMILES IDX 5 13 4 14 3 15 2 16 1 17
REMARK H PARENT
REMARK Flexibility Score: inf
ROOT
ATOM      1  C   UNL     1       2.719 -21.179  -7.659  1.00  0.00     0.000 C 
ENDROOT
BRANCH   1   2
ATOM      2  C   UNL     1       3.224 -19.779  -7.290  1.00  0.00     0.000 C 
BRANCH   2   3
ATOM      3  C   UNL     1       4.213 -19.844  -6.117  1.00  0.00     0.000 C 
BRANCH   3   4
ATOM      4  C   UNL     1       4.302 -21.245  -5.492  1.00  0.00     0.000 C 
BRANCH   4   5
ATOM      5  C   UNL     1       5.717 -21.843  -5.576  1.00  0.00     0.006 C 
BRANCH   5   6
ATOM      6  C   UNL     1       6.119 -22.179  -7.018  1.00  0.00     0.053 C 
BRANCH   6   7
ATOM      7  C   UNL     1       7.458 -21.606  -7.373  1.00  0.00     0.041 C 
ATOM      8  O   UNL     1       8.194 -22.191  -8.210  1.00  0.00    -0.550 OA
ATOM      9  O   UNL     1       7.904 -20.445  -6.756  1.00  0.00    -0.550 OA
ENDBRANCH   6   7
ENDBRANCH   5   6
ENDBRANCH   4   5
ENDBRANCH   3   4
ENDBRANCH   2   3
ENDBRANCH   1   2
BRANCH   1  10
ATOM     10  C   UNL     1       1.241 -21.142  -8.067  1.00  0.00     0.000 C 
BRANCH  10  11
ATOM     11  C   UNL     1       0.430 -22.188  -7.286  1.00  0.00    -0.000 C 
BRANCH  11  12
ATOM     12  C   UNL     1       0.728 -22.166  -5.778  1.00  0.00    -0.000 C 
BRANCH  12  13
ATOM     13  C   UNL     1       0.036 -21.031  -4.997  1.00  0.00    -0.000 C 
BRANCH  13  14
ATOM     14  C   UNL     1       0.936 -20.373  -3.929  1.00  0.00    -0.000 C 
BRANCH  14  15
ATOM     15  C   UNL     1       1.216 -18.892  -4.237  1.00  0.00    -0.000 C 
BRANCH  15  16
ATOM     16  C   UNL     1       2.281 -18.287  -3.310  1.00  0.00    -0.003 C 
ATOM     17  C   UNL     1       3.024 -19.344  -2.492  1.00  0.00     0.004 C 
ENDBRANCH  15  16
ENDBRANCH  14  15
ENDBRANCH  13  14
ENDBRANCH  12  13
ENDBRANCH  11  12
ENDBRANCH  10  11
ENDBRANCH   1  10
TORSDOF 13
ENDMDL
MODEL 4
REMARK VINA RESULT:    -4.136      3.956      5.735
REMARK INTER + INTRA:          -9.376
REMARK INTER:                  -7.428
REMARK INTRA:                  -1.949
REMARK UNBOUND:                -2.098
REMARK SMILES CCCCCCCCCCCCCCC(=O)[O-]
REMARK SMILES IDX 9 1 10 2 11 3 12 4 13 5 14 6 15 7 16 8 17 9 8 10 7 11 6 12
REMARK SMILES IDX 5 13 4 14 3 15 2 16 1 17
REMARK H PARENT
REMARK Flexibility Score: inf
ROOT
ATOM      1  C   UNL     1       1.049 -21.585  -7.583  1.00  0.00     0.000 C 
ENDROOT
BRANCH   1   2
ATOM      2  C   UNL     1       2.145 -20.761  -8.272  1.00  0.00     0.000 C 
BRANCH   2   3
ATOM      3  C   UNL     1       3.009 -20.023  -7.239  1.00  0.00     0.000 C 
BRANCH   3   4
ATOM      4  C   UNL     1       4.513 -20.269  -7.439  1.00  0.00     0.000 C 
BRANCH   4   5
ATOM      5  C   UNL     1       5.018 -21.505  -6.675  1.00  0.00     0.006 C 
BRANCH   5   6
ATOM      6  C   UNL     1       6.539 -21.479  -6.474  1.00  0.00     0.053 C 
BRANCH   6   7
ATOM      7  C   UNL     1       7.274 -21.829  -7.731  1.00  0.00     0.041 C 
ATOM      8  O   UNL     1       7.356 -23.030  -8.103  1.00  0.00    -0.550 OA
ATOM      9  O   UNL     1       7.896 -20.834  -8.475  1.00  0.00    -0.550 OA
ENDBRANCH   6   7
ENDBRANCH   5   6
ENDBRANCH   4   5
ENDBRANCH   3   4
ENDBRANCH   2   3
ENDBRANCH   1   2
BRANCH   1  10
ATOM     10  C   UNL     1       1.336 -21.737  -6.084  1.00  0.00     0.000 C 
BRANCH  10  11
ATOM     11  C   UNL     1       0.094 -21.385  -5.251  1.00  0.00    -0.000 C 
BRANCH  11  12
ATOM     12  C   UNL     1       0.440 -20.619  -3.963  1.00  0.00    -0.000 C 
BRANCH  12  13
ATOM     13  C   UNL     1       1.199 -19.295  -4.181  1.00  0.00    -0.000 C 
BRANCH  13  14
ATOM     14  C   UNL     1       2.424 -19.123  -3.257  1.00  0.00    -0.000 C 
BRANCH  14  15
ATOM     15  C   UNL     1       3.492 -20.203  -3.500  1.00  0.00    -0.000 C 
BRANCH  15  16
ATOM     16  C   UNL     1       4.916 -19.703  -3.211  1.00  0.00    -0.003 C 
ATOM     17  C   UNL     1       5.384 -18.644  -4.209  1.00  0.00     0.004 C 
ENDBRANCH  15  16
ENDBRANCH  14  15
ENDBRANCH  13  14
ENDBRANCH  12  13
ENDBRANCH  11  12
ENDBRANCH  10  11
ENDBRANCH   1  10
TORSDOF 13
ENDMDL
MODEL 5
REMARK VINA RESULT:    -4.125      1.716      2.776
REMARK INTER + INTRA:          -9.358
REMARK INTER:                  -7.526
REMARK INTRA:                  -1.832
REMARK UNBOUND:                -2.098
REMARK SMILES CCCCCCCCCCCCCCC(=O)[O-]
REMARK SMILES IDX 9 1 10 2 11 3 12 4 13 5 14 6 15 7 16 8 17 9 8 10 7 11 6 12
REMARK SMILES IDX 5 13 4 14 3 15 2 16 1 17
REMARK H PARENT
REMARK Flexibility Score: inf
ROOT
ATOM      1  C   UNL     1       1.152 -22.099  -7.825  1.00  0.00     0.000 C 
ENDROOT
BRANCH   1   2
ATOM      2  C   UNL     1       0.246 -22.211  -6.591  1.00  0.00     0.000 C 
BRANCH   2   3
ATOM      3  C   UNL     1       0.971 -21.714  -5.332  1.00  0.00     0.000 C 
BRANCH   3   4
ATOM      4  C   UNL     1       0.103 -20.775  -4.479  1.00  0.00     0.000 C 
BRANCH   4   5
ATOM      5  C   UNL     1       0.823 -19.461  -4.126  1.00  0.00     0.006 C 
BRANCH   5   6
ATOM      6  C   UNL     1       1.996 -19.684  -3.163  1.00  0.00     0.053 C 
BRANCH   6   7
ATOM      7  C   UNL     1       2.667 -18.397  -2.792  1.00  0.00     0.041 C 
ATOM      8  O   UNL     1       2.987 -17.570  -3.687  1.00  0.00    -0.550 OA
ATOM      9  O   UNL     1       2.966 -18.124  -1.464  1.00  0.00    -0.550 OA
ENDBRANCH   6   7
ENDBRANCH   5   6
ENDBRANCH   4   5
ENDBRANCH   3   4
ENDBRANCH   2   3
ENDBRANCH   1   2
BRANCH   1  10
ATOM     10  C   UNL     1       1.516 -20.638  -8.110  1.00  0.00     0.000 C 
BRANCH  10  11
ATOM     11  C   UNL     1       3.029 -20.412  -7.968  1.00  0.00    -0.000 C 
BRANCH  11  12
ATOM     12  C   UNL     1       3.376 -19.365  -6.897  1.00  0.00    -0.000 C 
BRANCH  12  13
ATOM     13  C   UNL     1       4.505 -19.778  -5.931  1.00  0.00    -0.000 C 
BRANCH  13  14
ATOM     14  C   UNL     1       4.424 -21.251  -5.475  1.00  0.00    -0.000 C 
BRANCH  14  15
ATOM     15  C   UNL     1       5.745 -22.005  -5.706  1.00  0.00    -0.000 C 
BRANCH  15  16
ATOM     16  C   UNL     1       6.295 -21.812  -7.128  1.00  0.00    -0.003 C 
ATOM     17  C   UNL     1       7.789 -21.493  -7.146  1.00  0.00     0.004 C 
ENDBRANCH  15  16
ENDBRANCH  14  15
ENDBRANCH  13  14
ENDBRANCH  12  13
ENDBRANCH  11  12
ENDBRANCH  10  11
ENDBRANCH   1  10
TORSDOF 13
ENDMDL
MODEL 6
REMARK VINA RESULT:    -4.113      3.463      5.771
REMARK INTER + INTRA:          -9.336
REMARK INTER:                  -7.748
REMARK INTRA:                  -1.588
REMARK UNBOUND:                -2.098
REMARK SMILES CCCCCCCCCCCCCCC(=O)[O-]
REMARK SMILES IDX 9 1 10 2 11 3 12 4 13 5 14 6 15 7 16 8 17 9 8 10 7 11 6 12
REMARK SMILES IDX 5 13 4 14 3 15 2 16 1 17
REMARK H PARENT
REMARK Flexibility Score: inf
ROOT
ATOM      1  C   UNL     1       2.302 -18.648  -2.813  1.00  0.00     0.000 C 
ENDROOT
BRANCH   1   2
ATOM      2  C   UNL     1       3.786 -18.489  -3.166  1.00  0.00     0.000 C 
BRANCH   2   3
ATOM      3  C   UNL     1       4.431 -19.853  -3.452  1.00  0.00     0.000 C 
BRANCH   3   4
ATOM      4  C   UNL     1       4.484 -20.181  -4.952  1.00  0.00     0.000 C 
BRANCH   4   5
ATOM      5  C   UNL     1       5.031 -21.593  -5.231  1.00  0.00     0.006 C 
BRANCH   5   6
ATOM      6  C   UNL     1       5.316 -21.820  -6.721  1.00  0.00     0.053 C 
BRANCH   6   7
ATOM      7  C   UNL     1       6.779 -21.721  -7.031  1.00  0.00     0.041 C 
ATOM      8  O   UNL     1       7.319 -22.556  -7.804  1.00  0.00    -0.550 OA
ATOM      9  O   UNL     1       7.551 -20.728  -6.443  1.00  0.00    -0.550 OA
ENDBRANCH   6   7
ENDBRANCH   5   6
ENDBRANCH   4   5
ENDBRANCH   3   4
ENDBRANCH   2   3
ENDBRANCH   1   2
BRANCH   1  10
ATOM     10  C   UNL     1       2.032 -20.014  -2.172  1.00  0.00     0.000 C 
BRANCH  10  11
ATOM     11  C   UNL     1       0.785 -20.670  -2.785  1.00  0.00    -0.000 C 
BRANCH  11  12
ATOM     12  C   UNL     1       0.544 -20.245  -4.243  1.00  0.00    -0.000 C 
BRANCH  12  13
ATOM     13  C   UNL     1       0.154 -21.392  -5.195  1.00  0.00    -0.000 C 
BRANCH  13  14
ATOM     14  C   UNL     1       1.319 -21.893  -6.075  1.00  0.00    -0.000 C 
BRANCH  14  15
ATOM     15  C   UNL     1       0.855 -22.283  -7.489  1.00  0.00    -0.000 C 
BRANCH  15  16
ATOM     16  C   UNL     1       1.330 -21.290  -8.562  1.00  0.00    -0.003 C 
ATOM     17  C   UNL     1       2.429 -20.356  -8.058  1.00  0.00     0.004 C 
ENDBRANCH  15  16
ENDBRANCH  14  15
ENDBRANCH  13  14
ENDBRANCH  12  13
ENDBRANCH  11  12
ENDBRANCH  10  11
ENDBRANCH   1  10
TORSDOF 13
ENDMDL
MODEL 7
REMARK VINA RESULT:    -4.036      2.291      4.899
REMARK INTER + INTRA:          -9.201
REMARK INTER:                  -7.759
REMARK INTRA:                  -1.442
REMARK UNBOUND:                -2.098
REMARK SMILES CCCCCCCCCCCCCCC(=O)[O-]
REMARK SMILES IDX 9 1 10 2 11 3 12 4 13 5 14 6 15 7 16 8 17 9 8 10 7 11 6 12
REMARK SMILES IDX 5 13 4 14 3 15 2 16 1 17
REMARK H PARENT
REMARK Flexibility Score: inf
ROOT
ATOM      1  C   UNL     1       0.753 -22.108  -7.016  1.00  0.00     0.000 C 
ENDROOT
BRANCH   1   2
ATOM      2  C   UNL     1       1.466 -20.848  -7.523  1.00  0.00     0.000 C 
BRANCH   2   3
ATOM      3  C   UNL     1       2.962 -21.116  -7.746  1.00  0.00     0.000 C 
BRANCH   3   4
ATOM      4  C   UNL     1       3.838 -19.896  -7.423  1.00  0.00     0.000 C 
BRANCH   4   5
ATOM      5  C   UNL     1       4.105 -19.740  -5.915  1.00  0.00     0.006 C 
BRANCH   5   6
ATOM      6  C   UNL     1       4.318 -21.092  -5.222  1.00  0.00     0.053 C 
BRANCH   6   7
ATOM      7  C   UNL     1       5.367 -21.014  -4.156  1.00  0.00     0.041 C 
ATOM      8  O   UNL     1       5.036 -21.021  -2.940  1.00  0.00    -0.550 OA
ATOM      9  O   UNL     1       6.707 -20.903  -4.503  1.00  0.00    -0.550 OA
ENDBRANCH   6   7
ENDBRANCH   5   6
ENDBRANCH   4   5
ENDBRANCH   3   4
ENDBRANCH   2   3
ENDBRANCH   1   2
BRANCH   1  10
ATOM     10  C   UNL     1       0.113 -21.864  -5.644  1.00  0.00     0.000 C 
BRANCH  10  11
ATOM     11  C   UNL     1       0.719 -20.623  -4.970  1.00  0.00    -0.000 C 
BRANCH  11  12
ATOM     12  C   UNL     1       0.462 -20.585  -3.455  1.00  0.00    -0.000 C 
BRANCH  12  13
ATOM     13  C   UNL     1       1.655 -20.097  -2.608  1.00  0.00    -0.000 C 
BRANCH  13  14
ATOM     14  C   UNL     1       2.149 -18.685  -2.989  1.00  0.00    -0.000 C 
BRANCH  14  15
ATOM     15  C   UNL     1       2.945 -18.021  -1.852  1.00  0.00    -0.000 C 
BRANCH  15  16
ATOM     16  C   UNL     1       2.404 -16.631  -1.484  1.00  0.00    -0.003 C 
ATOM     17  C   UNL     1       3.420 -15.783  -0.721  1.00  0.00     0.004 C 
ENDBRANCH  15  16
ENDBRANCH  14  15
ENDBRANCH  13  14
ENDBRANCH  12  13
ENDBRANCH  11  12
ENDBRANCH  10  11
ENDBRANCH   1  10
TORSDOF 13
ENDMDL
MODEL 8
REMARK VINA RESULT:    -4.013      3.770      6.059
REMARK INTER + INTRA:          -9.160
REMARK INTER:                  -7.708
REMARK INTRA:                  -1.452
REMARK UNBOUND:                -2.098
REMARK SMILES CCCCCCCCCCCCCCC(=O)[O-]
REMARK SMILES IDX 9 1 10 2 11 3 12 4 13 5 14 6 15 7 16 8 17 9 8 10 7 11 6 12
REMARK SMILES IDX 5 13 4 14 3 15 2 16 1 17
REMARK H PARENT
REMARK Flexibility Score: inf
ROOT
ATOM      1  C   UNL     1       4.716 -20.645  -3.293  1.00  0.00     0.000 C 
ENDROOT
BRANCH   1   2
ATOM      2  C   UNL     1       5.681 -21.060  -4.411  1.00  0.00     0.000 C 
BRANCH   2   3
ATOM      3  C   UNL     1       4.923 -21.710  -5.578  1.00  0.00     0.000 C 
BRANCH   3   4
ATOM      4  C   UNL     1       5.434 -21.245  -6.951  1.00  0.00     0.000 C 
BRANCH   4   5
ATOM      5  C   UNL     1       4.796 -19.920  -7.402  1.00  0.00     0.006 C 
BRANCH   5   6
ATOM      6  C   UNL     1       5.843 -18.823  -7.636  1.00  0.00     0.053 C 
BRANCH   6   7
ATOM      7  C   UNL     1       6.851 -19.224  -8.669  1.00  0.00     0.041 C 
ATOM      8  O   UNL     1       6.574 -19.129  -9.894  1.00  0.00    -0.550 OA
ATOM      9  O   UNL     1       8.084 -19.732  -8.280  1.00  0.00    -0.550 OA
ENDBRANCH   6   7
ENDBRANCH   5   6
ENDBRANCH   4   5
ENDBRANCH   3   4
ENDBRANCH   2   3
ENDBRANCH   1   2
BRANCH   1  10
ATOM     10  C   UNL     1       3.508 -19.890  -3.861  1.00  0.00     0.000 C 
BRANCH  10  11
ATOM     11  C   UNL     1       2.314 -19.961  -2.897  1.00  0.00    -0.000 C 
BRANCH  11  12
ATOM     12  C   UNL     1       0.992 -20.289  -3.610  1.00  0.00    -0.000 C 
BRANCH  12  13
ATOM     13  C   UNL     1       1.129 -20.602  -5.113  1.00  0.00    -0.000 C 
BRANCH  13  14
ATOM     14  C   UNL     1       0.139 -21.675  -5.616  1.00  0.00    -0.000 C 
BRANCH  14  15
ATOM     15  C   UNL     1       0.718 -22.503  -6.776  1.00  0.00    -0.000 C 
BRANCH  15  16
ATOM     16  C   UNL     1       1.791 -21.741  -7.569  1.00  0.00    -0.003 C 
ATOM     17  C   UNL     1       1.215 -20.974  -8.758  1.00  0.00     0.004 C 
ENDBRANCH  15  16
ENDBRANCH  14  15
ENDBRANCH  13  14
ENDBRANCH  12  13
ENDBRANCH  11  12
ENDBRANCH  10  11
ENDBRANCH   1  10
TORSDOF 13
ENDMDL
MODEL 9
REMARK VINA RESULT:    -4.008     11.166     13.249
REMARK INTER + INTRA:          -9.151
REMARK INTER:                  -7.007
REMARK INTRA:                  -2.144
REMARK UNBOUND:                -2.098
REMARK SMILES CCCCCCCCCCCCCCC(=O)[O-]
REMARK SMILES IDX 9 1 10 2 11 3 12 4 13 5 14 6 15 7 16 8 17 9 8 10 7 11 6 12
REMARK SMILES IDX 5 13 4 14 3 15 2 16 1 17
REMARK H PARENT
REMARK Flexibility Score: inf
ROOT
ATOM      1  C   UNL     1      -5.483 -27.767  -0.904  1.00  0.00     0.000 C 
ENDROOT
BRANCH   1   2
ATOM      2  C   UNL     1      -6.938 -27.895  -0.437  1.00  0.00     0.000 C 
BRANCH   2   3
ATOM      3  C   UNL     1      -7.772 -26.693  -0.905  1.00  0.00     0.000 C 
BRANCH   3   4
ATOM      4  C   UNL     1      -9.056 -27.110  -1.638  1.00  0.00     0.000 C 
BRANCH   4   5
ATOM      5  C   UNL     1      -9.490 -26.087  -2.702  1.00  0.00     0.006 C 
BRANCH   5   6
ATOM      6  C   UNL     1      -8.406 -25.035  -2.970  1.00  0.00     0.053 C 
BRANCH   6   7
ATOM      7  C   UNL     1      -8.624 -23.791  -2.165  1.00  0.00     0.041 C 
ATOM      8  O   UNL     1      -9.707 -23.621  -1.543  1.00  0.00    -0.550 OA
ATOM      9  O   UNL     1      -7.647 -22.806  -2.125  1.00  0.00    -0.550 OA
ENDBRANCH   6   7
ENDBRANCH   5   6
ENDBRANCH   4   5
ENDBRANCH   3   4
ENDBRANCH   2   3
ENDBRANCH   1   2
BRANCH   1  10
ATOM     10  C   UNL     1      -5.400 -27.057  -2.261  1.00  0.00     0.000 C 
BRANCH  10  11
ATOM     11  C   UNL     1      -5.322 -28.075  -3.408  1.00  0.00    -0.000 C 
BRANCH  11  12
ATOM     12  C   UNL     1      -6.576 -28.065  -4.298  1.00  0.00    -0.000 C 
BRANCH  12  13
ATOM     13  C   UNL     1      -7.276 -29.431  -4.445  1.00  0.00    -0.000 C 
BRANCH  13  14
ATOM     14  C   UNL     1      -7.292 -30.264  -3.145  1.00  0.00    -0.000 C 
BRANCH  14  15
ATOM     15  C   UNL     1      -8.713 -30.705  -2.755  1.00  0.00    -0.000 C 
BRANCH  15  16
ATOM     16  C   UNL     1      -8.898 -30.826  -1.234  1.00  0.00    -0.003 C 
ATOM     17  C   UNL     1      -7.706 -31.488  -0.544  1.00  0.00     0.004 C 
ENDBRANCH  15  16
ENDBRANCH  14  15
ENDBRANCH  13  14
ENDBRANCH  12  13
ENDBRANCH  11  12
ENDBRANCH  10  11
ENDBRANCH   1  10
TORSDOF 13
ENDMDL
