MODEL 1
REMARK VINA RESULT:    -5.206      0.000      0.000
REMARK INTER + INTRA:          -6.036
REMARK INTER:                  -5.815
REMARK INTRA:                  -0.221
REMARK UNBOUND:                -0.221
REMARK SMILES CC(C)c1ccc(C(=O)[O-])cc1
REMARK SMILES IDX 7 1 6 2 11 3 5 4 12 5 4 6 8 7 9 8 10 9 2 10 1 11 3 12
REMARK H PARENT
REMARK Flexibility Score: inf
ROOT
ATOM      1  C   UNL     1      36.448  19.138   8.035  1.00  0.00    -0.003 A 
ATOM      2  C   UNL     1      37.822  18.933   8.242  1.00  0.00     0.010 A 
ATOM      3  C   UNL     1      35.559  18.922   9.102  1.00  0.00     0.010 A 
ATOM      4  C   UNL     1      38.298  18.520   9.490  1.00  0.00     0.004 A 
ATOM      5  C   UNL     1      36.036  18.508  10.349  1.00  0.00     0.004 A 
ATOM      6  C   UNL     1      37.409  18.303  10.558  1.00  0.00    -0.045 A 
ENDROOT
BRANCH   1   7
ATOM      7  C   UNL     1      35.949  19.575   6.713  1.00  0.00     0.071 C 
ATOM      8  O   UNL     1      36.723  19.626   5.720  1.00  0.00    -0.545 OA
ATOM      9  O   UNL     1      34.617  19.938   6.547  1.00  0.00    -0.545 OA
ENDBRANCH   1   7
BRANCH   6  10
ATOM     10  C   UNL     1      37.912  17.855  11.917  1.00  0.00     0.013 C 
ATOM     11  C   UNL     1      39.418  18.107  12.061  1.00  0.00     0.012 C 
ATOM     12  C   UNL     1      37.130  18.533  13.048  1.00  0.00     0.012 C 
ENDBRANCH   6  10
TORSDOF 2
ENDMDL
MODEL 2
REMARK VINA RESULT:    -5.142      3.857      5.057
REMARK INTER + INTRA:          -5.964
REMARK INTER:                  -5.759
REMARK INTRA:                  -0.205
REMARK UNBOUND:                -0.221
REMARK SMILES CC(C)c1ccc(C(=O)[O-])cc1
REMARK SMILES IDX 7 1 6 2 11 3 5 4 12 5 4 6 8 7 9 8 10 9 2 10 1 11 3 12
REMARK H PARENT
REMARK Flexibility Score: inf
ROOT
ATOM      1  C   UNL     1      40.874  18.449  10.790  1.00  0.00    -0.003 A 
ATOM      2  C   UNL     1      40.032  18.470   9.667  1.00  0.00     0.010 A 
ATOM      3  C   UNL     1      40.309  18.244  12.061  1.00  0.00     0.010 A 
ATOM      4  C   UNL     1      38.653  18.293   9.810  1.00  0.00     0.004 A 
ATOM      5  C   UNL     1      38.930  18.068  12.203  1.00  0.00     0.004 A 
ATOM      6  C   UNL     1      38.086  18.090  11.081  1.00  0.00    -0.045 A 
ENDROOT
BRANCH   1   7
ATOM      7  C   UNL     1      42.333  18.636  10.634  1.00  0.00     0.071 C 
ATOM      8  O   UNL     1      43.139  17.748  11.022  1.00  0.00    -0.545 OA
ATOM      9  O   UNL     1      42.837  19.796  10.058  1.00  0.00    -0.545 OA
ENDBRANCH   1   7
BRANCH   6  10
ATOM     10  C   UNL     1      36.591  17.896  11.251  1.00  0.00     0.013 C 
ATOM     11  C   UNL     1      36.208  16.416  11.127  1.00  0.00     0.012 C 
ATOM     12  C   UNL     1      36.104  18.482  12.581  1.00  0.00     0.012 C 
ENDBRANCH   6  10
TORSDOF 2
ENDMDL
MODEL 3
REMARK VINA RESULT:    -5.124      2.981      4.201
REMARK INTER + INTRA:          -5.944
REMARK INTER:                  -5.740
REMARK INTRA:                  -0.204
REMARK UNBOUND:                -0.221
REMARK SMILES CC(C)c1ccc(C(=O)[O-])cc1
REMARK SMILES IDX 7 1 6 2 11 3 5 4 12 5 4 6 8 7 9 8 10 9 2 10 1 11 3 12
REMARK H PARENT
REMARK Flexibility Score: inf
ROOT
ATOM      1  C   UNL     1      39.157  18.187  10.408  1.00  0.00    -0.003 A 
ATOM      2  C   UNL     1      37.940  18.206   9.709  1.00  0.00     0.010 A 
ATOM      3  C   UNL     1      39.136  18.185  11.814  1.00  0.00     0.010 A 
ATOM      4  C   UNL     1      36.725  18.224  10.400  1.00  0.00     0.004 A 
ATOM      5  C   UNL     1      37.921  18.203  12.504  1.00  0.00     0.004 A 
ATOM      6  C   UNL     1      36.702  18.223  11.806  1.00  0.00    -0.045 A 
ENDROOT
BRANCH   1   7
ATOM      7  C   UNL     1      40.442  18.167   9.673  1.00  0.00     0.071 C 
ATOM      8  O   UNL     1      41.375  18.950   9.994  1.00  0.00    -0.545 OA
ATOM      9  O   UNL     1      40.635  17.285   8.616  1.00  0.00    -0.545 OA
ENDBRANCH   1   7
BRANCH   6  10
ATOM     10  C   UNL     1      35.391  18.242  12.569  1.00  0.00     0.013 C 
ATOM     11  C   UNL     1      34.404  19.239  11.949  1.00  0.00     0.012 C 
ATOM     12  C   UNL     1      34.778  16.839  12.650  1.00  0.00     0.012 C 
ENDBRANCH   6  10
TORSDOF 2
ENDMDL
MODEL 4
REMARK VINA RESULT:    -5.121      2.947      4.158
REMARK INTER + INTRA:          -5.940
REMARK INTER:                  -5.733
REMARK INTRA:                  -0.207
REMARK UNBOUND:                -0.221
REMARK SMILES CC(C)c1ccc(C(=O)[O-])cc1
REMARK SMILES IDX 7 1 6 2 11 3 5 4 12 5 4 6 8 7 9 8 10 9 2 10 1 11 3 12
REMARK H PARENT
REMARK Flexibility Score: inf
ROOT
ATOM      1  C   UNL     1      39.140  18.182  10.395  1.00  0.00    -0.003 A 
ATOM      2  C   UNL     1      39.122  18.157  11.799  1.00  0.00     0.010 A 
ATOM      3  C   UNL     1      37.920  18.235   9.699  1.00  0.00     0.010 A 
ATOM      4  C   UNL     1      37.909  18.182  12.493  1.00  0.00     0.004 A 
ATOM      5  C   UNL     1      36.708  18.260  10.394  1.00  0.00     0.004 A 
ATOM      6  C   UNL     1      36.688  18.234  11.798  1.00  0.00    -0.045 A 
ENDROOT
BRANCH   1   7
ATOM      7  C   UNL     1      40.427  18.156   9.664  1.00  0.00     0.071 C 
ATOM      8  O   UNL     1      41.387  18.884  10.031  1.00  0.00    -0.545 OA
ATOM      9  O   UNL     1      40.593  17.327   8.560  1.00  0.00    -0.545 OA
ENDBRANCH   1   7
BRANCH   6  10
ATOM     10  C   UNL     1      35.364  18.262  12.539  1.00  0.00     0.013 C 
ATOM     11  C   UNL     1      34.408  19.292  11.925  1.00  0.00     0.012 C 
ATOM     12  C   UNL     1      34.723  16.870  12.580  1.00  0.00     0.012 C 
ENDBRANCH   6  10
TORSDOF 2
ENDMDL
MODEL 5
REMARK VINA RESULT:    -5.064      3.427      4.769
REMARK INTER + INTRA:          -5.877
REMARK INTER:                  -5.672
REMARK INTRA:                  -0.205
REMARK UNBOUND:                -0.221
REMARK SMILES CC(C)c1ccc(C(=O)[O-])cc1
REMARK SMILES IDX 7 1 6 2 11 3 5 4 12 5 4 6 8 7 9 8 10 9 2 10 1 11 3 12
REMARK H PARENT
REMARK Flexibility Score: inf
ROOT
ATOM      1  C   UNL     1      38.090  17.873  11.574  1.00  0.00    -0.003 A 
ATOM      2  C   UNL     1      37.357  16.924  10.843  1.00  0.00     0.010 A 
ATOM      3  C   UNL     1      37.476  18.521  12.659  1.00  0.00     0.010 A 
ATOM      4  C   UNL     1      36.036  16.629  11.190  1.00  0.00     0.004 A 
ATOM      5  C   UNL     1      36.154  18.226  13.004  1.00  0.00     0.004 A 
ATOM      6  C   UNL     1      35.419  17.277  12.275  1.00  0.00    -0.045 A 
ENDROOT
BRANCH   1   7
ATOM      7  C   UNL     1      39.490  18.182  11.204  1.00  0.00     0.071 C 
ATOM      8  O   UNL     1      40.393  18.209  12.082  1.00  0.00    -0.545 OA
ATOM      9  O   UNL     1      39.827  18.448   9.882  1.00  0.00    -0.545 OA
ENDBRANCH   1   7
BRANCH   6  10
ATOM     10  C   UNL     1      33.985  16.966  12.662  1.00  0.00     0.013 C 
ATOM     11  C   UNL     1      33.909  16.374  14.074  1.00  0.00     0.012 C 
ATOM     12  C   UNL     1      33.096  18.209  12.537  1.00  0.00     0.012 C 
ENDBRANCH   6  10
TORSDOF 2
ENDMDL
MODEL 6
REMARK VINA RESULT:    -5.025      3.024      4.435
REMARK INTER + INTRA:          -5.834
REMARK INTER:                  -5.626
REMARK INTRA:                  -0.208
REMARK UNBOUND:                -0.221
REMARK SMILES CC(C)c1ccc(C(=O)[O-])cc1
REMARK SMILES IDX 7 1 6 2 11 3 5 4 12 5 4 6 8 7 9 8 10 9 2 10 1 11 3 12
REMARK H PARENT
REMARK Flexibility Score: inf
ROOT
ATOM      1  C   UNL     1      38.063  18.180  10.955  1.00  0.00    -0.003 A 
ATOM      2  C   UNL     1      38.688  18.249   9.700  1.00  0.00     0.010 A 
ATOM      3  C   UNL     1      38.860  18.128  12.112  1.00  0.00     0.010 A 
ATOM      4  C   UNL     1      40.082  18.264   9.602  1.00  0.00     0.004 A 
ATOM      5  C   UNL     1      40.254  18.143  12.012  1.00  0.00     0.004 A 
ATOM      6  C   UNL     1      40.881  18.211  10.758  1.00  0.00    -0.045 A 
ENDROOT
BRANCH   1   7
ATOM      7  C   UNL     1      36.586  18.164  11.055  1.00  0.00     0.071 C 
ATOM      8  O   UNL     1      36.019  17.767  12.108  1.00  0.00    -0.545 OA
ATOM      9  O   UNL     1      35.804  18.588   9.987  1.00  0.00    -0.545 OA
ENDBRANCH   1   7
BRANCH   6  10
ATOM     10  C   UNL     1      42.396  18.228  10.665  1.00  0.00     0.013 C 
ATOM     11  C   UNL     1      42.905  17.120   9.735  1.00  0.00     0.012 C 
ATOM     12  C   UNL     1      42.907  19.602  10.218  1.00  0.00     0.012 C 
ENDBRANCH   6  10
TORSDOF 2
ENDMDL
MODEL 7
REMARK VINA RESULT:    -5.009      2.955      4.231
REMARK INTER + INTRA:          -5.816
REMARK INTER:                  -5.607
REMARK INTRA:                  -0.209
REMARK UNBOUND:                -0.221
REMARK SMILES CC(C)c1ccc(C(=O)[O-])cc1
REMARK SMILES IDX 7 1 6 2 11 3 5 4 12 5 4 6 8 7 9 8 10 9 2 10 1 11 3 12
REMARK H PARENT
REMARK Flexibility Score: inf
ROOT
ATOM      1  C   UNL     1      36.325  18.132  11.513  1.00  0.00    -0.003 A 
ATOM      2  C   UNL     1      37.453  17.986  12.337  1.00  0.00     0.010 A 
ATOM      3  C   UNL     1      36.510  18.364  10.139  1.00  0.00     0.010 A 
ATOM      4  C   UNL     1      38.740  18.072  11.799  1.00  0.00     0.004 A 
ATOM      5  C   UNL     1      37.797  18.451   9.602  1.00  0.00     0.004 A 
ATOM      6  C   UNL     1      38.927  18.306  10.424  1.00  0.00    -0.045 A 
ENDROOT
BRANCH   1   7
ATOM      7  C   UNL     1      34.964  18.039  12.087  1.00  0.00     0.071 C 
ATOM      8  O   UNL     1      34.547  16.954  12.574  1.00  0.00    -0.545 OA
ATOM      9  O   UNL     1      34.126  19.148  12.096  1.00  0.00    -0.545 OA
ENDBRANCH   1   7
BRANCH   6  10
ATOM     10  C   UNL     1      40.318  18.402   9.827  1.00  0.00     0.013 C 
ATOM     11  C   UNL     1      41.394  18.346  10.919  1.00  0.00     0.012 C 
ATOM     12  C   UNL     1      40.544  17.311   8.774  1.00  0.00     0.012 C 
ENDBRANCH   6  10
TORSDOF 2
ENDMDL
MODEL 8
REMARK VINA RESULT:    -5.008      9.561     11.025
REMARK INTER + INTRA:          -5.815
REMARK INTER:                  -5.611
REMARK INTRA:                  -0.204
REMARK UNBOUND:                -0.221
REMARK SMILES CC(C)c1ccc(C(=O)[O-])cc1
REMARK SMILES IDX 7 1 6 2 11 3 5 4 12 5 4 6 8 7 9 8 10 9 2 10 1 11 3 12
REMARK H PARENT
REMARK Flexibility Score: inf
ROOT
ATOM      1  C   UNL     1      32.182  13.686  15.362  1.00  0.00    -0.003 A 
ATOM      2  C   UNL     1      30.979  14.399  15.490  1.00  0.00     0.010 A 
ATOM      3  C   UNL     1      32.140  12.349  14.930  1.00  0.00     0.010 A 
ATOM      4  C   UNL     1      29.758  13.787  15.195  1.00  0.00     0.004 A 
ATOM      5  C   UNL     1      30.918  11.738  14.635  1.00  0.00     0.004 A 
ATOM      6  C   UNL     1      29.714  12.449  14.764  1.00  0.00    -0.045 A 
ENDROOT
BRANCH   1   7
ATOM      7  C   UNL     1      33.474  14.338  15.676  1.00  0.00     0.071 C 
ATOM      8  O   UNL     1      34.484  14.142  14.948  1.00  0.00    -0.545 OA
ATOM      9  O   UNL     1      33.591  15.175  16.779  1.00  0.00    -0.545 OA
ENDBRANCH   1   7
BRANCH   6  10
ATOM     10  C   UNL     1      28.395  11.773  14.439  1.00  0.00     0.013 C 
ATOM     11  C   UNL     1      27.500  11.681  15.681  1.00  0.00     0.012 C 
ATOM     12  C   UNL     1      27.673  12.490  13.292  1.00  0.00     0.012 C 
ENDBRANCH   6  10
TORSDOF 2
ENDMDL
MODEL 9
REMARK VINA RESULT:    -4.987      9.590     10.923
REMARK INTER + INTRA:          -5.792
REMARK INTER:                  -5.575
REMARK INTRA:                  -0.217
REMARK UNBOUND:                -0.221
REMARK SMILES CC(C)c1ccc(C(=O)[O-])cc1
REMARK SMILES IDX 7 1 6 2 11 3 5 4 12 5 4 6 8 7 9 8 10 9 2 10 1 11 3 12
REMARK H PARENT
REMARK Flexibility Score: inf
ROOT
ATOM      1  C   UNL     1      29.640  12.277  15.373  1.00  0.00    -0.003 A 
ATOM      2  C   UNL     1      30.771  11.764  14.717  1.00  0.00     0.010 A 
ATOM      3  C   UNL     1      29.790  13.384  16.226  1.00  0.00     0.010 A 
ATOM      4  C   UNL     1      32.027  12.345  14.911  1.00  0.00     0.004 A 
ATOM      5  C   UNL     1      31.047  13.964  16.419  1.00  0.00     0.004 A 
ATOM      6  C   UNL     1      32.179  13.453  15.764  1.00  0.00    -0.045 A 
ENDROOT
BRANCH   1   7
ATOM      7  C   UNL     1      28.311  11.658  15.166  1.00  0.00     0.071 C 
ATOM      8  O   UNL     1      27.994  11.183  14.043  1.00  0.00    -0.545 OA
ATOM      9  O   UNL     1      27.393  11.594  16.207  1.00  0.00    -0.545 OA
ENDBRANCH   1   7
BRANCH   6  10
ATOM     10  C   UNL     1      33.537  14.093  15.983  1.00  0.00     0.013 C 
ATOM     11  C   UNL     1      34.245  14.357  14.649  1.00  0.00     0.012 C 
ATOM     12  C   UNL     1      33.415  15.381  16.806  1.00  0.00     0.012 C 
ENDBRANCH   6  10
TORSDOF 2
ENDMDL
