MODEL 1
REMARK VINA RESULT:    -2.024      0.000      0.000
REMARK INTER + INTRA:          -2.201
REMARK INTER:                  -2.201
REMARK INTRA:                   0.000
REMARK UNBOUND:                 0.000
REMARK SMILES [NH3+]CC(=O)[O-]
REMARK SMILES IDX 2 1 1 2 3 6 4 7 5 8
REMARK H PARENT 1 3 1 4 1 5
REMARK Flexibility Score: inf
ROOT
ATOM      1  C   UNL     1      10.050  -1.710   0.417  1.00  0.00     0.312 C 
ENDROOT
BRANCH   1   2
ATOM      2  N   UNL     1       9.999  -0.252   0.498  1.00  0.00    -0.353 N 
ATOM      3  H   UNL     1       9.010   0.079   0.396  1.00  0.00     0.344 HD
ATOM      4  H   UNL     1      10.388   0.072   1.413  1.00  0.00     0.344 HD
ATOM      5  H   UNL     1      10.572   0.154  -0.277  1.00  0.00     0.344 HD
ENDBRANCH   1   2
BRANCH   1   6
ATOM      6  C   UNL     1       8.956  -2.323   1.236  1.00  0.00     0.096 C 
ATOM      7  O   UNL     1       9.085  -2.434   2.484  1.00  0.00    -0.544 OA
ATOM      8  O   UNL     1       7.773  -2.724   0.628  1.00  0.00    -0.544 OA
ENDBRANCH   1   6
TORSDOF 2
ENDMDL
MODEL 2
REMARK VINA RESULT:    -1.962      9.527      9.904
REMARK INTER + INTRA:          -2.134
REMARK INTER:                  -2.134
REMARK INTRA:                   0.000
REMARK UNBOUND:                 0.000
REMARK SMILES [NH3+]CC(=O)[O-]
REMARK SMILES IDX 2 1 1 2 3 6 4 7 5 8
REMARK H PARENT 1 3 1 4 1 5
REMARK Flexibility Score: inf
ROOT
ATOM      1  C   UNL     1       5.620   3.697  -5.603  1.00  0.00     0.312 C 
ENDROOT
BRANCH   1   2
ATOM      2  N   UNL     1       6.866   3.972  -4.891  1.00  0.00    -0.353 N 
ATOM      3  H   UNL     1       7.107   3.168  -4.265  1.00  0.00     0.344 HD
ATOM      4  H   UNL     1       7.642   4.137  -5.573  1.00  0.00     0.344 HD
ATOM      5  H   UNL     1       6.743   4.830  -4.305  1.00  0.00     0.344 HD
ENDBRANCH   1   2
BRANCH   1   6
ATOM      6  C   UNL     1       4.519   4.582  -5.104  1.00  0.00     0.096 C 
ATOM      7  O   UNL     1       3.745   4.180  -4.197  1.00  0.00    -0.544 OA
ATOM      8  O   UNL     1       4.384   5.871  -5.604  1.00  0.00    -0.544 OA
ENDBRANCH   1   6
TORSDOF 2
ENDMDL
MODEL 3
REMARK VINA RESULT:    -1.870     11.300     11.509
REMARK INTER + INTRA:          -2.034
REMARK INTER:                  -2.034
REMARK INTRA:                   0.000
REMARK UNBOUND:                 0.000
REMARK SMILES [NH3+]CC(=O)[O-]
REMARK SMILES IDX 2 1 1 2 3 6 4 7 5 8
REMARK H PARENT 1 3 1 4 1 5
REMARK Flexibility Score: inf
ROOT
ATOM      1  C   UNL     1      -0.362   4.795  -2.585  1.00  0.00     0.312 C 
ENDROOT
BRANCH   1   2
ATOM      2  N   UNL     1      -0.480   5.664  -1.416  1.00  0.00    -0.353 N 
ATOM      3  H   UNL     1       0.008   6.574  -1.594  1.00  0.00     0.344 HD
ATOM      4  H   UNL     1      -1.488   5.839  -1.198  1.00  0.00     0.344 HD
ATOM      5  H   UNL     1      -0.032   5.196  -0.595  1.00  0.00     0.344 HD
ENDBRANCH   1   2
BRANCH   1   6
ATOM      6  C   UNL     1      -0.135   3.375  -2.166  1.00  0.00     0.096 C 
ATOM      7  O   UNL     1      -0.184   3.058  -0.948  1.00  0.00    -0.544 OA
ATOM      8  O   UNL     1       0.076   2.393  -3.125  1.00  0.00    -0.544 OA
ENDBRANCH   1   6
TORSDOF 2
ENDMDL
MODEL 4
REMARK VINA RESULT:    -1.867      9.568      9.980
REMARK INTER + INTRA:          -2.031
REMARK INTER:                  -2.031
REMARK INTRA:                   0.000
REMARK UNBOUND:                 0.000
REMARK SMILES [NH3+]CC(=O)[O-]
REMARK SMILES IDX 2 1 1 2 3 6 4 7 5 8
REMARK H PARENT 1 3 1 4 1 5
REMARK Flexibility Score: inf
ROOT
ATOM      1  C   UNL     1       4.128   3.381  -4.908  1.00  0.00     0.312 C 
ENDROOT
BRANCH   1   2
ATOM      2  N   UNL     1       5.003   2.217  -4.787  1.00  0.00    -0.353 N 
ATOM      3  H   UNL     1       4.796   1.704  -3.898  1.00  0.00     0.344 HD
ATOM      4  H   UNL     1       4.869   1.579  -5.605  1.00  0.00     0.344 HD
ATOM      5  H   UNL     1       5.998   2.538  -4.768  1.00  0.00     0.344 HD
ENDBRANCH   1   2
BRANCH   1   6
ATOM      6  C   UNL     1       4.917   4.598  -5.284  1.00  0.00     0.096 C 
ATOM      7  O   UNL     1       4.329   5.685  -5.525  1.00  0.00    -0.544 OA
ATOM      8  O   UNL     1       6.305   4.543  -5.317  1.00  0.00    -0.544 OA
ENDBRANCH   1   6
TORSDOF 2
ENDMDL
MODEL 5
REMARK VINA RESULT:    -1.867     11.839     11.981
REMARK INTER + INTRA:          -2.031
REMARK INTER:                  -2.031
REMARK INTRA:                   0.000
REMARK UNBOUND:                 0.000
REMARK SMILES [NH3+]CC(=O)[O-]
REMARK SMILES IDX 2 1 1 2 3 6 4 7 5 8
REMARK H PARENT 1 3 1 4 1 5
REMARK Flexibility Score: inf
ROOT
ATOM      1  C   UNL     1       2.476   6.315   7.555  1.00  0.00     0.312 C 
ENDROOT
BRANCH   1   2
ATOM      2  N   UNL     1       3.240   6.419   6.312  1.00  0.00    -0.353 N 
ATOM      3  H   UNL     1       3.480   7.419   6.121  1.00  0.00     0.344 HD
ATOM      4  H   UNL     1       4.116   5.851   6.380  1.00  0.00     0.344 HD
ATOM      5  H   UNL     1       2.659   6.053   5.523  1.00  0.00     0.344 HD
ENDBRANCH   1   2
BRANCH   1   6
ATOM      6  C   UNL     1       1.695   5.038   7.590  1.00  0.00     0.096 C 
ATOM      7  O   UNL     1       1.594   4.386   8.663  1.00  0.00    -0.544 OA
ATOM      8  O   UNL     1       1.036   4.595   6.451  1.00  0.00    -0.544 OA
ENDBRANCH   1   6
TORSDOF 2
ENDMDL
MODEL 6
REMARK VINA RESULT:    -1.859      1.216      1.546
REMARK INTER + INTRA:          -2.022
REMARK INTER:                  -2.022
REMARK INTRA:                   0.000
REMARK UNBOUND:                 0.000
REMARK SMILES [NH3+]CC(=O)[O-]
REMARK SMILES IDX 2 1 1 2 3 6 4 7 5 8
REMARK H PARENT 1 3 1 4 1 5
REMARK Flexibility Score: inf
ROOT
ATOM      1  C   UNL     1       9.853  -1.813  -0.095  1.00  0.00     0.312 C 
ENDROOT
BRANCH   1   2
ATOM      2  N   UNL     1       9.840  -0.420   0.349  1.00  0.00    -0.353 N 
ATOM      3  H   UNL     1      10.255  -0.345   1.308  1.00  0.00     0.344 HD
ATOM      4  H   UNL     1      10.380   0.176  -0.319  1.00  0.00     0.344 HD
ATOM      5  H   UNL     1       8.851  -0.081   0.382  1.00  0.00     0.344 HD
ENDBRANCH   1   2
BRANCH   1   6
ATOM      6  C   UNL     1       8.456  -2.336  -0.233  1.00  0.00     0.096 C 
ATOM      7  O   UNL     1       7.825  -2.732   0.781  1.00  0.00    -0.544 OA
ATOM      8  O   UNL     1       7.835  -2.336  -1.476  1.00  0.00    -0.544 OA
ENDBRANCH   1   6
TORSDOF 2
ENDMDL
MODEL 7
REMARK VINA RESULT:    -1.853     12.048     12.287
REMARK INTER + INTRA:          -2.016
REMARK INTER:                  -2.016
REMARK INTRA:                   0.000
REMARK UNBOUND:                 0.000
REMARK SMILES [NH3+]CC(=O)[O-]
REMARK SMILES IDX 2 1 1 2 3 6 4 7 5 8
REMARK H PARENT 1 3 1 4 1 5
REMARK Flexibility Score: inf
ROOT
ATOM      1  C   UNL     1      -0.114   4.395   7.073  1.00  0.00     0.312 C 
ENDROOT
BRANCH   1   2
ATOM      2  N   UNL     1      -0.188   4.062   5.652  1.00  0.00    -0.353 N 
ATOM      3  H   UNL     1       0.226   3.115   5.483  1.00  0.00     0.344 HD
ATOM      4  H   UNL     1      -1.183   4.077   5.330  1.00  0.00     0.344 HD
ATOM      5  H   UNL     1       0.355   4.770   5.106  1.00  0.00     0.344 HD
ENDBRANCH   1   2
BRANCH   1   6
ATOM      6  C   UNL     1       1.281   4.791   7.451  1.00  0.00     0.096 C 
ATOM      7  O   UNL     1       1.731   4.513   8.593  1.00  0.00    -0.544 OA
ATOM      8  O   UNL     1       2.100   5.420   6.522  1.00  0.00    -0.544 OA
ENDBRANCH   1   6
TORSDOF 2
ENDMDL
MODEL 8
REMARK VINA RESULT:    -1.848     10.937     11.324
REMARK INTER + INTRA:          -2.010
REMARK INTER:                  -2.010
REMARK INTRA:                   0.000
REMARK UNBOUND:                 0.000
REMARK SMILES [NH3+]CC(=O)[O-]
REMARK SMILES IDX 2 1 1 2 3 6 4 7 5 8
REMARK H PARENT 1 3 1 4 1 5
REMARK Flexibility Score: inf
ROOT
ATOM      1  C   UNL     1       4.724   4.543  -5.355  1.00  0.00     0.312 C 
ENDROOT
BRANCH   1   2
ATOM      2  N   UNL     1       4.112   3.948  -4.168  1.00  0.00    -0.353 N 
ATOM      3  H   UNL     1       4.852   3.697  -3.471  1.00  0.00     0.344 HD
ATOM      4  H   UNL     1       3.433   4.617  -3.739  1.00  0.00     0.344 HD
ATOM      5  H   UNL     1       3.602   3.079  -4.446  1.00  0.00     0.344 HD
ENDBRANCH   1   2
BRANCH   1   6
ATOM      6  C   UNL     1       3.893   5.682  -5.862  1.00  0.00     0.096 C 
ATOM      7  O   UNL     1       2.642   5.567  -5.942  1.00  0.00    -0.544 OA
ATOM      8  O   UNL     1       4.497   6.888  -6.196  1.00  0.00    -0.544 OA
ENDBRANCH   1   6
TORSDOF 2
ENDMDL
MODEL 9
REMARK VINA RESULT:    -1.835     12.219     12.546
REMARK INTER + INTRA:          -1.996
REMARK INTER:                  -1.996
REMARK INTRA:                   0.000
REMARK UNBOUND:                 0.000
REMARK SMILES [NH3+]CC(=O)[O-]
REMARK SMILES IDX 2 1 1 2 3 6 4 7 5 8
REMARK H PARENT 1 3 1 4 1 5
REMARK Flexibility Score: inf
ROOT
ATOM      1  C   UNL     1      -0.011   3.407   8.261  1.00  0.00     0.312 C 
ENDROOT
BRANCH   1   2
ATOM      2  N   UNL     1       0.511   2.100   8.658  1.00  0.00    -0.353 N 
ATOM      3  H   UNL     1       1.268   2.218   9.371  1.00  0.00     0.344 HD
ATOM      4  H   UNL     1      -0.258   1.511   9.052  1.00  0.00     0.344 HD
ATOM      5  H   UNL     1       0.908   1.622   7.818  1.00  0.00     0.344 HD
ENDBRANCH   1   2
BRANCH   1   6
ATOM      6  C   UNL     1       1.104   4.315   7.841  1.00  0.00     0.096 C 
ATOM      7  O   UNL     1       1.264   4.601   6.625  1.00  0.00    -0.544 OA
ATOM      8  O   UNL     1       1.933   4.887   8.798  1.00  0.00    -0.544 OA
ENDBRANCH   1   6
TORSDOF 2
ENDMDL
