MODEL 1
REMARK VINA RESULT:     1.904      0.000      0.000
REMARK INTER + INTRA:           2.586
REMARK INTER:                   3.684
REMARK INTRA:                  -1.099
REMARK UNBOUND:                -1.099
REMARK SMILES CCCCCCCCCCCCCCCCCC(=O)[O-]
REMARK SMILES IDX 10 1 11 2 12 3 13 4 14 5 15 6 16 7 17 8 18 9 19 10 20 11
REMARK SMILES IDX 9 12 8 13 7 14 6 15 5 16 4 17 3 18 2 19 1 20
REMARK H PARENT
REMARK Flexibility Score: inf
ROOT
ATOM      1  C   UNL     1      24.485  54.979  31.308  1.00  0.00     0.000 C 
ENDROOT
BRANCH   1   2
ATOM      2  C   UNL     1      24.597  53.541  30.771  1.00  0.00     0.000 C 
BRANCH   2   3
ATOM      3  C   UNL     1      24.139  53.410  29.309  1.00  0.00     0.000 C 
BRANCH   3   4
ATOM      4  C   UNL     1      23.148  52.252  29.094  1.00  0.00     0.000 C 
BRANCH   4   5
ATOM      5  C   UNL     1      22.616  52.100  27.654  1.00  0.00     0.000 C 
BRANCH   5   6
ATOM      6  C   UNL     1      23.501  51.260  26.712  1.00  0.00     0.000 C 
BRANCH   6   7
ATOM      7  C   UNL     1      23.702  51.858  25.308  1.00  0.00     0.006 C 
BRANCH   7   8
ATOM      8  C   UNL     1      24.216  53.303  25.345  1.00  0.00     0.053 C 
BRANCH   8   9
ATOM      9  C   UNL     1      23.105  54.261  25.049  1.00  0.00     0.041 C 
ATOM     10  O   UNL     1      22.920  54.674  23.875  1.00  0.00    -0.550 OA
ATOM     11  O   UNL     1      22.301  54.732  26.079  1.00  0.00    -0.550 OA
ENDBRANCH   8   9
ENDBRANCH   7   8
ENDBRANCH   6   7
ENDBRANCH   5   6
ENDBRANCH   4   5
ENDBRANCH   3   4
ENDBRANCH   2   3
ENDBRANCH   1   2
BRANCH   1  12
ATOM     12  C   UNL     1      23.746  55.120  32.651  1.00  0.00     0.000 C 
BRANCH  12  13
ATOM     13  C   UNL     1      24.249  54.136  33.719  1.00  0.00    -0.000 C 
BRANCH  13  14
ATOM     14  C   UNL     1      23.114  53.739  34.677  1.00  0.00    -0.000 C 
BRANCH  14  15
ATOM     15  C   UNL     1      22.489  54.948  35.392  1.00  0.00    -0.000 C 
BRANCH  15  16
ATOM     16  C   UNL     1      21.164  54.600  36.093  1.00  0.00    -0.000 C 
BRANCH  16  17
ATOM     17  C   UNL     1      19.936  54.969  35.246  1.00  0.00    -0.000 C 
BRANCH  17  18
ATOM     18  C   UNL     1      19.875  54.194  33.918  1.00  0.00    -0.000 C 
BRANCH  18  19
ATOM     19  C   UNL     1      19.897  55.121  32.694  1.00  0.00    -0.003 C 
ATOM     20  C   UNL     1      20.562  54.477  31.479  1.00  0.00     0.004 C 
ENDBRANCH  18  19
ENDBRANCH  17  18
ENDBRANCH  16  17
ENDBRANCH  15  16
ENDBRANCH  14  15
ENDBRANCH  13  14
ENDBRANCH  12  13
ENDBRANCH   1  12
TORSDOF 16
ENDMDL
MODEL 2
REMARK VINA RESULT:     1.979      3.168      7.937
REMARK INTER + INTRA:           2.732
REMARK INTER:                   1.973
REMARK INTRA:                   0.759
REMARK UNBOUND:                -1.099
REMARK SMILES CCCCCCCCCCCCCCCCCC(=O)[O-]
REMARK SMILES IDX 10 1 11 2 12 3 13 4 14 5 15 6 16 7 17 8 18 9 19 10 20 11
REMARK SMILES IDX 9 12 8 13 7 14 6 15 5 16 4 17 3 18 2 19 1 20
REMARK H PARENT
REMARK Flexibility Score: inf
ROOT
ATOM      1  C   UNL     1      21.521  53.835  30.759  1.00  0.00     0.000 C 
ENDROOT
BRANCH   1   2
ATOM      2  C   UNL     1      22.403  54.777  31.597  1.00  0.00     0.000 C 
BRANCH   2   3
ATOM      3  C   UNL     1      23.901  54.445  31.495  1.00  0.00     0.000 C 
BRANCH   3   4
ATOM      4  C   UNL     1      24.683  54.810  32.770  1.00  0.00     0.000 C 
BRANCH   4   5
ATOM      5  C   UNL     1      23.816  55.124  34.006  1.00  0.00     0.000 C 
BRANCH   5   6
ATOM      6  C   UNL     1      23.300  53.892  34.776  1.00  0.00     0.000 C 
BRANCH   6   7
ATOM      7  C   UNL     1      22.628  54.207  36.125  1.00  0.00     0.006 C 
BRANCH   7   8
ATOM      8  C   UNL     1      21.113  53.964  36.105  1.00  0.00     0.053 C 
BRANCH   8   9
ATOM      9  C   UNL     1      20.598  53.990  34.701  1.00  0.00     0.041 C 
ATOM     10  O   UNL     1      20.813  53.020  33.928  1.00  0.00    -0.550 OA
ATOM     11  O   UNL     1      19.917  55.106  34.231  1.00  0.00    -0.550 OA
ENDBRANCH   8   9
ENDBRANCH   7   8
ENDBRANCH   6   7
ENDBRANCH   5   6
ENDBRANCH   4   5
ENDBRANCH   3   4
ENDBRANCH   2   3
ENDBRANCH   1   2
BRANCH   1  12
ATOM     12  C   UNL     1      20.268  54.485  30.144  1.00  0.00     0.000 C 
BRANCH  12  13
ATOM     13  C   UNL     1      20.203  54.338  28.617  1.00  0.00    -0.000 C 
BRANCH  13  14
ATOM     14  C   UNL     1      20.699  52.951  28.177  1.00  0.00    -0.000 C 
BRANCH  14  15
ATOM     15  C   UNL     1      22.154  52.968  27.685  1.00  0.00    -0.000 C 
BRANCH  15  16
ATOM     16  C   UNL     1      22.884  51.640  27.951  1.00  0.00    -0.000 C 
BRANCH  16  17
ATOM     17  C   UNL     1      23.832  51.248  26.806  1.00  0.00    -0.000 C 
BRANCH  17  18
ATOM     18  C   UNL     1      23.564  52.042  25.516  1.00  0.00    -0.000 C 
BRANCH  18  19
ATOM     19  C   UNL     1      23.782  53.553  25.698  1.00  0.00    -0.003 C 
ATOM     20  C   UNL     1      23.190  54.375  24.555  1.00  0.00     0.004 C 
ENDBRANCH  18  19
ENDBRANCH  17  18
ENDBRANCH  16  17
ENDBRANCH  15  16
ENDBRANCH  14  15
ENDBRANCH  13  14
ENDBRANCH  12  13
ENDBRANCH   1  12
TORSDOF 16
ENDMDL
MODEL 3
REMARK VINA RESULT:     3.342     21.498     24.727
REMARK INTER + INTRA:           5.370
REMARK INTER:                   6.334
REMARK INTRA:                  -0.964
REMARK UNBOUND:                -1.099
REMARK SMILES CCCCCCCCCCCCCCCCCC(=O)[O-]
REMARK SMILES IDX 10 1 11 2 12 3 13 4 14 5 15 6 16 7 17 8 18 9 19 10 20 11
REMARK SMILES IDX 9 12 8 13 7 14 6 15 5 16 4 17 3 18 2 19 1 20
REMARK H PARENT
REMARK Flexibility Score: inf
ROOT
ATOM      1  C   UNL     1      37.198  39.729  21.060  1.00  0.00     0.000 C 
ENDROOT
BRANCH   1   2
ATOM      2  C   UNL     1      36.676  39.745  19.612  1.00  0.00     0.000 C 
BRANCH   2   3
ATOM      3  C   UNL     1      37.778  39.471  18.574  1.00  0.00     0.000 C 
BRANCH   3   4
ATOM      4  C   UNL     1      39.058  40.287  18.832  1.00  0.00     0.000 C 
BRANCH   4   5
ATOM      5  C   UNL     1      38.868  41.817  18.859  1.00  0.00     0.000 C 
BRANCH   5   6
ATOM      6  C   UNL     1      40.125  42.628  19.233  1.00  0.00     0.000 C 
BRANCH   6   7
ATOM      7  C   UNL     1      40.017  43.416  20.552  1.00  0.00     0.006 C 
BRANCH   7   8
ATOM      8  C   UNL     1      39.956  44.933  20.334  1.00  0.00     0.053 C 
BRANCH   8   9
ATOM      9  C   UNL     1      40.083  45.653  21.639  1.00  0.00     0.041 C 
ATOM     10  O   UNL     1      40.114  45.009  22.719  1.00  0.00    -0.550 OA
ATOM     11  O   UNL     1      40.124  47.042  21.665  1.00  0.00    -0.550 OA
ENDBRANCH   8   9
ENDBRANCH   7   8
ENDBRANCH   6   7
ENDBRANCH   5   6
ENDBRANCH   4   5
ENDBRANCH   3   4
ENDBRANCH   2   3
ENDBRANCH   1   2
BRANCH   1  12
ATOM     12  C   UNL     1      37.485  38.331  21.637  1.00  0.00     0.000 C 
BRANCH  12  13
ATOM     13  C   UNL     1      37.015  37.194  20.718  1.00  0.00    -0.000 C 
BRANCH  13  14
ATOM     14  C   UNL     1      37.302  35.823  21.351  1.00  0.00    -0.000 C 
BRANCH  14  15
ATOM     15  C   UNL     1      38.242  34.958  20.496  1.00  0.00    -0.000 C 
BRANCH  15  16
ATOM     16  C   UNL     1      38.863  35.739  19.325  1.00  0.00    -0.000 C 
BRANCH  16  17
ATOM     17  C   UNL     1      38.468  35.163  17.956  1.00  0.00    -0.000 C 
BRANCH  17  18
ATOM     18  C   UNL     1      38.514  36.214  16.833  1.00  0.00    -0.000 C 
BRANCH  18  19
ATOM     19  C   UNL     1      39.700  37.181  16.980  1.00  0.00    -0.003 C 
ATOM     20  C   UNL     1      39.643  38.338  15.985  1.00  0.00     0.004 C 
ENDBRANCH  18  19
ENDBRANCH  17  18
ENDBRANCH  16  17
ENDBRANCH  15  16
ENDBRANCH  14  15
ENDBRANCH  13  14
ENDBRANCH  12  13
ENDBRANCH   1  12
TORSDOF 16
ENDMDL
MODEL 4
REMARK VINA RESULT:     3.433     19.229     22.233
REMARK INTER + INTRA:           5.545
REMARK INTER:                   6.235
REMARK INTRA:                  -0.691
REMARK UNBOUND:                -1.099
REMARK SMILES CCCCCCCCCCCCCCCCCC(=O)[O-]
REMARK SMILES IDX 10 1 11 2 12 3 13 4 14 5 15 6 16 7 17 8 18 9 19 10 20 11
REMARK SMILES IDX 9 12 8 13 7 14 6 15 5 16 4 17 3 18 2 19 1 20
REMARK H PARENT
REMARK Flexibility Score: inf
ROOT
ATOM      1  C   UNL     1      40.123  42.981  20.641  1.00  0.00     0.000 C 
ENDROOT
BRANCH   1   2
ATOM      2  C   UNL     1      40.122  42.770  19.116  1.00  0.00     0.000 C 
BRANCH   2   3
ATOM      3  C   UNL     1      39.987  41.291  18.716  1.00  0.00     0.000 C 
BRANCH   3   4
ATOM      4  C   UNL     1      38.967  40.528  19.581  1.00  0.00     0.000 C 
BRANCH   4   5
ATOM      5  C   UNL     1      38.183  39.420  18.849  1.00  0.00     0.000 C 
BRANCH   5   6
ATOM      6  C   UNL     1      38.122  38.065  19.581  1.00  0.00     0.000 C 
BRANCH   6   7
ATOM      7  C   UNL     1      39.323  37.137  19.326  1.00  0.00     0.006 C 
BRANCH   7   8
ATOM      8  C   UNL     1      38.922  35.659  19.231  1.00  0.00     0.053 C 
BRANCH   8   9
ATOM      9  C   UNL     1      38.602  35.294  17.816  1.00  0.00     0.041 C 
ATOM     10  O   UNL     1      39.524  35.172  16.968  1.00  0.00    -0.550 OA
ATOM     11  O   UNL     1      37.280  35.131  17.423  1.00  0.00    -0.550 OA
ENDBRANCH   8   9
ENDBRANCH   7   8
ENDBRANCH   6   7
ENDBRANCH   5   6
ENDBRANCH   4   5
ENDBRANCH   3   4
ENDBRANCH   2   3
ENDBRANCH   1   2
BRANCH   1  12
ATOM     12  C   UNL     1      40.090  44.451  21.098  1.00  0.00     0.000 C 
BRANCH  12  13
ATOM     13  C   UNL     1      40.106  44.605  22.626  1.00  0.00    -0.000 C 
BRANCH  13  14
ATOM     14  C   UNL     1      38.845  45.333  23.118  1.00  0.00    -0.000 C 
BRANCH  14  15
ATOM     15  C   UNL     1      38.627  45.187  24.632  1.00  0.00    -0.000 C 
BRANCH  15  16
ATOM     16  C   UNL     1      37.392  45.957  25.129  1.00  0.00    -0.000 C 
BRANCH  16  17
ATOM     17  C   UNL     1      36.197  45.838  24.169  1.00  0.00    -0.000 C 
BRANCH  17  18
ATOM     18  C   UNL     1      34.909  46.453  24.745  1.00  0.00    -0.000 C 
BRANCH  18  19
ATOM     19  C   UNL     1      34.047  47.129  23.667  1.00  0.00    -0.003 C 
ATOM     20  C   UNL     1      34.846  47.494  22.417  1.00  0.00     0.004 C 
ENDBRANCH  18  19
ENDBRANCH  17  18
ENDBRANCH  16  17
ENDBRANCH  15  16
ENDBRANCH  14  15
ENDBRANCH  13  14
ENDBRANCH  12  13
ENDBRANCH   1  12
TORSDOF 16
ENDMDL
MODEL 5
REMARK VINA RESULT:     3.954     18.289     21.298
REMARK INTER + INTRA:           6.555
REMARK INTER:                   7.192
REMARK INTRA:                  -0.637
REMARK UNBOUND:                -1.099
REMARK SMILES CCCCCCCCCCCCCCCCCC(=O)[O-]
REMARK SMILES IDX 10 1 11 2 12 3 13 4 14 5 15 6 16 7 17 8 18 9 19 10 20 11
REMARK SMILES IDX 9 12 8 13 7 14 6 15 5 16 4 17 3 18 2 19 1 20
REMARK H PARENT
REMARK Flexibility Score: inf
ROOT
ATOM      1  C   UNL     1      40.091  43.562  21.041  1.00  0.00     0.000 C 
ENDROOT
BRANCH   1   2
ATOM      2  C   UNL     1      40.122  43.265  19.531  1.00  0.00     0.000 C 
BRANCH   2   3
ATOM      3  C   UNL     1      40.043  41.762  19.215  1.00  0.00     0.000 C 
BRANCH   3   4
ATOM      4  C   UNL     1      40.094  41.466  17.705  1.00  0.00     0.000 C 
BRANCH   4   5
ATOM      5  C   UNL     1      39.505  40.104  17.282  1.00  0.00     0.000 C 
BRANCH   5   6
ATOM      6  C   UNL     1      39.885  38.915  18.186  1.00  0.00     0.000 C 
BRANCH   6   7
ATOM      7  C   UNL     1      38.743  37.920  18.461  1.00  0.00     0.006 C 
BRANCH   7   8
ATOM      8  C   UNL     1      38.537  37.651  19.957  1.00  0.00     0.053 C 
BRANCH   8   9
ATOM      9  C   UNL     1      37.083  37.482  20.263  1.00  0.00     0.041 C 
ATOM     10  O   UNL     1      36.618  36.344  20.529  1.00  0.00    -0.550 OA
ATOM     11  O   UNL     1      36.230  38.578  20.210  1.00  0.00    -0.550 OA
ENDBRANCH   8   9
ENDBRANCH   7   8
ENDBRANCH   6   7
ENDBRANCH   5   6
ENDBRANCH   4   5
ENDBRANCH   3   4
ENDBRANCH   2   3
ENDBRANCH   1   2
BRANCH   1  12
ATOM     12  C   UNL     1      40.124  45.055  21.415  1.00  0.00     0.000 C 
BRANCH  12  13
ATOM     13  C   UNL     1      39.741  45.316  22.879  1.00  0.00    -0.000 C 
BRANCH  13  14
ATOM     14  C   UNL     1      38.228  45.549  23.018  1.00  0.00    -0.000 C 
BRANCH  14  15
ATOM     15  C   UNL     1      37.735  45.412  24.467  1.00  0.00    -0.000 C 
BRANCH  15  16
ATOM     16  C   UNL     1      36.610  46.406  24.805  1.00  0.00    -0.000 C 
BRANCH  16  17
ATOM     17  C   UNL     1      35.551  46.497  23.695  1.00  0.00    -0.000 C 
BRANCH  17  18
ATOM     18  C   UNL     1      34.186  46.981  24.215  1.00  0.00    -0.000 C 
BRANCH  18  19
ATOM     19  C   UNL     1      33.852  46.418  25.605  1.00  0.00    -0.003 C 
ATOM     20  C   UNL     1      32.348  46.347  25.866  1.00  0.00     0.004 C 
ENDBRANCH  18  19
ENDBRANCH  17  18
ENDBRANCH  16  17
ENDBRANCH  15  16
ENDBRANCH  14  15
ENDBRANCH  13  14
ENDBRANCH  12  13
ENDBRANCH   1  12
TORSDOF 16
ENDMDL
MODEL 6
REMARK VINA RESULT:     4.306      1.861      3.156
REMARK INTER + INTRA:           7.236
REMARK INTER:                   8.150
REMARK INTRA:                  -0.914
REMARK UNBOUND:                -1.099
REMARK SMILES CCCCCCCCCCCCCCCCCC(=O)[O-]
REMARK SMILES IDX 10 1 11 2 12 3 13 4 14 5 15 6 16 7 17 8 18 9 19 10 20 11
REMARK SMILES IDX 9 12 8 13 7 14 6 15 5 16 4 17 3 18 2 19 1 20
REMARK H PARENT
REMARK Flexibility Score: inf
ROOT
ATOM      1  C   UNL     1      23.651  53.559  30.703  1.00  0.00     0.000 C 
ENDROOT
BRANCH   1   2
ATOM      2  C   UNL     1      23.430  52.534  29.576  1.00  0.00     0.000 C 
BRANCH   2   3
ATOM      3  C   UNL     1      21.958  52.427  29.144  1.00  0.00     0.000 C 
BRANCH   3   4
ATOM      4  C   UNL     1      21.778  52.471  27.615  1.00  0.00     0.000 C 
BRANCH   4   5
ATOM      5  C   UNL     1      21.756  53.884  26.997  1.00  0.00     0.000 C 
BRANCH   5   6
ATOM      6  C   UNL     1      22.515  54.029  25.663  1.00  0.00     0.000 C 
BRANCH   6   7
ATOM      7  C   UNL     1      23.971  53.530  25.690  1.00  0.00     0.006 C 
BRANCH   7   8
ATOM      8  C   UNL     1      24.195  52.302  24.798  1.00  0.00     0.053 C 
BRANCH   8   9
ATOM      9  C   UNL     1      24.694  51.150  25.610  1.00  0.00     0.041 C 
ATOM     10  O   UNL     1      25.720  50.516  25.249  1.00  0.00    -0.550 OA
ATOM     11  O   UNL     1      24.001  50.747  26.745  1.00  0.00    -0.550 OA
ENDBRANCH   8   9
ENDBRANCH   7   8
ENDBRANCH   6   7
ENDBRANCH   5   6
ENDBRANCH   4   5
ENDBRANCH   3   4
ENDBRANCH   2   3
ENDBRANCH   1   2
BRANCH   1  12
ATOM     12  C   UNL     1      22.471  54.513  30.960  1.00  0.00     0.000 C 
BRANCH  12  13
ATOM     13  C   UNL     1      21.405  53.914  31.889  1.00  0.00    -0.000 C 
BRANCH  13  14
ATOM     14  C   UNL     1      20.304  54.942  32.195  1.00  0.00    -0.000 C 
BRANCH  14  15
ATOM     15  C   UNL     1      19.939  54.997  33.687  1.00  0.00    -0.000 C 
BRANCH  15  16
ATOM     16  C   UNL     1      20.796  54.046  34.540  1.00  0.00    -0.000 C 
BRANCH  16  17
ATOM     17  C   UNL     1      21.059  54.595  35.951  1.00  0.00    -0.000 C 
BRANCH  17  18
ATOM     18  C   UNL     1      22.493  55.124  36.125  1.00  0.00    -0.000 C 
BRANCH  18  19
ATOM     19  C   UNL     1      23.288  55.112  34.810  1.00  0.00    -0.003 C 
ATOM     20  C   UNL     1      24.792  54.957  35.031  1.00  0.00     0.004 C 
ENDBRANCH  18  19
ENDBRANCH  17  18
ENDBRANCH  16  17
ENDBRANCH  15  16
ENDBRANCH  14  15
ENDBRANCH  13  14
ENDBRANCH  12  13
ENDBRANCH   1  12
TORSDOF 16
ENDMDL
