MODEL 1
REMARK VINA RESULT:    -7.007      0.000      0.000
REMARK INTER + INTRA:          -8.574
REMARK INTER:                  -8.440
REMARK INTRA:                  -0.134
REMARK UNBOUND:                -0.134
REMARK SMILES O=c1c(O)c(-c2ccc(O)c(O)c2)oc2cc(O)cc(O)c12
REMARK SMILES IDX 5 1 3 2 2 3 1 4 22 5 20 6 19 7 17 8 16 9 15 10 14 11 6 12
REMARK SMILES IDX 7 13 8 14 9 15 13 16 11 17 10 18 12 20 4 22 21 24 18 26
REMARK H PARENT 10 19 12 21 4 23 21 25 18 27
REMARK Flexibility Score: inf
ROOT
ATOM      1  C   UNL     1       5.527   6.606  18.118  1.00  0.00     0.180 A 
ATOM      2  C   UNL     1       4.571   6.935  17.137  1.00  0.00     0.208 A 
ATOM      3  C   UNL     1       4.090   5.923  16.292  1.00  0.00     0.238 A 
ATOM      4  O   UNL     1       3.226   6.203  15.417  1.00  0.00    -0.285 OA
ATOM      5  C   UNL     1       4.584   4.609  16.427  1.00  0.00     0.111 A 
ATOM      6  C   UNL     1       4.155   3.533  15.614  1.00  0.00     0.134 A 
ATOM      7  C   UNL     1       4.701   2.255  15.805  1.00  0.00     0.093 A 
ATOM      8  C   UNL     1       5.666   2.033  16.789  1.00  0.00     0.123 A 
ATOM      9  C   UNL     1       6.094   3.091  17.596  1.00  0.00     0.094 A 
ATOM     10  C   UNL     1       5.560   4.372  17.424  1.00  0.00     0.146 A 
ATOM     11  O   UNL     1       5.980   5.359  18.207  1.00  0.00    -0.452 OA
ENDROOT
BRANCH   1  12
ATOM     12  C   UNL     1       6.067   7.613  19.059  1.00  0.00     0.025 A 
ATOM     13  C   UNL     1       5.809   7.482  20.433  1.00  0.00     0.016 A 
ATOM     14  C   UNL     1       6.292   8.431  21.337  1.00  0.00     0.051 A 
ATOM     15  C   UNL     1       7.026   9.532  20.883  1.00  0.00     0.157 A 
ATOM     16  C   UNL     1       6.787   8.732  18.602  1.00  0.00     0.062 A 
ATOM     17  C   UNL     1       7.271   9.686  19.509  1.00  0.00     0.158 A 
BRANCH  15  18
ATOM     18  O   UNL     1       7.497  10.461  21.809  1.00  0.00    -0.504 OA
ATOM     19  H   UNL     1       7.499  11.457  21.620  1.00  0.00     0.293 HD
ENDBRANCH  15  18
BRANCH  17  20
ATOM     20  O   UNL     1       7.990  10.788  19.048  1.00  0.00    -0.504 OA
ATOM     21  H   UNL     1       8.967  10.923  19.282  1.00  0.00     0.293 HD
ENDBRANCH  17  20
ENDBRANCH   1  12
BRANCH   2  22
ATOM     22  O   UNL     1       4.135   8.254  16.992  1.00  0.00    -0.502 OA
ATOM     23  H   UNL     1       3.188   8.539  17.211  1.00  0.00     0.293 HD
ENDBRANCH   2  22
BRANCH   6  24
ATOM     24  O   UNL     1       3.193   3.722  14.621  1.00  0.00    -0.507 OA
ATOM     25  H   UNL     1       3.237   4.504  13.978  1.00  0.00     0.293 HD
ENDBRANCH   6  24
BRANCH   8  26
ATOM     26  O   UNL     1       6.194   0.754  16.958  1.00  0.00    -0.508 OA
ATOM     27  H   UNL     1       6.084   0.247  17.828  1.00  0.00     0.293 HD
ENDBRANCH   8  26
TORSDOF 6
ENDMDL
MODEL 2
REMARK VINA RESULT:    -6.340      1.600      6.875
REMARK INTER + INTRA:          -7.771
REMARK INTER:                  -7.447
REMARK INTRA:                  -0.324
REMARK UNBOUND:                -0.134
REMARK SMILES O=c1c(O)c(-c2ccc(O)c(O)c2)oc2cc(O)cc(O)c12
REMARK SMILES IDX 5 1 3 2 2 3 1 4 22 5 20 6 19 7 17 8 16 9 15 10 14 11 6 12
REMARK SMILES IDX 7 13 8 14 9 15 13 16 11 17 10 18 12 20 4 22 21 24 18 26
REMARK H PARENT 10 19 12 21 4 23 21 25 18 27
REMARK Flexibility Score: inf
ROOT
ATOM      1  C   UNL     1       5.234   4.380  18.048  1.00  0.00     0.180 A 
ATOM      2  C   UNL     1       4.607   5.244  17.129  1.00  0.00     0.208 A 
ATOM      3  C   UNL     1       4.652   6.627  17.359  1.00  0.00     0.238 A 
ATOM      4  O   UNL     1       4.103   7.412  16.538  1.00  0.00    -0.285 OA
ATOM      5  C   UNL     1       5.301   7.122  18.509  1.00  0.00     0.111 A 
ATOM      6  C   UNL     1       5.388   8.501  18.818  1.00  0.00     0.134 A 
ATOM      7  C   UNL     1       6.044   8.913  19.986  1.00  0.00     0.093 A 
ATOM      8  C   UNL     1       6.613   7.977  20.852  1.00  0.00     0.123 A 
ATOM      9  C   UNL     1       6.532   6.613  20.554  1.00  0.00     0.094 A 
ATOM     10  C   UNL     1       5.884   6.181  19.392  1.00  0.00     0.146 A 
ATOM     11  O   UNL     1       5.825   4.881  19.129  1.00  0.00    -0.452 OA
ENDROOT
BRANCH   1  12
ATOM     12  C   UNL     1       5.247   2.911  17.864  1.00  0.00     0.025 A 
ATOM     13  C   UNL     1       6.261   2.322  17.091  1.00  0.00     0.016 A 
ATOM     14  C   UNL     1       6.281   0.940  16.887  1.00  0.00     0.051 A 
ATOM     15  C   UNL     1       5.285   0.128  17.438  1.00  0.00     0.157 A 
ATOM     16  C   UNL     1       4.234   2.096  18.400  1.00  0.00     0.062 A 
ATOM     17  C   UNL     1       4.254   0.708  18.195  1.00  0.00     0.158 A 
BRANCH  15  18
ATOM     18  O   UNL     1       5.334  -1.248  17.220  1.00  0.00    -0.504 OA
ATOM     19  H   UNL     1       5.514  -1.906  17.969  1.00  0.00     0.293 HD
ENDBRANCH  15  18
BRANCH  17  20
ATOM     20  O   UNL     1       3.249  -0.093  18.735  1.00  0.00    -0.504 OA
ATOM     21  H   UNL     1       3.420  -0.694  19.534  1.00  0.00     0.293 HD
ENDBRANCH  17  20
ENDBRANCH   1  12
BRANCH   2  22
ATOM     22  O   UNL     1       3.928   4.725  16.024  1.00  0.00    -0.502 OA
ATOM     23  H   UNL     1       4.394   4.524  15.147  1.00  0.00     0.293 HD
ENDBRANCH   2  22
BRANCH   6  24
ATOM     24  O   UNL     1       4.829   9.462  17.974  1.00  0.00    -0.507 OA
ATOM     25  H   UNL     1       4.730  10.429  18.259  1.00  0.00     0.293 HD
ENDBRANCH   6  24
BRANCH   8  26
ATOM     26  O   UNL     1       7.259   8.412  22.008  1.00  0.00    -0.508 OA
ATOM     27  H   UNL     1       6.920   8.163  22.929  1.00  0.00     0.293 HD
ENDBRANCH   8  26
TORSDOF 6
ENDMDL
MODEL 3
REMARK VINA RESULT:    -6.203      3.231      5.814
REMARK INTER + INTRA:          -7.606
REMARK INTER:                  -7.274
REMARK INTRA:                  -0.332
REMARK UNBOUND:                -0.134
REMARK SMILES O=c1c(O)c(-c2ccc(O)c(O)c2)oc2cc(O)cc(O)c12
REMARK SMILES IDX 5 1 3 2 2 3 1 4 22 5 20 6 19 7 17 8 16 9 15 10 14 11 6 12
REMARK SMILES IDX 7 13 8 14 9 15 13 16 11 17 10 18 12 20 4 22 21 24 18 26
REMARK H PARENT 10 19 12 21 4 23 21 25 18 27
REMARK Flexibility Score: inf
ROOT
ATOM      1  C   UNL     1       3.903   6.396  17.322  1.00  0.00     0.180 A 
ATOM      2  C   UNL     1       4.836   6.300  16.271  1.00  0.00     0.208 A 
ATOM      3  C   UNL     1       6.160   5.943  16.570  1.00  0.00     0.238 A 
ATOM      4  O   UNL     1       7.002   5.842  15.636  1.00  0.00    -0.285 OA
ATOM      5  C   UNL     1       6.534   5.711  17.909  1.00  0.00     0.111 A 
ATOM      6  C   UNL     1       7.848   5.352  18.296  1.00  0.00     0.134 A 
ATOM      7  C   UNL     1       8.143   5.146  19.651  1.00  0.00     0.093 A 
ATOM      8  C   UNL     1       7.154   5.293  20.626  1.00  0.00     0.123 A 
ATOM      9  C   UNL     1       5.854   5.647  20.252  1.00  0.00     0.094 A 
ATOM     10  C   UNL     1       5.538   5.854  18.905  1.00  0.00     0.146 A 
ATOM     11  O   UNL     1       4.295   6.184  18.575  1.00  0.00    -0.452 OA
ENDROOT
BRANCH   1  12
ATOM     12  C   UNL     1       2.484   6.747  17.085  1.00  0.00     0.025 A 
ATOM     13  C   UNL     1       2.085   8.091  17.154  1.00  0.00     0.016 A 
ATOM     14  C   UNL     1       0.748   8.443  16.954  1.00  0.00     0.051 A 
ATOM     15  C   UNL     1      -0.212   7.460  16.698  1.00  0.00     0.157 A 
ATOM     16  C   UNL     1       1.514   5.757  16.849  1.00  0.00     0.062 A 
ATOM     17  C   UNL     1       0.171   6.109  16.649  1.00  0.00     0.158 A 
BRANCH  15  18
ATOM     18  O   UNL     1      -1.538   7.842  16.500  1.00  0.00    -0.504 OA
ATOM     19  H   UNL     1      -2.013   7.701  15.616  1.00  0.00     0.293 HD
ENDBRANCH  15  18
BRANCH  17  20
ATOM     20  O   UNL     1      -0.783   5.122  16.409  1.00  0.00    -0.504 OA
ATOM     21  H   UNL     1      -0.530   4.142  16.339  1.00  0.00     0.293 HD
ENDBRANCH  17  20
ENDBRANCH   1  12
BRANCH   2  22
ATOM     22  O   UNL     1       4.451   6.582  14.958  1.00  0.00    -0.502 OA
ATOM     23  H   UNL     1       4.633   5.947  14.191  1.00  0.00     0.293 HD
ENDBRANCH   2  22
BRANCH   6  24
ATOM     24  O   UNL     1       8.859   5.199  17.346  1.00  0.00    -0.507 OA
ATOM     25  H   UNL     1       8.682   4.774  16.443  1.00  0.00     0.293 HD
ENDBRANCH   6  24
BRANCH   8  26
ATOM     26  O   UNL     1       7.473   5.084  21.967  1.00  0.00    -0.508 OA
ATOM     27  H   UNL     1       8.304   5.487  22.382  1.00  0.00     0.293 HD
ENDBRANCH   8  26
TORSDOF 6
ENDMDL
MODEL 4
REMARK VINA RESULT:    -6.169      1.714      6.895
REMARK INTER + INTRA:          -7.565
REMARK INTER:                  -7.544
REMARK INTRA:                  -0.021
REMARK UNBOUND:                -0.134
REMARK SMILES O=c1c(O)c(-c2ccc(O)c(O)c2)oc2cc(O)cc(O)c12
REMARK SMILES IDX 5 1 3 2 2 3 1 4 22 5 20 6 19 7 17 8 16 9 15 10 14 11 6 12
REMARK SMILES IDX 7 13 8 14 9 15 13 16 11 17 10 18 12 20 4 22 21 24 18 26
REMARK H PARENT 10 19 12 21 4 23 21 25 18 27
REMARK Flexibility Score: inf
ROOT
ATOM      1  C   UNL     1       5.984   6.013  18.749  1.00  0.00     0.180 A 
ATOM      2  C   UNL     1       5.648   6.630  19.971  1.00  0.00     0.208 A 
ATOM      3  C   UNL     1       6.189   7.890  20.267  1.00  0.00     0.238 A 
ATOM      4  O   UNL     1       5.886   8.456  21.353  1.00  0.00    -0.285 OA
ATOM      5  C   UNL     1       7.070   8.503  19.352  1.00  0.00     0.111 A 
ATOM      6  C   UNL     1       7.662   9.769  19.576  1.00  0.00     0.134 A 
ATOM      7  C   UNL     1       8.536  10.307  18.620  1.00  0.00     0.093 A 
ATOM      8  C   UNL     1       8.831   9.606  17.449  1.00  0.00     0.123 A 
ATOM      9  C   UNL     1       8.249   8.355  17.221  1.00  0.00     0.094 A 
ATOM     10  C   UNL     1       7.373   7.802  18.160  1.00  0.00     0.146 A 
ATOM     11  O   UNL     1       6.830   6.615  17.917  1.00  0.00    -0.452 OA
ENDROOT
BRANCH   1  12
ATOM     12  C   UNL     1       5.438   4.694  18.356  1.00  0.00     0.025 A 
ATOM     13  C   UNL     1       5.600   3.597  19.216  1.00  0.00     0.016 A 
ATOM     14  C   UNL     1       5.111   2.339  18.857  1.00  0.00     0.051 A 
ATOM     15  C   UNL     1       4.468   2.154  17.629  1.00  0.00     0.157 A 
ATOM     16  C   UNL     1       4.810   4.503  17.113  1.00  0.00     0.062 A 
ATOM     17  C   UNL     1       4.319   3.239  16.751  1.00  0.00     0.158 A 
BRANCH  15  18
ATOM     18  O   UNL     1       3.988   0.887  17.300  1.00  0.00    -0.504 OA
ATOM     19  H   UNL     1       3.077   0.560  17.601  1.00  0.00     0.293 HD
ENDBRANCH  15  18
BRANCH  17  20
ATOM     20  O   UNL     1       3.692   3.059  15.519  1.00  0.00    -0.504 OA
ATOM     21  H   UNL     1       2.781   2.620  15.445  1.00  0.00     0.293 HD
ENDBRANCH  17  20
ENDBRANCH   1  12
BRANCH   2  22
ATOM     22  O   UNL     1       4.811   5.979  20.881  1.00  0.00    -0.502 OA
ATOM     23  H   UNL     1       3.843   6.247  21.016  1.00  0.00     0.293 HD
ENDBRANCH   2  22
BRANCH   6  24
ATOM     24  O   UNL     1       7.389  10.493  20.737  1.00  0.00    -0.507 OA
ATOM     25  H   UNL     1       7.455  10.072  21.656  1.00  0.00     0.293 HD
ENDBRANCH   6  24
BRANCH   8  26
ATOM     26  O   UNL     1       9.703  10.163  16.516  1.00  0.00    -0.508 OA
ATOM     27  H   UNL     1      10.707  10.140  16.650  1.00  0.00     0.293 HD
ENDBRANCH   8  26
TORSDOF 6
ENDMDL
MODEL 5
REMARK VINA RESULT:    -6.165      1.370      2.833
REMARK INTER + INTRA:          -7.559
REMARK INTER:                  -7.712
REMARK INTRA:                   0.153
REMARK UNBOUND:                -0.134
REMARK SMILES O=c1c(O)c(-c2ccc(O)c(O)c2)oc2cc(O)cc(O)c12
REMARK SMILES IDX 5 1 3 2 2 3 1 4 22 5 20 6 19 7 17 8 16 9 15 10 14 11 6 12
REMARK SMILES IDX 7 13 8 14 9 15 13 16 11 17 10 18 12 20 4 22 21 24 18 26
REMARK H PARENT 10 19 12 21 4 23 21 25 18 27
REMARK Flexibility Score: inf
ROOT
ATOM      1  C   UNL     1       5.991   5.956  19.003  1.00  0.00     0.180 A 
ATOM      2  C   UNL     1       6.055   4.789  19.789  1.00  0.00     0.208 A 
ATOM      3  C   UNL     1       5.671   3.565  19.219  1.00  0.00     0.238 A 
ATOM      4  O   UNL     1       5.734   2.511  19.909  1.00  0.00    -0.285 OA
ATOM      5  C   UNL     1       5.212   3.530  17.886  1.00  0.00     0.111 A 
ATOM      6  C   UNL     1       4.802   2.340  17.238  1.00  0.00     0.134 A 
ATOM      7  C   UNL     1       4.349   2.390  15.912  1.00  0.00     0.093 A 
ATOM      8  C   UNL     1       4.296   3.603  15.222  1.00  0.00     0.123 A 
ATOM      9  C   UNL     1       4.699   4.783  15.856  1.00  0.00     0.094 A 
ATOM     10  C   UNL     1       5.157   4.754  17.177  1.00  0.00     0.146 A 
ATOM     11  O   UNL     1       5.539   5.887  17.754  1.00  0.00    -0.452 OA
ENDROOT
BRANCH   1  12
ATOM     12  C   UNL     1       6.397   7.280  19.526  1.00  0.00     0.025 A 
ATOM     13  C   UNL     1       6.012   7.658  20.822  1.00  0.00     0.016 A 
ATOM     14  C   UNL     1       6.367   8.910  21.329  1.00  0.00     0.051 A 
ATOM     15  C   UNL     1       7.098   9.809  20.545  1.00  0.00     0.157 A 
ATOM     16  C   UNL     1       7.114   8.193  18.732  1.00  0.00     0.062 A 
ATOM     17  C   UNL     1       7.470   9.452  19.239  1.00  0.00     0.158 A 
BRANCH  15  18
ATOM     18  O   UNL     1       7.440  11.051  21.079  1.00  0.00    -0.504 OA
ATOM     19  H   UNL     1       6.970  11.438  21.889  1.00  0.00     0.293 HD
ENDBRANCH  15  18
BRANCH  17  20
ATOM     20  O   UNL     1       8.186  10.348  18.448  1.00  0.00    -0.504 OA
ATOM     21  H   UNL     1       8.511  10.098  17.521  1.00  0.00     0.293 HD
ENDBRANCH  17  20
ENDBRANCH   1  12
BRANCH   2  22
ATOM     22  O   UNL     1       6.467   4.858  21.122  1.00  0.00    -0.502 OA
ATOM     23  H   UNL     1       7.318   5.330  21.402  1.00  0.00     0.293 HD
ENDBRANCH   2  22
BRANCH   6  24
ATOM     24  O   UNL     1       4.842   1.113  17.900  1.00  0.00    -0.507 OA
ATOM     25  H   UNL     1       4.462   0.270  17.484  1.00  0.00     0.293 HD
ENDBRANCH   6  24
BRANCH   8  26
ATOM     26  O   UNL     1       3.841   3.626  13.905  1.00  0.00    -0.508 OA
ATOM     27  H   UNL     1       4.450   3.885  13.139  1.00  0.00     0.293 HD
ENDBRANCH   8  26
TORSDOF 6
ENDMDL
MODEL 6
REMARK VINA RESULT:    -6.103      2.265      7.296
REMARK INTER + INTRA:          -7.486
REMARK INTER:                  -7.481
REMARK INTRA:                  -0.005
REMARK UNBOUND:                -0.134
REMARK SMILES O=c1c(O)c(-c2ccc(O)c(O)c2)oc2cc(O)cc(O)c12
REMARK SMILES IDX 5 1 3 2 2 3 1 4 22 5 20 6 19 7 17 8 16 9 15 10 14 11 6 12
REMARK SMILES IDX 7 13 8 14 9 15 13 16 11 17 10 18 12 20 4 22 21 24 18 26
REMARK H PARENT 10 19 12 21 4 23 21 25 18 27
REMARK Flexibility Score: inf
ROOT
ATOM      1  C   UNL     1       6.125   3.846  18.048  1.00  0.00     0.180 A 
ATOM      2  C   UNL     1       7.450   4.243  18.315  1.00  0.00     0.208 A 
ATOM      3  C   UNL     1       7.732   5.609  18.469  1.00  0.00     0.238 A 
ATOM      4  O   UNL     1       8.912   5.975  18.720  1.00  0.00    -0.285 OA
ATOM      5  C   UNL     1       6.694   6.554  18.334  1.00  0.00     0.111 A 
ATOM      6  C   UNL     1       6.894   7.949  18.469  1.00  0.00     0.134 A 
ATOM      7  C   UNL     1       5.810   8.826  18.312  1.00  0.00     0.093 A 
ATOM      8  C   UNL     1       4.535   8.338  18.019  1.00  0.00     0.123 A 
ATOM      9  C   UNL     1       4.331   6.961  17.884  1.00  0.00     0.094 A 
ATOM     10  C   UNL     1       5.397   6.069  18.041  1.00  0.00     0.146 A 
ATOM     11  O   UNL     1       5.175   4.767  17.913  1.00  0.00    -0.452 OA
ENDROOT
BRANCH   1  12
ATOM     12  C   UNL     1       5.745   2.423  17.893  1.00  0.00     0.025 A 
ATOM     13  C   UNL     1       6.429   1.625  16.962  1.00  0.00     0.016 A 
ATOM     14  C   UNL     1       6.074   0.286  16.785  1.00  0.00     0.051 A 
ATOM     15  C   UNL     1       5.024  -0.272  17.520  1.00  0.00     0.157 A 
ATOM     16  C   UNL     1       4.676   1.867  18.617  1.00  0.00     0.062 A 
ATOM     17  C   UNL     1       4.318   0.523  18.438  1.00  0.00     0.158 A 
BRANCH  15  18
ATOM     18  O   UNL     1       4.695  -1.613  17.323  1.00  0.00    -0.504 OA
ATOM     19  H   UNL     1       3.996  -2.084  17.885  1.00  0.00     0.293 HD
ENDBRANCH  15  18
BRANCH  17  20
ATOM     20  O   UNL     1       3.261  -0.023  19.164  1.00  0.00    -0.504 OA
ATOM     21  H   UNL     1       2.421   0.510  19.363  1.00  0.00     0.293 HD
ENDBRANCH  17  20
ENDBRANCH   1  12
BRANCH   2  22
ATOM     22  O   UNL     1       8.469   3.290  18.396  1.00  0.00    -0.502 OA
ATOM     23  H   UNL     1       8.674   2.649  17.639  1.00  0.00     0.293 HD
ENDBRANCH   2  22
BRANCH   6  24
ATOM     24  O   UNL     1       8.156   8.468  18.760  1.00  0.00    -0.507 OA
ATOM     25  H   UNL     1       8.565   8.391  19.684  1.00  0.00     0.293 HD
ENDBRANCH   6  24
BRANCH   8  26
ATOM     26  O   UNL     1       3.476   9.230  17.866  1.00  0.00    -0.508 OA
ATOM     27  H   UNL     1       3.541  10.028  17.245  1.00  0.00     0.293 HD
ENDBRANCH   8  26
TORSDOF 6
ENDMDL
MODEL 7
REMARK VINA RESULT:    -5.876      2.997      6.516
REMARK INTER + INTRA:          -7.212
REMARK INTER:                  -6.937
REMARK INTRA:                  -0.275
REMARK UNBOUND:                -0.134
REMARK SMILES O=c1c(O)c(-c2ccc(O)c(O)c2)oc2cc(O)cc(O)c12
REMARK SMILES IDX 5 1 3 2 2 3 1 4 22 5 20 6 19 7 17 8 16 9 15 10 14 11 6 12
REMARK SMILES IDX 7 13 8 14 9 15 13 16 11 17 10 18 12 20 4 22 21 24 18 26
REMARK H PARENT 10 19 12 21 4 23 21 25 18 27
REMARK Flexibility Score: inf
ROOT
ATOM      1  C   UNL     1       3.172   7.070  17.355  1.00  0.00     0.180 A 
ATOM      2  C   UNL     1       4.136   6.699  16.396  1.00  0.00     0.208 A 
ATOM      3  C   UNL     1       5.482   6.618  16.783  1.00  0.00     0.238 A 
ATOM      4  O   UNL     1       6.352   6.277  15.937  1.00  0.00    -0.285 OA
ATOM      5  C   UNL     1       5.846   6.927  18.111  1.00  0.00     0.111 A 
ATOM      6  C   UNL     1       7.180   6.874  18.581  1.00  0.00     0.134 A 
ATOM      7  C   UNL     1       7.461   7.204  19.915  1.00  0.00     0.093 A 
ATOM      8  C   UNL     1       6.439   7.588  20.785  1.00  0.00     0.123 A 
ATOM      9  C   UNL     1       5.118   7.642  20.327  1.00  0.00     0.094 A 
ATOM     10  C   UNL     1       4.816   7.313  19.002  1.00  0.00     0.146 A 
ATOM     11  O   UNL     1       3.554   7.367  18.594  1.00  0.00    -0.452 OA
ENDROOT
BRANCH   1  12
ATOM     12  C   UNL     1       1.731   7.158  17.029  1.00  0.00     0.025 A 
ATOM     13  C   UNL     1       1.119   8.419  16.941  1.00  0.00     0.016 A 
ATOM     14  C   UNL     1      -0.243   8.525  16.654  1.00  0.00     0.051 A 
ATOM     15  C   UNL     1      -1.019   7.377  16.467  1.00  0.00     0.157 A 
ATOM     16  C   UNL     1       0.945   6.004  16.861  1.00  0.00     0.062 A 
ATOM     17  C   UNL     1      -0.424   6.110  16.574  1.00  0.00     0.158 A 
BRANCH  15  18
ATOM     18  O   UNL     1      -2.376   7.515  16.179  1.00  0.00    -0.504 OA
ATOM     19  H   UNL     1      -2.753   8.348  15.742  1.00  0.00     0.293 HD
ENDBRANCH  15  18
BRANCH  17  20
ATOM     20  O   UNL     1      -1.194   4.961  16.402  1.00  0.00    -0.504 OA
ATOM     21  H   UNL     1      -2.173   5.010  16.141  1.00  0.00     0.293 HD
ENDBRANCH  17  20
ENDBRANCH   1  12
BRANCH   2  22
ATOM     22  O   UNL     1       3.755   6.446  15.076  1.00  0.00    -0.502 OA
ATOM     23  H   UNL     1       3.669   5.507  14.707  1.00  0.00     0.293 HD
ENDBRANCH   2  22
BRANCH   6  24
ATOM     24  O   UNL     1       8.224   6.496  17.736  1.00  0.00    -0.507 OA
ATOM     25  H   UNL     1       9.194   6.605  18.006  1.00  0.00     0.293 HD
ENDBRANCH   6  24
BRANCH   8  26
ATOM     26  O   UNL     1       6.745   7.913  22.105  1.00  0.00    -0.508 OA
ATOM     27  H   UNL     1       6.858   7.198  22.814  1.00  0.00     0.293 HD
ENDBRANCH   8  26
TORSDOF 6
ENDMDL
MODEL 8
REMARK VINA RESULT:    -5.746      3.145      5.150
REMARK INTER + INTRA:          -7.056
REMARK INTER:                  -6.731
REMARK INTRA:                  -0.325
REMARK UNBOUND:                -0.134
REMARK SMILES O=c1c(O)c(-c2ccc(O)c(O)c2)oc2cc(O)cc(O)c12
REMARK SMILES IDX 5 1 3 2 2 3 1 4 22 5 20 6 19 7 17 8 16 9 15 10 14 11 6 12
REMARK SMILES IDX 7 13 8 14 9 15 13 16 11 17 10 18 12 20 4 22 21 24 18 26
REMARK H PARENT 10 19 12 21 4 23 21 25 18 27
REMARK Flexibility Score: inf
ROOT
ATOM      1  C   UNL     1       3.400   7.450  17.651  1.00  0.00     0.180 A 
ATOM      2  C   UNL     1       4.610   8.131  17.891  1.00  0.00     0.208 A 
ATOM      3  C   UNL     1       5.795   7.388  18.006  1.00  0.00     0.238 A 
ATOM      4  O   UNL     1       6.886   7.987  18.210  1.00  0.00    -0.285 OA
ATOM      5  C   UNL     1       5.750   5.982  17.900  1.00  0.00     0.111 A 
ATOM      6  C   UNL     1       6.897   5.160  18.008  1.00  0.00     0.134 A 
ATOM      7  C   UNL     1       6.768   3.768  17.899  1.00  0.00     0.093 A 
ATOM      8  C   UNL     1       5.518   3.182  17.688  1.00  0.00     0.123 A 
ATOM      9  C   UNL     1       4.381   3.989  17.580  1.00  0.00     0.094 A 
ATOM     10  C   UNL     1       4.488   5.379  17.682  1.00  0.00     0.146 A 
ATOM     11  O   UNL     1       3.394   6.123  17.571  1.00  0.00    -0.452 OA
ENDROOT
BRANCH   1  12
ATOM     12  C   UNL     1       2.113   8.165  17.498  1.00  0.00     0.025 A 
ATOM     13  C   UNL     1       1.723   8.620  16.228  1.00  0.00     0.016 A 
ATOM     14  C   UNL     1       0.522   9.314  16.064  1.00  0.00     0.051 A 
ATOM     15  C   UNL     1      -0.300   9.577  17.164  1.00  0.00     0.157 A 
ATOM     16  C   UNL     1       1.295   8.447  18.607  1.00  0.00     0.062 A 
ATOM     17  C   UNL     1       0.089   9.145  18.442  1.00  0.00     0.158 A 
BRANCH  15  18
ATOM     18  O   UNL     1      -1.494  10.269  16.968  1.00  0.00    -0.504 OA
ATOM     19  H   UNL     1      -2.104  10.520  17.738  1.00  0.00     0.293 HD
ENDBRANCH  15  18
BRANCH  17  20
ATOM     20  O   UNL     1      -0.718   9.416  19.546  1.00  0.00    -0.504 OA
ATOM     21  H   UNL     1      -1.632   9.843  19.445  1.00  0.00     0.293 HD
ENDBRANCH  17  20
ENDBRANCH   1  12
BRANCH   2  22
ATOM     22  O   UNL     1       4.620   9.520  18.040  1.00  0.00    -0.502 OA
ATOM     23  H   UNL     1       5.330  10.002  18.578  1.00  0.00     0.293 HD
ENDBRANCH   2  22
BRANCH   6  24
ATOM     24  O   UNL     1       8.160   5.714  18.220  1.00  0.00    -0.507 OA
ATOM     25  H   UNL     1       8.278   6.677  18.513  1.00  0.00     0.293 HD
ENDBRANCH   6  24
BRANCH   8  26
ATOM     26  O   UNL     1       5.417   1.796  17.585  1.00  0.00    -0.508 OA
ATOM     27  H   UNL     1       5.717   1.304  16.752  1.00  0.00     0.293 HD
ENDBRANCH   8  26
TORSDOF 6
ENDMDL
MODEL 9
REMARK VINA RESULT:    -5.722      3.451      5.546
REMARK INTER + INTRA:          -7.026
REMARK INTER:                  -6.853
REMARK INTRA:                  -0.173
REMARK UNBOUND:                -0.134
REMARK SMILES O=c1c(O)c(-c2ccc(O)c(O)c2)oc2cc(O)cc(O)c12
REMARK SMILES IDX 5 1 3 2 2 3 1 4 22 5 20 6 19 7 17 8 16 9 15 10 14 11 6 12
REMARK SMILES IDX 7 13 8 14 9 15 13 16 11 17 10 18 12 20 4 22 21 24 18 26
REMARK H PARENT 10 19 12 21 4 23 21 25 18 27
REMARK Flexibility Score: inf
ROOT
ATOM      1  C   UNL     1       3.382   7.185  17.240  1.00  0.00     0.180 A 
ATOM      2  C   UNL     1       3.033   8.484  17.658  1.00  0.00     0.208 A 
ATOM      3  C   UNL     1       1.675   8.818  17.774  1.00  0.00     0.238 A 
ATOM      4  O   UNL     1       1.350   9.974  18.158  1.00  0.00    -0.285 OA
ATOM      5  C   UNL     1       0.691   7.859  17.451  1.00  0.00     0.111 A 
ATOM      6  C   UNL     1      -0.698   8.116  17.536  1.00  0.00     0.134 A 
ATOM      7  C   UNL     1      -1.614   7.112  17.188  1.00  0.00     0.093 A 
ATOM      8  C   UNL     1      -1.169   5.861  16.757  1.00  0.00     0.123 A 
ATOM      9  C   UNL     1       0.202   5.600  16.671  1.00  0.00     0.094 A 
ATOM     10  C   UNL     1       1.132   6.587  17.015  1.00  0.00     0.146 A 
ATOM     11  O   UNL     1       2.428   6.312  16.930  1.00  0.00    -0.452 OA
ENDROOT
BRANCH   1  12
ATOM     12  C   UNL     1       4.792   6.751  17.113  1.00  0.00     0.025 A 
ATOM     13  C   UNL     1       5.275   6.330  15.864  1.00  0.00     0.016 A 
ATOM     14  C   UNL     1       6.596   5.898  15.726  1.00  0.00     0.051 A 
ATOM     15  C   UNL     1       7.449   5.865  16.832  1.00  0.00     0.157 A 
ATOM     16  C   UNL     1       5.645   6.698  18.230  1.00  0.00     0.062 A 
ATOM     17  C   UNL     1       6.972   6.263  18.092  1.00  0.00     0.158 A 
BRANCH  15  18
ATOM     18  O   UNL     1       8.763   5.431  16.663  1.00  0.00    -0.504 OA
ATOM     19  H   UNL     1       9.437   5.953  16.115  1.00  0.00     0.293 HD
ENDBRANCH  15  18
BRANCH  17  20
ATOM     20  O   UNL     1       7.813   6.218  19.203  1.00  0.00    -0.504 OA
ATOM     21  H   UNL     1       8.027   5.346  19.674  1.00  0.00     0.293 HD
ENDBRANCH  17  20
ENDBRANCH   1  12
BRANCH   2  22
ATOM     22  O   UNL     1       4.026   9.430  17.926  1.00  0.00    -0.502 OA
ATOM     23  H   UNL     1       4.675   9.750  17.217  1.00  0.00     0.293 HD
ENDBRANCH   2  22
BRANCH   6  24
ATOM     24  O   UNL     1      -1.174   9.357  17.962  1.00  0.00    -0.507 OA
ATOM     25  H   UNL     1      -1.014  10.202  17.427  1.00  0.00     0.293 HD
ENDBRANCH   6  24
BRANCH   8  26
ATOM     26  O   UNL     1      -2.099   4.880  16.416  1.00  0.00    -0.508 OA
ATOM     27  H   UNL     1      -1.823   4.032  15.937  1.00  0.00     0.293 HD
ENDBRANCH   8  26
TORSDOF 6
ENDMDL
