MODEL 1
REMARK VINA RESULT:    -3.312      0.000      0.000
REMARK INTER + INTRA:          -8.431
REMARK INTER:                  -5.830
REMARK INTRA:                  -2.601
REMARK UNBOUND:                -2.601
REMARK SMILES CCCCCCC=CCCCCCCCC(=O)[O-]
REMARK SMILES IDX 10 1 11 2 12 3 13 4 14 5 15 6 16 7 17 8 18 9 9 10 8 11 7 12
REMARK SMILES IDX 6 13 5 14 4 15 3 16 2 17 1 18
REMARK H PARENT
REMARK Flexibility Score: inf
ROOT
ATOM      1  C   UNL     1      62.053  32.869  58.487  1.00  0.00     0.004 C 
ENDROOT
BRANCH   1   2
ATOM      2  C   UNL     1      63.324  33.439  59.136  1.00  0.00     0.000 C 
BRANCH   2   3
ATOM      3  C   UNL     1      63.130  33.799  60.620  1.00  0.00     0.000 C 
BRANCH   3   4
ATOM      4  C   UNL     1      63.929  35.022  61.108  1.00  0.00     0.000 C 
BRANCH   4   5
ATOM      5  C   UNL     1      63.223  36.381  60.939  1.00  0.00     0.006 C 
BRANCH   5   6
ATOM      6  C   UNL     1      61.686  36.288  60.903  1.00  0.00     0.053 C 
BRANCH   6   7
ATOM      7  C   UNL     1      61.120  36.619  59.555  1.00  0.00     0.041 C 
ATOM      8  O   UNL     1      61.878  36.712  58.553  1.00  0.00    -0.550 OA
ATOM      9  O   UNL     1      59.751  36.789  59.396  1.00  0.00    -0.550 OA
ENDBRANCH   6   7
ENDBRANCH   5   6
ENDBRANCH   4   5
ENDBRANCH   3   4
ENDBRANCH   2   3
ENDBRANCH   1   2
BRANCH   1  10
ATOM     10  C   UNL     1      60.879  32.889  59.473  1.00  0.00     0.027 C 
BRANCH  10  11
ATOM     11  C   UNL     1      60.171  31.558  59.483  1.00  0.00    -0.031 C 
ATOM     12  C   UNL     1      60.219  30.673  60.496  1.00  0.00    -0.031 C 
BRANCH  12  13
ATOM     13  C   UNL     1      61.066  30.834  61.735  1.00  0.00     0.027 C 
BRANCH  13  14
ATOM     14  C   UNL     1      62.217  29.817  61.782  1.00  0.00     0.004 C 
BRANCH  14  15
ATOM     15  C   UNL     1      63.566  30.455  61.405  1.00  0.00     0.000 C 
BRANCH  15  16
ATOM     16  C   UNL     1      64.203  29.801  60.169  1.00  0.00    -0.000 C 
BRANCH  16  17
ATOM     17  C   UNL     1      63.261  28.809  59.471  1.00  0.00    -0.003 C 
ATOM     18  C   UNL     1      62.865  29.311  58.085  1.00  0.00     0.004 C 
ENDBRANCH  16  17
ENDBRANCH  15  16
ENDBRANCH  14  15
ENDBRANCH  13  14
ENDBRANCH  12  13
ENDBRANCH  10  11
ENDBRANCH   1  10
TORSDOF 13
ENDMDL
MODEL 2
REMARK VINA RESULT:    -3.201     10.202     12.522
REMARK INTER + INTRA:          -8.234
REMARK INTER:                  -5.533
REMARK INTRA:                  -2.702
REMARK UNBOUND:                -2.601
REMARK SMILES CCCCCCC=CCCCCCCCC(=O)[O-]
REMARK SMILES IDX 10 1 11 2 12 3 13 4 14 5 15 6 16 7 17 8 18 9 9 10 8 11 7 12
REMARK SMILES IDX 6 13 5 14 4 15 3 16 2 17 1 18
REMARK H PARENT
REMARK Flexibility Score: inf
ROOT
ATOM      1  C   UNL     1      59.219  29.436  50.663  1.00  0.00     0.004 C 
ENDROOT
BRANCH   1   2
ATOM      2  C   UNL     1      57.864  29.571  51.373  1.00  0.00     0.000 C 
BRANCH   2   3
ATOM      3  C   UNL     1      56.672  29.236  50.458  1.00  0.00     0.000 C 
BRANCH   3   4
ATOM      4  C   UNL     1      55.543  28.425  51.122  1.00  0.00     0.000 C 
BRANCH   4   5
ATOM      5  C   UNL     1      54.265  28.259  50.279  1.00  0.00     0.006 C 
BRANCH   5   6
ATOM      6  C   UNL     1      53.428  27.020  50.647  1.00  0.00     0.053 C 
BRANCH   6   7
ATOM      7  C   UNL     1      54.203  25.743  50.522  1.00  0.00     0.041 C 
ATOM      8  O   UNL     1      54.402  25.020  51.534  1.00  0.00    -0.550 OA
ATOM      9  O   UNL     1      54.674  25.331  49.282  1.00  0.00    -0.550 OA
ENDBRANCH   6   7
ENDBRANCH   5   6
ENDBRANCH   4   5
ENDBRANCH   3   4
ENDBRANCH   2   3
ENDBRANCH   1   2
BRANCH   1  10
ATOM     10  C   UNL     1      59.102  28.542  49.423  1.00  0.00     0.027 C 
BRANCH  10  11
ATOM     11  C   UNL     1      59.980  27.324  49.561  1.00  0.00    -0.031 C 
ATOM     12  C   UNL     1      59.531  26.083  49.824  1.00  0.00    -0.031 C 
BRANCH  12  13
ATOM     13  C   UNL     1      58.092  25.736  50.117  1.00  0.00     0.027 C 
BRANCH  13  14
ATOM     14  C   UNL     1      57.929  25.068  51.491  1.00  0.00     0.004 C 
BRANCH  14  15
ATOM     15  C   UNL     1      57.776  26.100  52.621  1.00  0.00     0.000 C 
BRANCH  15  16
ATOM     16  C   UNL     1      58.934  26.048  53.631  1.00  0.00    -0.000 C 
BRANCH  16  17
ATOM     17  C   UNL     1      59.875  27.256  53.515  1.00  0.00    -0.003 C 
ATOM     18  C   UNL     1      61.267  26.825  53.061  1.00  0.00     0.004 C 
ENDBRANCH  16  17
ENDBRANCH  15  16
ENDBRANCH  14  15
ENDBRANCH  13  14
ENDBRANCH  12  13
ENDBRANCH  10  11
ENDBRANCH   1  10
TORSDOF 13
ENDMDL
MODEL 3
REMARK VINA RESULT:    -3.190     11.049     12.832
REMARK INTER + INTRA:          -8.216
REMARK INTER:                  -6.008
REMARK INTRA:                  -2.208
REMARK UNBOUND:                -2.601
REMARK SMILES CCCCCCC=CCCCCCCCC(=O)[O-]
REMARK SMILES IDX 10 1 11 2 12 3 13 4 14 5 15 6 16 7 17 8 18 9 9 10 8 11 7 12
REMARK SMILES IDX 6 13 5 14 4 15 3 16 2 17 1 18
REMARK H PARENT
REMARK Flexibility Score: inf
ROOT
ATOM      1  C   UNL     1      55.626  29.600  51.966  1.00  0.00     0.004 C 
ENDROOT
BRANCH   1   2
ATOM      2  C   UNL     1      56.421  29.378  50.670  1.00  0.00     0.000 C 
BRANCH   2   3
ATOM      3  C   UNL     1      57.888  28.992  50.926  1.00  0.00     0.000 C 
BRANCH   3   4
ATOM      4  C   UNL     1      58.862  29.318  49.777  1.00  0.00     0.000 C 
BRANCH   4   5
ATOM      5  C   UNL     1      59.548  28.101  49.128  1.00  0.00     0.006 C 
BRANCH   5   6
ATOM      6  C   UNL     1      59.271  26.768  49.849  1.00  0.00     0.053 C 
BRANCH   6   7
ATOM      7  C   UNL     1      60.528  26.062  50.259  1.00  0.00     0.041 C 
ATOM      8  O   UNL     1      60.514  24.823  50.488  1.00  0.00    -0.550 OA
ATOM      9  O   UNL     1      61.724  26.763  50.350  1.00  0.00    -0.550 OA
ENDBRANCH   6   7
ENDBRANCH   5   6
ENDBRANCH   4   5
ENDBRANCH   3   4
ENDBRANCH   2   3
ENDBRANCH   1   2
BRANCH   1  10
ATOM     10  C   UNL     1      54.277  28.874  51.913  1.00  0.00     0.027 C 
BRANCH  10  11
ATOM     11  C   UNL     1      53.739  28.854  50.504  1.00  0.00    -0.031 C 
ATOM     12  C   UNL     1      53.310  27.750  49.865  1.00  0.00    -0.031 C 
BRANCH  12  13
ATOM     13  C   UNL     1      53.389  26.350  50.423  1.00  0.00     0.027 C 
BRANCH  13  14
ATOM     14  C   UNL     1      54.464  25.509  49.718  1.00  0.00     0.004 C 
BRANCH  14  15
ATOM     15  C   UNL     1      55.862  25.738  50.316  1.00  0.00     0.000 C 
BRANCH  15  16
ATOM     16  C   UNL     1      56.010  25.133  51.721  1.00  0.00    -0.000 C 
BRANCH  16  17
ATOM     17  C   UNL     1      56.562  26.137  52.743  1.00  0.00    -0.003 C 
ATOM     18  C   UNL     1      57.985  25.771  53.159  1.00  0.00     0.004 C 
ENDBRANCH  16  17
ENDBRANCH  15  16
ENDBRANCH  14  15
ENDBRANCH  13  14
ENDBRANCH  12  13
ENDBRANCH  10  11
ENDBRANCH   1  10
TORSDOF 13
ENDMDL
MODEL 4
REMARK VINA RESULT:    -3.088      2.779      5.442
REMARK INTER + INTRA:          -8.036
REMARK INTER:                  -5.692
REMARK INTRA:                  -2.343
REMARK UNBOUND:                -2.601
REMARK SMILES CCCCCCC=CCCCCCCCC(=O)[O-]
REMARK SMILES IDX 10 1 11 2 12 3 13 4 14 5 15 6 16 7 17 8 18 9 9 10 8 11 7 12
REMARK SMILES IDX 6 13 5 14 4 15 3 16 2 17 1 18
REMARK H PARENT
REMARK Flexibility Score: inf
ROOT
ATOM      1  C   UNL     1      63.686  32.473  58.423  1.00  0.00     0.004 C 
ENDROOT
BRANCH   1   2
ATOM      2  C   UNL     1      64.667  32.226  59.579  1.00  0.00     0.000 C 
BRANCH   2   3
ATOM      3  C   UNL     1      64.524  30.825  60.199  1.00  0.00     0.000 C 
BRANCH   3   4
ATOM      4  C   UNL     1      63.751  30.773  61.531  1.00  0.00     0.000 C 
BRANCH   4   5
ATOM      5  C   UNL     1      62.445  29.956  61.505  1.00  0.00     0.006 C 
BRANCH   5   6
ATOM      6  C   UNL     1      61.172  30.806  61.675  1.00  0.00     0.053 C 
BRANCH   6   7
ATOM      7  C   UNL     1      60.101  30.443  60.692  1.00  0.00     0.041 C 
ATOM      8  O   UNL     1      59.269  29.537  60.964  1.00  0.00    -0.550 OA
ATOM      9  O   UNL     1      59.996  31.131  59.490  1.00  0.00    -0.550 OA
ENDBRANCH   6   7
ENDBRANCH   5   6
ENDBRANCH   4   5
ENDBRANCH   3   4
ENDBRANCH   2   3
ENDBRANCH   1   2
BRANCH   1  10
ATOM     10  C   UNL     1      62.991  33.831  58.575  1.00  0.00     0.027 C 
BRANCH  10  11
ATOM     11  C   UNL     1      62.119  33.847  59.805  1.00  0.00    -0.031 C 
ATOM     12  C   UNL     1      62.227  34.739  60.808  1.00  0.00    -0.031 C 
BRANCH  12  13
ATOM     13  C   UNL     1      63.297  35.799  60.900  1.00  0.00     0.027 C 
BRANCH  13  14
ATOM     14  C   UNL     1      64.544  35.295  61.642  1.00  0.00     0.004 C 
BRANCH  14  15
ATOM     15  C   UNL     1      65.846  35.760  60.967  1.00  0.00     0.000 C 
BRANCH  15  16
ATOM     16  C   UNL     1      65.610  36.332  59.560  1.00  0.00    -0.000 C 
BRANCH  16  17
ATOM     17  C   UNL     1      66.324  35.526  58.466  1.00  0.00    -0.003 C 
ATOM     18  C   UNL     1      65.749  35.843  57.088  1.00  0.00     0.004 C 
ENDBRANCH  16  17
ENDBRANCH  15  16
ENDBRANCH  14  15
ENDBRANCH  13  14
ENDBRANCH  12  13
ENDBRANCH  10  11
ENDBRANCH   1  10
TORSDOF 13
ENDMDL
MODEL 5
REMARK VINA RESULT:    -3.042      1.854      3.412
REMARK INTER + INTRA:          -7.955
REMARK INTER:                  -5.268
REMARK INTRA:                  -2.687
REMARK UNBOUND:                -2.601
REMARK SMILES CCCCCCC=CCCCCCCCC(=O)[O-]
REMARK SMILES IDX 10 1 11 2 12 3 13 4 14 5 15 6 16 7 17 8 18 9 9 10 8 11 7 12
REMARK SMILES IDX 6 13 5 14 4 15 3 16 2 17 1 18
REMARK H PARENT
REMARK Flexibility Score: inf
ROOT
ATOM      1  C   UNL     1      62.885  30.749  57.606  1.00  0.00     0.004 C 
ENDROOT
BRANCH   1   2
ATOM      2  C   UNL     1      61.635  31.563  57.975  1.00  0.00     0.000 C 
BRANCH   2   3
ATOM      3  C   UNL     1      61.929  33.063  58.160  1.00  0.00     0.000 C 
BRANCH   3   4
ATOM      4  C   UNL     1      61.040  33.783  59.191  1.00  0.00     0.000 C 
BRANCH   4   5
ATOM      5  C   UNL     1      61.713  34.091  60.543  1.00  0.00     0.006 C 
BRANCH   5   6
ATOM      6  C   UNL     1      63.250  34.157  60.476  1.00  0.00     0.053 C 
BRANCH   6   7
ATOM      7  C   UNL     1      63.809  35.337  61.211  1.00  0.00     0.041 C 
ATOM      8  O   UNL     1      63.121  36.384  61.347  1.00  0.00    -0.550 OA
ATOM      9  O   UNL     1      65.074  35.270  61.779  1.00  0.00    -0.550 OA
ENDBRANCH   6   7
ENDBRANCH   5   6
ENDBRANCH   4   5
ENDBRANCH   3   4
ENDBRANCH   2   3
ENDBRANCH   1   2
BRANCH   1  10
ATOM     10  C   UNL     1      63.263  29.784  58.736  1.00  0.00     0.027 C 
BRANCH  10  11
ATOM     11  C   UNL     1      63.975  30.516  59.846  1.00  0.00    -0.031 C 
ATOM     12  C   UNL     1      63.610  30.482  61.141  1.00  0.00    -0.031 C 
BRANCH  12  13
ATOM     13  C   UNL     1      62.379  29.785  61.667  1.00  0.00     0.027 C 
BRANCH  13  14
ATOM     14  C   UNL     1      61.189  30.747  61.807  1.00  0.00     0.004 C 
BRANCH  14  15
ATOM     15  C   UNL     1      60.011  30.343  60.903  1.00  0.00     0.000 C 
BRANCH  15  16
ATOM     16  C   UNL     1      60.017  28.845  60.560  1.00  0.00    -0.000 C 
BRANCH  16  17
ATOM     17  C   UNL     1      59.762  28.578  59.069  1.00  0.00    -0.003 C 
ATOM     18  C   UNL     1      60.491  27.320  58.605  1.00  0.00     0.004 C 
ENDBRANCH  16  17
ENDBRANCH  15  16
ENDBRANCH  14  15
ENDBRANCH  13  14
ENDBRANCH  12  13
ENDBRANCH  10  11
ENDBRANCH   1  10
TORSDOF 13
ENDMDL
MODEL 6
REMARK VINA RESULT:    -3.029      1.827      5.131
REMARK INTER + INTRA:          -7.931
REMARK INTER:                  -5.557
REMARK INTRA:                  -2.374
REMARK UNBOUND:                -2.601
REMARK SMILES CCCCCCC=CCCCCCCCC(=O)[O-]
REMARK SMILES IDX 10 1 11 2 12 3 13 4 14 5 15 6 16 7 17 8 18 9 9 10 8 11 7 12
REMARK SMILES IDX 6 13 5 14 4 15 3 16 2 17 1 18
REMARK H PARENT
REMARK Flexibility Score: inf
ROOT
ATOM      1  C   UNL     1      63.011  28.369  60.522  1.00  0.00     0.004 C 
ENDROOT
BRANCH   1   2
ATOM      2  C   UNL     1      62.062  28.924  61.595  1.00  0.00     0.000 C 
BRANCH   2   3
ATOM      3  C   UNL     1      60.899  29.740  61.002  1.00  0.00     0.000 C 
BRANCH   3   4
ATOM      4  C   UNL     1      60.778  31.184  61.524  1.00  0.00     0.000 C 
BRANCH   4   5
ATOM      5  C   UNL     1      61.094  32.287  60.496  1.00  0.00     0.006 C 
BRANCH   5   6
ATOM      6  C   UNL     1      60.940  31.838  59.030  1.00  0.00     0.053 C 
BRANCH   6   7
ATOM      7  C   UNL     1      59.809  32.530  58.331  1.00  0.00     0.041 C 
ATOM      8  O   UNL     1      59.436  33.674  58.705  1.00  0.00    -0.550 OA
ATOM      9  O   UNL     1      59.191  31.929  57.241  1.00  0.00    -0.550 OA
ENDBRANCH   6   7
ENDBRANCH   5   6
ENDBRANCH   4   5
ENDBRANCH   3   4
ENDBRANCH   2   3
ENDBRANCH   1   2
BRANCH   1  10
ATOM     10  C   UNL     1      63.725  29.505  59.781  1.00  0.00     0.027 C 
BRANCH  10  11
ATOM     11  C   UNL     1      64.444  30.406  60.754  1.00  0.00    -0.031 C 
ATOM     12  C   UNL     1      64.831  31.667  60.487  1.00  0.00    -0.031 C 
BRANCH  12  13
ATOM     13  C   UNL     1      64.690  32.341  59.144  1.00  0.00     0.027 C 
BRANCH  13  14
ATOM     14  C   UNL     1      64.219  33.797  59.278  1.00  0.00     0.004 C 
BRANCH  14  15
ATOM     15  C   UNL     1      64.600  34.405  60.639  1.00  0.00     0.000 C 
BRANCH  15  16
ATOM     16  C   UNL     1      63.517  35.345  61.190  1.00  0.00    -0.000 C 
BRANCH  16  17
ATOM     17  C   UNL     1      62.485  35.748  60.126  1.00  0.00    -0.003 C 
ATOM     18  C   UNL     1      61.119  36.006  60.756  1.00  0.00     0.004 C 
ENDBRANCH  16  17
ENDBRANCH  15  16
ENDBRANCH  14  15
ENDBRANCH  13  14
ENDBRANCH  12  13
ENDBRANCH  10  11
ENDBRANCH   1  10
TORSDOF 13
ENDMDL
MODEL 7
REMARK VINA RESULT:    -3.009      1.427      2.915
REMARK INTER + INTRA:          -7.898
REMARK INTER:                  -5.636
REMARK INTRA:                  -2.261
REMARK UNBOUND:                -2.601
REMARK SMILES CCCCCCC=CCCCCCCCC(=O)[O-]
REMARK SMILES IDX 10 1 11 2 12 3 13 4 14 5 15 6 16 7 17 8 18 9 9 10 8 11 7 12
REMARK SMILES IDX 6 13 5 14 4 15 3 16 2 17 1 18
REMARK H PARENT
REMARK Flexibility Score: inf
ROOT
ATOM      1  C   UNL     1      64.160  32.564  60.037  1.00  0.00     0.004 C 
ENDROOT
BRANCH   1   2
ATOM      2  C   UNL     1      64.351  33.802  60.927  1.00  0.00     0.000 C 
BRANCH   2   3
ATOM      3  C   UNL     1      63.314  34.905  60.651  1.00  0.00     0.000 C 
BRANCH   3   4
ATOM      4  C   UNL     1      61.850  34.428  60.591  1.00  0.00     0.000 C 
BRANCH   4   5
ATOM      5  C   UNL     1      60.804  35.534  60.355  1.00  0.00     0.006 C 
BRANCH   5   6
ATOM      6  C   UNL     1      60.808  36.104  58.924  1.00  0.00     0.053 C 
BRANCH   6   7
ATOM      7  C   UNL     1      59.471  35.993  58.256  1.00  0.00     0.041 C 
ATOM      8  O   UNL     1      59.213  36.685  57.234  1.00  0.00    -0.550 OA
ATOM      9  O   UNL     1      58.523  35.100  58.737  1.00  0.00    -0.550 OA
ENDBRANCH   6   7
ENDBRANCH   5   6
ENDBRANCH   4   5
ENDBRANCH   3   4
ENDBRANCH   2   3
ENDBRANCH   1   2
BRANCH   1  10
ATOM     10  C   UNL     1      64.590  31.290  60.772  1.00  0.00     0.027 C 
BRANCH  10  11
ATOM     11  C   UNL     1      63.870  30.087  60.216  1.00  0.00    -0.031 C 
ATOM     12  C   UNL     1      62.684  29.632  60.660  1.00  0.00    -0.031 C 
BRANCH  12  13
ATOM     13  C   UNL     1      61.937  30.197  61.843  1.00  0.00     0.027 C 
BRANCH  13  14
ATOM     14  C   UNL     1      60.730  31.044  61.411  1.00  0.00     0.004 C 
BRANCH  14  15
ATOM     15  C   UNL     1      60.175  30.603  60.045  1.00  0.00     0.000 C 
BRANCH  15  16
ATOM     16  C   UNL     1      59.901  31.790  59.108  1.00  0.00    -0.000 C 
BRANCH  16  17
ATOM     17  C   UNL     1      61.005  31.982  58.058  1.00  0.00    -0.003 C 
ATOM     18  C   UNL     1      61.351  30.660  57.378  1.00  0.00     0.004 C 
ENDBRANCH  16  17
ENDBRANCH  15  16
ENDBRANCH  14  15
ENDBRANCH  13  14
ENDBRANCH  12  13
ENDBRANCH  10  11
ENDBRANCH   1  10
TORSDOF 13
ENDMDL
MODEL 8
REMARK VINA RESULT:    -2.949     10.923     12.579
REMARK INTER + INTRA:          -7.791
REMARK INTER:                  -5.491
REMARK INTRA:                  -2.300
REMARK UNBOUND:                -2.601
REMARK SMILES CCCCCCC=CCCCCCCCC(=O)[O-]
REMARK SMILES IDX 10 1 11 2 12 3 13 4 14 5 15 6 16 7 17 8 18 9 9 10 8 11 7 12
REMARK SMILES IDX 6 13 5 14 4 15 3 16 2 17 1 18
REMARK H PARENT
REMARK Flexibility Score: inf
ROOT
ATOM      1  C   UNL     1      55.075  25.235  50.613  1.00  0.00     0.004 C 
ENDROOT
BRANCH   1   2
ATOM      2  C   UNL     1      54.052  25.877  49.663  1.00  0.00     0.000 C 
BRANCH   2   3
ATOM      3  C   UNL     1      53.095  26.846  50.379  1.00  0.00     0.000 C 
BRANCH   3   4
ATOM      4  C   UNL     1      53.280  28.333  50.023  1.00  0.00     0.000 C 
BRANCH   4   5
ATOM      5  C   UNL     1      53.102  29.319  51.193  1.00  0.00     0.006 C 
BRANCH   5   6
ATOM      6  C   UNL     1      53.438  28.721  52.572  1.00  0.00     0.053 C 
BRANCH   6   7
ATOM      7  C   UNL     1      53.905  29.756  53.551  1.00  0.00     0.041 C 
ATOM      8  O   UNL     1      53.422  29.793  54.714  1.00  0.00    -0.550 OA
ATOM      9  O   UNL     1      54.899  30.657  53.193  1.00  0.00    -0.550 OA
ENDBRANCH   6   7
ENDBRANCH   5   6
ENDBRANCH   4   5
ENDBRANCH   3   4
ENDBRANCH   2   3
ENDBRANCH   1   2
BRANCH   1  10
ATOM     10  C   UNL     1      56.421  25.965  50.543  1.00  0.00     0.027 C 
BRANCH  10  11
ATOM     11  C   UNL     1      56.655  26.771  51.796  1.00  0.00    -0.031 C 
ATOM     12  C   UNL     1      56.894  28.095  51.820  1.00  0.00    -0.031 C 
BRANCH  12  13
ATOM     13  C   UNL     1      57.059  28.959  50.594  1.00  0.00     0.027 C 
BRANCH  13  14
ATOM     14  C   UNL     1      58.535  29.278  50.309  1.00  0.00     0.004 C 
BRANCH  14  15
ATOM     15  C   UNL     1      59.139  28.327  49.263  1.00  0.00     0.000 C 
BRANCH  15  16
ATOM     16  C   UNL     1      60.469  27.709  49.724  1.00  0.00    -0.000 C 
BRANCH  16  17
ATOM     17  C   UNL     1      60.276  26.609  50.778  1.00  0.00    -0.003 C 
ATOM     18  C   UNL     1      60.019  25.256  50.119  1.00  0.00     0.004 C 
ENDBRANCH  16  17
ENDBRANCH  15  16
ENDBRANCH  14  15
ENDBRANCH  13  14
ENDBRANCH  12  13
ENDBRANCH  10  11
ENDBRANCH   1  10
TORSDOF 13
ENDMDL
MODEL 9
REMARK VINA RESULT:    -2.923      2.220      4.603
REMARK INTER + INTRA:          -7.746
REMARK INTER:                  -5.411
REMARK INTRA:                  -2.335
REMARK UNBOUND:                -2.601
REMARK SMILES CCCCCCC=CCCCCCCCC(=O)[O-]
REMARK SMILES IDX 10 1 11 2 12 3 13 4 14 5 15 6 16 7 17 8 18 9 9 10 8 11 7 12
REMARK SMILES IDX 6 13 5 14 4 15 3 16 2 17 1 18
REMARK H PARENT
REMARK Flexibility Score: inf
ROOT
ATOM      1  C   UNL     1      60.189  30.633  60.655  1.00  0.00     0.004 C 
ENDROOT
BRANCH   1   2
ATOM      2  C   UNL     1      60.566  31.059  59.228  1.00  0.00     0.000 C 
BRANCH   2   3
ATOM      3  C   UNL     1      59.643  32.154  58.666  1.00  0.00     0.000 C 
BRANCH   3   4
ATOM      4  C   UNL     1      60.214  32.944  57.473  1.00  0.00     0.000 C 
BRANCH   4   5
ATOM      5  C   UNL     1      59.758  34.412  57.375  1.00  0.00     0.006 C 
BRANCH   5   6
ATOM      6  C   UNL     1      58.600  34.772  58.323  1.00  0.00     0.053 C 
BRANCH   6   7
ATOM      7  C   UNL     1      57.298  34.953  57.601  1.00  0.00     0.041 C 
ATOM      8  O   UNL     1      56.400  34.073  57.681  1.00  0.00    -0.550 OA
ATOM      9  O   UNL     1      57.061  36.111  56.871  1.00  0.00    -0.550 OA
ENDBRANCH   6   7
ENDBRANCH   5   6
ENDBRANCH   4   5
ENDBRANCH   3   4
ENDBRANCH   2   3
ENDBRANCH   1   2
BRANCH   1  10
ATOM     10  C   UNL     1      61.305  30.985  61.645  1.00  0.00     0.027 C 
BRANCH  10  11
ATOM     11  C   UNL     1      62.432  29.987  61.554  1.00  0.00    -0.031 C 
ATOM     12  C   UNL     1      63.717  30.303  61.310  1.00  0.00    -0.031 C 
BRANCH  12  13
ATOM     13  C   UNL     1      64.213  31.694  60.996  1.00  0.00     0.027 C 
BRANCH  13  14
ATOM     14  C   UNL     1      64.133  32.007  59.494  1.00  0.00     0.004 C 
BRANCH  14  15
ATOM     15  C   UNL     1      63.496  33.380  59.224  1.00  0.00     0.000 C 
BRANCH  15  16
ATOM     16  C   UNL     1      63.114  34.120  60.516  1.00  0.00    -0.000 C 
BRANCH  16  17
ATOM     17  C   UNL     1      61.669  34.638  60.497  1.00  0.00    -0.003 C 
ATOM     18  C   UNL     1      61.614  36.123  60.848  1.00  0.00     0.004 C 
ENDBRANCH  16  17
ENDBRANCH  15  16
ENDBRANCH  14  15
ENDBRANCH  13  14
ENDBRANCH  12  13
ENDBRANCH  10  11
ENDBRANCH   1  10
TORSDOF 13
ENDMDL
