MODEL 1
REMARK VINA RESULT:    -4.263      0.000      0.000
REMARK INTER + INTRA:          -5.850
REMARK INTER:                  -5.509
REMARK INTRA:                  -0.341
REMARK UNBOUND:                -0.341
REMARK SMILES CCCCCCC(=O)[O-]
REMARK SMILES IDX 5 1 6 2 7 3 8 4 9 5 4 6 3 7 2 8 1 9
REMARK H PARENT
REMARK Flexibility Score: inf
ROOT
ATOM      1  C   UNL     1       1.048  21.156 -19.548  1.00  0.00     0.006 C 
ENDROOT
BRANCH   1   2
ATOM      2  C   UNL     1       2.023  19.987 -19.740  1.00  0.00     0.053 C 
BRANCH   2   3
ATOM      3  C   UNL     1       3.104  20.319 -20.722  1.00  0.00     0.041 C 
ATOM      4  O   UNL     1       3.367  21.520 -20.993  1.00  0.00    -0.550 OA
ATOM      5  O   UNL     1       3.845  19.303 -21.313  1.00  0.00    -0.550 OA
ENDBRANCH   2   3
ENDBRANCH   1   2
BRANCH   1   6
ATOM      6  C   UNL     1       1.128  21.754 -18.135  1.00  0.00     0.000 C 
BRANCH   6   7
ATOM      7  C   UNL     1       2.017  23.003 -18.117  1.00  0.00    -0.000 C 
BRANCH   7   8
ATOM      8  C   UNL     1       3.336  22.728 -17.386  1.00  0.00    -0.003 C 
ATOM      9  C   UNL     1       3.088  22.086 -16.024  1.00  0.00     0.004 C 
ENDBRANCH   7   8
ENDBRANCH   6   7
ENDBRANCH   1   6
TORSDOF 5
ENDMDL
MODEL 2
REMARK VINA RESULT:    -4.235      2.374      4.161
REMARK INTER + INTRA:          -5.814
REMARK INTER:                  -5.594
REMARK INTRA:                  -0.220
REMARK UNBOUND:                -0.341
REMARK SMILES CCCCCCC(=O)[O-]
REMARK SMILES IDX 5 1 6 2 7 3 8 4 9 5 4 6 3 7 2 8 1 9
REMARK H PARENT
REMARK Flexibility Score: inf
ROOT
ATOM      1  C   UNL     1       1.109  22.024 -18.784  1.00  0.00     0.006 C 
ENDROOT
BRANCH   1   2
ATOM      2  C   UNL     1       1.388  21.783 -17.294  1.00  0.00     0.053 C 
BRANCH   2   3
ATOM      3  C   UNL     1       2.661  22.437 -16.853  1.00  0.00     0.041 C 
ATOM      4  O   UNL     1       3.239  23.268 -17.602  1.00  0.00    -0.550 OA
ATOM      5  O   UNL     1       3.191  22.156 -15.600  1.00  0.00    -0.550 OA
ENDBRANCH   2   3
ENDBRANCH   1   2
BRANCH   1   6
ATOM      6  C   UNL     1       1.568  20.849 -19.659  1.00  0.00     0.000 C 
BRANCH   6   7
ATOM      7  C   UNL     1       2.881  21.180 -20.379  1.00  0.00    -0.000 C 
BRANCH   7   8
ATOM      8  C   UNL     1       3.502  19.920 -20.994  1.00  0.00    -0.003 C 
ATOM      9  C   UNL     1       2.514  18.757 -20.984  1.00  0.00     0.004 C 
ENDBRANCH   7   8
ENDBRANCH   6   7
ENDBRANCH   1   6
TORSDOF 5
ENDMDL
MODEL 3
REMARK VINA RESULT:    -3.913     12.459     13.638
REMARK INTER + INTRA:          -5.397
REMARK INTER:                  -5.145
REMARK INTRA:                  -0.252
REMARK UNBOUND:                -0.341
REMARK SMILES CCCCCCC(=O)[O-]
REMARK SMILES IDX 5 1 6 2 7 3 8 4 9 5 4 6 3 7 2 8 1 9
REMARK H PARENT
REMARK Flexibility Score: inf
ROOT
ATOM      1  C   UNL     1      -4.652  31.541 -18.769  1.00  0.00     0.006 C 
ENDROOT
BRANCH   1   2
ATOM      2  C   UNL     1      -3.739  32.760 -18.952  1.00  0.00     0.053 C 
BRANCH   2   3
ATOM      3  C   UNL     1      -2.479  32.637 -18.152  1.00  0.00     0.041 C 
ATOM      4  O   UNL     1      -2.533  32.398 -16.917  1.00  0.00    -0.550 OA
ATOM      5  O   UNL     1      -1.243  32.751 -18.776  1.00  0.00    -0.550 OA
ENDBRANCH   2   3
ENDBRANCH   1   2
BRANCH   1   6
ATOM      6  C   UNL     1      -6.034  31.926 -18.221  1.00  0.00     0.000 C 
BRANCH   6   7
ATOM      7  C   UNL     1      -6.063  31.836 -16.691  1.00  0.00    -0.000 C 
BRANCH   7   8
ATOM      8  C   UNL     1      -7.253  32.616 -16.117  1.00  0.00    -0.003 C 
ATOM      9  C   UNL     1      -7.952  33.431 -17.202  1.00  0.00     0.004 C 
ENDBRANCH   7   8
ENDBRANCH   6   7
ENDBRANCH   1   6
TORSDOF 5
ENDMDL
MODEL 4
REMARK VINA RESULT:    -3.879      9.383     10.521
REMARK INTER + INTRA:          -5.354
REMARK INTER:                  -5.181
REMARK INTRA:                  -0.173
REMARK UNBOUND:                -0.341
REMARK SMILES CCCCCCC(=O)[O-]
REMARK SMILES IDX 5 1 6 2 7 3 8 4 9 5 4 6 3 7 2 8 1 9
REMARK H PARENT
REMARK Flexibility Score: inf
ROOT
ATOM      1  C   UNL     1       6.865  26.002 -12.847  1.00  0.00     0.006 C 
ENDROOT
BRANCH   1   2
ATOM      2  C   UNL     1       8.106  26.900 -12.757  1.00  0.00     0.053 C 
BRANCH   2   3
ATOM      3  C   UNL     1       7.782  28.330 -13.062  1.00  0.00     0.041 C 
ATOM      4  O   UNL     1       8.308  29.256 -12.389  1.00  0.00    -0.550 OA
ATOM      5  O   UNL     1       6.927  28.642 -14.111  1.00  0.00    -0.550 OA
ENDBRANCH   2   3
ENDBRANCH   1   2
BRANCH   1   6
ATOM      6  C   UNL     1       7.097  24.623 -12.210  1.00  0.00     0.000 C 
BRANCH   6   7
ATOM      7  C   UNL     1       8.556  24.461 -11.769  1.00  0.00    -0.000 C 
BRANCH   7   8
ATOM      8  C   UNL     1       8.656  24.317 -10.245  1.00  0.00    -0.003 C 
ATOM      9  C   UNL     1       7.830  23.134  -9.748  1.00  0.00     0.004 C 
ENDBRANCH   7   8
ENDBRANCH   6   7
ENDBRANCH   1   6
TORSDOF 5
ENDMDL
MODEL 5
REMARK VINA RESULT:    -3.843     10.027     10.974
REMARK INTER + INTRA:          -5.308
REMARK INTER:                  -5.072
REMARK INTRA:                  -0.235
REMARK UNBOUND:                -0.341
REMARK SMILES CCCCCCC(=O)[O-]
REMARK SMILES IDX 5 1 6 2 7 3 8 4 9 5 4 6 3 7 2 8 1 9
REMARK H PARENT
REMARK Flexibility Score: inf
ROOT
ATOM      1  C   UNL     1       9.207  24.783 -12.100  1.00  0.00     0.006 C 
ENDROOT
BRANCH   1   2
ATOM      2  C   UNL     1       9.068  24.545 -10.591  1.00  0.00     0.053 C 
BRANCH   2   3
ATOM      3  C   UNL     1       7.839  23.756 -10.262  1.00  0.00     0.041 C 
ATOM      4  O   UNL     1       7.861  22.903  -9.336  1.00  0.00    -0.550 OA
ATOM      5  O   UNL     1       6.657  23.985 -10.956  1.00  0.00    -0.550 OA
ENDBRANCH   2   3
ENDBRANCH   1   2
BRANCH   1   6
ATOM      6  C   UNL     1       9.203  26.277 -12.456  1.00  0.00     0.000 C 
BRANCH   6   7
ATOM      7  C   UNL     1       7.815  26.725 -12.929  1.00  0.00    -0.000 C 
BRANCH   7   8
ATOM      8  C   UNL     1       7.649  28.243 -12.786  1.00  0.00    -0.003 C 
ATOM      9  C   UNL     1       9.003  28.934 -12.647  1.00  0.00     0.004 C 
ENDBRANCH   7   8
ENDBRANCH   6   7
ENDBRANCH   1   6
TORSDOF 5
ENDMDL
MODEL 6
REMARK VINA RESULT:    -3.836     13.681     15.040
REMARK INTER + INTRA:          -5.298
REMARK INTER:                  -4.917
REMARK INTRA:                  -0.381
REMARK UNBOUND:                -0.341
REMARK SMILES CCCCCCC(=O)[O-]
REMARK SMILES IDX 5 1 6 2 7 3 8 4 9 5 4 6 3 7 2 8 1 9
REMARK H PARENT
REMARK Flexibility Score: inf
ROOT
ATOM      1  C   UNL     1      -6.268  31.574 -16.557  1.00  0.00     0.006 C 
ENDROOT
BRANCH   1   2
ATOM      2  C   UNL     1      -6.870  32.858 -15.971  1.00  0.00     0.053 C 
BRANCH   2   3
ATOM      3  C   UNL     1      -8.048  33.333 -16.765  1.00  0.00     0.041 C 
ATOM      4  O   UNL     1      -9.119  33.648 -16.183  1.00  0.00    -0.550 OA
ATOM      5  O   UNL     1      -7.953  33.460 -18.145  1.00  0.00    -0.550 OA
ENDBRANCH   2   3
ENDBRANCH   1   2
BRANCH   1   6
ATOM      6  C   UNL     1      -4.832  31.783 -17.063  1.00  0.00     0.000 C 
BRANCH   6   7
ATOM      7  C   UNL     1      -4.728  31.480 -18.562  1.00  0.00    -0.000 C 
BRANCH   7   8
ATOM      8  C   UNL     1      -4.571  32.771 -19.373  1.00  0.00    -0.003 C 
ATOM      9  C   UNL     1      -4.131  33.931 -18.484  1.00  0.00     0.004 C 
ENDBRANCH   7   8
ENDBRANCH   6   7
ENDBRANCH   1   6
TORSDOF 5
ENDMDL
MODEL 7
REMARK VINA RESULT:    -3.823     13.585     14.705
REMARK INTER + INTRA:          -5.281
REMARK INTER:                  -5.013
REMARK INTRA:                  -0.268
REMARK UNBOUND:                -0.341
REMARK SMILES CCCCCCC(=O)[O-]
REMARK SMILES IDX 5 1 6 2 7 3 8 4 9 5 4 6 3 7 2 8 1 9
REMARK H PARENT
REMARK Flexibility Score: inf
ROOT
ATOM      1  C   UNL     1      -6.409  32.986 -17.950  1.00  0.00     0.006 C 
ENDROOT
BRANCH   1   2
ATOM      2  C   UNL     1      -6.475  32.270 -16.595  1.00  0.00     0.053 C 
BRANCH   2   3
ATOM      3  C   UNL     1      -7.685  32.673 -15.810  1.00  0.00     0.041 C 
ATOM      4  O   UNL     1      -7.816  32.304 -14.613  1.00  0.00    -0.550 OA
ATOM      5  O   UNL     1      -8.651  33.487 -16.388  1.00  0.00    -0.550 OA
ENDBRANCH   2   3
ENDBRANCH   1   2
BRANCH   1   6
ATOM      6  C   UNL     1      -5.642  32.170 -19.002  1.00  0.00     0.000 C 
BRANCH   6   7
ATOM      7  C   UNL     1      -4.401  31.512 -18.390  1.00  0.00    -0.000 C 
BRANCH   7   8
ATOM      8  C   UNL     1      -3.180  32.433 -18.500  1.00  0.00    -0.003 C 
ATOM      9  C   UNL     1      -2.708  32.890 -17.122  1.00  0.00     0.004 C 
ENDBRANCH   7   8
ENDBRANCH   6   7
ENDBRANCH   1   6
TORSDOF 5
ENDMDL
MODEL 8
REMARK VINA RESULT:    -3.697      9.345     10.466
REMARK INTER + INTRA:          -5.118
REMARK INTER:                  -4.898
REMARK INTRA:                  -0.220
REMARK UNBOUND:                -0.341
REMARK SMILES CCCCCCC(=O)[O-]
REMARK SMILES IDX 5 1 6 2 7 3 8 4 9 5 4 6 3 7 2 8 1 9
REMARK H PARENT
REMARK Flexibility Score: inf
ROOT
ATOM      1  C   UNL     1       7.263  26.260 -12.799  1.00  0.00     0.006 C 
ENDROOT
BRANCH   1   2
ATOM      2  C   UNL     1       8.480  25.647 -12.094  1.00  0.00     0.053 C 
BRANCH   2   3
ATOM      3  C   UNL     1       8.820  24.296 -12.645  1.00  0.00     0.041 C 
ATOM      4  O   UNL     1       9.182  24.174 -13.845  1.00  0.00    -0.550 OA
ATOM      5  O   UNL     1       8.770  23.176 -11.824  1.00  0.00    -0.550 OA
ENDBRANCH   2   3
ENDBRANCH   1   2
BRANCH   1   6
ATOM      6  C   UNL     1       7.467  27.748 -13.121  1.00  0.00     0.000 C 
BRANCH   6   7
ATOM      7  C   UNL     1       8.860  28.219 -12.688  1.00  0.00    -0.000 C 
BRANCH   7   8
ATOM      8  C   UNL     1       9.003  29.736 -12.851  1.00  0.00    -0.003 C 
ATOM      9  C   UNL     1       7.661  30.439 -12.661  1.00  0.00     0.004 C 
ENDBRANCH   7   8
ENDBRANCH   6   7
ENDBRANCH   1   6
TORSDOF 5
ENDMDL
MODEL 9
REMARK VINA RESULT:    -3.662     10.840     12.226
REMARK INTER + INTRA:          -5.074
REMARK INTER:                  -4.652
REMARK INTRA:                  -0.422
REMARK UNBOUND:                -0.341
REMARK SMILES CCCCCCC(=O)[O-]
REMARK SMILES IDX 5 1 6 2 7 3 8 4 9 5 4 6 3 7 2 8 1 9
REMARK H PARENT
REMARK Flexibility Score: inf
ROOT
ATOM      1  C   UNL     1       1.844  21.664  -7.825  1.00  0.00     0.006 C 
ENDROOT
BRANCH   1   2
ATOM      2  C   UNL     1       3.077  20.781  -7.593  1.00  0.00     0.053 C 
BRANCH   2   3
ATOM      3  C   UNL     1       2.982  19.485  -8.337  1.00  0.00     0.041 C 
ATOM      4  O   UNL     1       3.175  18.395  -7.737  1.00  0.00    -0.550 OA
ATOM      5  O   UNL     1       2.646  19.478  -9.684  1.00  0.00    -0.550 OA
ENDBRANCH   2   3
ENDBRANCH   1   2
BRANCH   1   6
ATOM      6  C   UNL     1       0.642  21.217  -6.978  1.00  0.00     0.000 C 
BRANCH   6   7
ATOM      7  C   UNL     1       1.051  20.996  -5.517  1.00  0.00    -0.000 C 
BRANCH   7   8
ATOM      8  C   UNL     1       0.373  19.747  -4.941  1.00  0.00    -0.003 C 
ATOM      9  C   UNL     1       0.030  18.748  -6.042  1.00  0.00     0.004 C 
ENDBRANCH   7   8
ENDBRANCH   6   7
ENDBRANCH   1   6
TORSDOF 5
ENDMDL
