MODEL 1
REMARK VINA RESULT:    -6.051      0.000      0.000
REMARK INTER + INTRA:          -7.129
REMARK INTER:                  -7.112
REMARK INTRA:                  -0.017
REMARK UNBOUND:                -0.017
REMARK SMILES O=c1c(O)c(-c2ccc(O)c(O)c2)oc2cc(O)ccc12
REMARK SMILES IDX 5 1 3 2 2 3 1 4 21 5 15 6 14 7 16 8 17 9 19 10 20 11 6 12
REMARK SMILES IDX 7 13 8 14 9 15 13 16 11 17 10 18 12 20 4 22 18 24
REMARK H PARENT 10 19 12 21 4 23 18 25
REMARK Flexibility Score: inf
ROOT
ATOM      1  C   UNL     1       4.163  -3.322  16.981  1.00  0.00     0.180 A 
ATOM      2  C   UNL     1       5.080  -2.262  16.821  1.00  0.00     0.208 A 
ATOM      3  C   UNL     1       4.597  -0.945  16.821  1.00  0.00     0.235 A 
ATOM      4  O   UNL     1       5.397   0.021  16.669  1.00  0.00    -0.285 OA
ATOM      5  C   UNL     1       3.224  -0.712  16.999  1.00  0.00     0.069 A 
ATOM      6  C   UNL     1       2.375  -1.825  17.176  1.00  0.00     0.142 A 
ATOM      7  O   UNL     1       2.870  -3.057  17.161  1.00  0.00    -0.452 OA
ATOM      8  C   UNL     1       1.002  -1.634  17.367  1.00  0.00     0.094 A 
ATOM      9  C   UNL     1       0.464  -0.344  17.381  1.00  0.00     0.119 A 
ATOM     10  C   UNL     1       1.304   0.764  17.202  1.00  0.00     0.047 A 
ATOM     11  C   UNL     1       2.677   0.584  17.013  1.00  0.00     0.020 A 
ENDROOT
BRANCH   1  12
ATOM     12  C   UNL     1       4.590  -4.739  16.974  1.00  0.00     0.025 A 
ATOM     13  C   UNL     1       4.295  -5.599  18.047  1.00  0.00     0.016 A 
ATOM     14  C   UNL     1       4.730  -6.927  18.028  1.00  0.00     0.051 A 
ATOM     15  C   UNL     1       5.475  -7.412  16.945  1.00  0.00     0.157 A 
ATOM     16  C   UNL     1       5.356  -5.225  15.901  1.00  0.00     0.062 A 
ATOM     17  C   UNL     1       5.792  -6.554  15.878  1.00  0.00     0.158 A 
BRANCH  15  18
ATOM     18  O   UNL     1       5.906  -8.737  16.929  1.00  0.00    -0.504 OA
ATOM     19  H   UNL     1       5.278  -9.502  17.147  1.00  0.00     0.293 HD
ENDBRANCH  15  18
BRANCH  17  20
ATOM     20  O   UNL     1       6.539  -7.004  14.790  1.00  0.00    -0.504 OA
ATOM     21  H   UNL     1       7.551  -6.982  14.786  1.00  0.00     0.293 HD
ENDBRANCH  17  20
ENDBRANCH   1  12
BRANCH   2  22
ATOM     22  O   UNL     1       6.447  -2.522  16.695  1.00  0.00    -0.502 OA
ATOM     23  H   UNL     1       7.154  -1.884  17.041  1.00  0.00     0.293 HD
ENDBRANCH   2  22
BRANCH   9  24
ATOM     24  O   UNL     1      -0.905  -0.172  17.571  1.00  0.00    -0.508 OA
ATOM     25  H   UNL     1      -1.554  -0.183  16.793  1.00  0.00     0.293 HD
ENDBRANCH   9  24
TORSDOF 5
ENDMDL
MODEL 2
REMARK VINA RESULT:    -5.859      1.336      2.994
REMARK INTER + INTRA:          -6.904
REMARK INTER:                  -6.602
REMARK INTRA:                  -0.302
REMARK UNBOUND:                -0.017
REMARK SMILES O=c1c(O)c(-c2ccc(O)c(O)c2)oc2cc(O)ccc12
REMARK SMILES IDX 5 1 3 2 2 3 1 4 21 5 15 6 14 7 16 8 17 9 19 10 20 11 6 12
REMARK SMILES IDX 7 13 8 14 9 15 13 16 11 17 10 18 12 20 4 22 18 24
REMARK H PARENT 10 19 12 21 4 23 18 25
REMARK Flexibility Score: inf
ROOT
ATOM      1  C   UNL     1       4.236  -3.513  16.999  1.00  0.00     0.180 A 
ATOM      2  C   UNL     1       2.928  -3.123  16.640  1.00  0.00     0.208 A 
ATOM      3  C   UNL     1       2.601  -1.758  16.653  1.00  0.00     0.235 A 
ATOM      4  O   UNL     1       1.435  -1.385  16.347  1.00  0.00    -0.285 OA
ATOM      5  C   UNL     1       3.582  -0.817  17.002  1.00  0.00     0.069 A 
ATOM      6  C   UNL     1       4.874  -1.286  17.325  1.00  0.00     0.142 A 
ATOM      7  O   UNL     1       5.140  -2.586  17.309  1.00  0.00    -0.452 OA
ATOM      8  C   UNL     1       5.882  -0.377  17.668  1.00  0.00     0.094 A 
ATOM      9  C   UNL     1       5.617   0.996  17.694  1.00  0.00     0.119 A 
ATOM     10  C   UNL     1       4.335   1.464  17.376  1.00  0.00     0.047 A 
ATOM     11  C   UNL     1       3.321   0.565  17.031  1.00  0.00     0.020 A 
ENDROOT
BRANCH   1  12
ATOM     12  C   UNL     1       4.653  -4.933  17.027  1.00  0.00     0.025 A 
ATOM     13  C   UNL     1       4.328  -5.770  18.109  1.00  0.00     0.016 A 
ATOM     14  C   UNL     1       4.754  -7.101  18.125  1.00  0.00     0.051 A 
ATOM     15  C   UNL     1       5.519  -7.611  17.068  1.00  0.00     0.157 A 
ATOM     16  C   UNL     1       5.439  -5.443  15.981  1.00  0.00     0.062 A 
ATOM     17  C   UNL     1       5.865  -6.776  15.993  1.00  0.00     0.158 A 
BRANCH  15  18
ATOM     18  O   UNL     1       5.940  -8.940  17.087  1.00  0.00    -0.504 OA
ATOM     19  H   UNL     1       6.143  -9.420  17.955  1.00  0.00     0.293 HD
ENDBRANCH  15  18
BRANCH  17  20
ATOM     20  O   UNL     1       6.632  -7.252  14.930  1.00  0.00    -0.504 OA
ATOM     21  H   UNL     1       7.644  -7.224  14.942  1.00  0.00     0.293 HD
ENDBRANCH  17  20
ENDBRANCH   1  12
BRANCH   2  22
ATOM     22  O   UNL     1       1.987  -4.079  16.250  1.00  0.00    -0.502 OA
ATOM     23  H   UNL     1       1.828  -4.319  15.279  1.00  0.00     0.293 HD
ENDBRANCH   2  22
BRANCH   9  24
ATOM     24  O   UNL     1       6.632   1.885  18.038  1.00  0.00    -0.508 OA
ATOM     25  H   UNL     1       7.268   1.694  18.803  1.00  0.00     0.293 HD
ENDBRANCH   9  24
TORSDOF 5
ENDMDL
MODEL 3
REMARK VINA RESULT:    -5.800      1.396      6.553
REMARK INTER + INTRA:          -6.834
REMARK INTER:                  -6.746
REMARK INTRA:                  -0.088
REMARK UNBOUND:                -0.017
REMARK SMILES O=c1c(O)c(-c2ccc(O)c(O)c2)oc2cc(O)ccc12
REMARK SMILES IDX 5 1 3 2 2 3 1 4 21 5 15 6 14 7 16 8 17 9 19 10 20 11 6 12
REMARK SMILES IDX 7 13 8 14 9 15 13 16 11 17 10 18 12 20 4 22 18 24
REMARK H PARENT 10 19 12 21 4 23 18 25
REMARK Flexibility Score: inf
ROOT
ATOM      1  C   UNL     1       3.701  -3.162  17.292  1.00  0.00     0.180 A 
ATOM      2  C   UNL     1       4.979  -2.719  17.694  1.00  0.00     0.208 A 
ATOM      3  C   UNL     1       6.058  -3.614  17.625  1.00  0.00     0.235 A 
ATOM      4  O   UNL     1       7.209  -3.245  17.989  1.00  0.00    -0.285 OA
ATOM      5  C   UNL     1       5.846  -4.915  17.141  1.00  0.00     0.069 A 
ATOM      6  C   UNL     1       4.542  -5.273  16.736  1.00  0.00     0.142 A 
ATOM      7  O   UNL     1       3.547  -4.400  16.826  1.00  0.00    -0.452 OA
ATOM      8  C   UNL     1       4.293  -6.558  16.239  1.00  0.00     0.094 A 
ATOM      9  C   UNL     1       5.330  -7.491  16.142  1.00  0.00     0.119 A 
ATOM     10  C   UNL     1       6.625  -7.138  16.546  1.00  0.00     0.047 A 
ATOM     11  C   UNL     1       6.885  -5.858  17.043  1.00  0.00     0.020 A 
ENDROOT
BRANCH   1  12
ATOM     12  C   UNL     1       2.511  -2.285  17.353  1.00  0.00     0.025 A 
ATOM     13  C   UNL     1       1.375  -2.642  18.102  1.00  0.00     0.016 A 
ATOM     14  C   UNL     1       0.254  -1.809  18.125  1.00  0.00     0.051 A 
ATOM     15  C   UNL     1       0.244  -0.615  17.391  1.00  0.00     0.157 A 
ATOM     16  C   UNL     1       2.487  -1.098  16.602  1.00  0.00     0.062 A 
ATOM     17  C   UNL     1       1.366  -0.261  16.624  1.00  0.00     0.158 A 
BRANCH  15  18
ATOM     18  O   UNL     1      -0.876   0.214  17.418  1.00  0.00    -0.504 OA
ATOM     19  H   UNL     1      -1.311   0.490  18.290  1.00  0.00     0.293 HD
ENDBRANCH  15  18
BRANCH  17  20
ATOM     20  O   UNL     1       1.385   0.916  15.877  1.00  0.00    -0.504 OA
ATOM     21  H   UNL     1       1.647   0.929  14.899  1.00  0.00     0.293 HD
ENDBRANCH  17  20
ENDBRANCH   1  12
BRANCH   2  22
ATOM     22  O   UNL     1       5.169  -1.404  18.125  1.00  0.00    -0.502 OA
ATOM     23  H   UNL     1       5.511  -0.676  17.509  1.00  0.00     0.293 HD
ENDBRANCH   2  22
BRANCH   9  24
ATOM     24  O   UNL     1       5.064  -8.765  15.646  1.00  0.00    -0.508 OA
ATOM     25  H   UNL     1       5.507  -9.108  14.802  1.00  0.00     0.293 HD
ENDBRANCH   9  24
TORSDOF 5
ENDMDL
MODEL 4
REMARK VINA RESULT:    -5.798      5.341      7.583
REMARK INTER + INTRA:          -6.832
REMARK INTER:                  -6.565
REMARK INTRA:                  -0.267
REMARK UNBOUND:                -0.017
REMARK SMILES O=c1c(O)c(-c2ccc(O)c(O)c2)oc2cc(O)ccc12
REMARK SMILES IDX 5 1 3 2 2 3 1 4 21 5 15 6 14 7 16 8 17 9 19 10 20 11 6 12
REMARK SMILES IDX 7 13 8 14 9 15 13 16 11 17 10 18 12 20 4 22 18 24
REMARK H PARENT 10 19 12 21 4 23 18 25
REMARK Flexibility Score: inf
ROOT
ATOM      1  C   UNL     1       9.727  -1.648  16.994  1.00  0.00     0.180 A 
ATOM      2  C   UNL     1       9.867  -2.945  17.532  1.00  0.00     0.208 A 
ATOM      3  C   UNL     1       8.732  -3.765  17.624  1.00  0.00     0.235 A 
ATOM      4  O   UNL     1       8.829  -4.925  18.111  1.00  0.00    -0.285 OA
ATOM      5  C   UNL     1       7.495  -3.286  17.164  1.00  0.00     0.069 A 
ATOM      6  C   UNL     1       7.443  -1.986  16.617  1.00  0.00     0.142 A 
ATOM      7  O   UNL     1       8.538  -1.238  16.556  1.00  0.00    -0.452 OA
ATOM      8  C   UNL     1       6.230  -1.477  16.138  1.00  0.00     0.094 A 
ATOM      9  C   UNL     1       5.066  -2.249  16.199  1.00  0.00     0.119 A 
ATOM     10  C   UNL     1       5.115  -3.540  16.744  1.00  0.00     0.047 A 
ATOM     11  C   UNL     1       6.321  -4.059  17.224  1.00  0.00     0.020 A 
ENDROOT
BRANCH   1  12
ATOM     12  C   UNL     1      10.872  -0.717  16.881  1.00  0.00     0.025 A 
ATOM     13  C   UNL     1      11.399  -0.062  18.008  1.00  0.00     0.016 A 
ATOM     14  C   UNL     1      12.464   0.831  17.872  1.00  0.00     0.051 A 
ATOM     15  C   UNL     1      13.012   1.094  16.609  1.00  0.00     0.157 A 
ATOM     16  C   UNL     1      11.410  -0.434  15.614  1.00  0.00     0.062 A 
ATOM     17  C   UNL     1      12.478   0.459  15.475  1.00  0.00     0.158 A 
BRANCH  15  18
ATOM     18  O   UNL     1      14.076   1.984  16.478  1.00  0.00    -0.504 OA
ATOM     19  H   UNL     1      15.037   1.664  16.467  1.00  0.00     0.293 HD
ENDBRANCH  15  18
BRANCH  17  20
ATOM     20  O   UNL     1      12.995   0.704  14.203  1.00  0.00    -0.504 OA
ATOM     21  H   UNL     1      12.404   0.964  13.423  1.00  0.00     0.293 HD
ENDBRANCH  17  20
ENDBRANCH   1  12
BRANCH   2  22
ATOM     22  O   UNL     1      11.120  -3.412  17.937  1.00  0.00    -0.502 OA
ATOM     23  H   UNL     1      11.237  -4.029  18.731  1.00  0.00     0.293 HD
ENDBRANCH   2  22
BRANCH   9  24
ATOM     24  O   UNL     1       3.868  -1.727  15.719  1.00  0.00    -0.508 OA
ATOM     25  H   UNL     1       3.742  -0.731  15.579  1.00  0.00     0.293 HD
ENDBRANCH   9  24
TORSDOF 5
ENDMDL
MODEL 5
REMARK VINA RESULT:    -5.765      4.416      7.130
REMARK INTER + INTRA:          -6.793
REMARK INTER:                  -6.511
REMARK INTRA:                  -0.282
REMARK UNBOUND:                -0.017
REMARK SMILES O=c1c(O)c(-c2ccc(O)c(O)c2)oc2cc(O)ccc12
REMARK SMILES IDX 5 1 3 2 2 3 1 4 21 5 15 6 14 7 16 8 17 9 19 10 20 11 6 12
REMARK SMILES IDX 7 13 8 14 9 15 13 16 11 17 10 18 12 20 4 22 18 24
REMARK H PARENT 10 19 12 21 4 23 18 25
REMARK Flexibility Score: inf
ROOT
ATOM      1  C   UNL     1       7.804  -1.702  16.894  1.00  0.00     0.180 A 
ATOM      2  C   UNL     1       8.577  -2.733  17.470  1.00  0.00     0.208 A 
ATOM      3  C   UNL     1       9.963  -2.550  17.593  1.00  0.00     0.235 A 
ATOM      4  O   UNL     1      10.677  -3.462  18.095  1.00  0.00    -0.285 OA
ATOM      5  C   UNL     1      10.543  -1.346  17.163  1.00  0.00     0.069 A 
ATOM      6  C   UNL     1       9.698  -0.354  16.620  1.00  0.00     0.142 A 
ATOM      7  O   UNL     1       8.392  -0.569  16.512  1.00  0.00    -0.452 OA
ATOM      8  C   UNL     1      10.236   0.864  16.189  1.00  0.00     0.094 A 
ATOM      9  C   UNL     1      11.610   1.104  16.291  1.00  0.00     0.119 A 
ATOM     10  C   UNL     1      12.452   0.120  16.828  1.00  0.00     0.047 A 
ATOM     11  C   UNL     1      11.924  -1.099  17.263  1.00  0.00     0.020 A 
ENDROOT
BRANCH   1  12
ATOM     12  C   UNL     1       6.341  -1.825  16.712  1.00  0.00     0.025 A 
ATOM     13  C   UNL     1       5.450  -1.635  17.784  1.00  0.00     0.016 A 
ATOM     14  C   UNL     1       4.074  -1.780  17.592  1.00  0.00     0.051 A 
ATOM     15  C   UNL     1       3.567  -2.128  16.333  1.00  0.00     0.157 A 
ATOM     16  C   UNL     1       5.829  -2.195  15.457  1.00  0.00     0.062 A 
ATOM     17  C   UNL     1       4.451  -2.339  15.262  1.00  0.00     0.158 A 
BRANCH  15  18
ATOM     18  O   UNL     1       2.194  -2.270  16.146  1.00  0.00    -0.504 OA
ATOM     19  H   UNL     1       1.788  -3.143  15.831  1.00  0.00     0.293 HD
ENDBRANCH  15  18
BRANCH  17  20
ATOM     20  O   UNL     1       3.979  -2.695  13.999  1.00  0.00    -0.504 OA
ATOM     21  H   UNL     1       4.281  -2.218  13.158  1.00  0.00     0.293 HD
ENDBRANCH  17  20
ENDBRANCH   1  12
BRANCH   2  22
ATOM     22  O   UNL     1       7.966  -3.900  17.934  1.00  0.00    -0.502 OA
ATOM     23  H   UNL     1       8.284  -4.384  18.765  1.00  0.00     0.293 HD
ENDBRANCH   2  22
BRANCH   9  24
ATOM     24  O   UNL     1      12.129   2.321  15.857  1.00  0.00    -0.508 OA
ATOM     25  H   UNL     1      11.526   3.101  15.621  1.00  0.00     0.293 HD
ENDBRANCH   9  24
TORSDOF 5
ENDMDL
MODEL 6
REMARK VINA RESULT:    -5.628      3.450      7.097
REMARK INTER + INTRA:          -6.632
REMARK INTER:                  -6.317
REMARK INTRA:                  -0.316
REMARK UNBOUND:                -0.017
REMARK SMILES O=c1c(O)c(-c2ccc(O)c(O)c2)oc2cc(O)ccc12
REMARK SMILES IDX 5 1 3 2 2 3 1 4 21 5 15 6 14 7 16 8 17 9 19 10 20 11 6 12
REMARK SMILES IDX 7 13 8 14 9 15 13 16 11 17 10 18 12 20 4 22 18 24
REMARK H PARENT 10 19 12 21 4 23 18 25
REMARK Flexibility Score: inf
ROOT
ATOM      1  C   UNL     1       7.407  -2.209  16.685  1.00  0.00     0.180 A 
ATOM      2  C   UNL     1       6.186  -2.056  15.994  1.00  0.00     0.208 A 
ATOM      3  C   UNL     1       5.354  -3.174  15.836  1.00  0.00     0.235 A 
ATOM      4  O   UNL     1       4.262  -3.066  15.213  1.00  0.00    -0.285 OA
ATOM      5  C   UNL     1       5.743  -4.408  16.383  1.00  0.00     0.069 A 
ATOM      6  C   UNL     1       6.969  -4.473  17.080  1.00  0.00     0.142 A 
ATOM      7  O   UNL     1       7.732  -3.393  17.200  1.00  0.00    -0.452 OA
ATOM      8  C   UNL     1       7.387  -5.682  17.648  1.00  0.00     0.094 A 
ATOM      9  C   UNL     1       6.598  -6.830  17.526  1.00  0.00     0.119 A 
ATOM     10  C   UNL     1       5.381  -6.769  16.832  1.00  0.00     0.047 A 
ATOM     11  C   UNL     1       4.954  -5.566  16.263  1.00  0.00     0.020 A 
ENDROOT
BRANCH   1  12
ATOM     12  C   UNL     1       8.348  -1.082  16.878  1.00  0.00     0.025 A 
ATOM     13  C   UNL     1       8.225  -0.203  17.968  1.00  0.00     0.016 A 
ATOM     14  C   UNL     1       9.110   0.867  18.116  1.00  0.00     0.051 A 
ATOM     15  C   UNL     1      10.123   1.084  17.171  1.00  0.00     0.157 A 
ATOM     16  C   UNL     1       9.351  -0.848  15.922  1.00  0.00     0.062 A 
ATOM     17  C   UNL     1      10.240   0.222  16.068  1.00  0.00     0.158 A 
BRANCH  15  18
ATOM     18  O   UNL     1      11.005   2.151  17.323  1.00  0.00    -0.504 OA
ATOM     19  H   UNL     1      12.001   2.043  17.170  1.00  0.00     0.293 HD
ENDBRANCH  15  18
BRANCH  17  20
ATOM     20  O   UNL     1      11.232   0.414  15.107  1.00  0.00    -0.504 OA
ATOM     21  H   UNL     1      11.518  -0.323  14.474  1.00  0.00     0.293 HD
ENDBRANCH  17  20
ENDBRANCH   1  12
BRANCH   2  22
ATOM     22  O   UNL     1       5.802  -0.805  15.505  1.00  0.00    -0.502 OA
ATOM     23  H   UNL     1       4.998  -0.684  14.901  1.00  0.00     0.293 HD
ENDBRANCH   2  22
BRANCH   9  24
ATOM     24  O   UNL     1       7.029  -8.025  18.097  1.00  0.00    -0.508 OA
ATOM     25  H   UNL     1       7.394  -8.060  19.042  1.00  0.00     0.293 HD
ENDBRANCH   9  24
TORSDOF 5
ENDMDL
MODEL 7
REMARK VINA RESULT:    -5.557      4.647      6.992
REMARK INTER + INTRA:          -6.548
REMARK INTER:                  -6.280
REMARK INTRA:                  -0.269
REMARK UNBOUND:                -0.017
REMARK SMILES O=c1c(O)c(-c2ccc(O)c(O)c2)oc2cc(O)ccc12
REMARK SMILES IDX 5 1 3 2 2 3 1 4 21 5 15 6 14 7 16 8 17 9 19 10 20 11 6 12
REMARK SMILES IDX 7 13 8 14 9 15 13 16 11 17 10 18 12 20 4 22 18 24
REMARK H PARENT 10 19 12 21 4 23 18 25
REMARK Flexibility Score: inf
ROOT
ATOM      1  C   UNL     1       7.956  -0.932  16.568  1.00  0.00     0.180 A 
ATOM      2  C   UNL     1       7.663   0.236  17.303  1.00  0.00     0.208 A 
ATOM      3  C   UNL     1       8.666   1.204  17.463  1.00  0.00     0.235 A 
ATOM      4  O   UNL     1       8.431   2.253  18.125  1.00  0.00    -0.285 OA
ATOM      5  C   UNL     1       9.925   0.998  16.876  1.00  0.00     0.069 A 
ATOM      6  C   UNL     1      10.132  -0.187  16.137  1.00  0.00     0.142 A 
ATOM      7  O   UNL     1       9.159  -1.082  16.016  1.00  0.00    -0.452 OA
ATOM      8  C   UNL     1      11.370  -0.423  15.528  1.00  0.00     0.094 A 
ATOM      9  C   UNL     1      12.406   0.507  15.650  1.00  0.00     0.119 A 
ATOM     10  C   UNL     1      12.204   1.683  16.386  1.00  0.00     0.047 A 
ATOM     11  C   UNL     1      10.971   1.930  16.996  1.00  0.00     0.020 A 
ENDROOT
BRANCH   1  12
ATOM     12  C   UNL     1       6.959  -2.008  16.370  1.00  0.00     0.025 A 
ATOM     13  C   UNL     1       7.034  -3.217  17.083  1.00  0.00     0.016 A 
ATOM     14  C   UNL     1       6.094  -4.227  16.862  1.00  0.00     0.051 A 
ATOM     15  C   UNL     1       5.075  -4.050  15.917  1.00  0.00     0.157 A 
ATOM     16  C   UNL     1       5.948  -1.844  15.408  1.00  0.00     0.062 A 
ATOM     17  C   UNL     1       5.005  -2.853  15.185  1.00  0.00     0.158 A 
BRANCH  15  18
ATOM     18  O   UNL     1       4.138  -5.059  15.700  1.00  0.00    -0.504 OA
ATOM     19  H   UNL     1       3.245  -4.869  15.261  1.00  0.00     0.293 HD
ENDBRANCH  15  18
BRANCH  17  20
ATOM     20  O   UNL     1       4.008  -2.649  14.232  1.00  0.00    -0.504 OA
ATOM     21  H   UNL     1       3.898  -1.766  13.748  1.00  0.00     0.293 HD
ENDBRANCH  17  20
ENDBRANCH   1  12
BRANCH   2  22
ATOM     22  O   UNL     1       6.386   0.436  17.833  1.00  0.00    -0.502 OA
ATOM     23  H   UNL     1       6.088   1.330  18.205  1.00  0.00     0.293 HD
ENDBRANCH   2  22
BRANCH   9  24
ATOM     24  O   UNL     1      13.632   0.255  15.038  1.00  0.00    -0.508 OA
ATOM     25  H   UNL     1      13.806   0.512  14.074  1.00  0.00     0.293 HD
ENDBRANCH   9  24
TORSDOF 5
ENDMDL
MODEL 8
REMARK VINA RESULT:    -5.475      3.008      5.092
REMARK INTER + INTRA:          -6.453
REMARK INTER:                  -6.466
REMARK INTRA:                   0.014
REMARK UNBOUND:                -0.017
REMARK SMILES O=c1c(O)c(-c2ccc(O)c(O)c2)oc2cc(O)ccc12
REMARK SMILES IDX 5 1 3 2 2 3 1 4 21 5 15 6 14 7 16 8 17 9 19 10 20 11 6 12
REMARK SMILES IDX 7 13 8 14 9 15 13 16 11 17 10 18 12 20 4 22 18 24
REMARK H PARENT 10 19 12 21 4 23 18 25
REMARK Flexibility Score: inf
ROOT
ATOM      1  C   UNL     1       6.409  -3.501  17.253  1.00  0.00     0.180 A 
ATOM      2  C   UNL     1       6.219  -4.873  16.979  1.00  0.00     0.208 A 
ATOM      3  C   UNL     1       4.917  -5.394  17.008  1.00  0.00     0.235 A 
ATOM      4  O   UNL     1       4.722  -6.620  16.776  1.00  0.00    -0.285 OA
ATOM      5  C   UNL     1       3.837  -4.542  17.289  1.00  0.00     0.069 A 
ATOM      6  C   UNL     1       4.108  -3.177  17.530  1.00  0.00     0.142 A 
ATOM      7  O   UNL     1       5.356  -2.724  17.502  1.00  0.00    -0.452 OA
ATOM      8  C   UNL     1       3.058  -2.293  17.804  1.00  0.00     0.094 A 
ATOM      9  C   UNL     1       1.739  -2.755  17.842  1.00  0.00     0.119 A 
ATOM     10  C   UNL     1       1.467  -4.110  17.606  1.00  0.00     0.047 A 
ATOM     11  C   UNL     1       2.508  -5.000  17.330  1.00  0.00     0.020 A 
ENDROOT
BRANCH   1  12
ATOM     12  C   UNL     1       7.752  -2.880  17.260  1.00  0.00     0.025 A 
ATOM     13  C   UNL     1       8.831  -3.472  17.940  1.00  0.00     0.016 A 
ATOM     14  C   UNL     1      10.084  -2.854  17.952  1.00  0.00     0.051 A 
ATOM     15  C   UNL     1      10.275  -1.630  17.297  1.00  0.00     0.157 A 
ATOM     16  C   UNL     1       7.944  -1.642  16.623  1.00  0.00     0.062 A 
ATOM     17  C   UNL     1       9.198  -1.022  16.632  1.00  0.00     0.158 A 
BRANCH  15  18
ATOM     18  O   UNL     1      11.527  -1.018  17.309  1.00  0.00    -0.504 OA
ATOM     19  H   UNL     1      12.381  -1.557  17.388  1.00  0.00     0.293 HD
ENDBRANCH  15  18
BRANCH  17  20
ATOM     20  O   UNL     1       9.354   0.200  15.977  1.00  0.00    -0.504 OA
ATOM     21  H   UNL     1       9.082   0.331  15.010  1.00  0.00     0.293 HD
ENDBRANCH  17  20
ENDBRANCH   1  12
BRANCH   2  22
ATOM     22  O   UNL     1       7.307  -5.686  16.654  1.00  0.00    -0.502 OA
ATOM     23  H   UNL     1       7.400  -6.130  15.748  1.00  0.00     0.293 HD
ENDBRANCH   2  22
BRANCH   9  24
ATOM     24  O   UNL     1       0.706  -1.862  18.117  1.00  0.00    -0.508 OA
ATOM     25  H   UNL     1       0.527  -1.060  17.524  1.00  0.00     0.293 HD
ENDBRANCH   9  24
TORSDOF 5
ENDMDL
MODEL 9
REMARK VINA RESULT:    -5.473      4.952      7.689
REMARK INTER + INTRA:          -6.450
REMARK INTER:                  -6.155
REMARK INTRA:                  -0.295
REMARK UNBOUND:                -0.017
REMARK SMILES O=c1c(O)c(-c2ccc(O)c(O)c2)oc2cc(O)ccc12
REMARK SMILES IDX 5 1 3 2 2 3 1 4 21 5 15 6 14 7 16 8 17 9 19 10 20 11 6 12
REMARK SMILES IDX 7 13 8 14 9 15 13 16 11 17 10 18 12 20 4 22 18 24
REMARK H PARENT 10 19 12 21 4 23 18 25
REMARK Flexibility Score: inf
ROOT
ATOM      1  C   UNL     1       9.145  -1.485  17.027  1.00  0.00     0.180 A 
ATOM      2  C   UNL     1       7.906  -0.846  16.809  1.00  0.00     0.208 A 
ATOM      3  C   UNL     1       6.730  -1.609  16.879  1.00  0.00     0.235 A 
ATOM      4  O   UNL     1       5.610  -1.063  16.678  1.00  0.00    -0.285 OA
ATOM      5  C   UNL     1       6.812  -2.978  17.182  1.00  0.00     0.069 A 
ATOM      6  C   UNL     1       8.088  -3.537  17.409  1.00  0.00     0.142 A 
ATOM      7  O   UNL     1       9.177  -2.783  17.325  1.00  0.00    -0.452 OA
ATOM      8  C   UNL     1       8.210  -4.895  17.724  1.00  0.00     0.094 A 
ATOM      9  C   UNL     1       7.073  -5.705  17.812  1.00  0.00     0.119 A 
ATOM     10  C   UNL     1       5.805  -5.153  17.584  1.00  0.00     0.047 A 
ATOM     11  C   UNL     1       5.672  -3.797  17.271  1.00  0.00     0.020 A 
ENDROOT
BRANCH   1  12
ATOM     12  C   UNL     1      10.430  -0.754  16.952  1.00  0.00     0.025 A 
ATOM     13  C   UNL     1      11.059  -0.258  18.108  1.00  0.00     0.016 A 
ATOM     14  C   UNL     1      12.260   0.449  18.010  1.00  0.00     0.051 A 
ATOM     15  C   UNL     1      12.843   0.684  16.757  1.00  0.00     0.157 A 
ATOM     16  C   UNL     1      11.007  -0.498  15.697  1.00  0.00     0.062 A 
ATOM     17  C   UNL     1      12.211   0.209  15.596  1.00  0.00     0.158 A 
BRANCH  15  18
ATOM     18  O   UNL     1      14.042   1.388  16.664  1.00  0.00    -0.504 OA
ATOM     19  H   UNL     1      14.130   2.210  16.078  1.00  0.00     0.293 HD
ENDBRANCH  15  18
BRANCH  17  20
ATOM     20  O   UNL     1      12.761   0.432  14.334  1.00  0.00    -0.504 OA
ATOM     21  H   UNL     1      13.183  -0.311  13.792  1.00  0.00     0.293 HD
ENDBRANCH  17  20
ENDBRANCH   1  12
BRANCH   2  22
ATOM     22  O   UNL     1       7.852   0.527  16.559  1.00  0.00    -0.502 OA
ATOM     23  H   UNL     1       7.823   1.213  17.303  1.00  0.00     0.293 HD
ENDBRANCH   2  22
BRANCH   9  24
ATOM     24  O   UNL     1       7.213  -7.055  18.125  1.00  0.00    -0.508 OA
ATOM     25  H   UNL     1       7.620  -7.356  19.003  1.00  0.00     0.293 HD
ENDBRANCH   9  24
TORSDOF 5
ENDMDL
