MODEL 1
REMARK VINA RESULT:    -3.249      0.000      0.000
REMARK INTER + INTRA:          -4.201
REMARK INTER:                  -4.104
REMARK INTRA:                  -0.097
REMARK UNBOUND:                -0.097
REMARK SMILES CCCCCCO
REMARK SMILES IDX 4 1 3 2 2 3 1 4 5 5 6 6 7 7
REMARK H PARENT 7 8
REMARK Flexibility Score: inf
ROOT
ATOM      1  C   UNL     1      36.812  -5.054  24.407  1.00  0.00     0.002 C 
ENDROOT
BRANCH   1   2
ATOM      2  C   UNL     1      37.015  -6.357  25.198  1.00  0.00    -0.000 C 
BRANCH   2   3
ATOM      3  C   UNL     1      35.684  -7.025  25.581  1.00  0.00    -0.003 C 
ATOM      4  C   UNL     1      35.711  -8.543  25.402  1.00  0.00     0.004 C 
ENDBRANCH   2   3
ENDBRANCH   1   2
BRANCH   1   5
ATOM      5  C   UNL     1      35.350  -4.846  23.974  1.00  0.00     0.028 C 
BRANCH   5   6
ATOM      6  C   UNL     1      35.113  -3.533  23.215  1.00  0.00     0.156 C 
BRANCH   6   7
ATOM      7  O   UNL     1      34.283  -3.734  22.103  1.00  0.00    -0.396 OA
ATOM      8  H   UNL     1      33.489  -4.234  22.428  1.00  0.00     0.210 HD
ENDBRANCH   6   7
ENDBRANCH   5   6
ENDBRANCH   1   5
TORSDOF 5
ENDMDL
MODEL 2
REMARK VINA RESULT:    -2.786      2.163      3.936
REMARK INTER + INTRA:          -3.616
REMARK INTER:                  -3.509
REMARK INTRA:                  -0.107
REMARK UNBOUND:                -0.097
REMARK SMILES CCCCCCO
REMARK SMILES IDX 4 1 3 2 2 3 1 4 5 5 6 6 7 7
REMARK H PARENT 7 8
REMARK Flexibility Score: inf
ROOT
ATOM      1  C   UNL     1      36.587  -6.411  25.154  1.00  0.00     0.002 C 
ENDROOT
BRANCH   1   2
ATOM      2  C   UNL     1      36.808  -5.084  24.409  1.00  0.00    -0.000 C 
BRANCH   2   3
ATOM      3  C   UNL     1      35.515  -4.542  23.777  1.00  0.00    -0.003 C 
ATOM      4  C   UNL     1      35.484  -3.015  23.710  1.00  0.00     0.004 C 
ENDBRANCH   2   3
ENDBRANCH   1   2
BRANCH   1   5
ATOM      5  C   UNL     1      35.098  -6.785  25.268  1.00  0.00     0.028 C 
BRANCH   5   6
ATOM      6  C   UNL     1      34.800  -8.246  24.906  1.00  0.00     0.156 C 
BRANCH   6   7
ATOM      7  O   UNL     1      33.423  -8.459  24.756  1.00  0.00    -0.396 OA
ATOM      8  H   UNL     1      33.215  -8.312  23.796  1.00  0.00     0.210 HD
ENDBRANCH   6   7
ENDBRANCH   5   6
ENDBRANCH   1   5
TORSDOF 5
ENDMDL
MODEL 3
REMARK VINA RESULT:    -2.633      2.195      2.878
REMARK INTER + INTRA:          -3.422
REMARK INTER:                  -3.354
REMARK INTRA:                  -0.068
REMARK UNBOUND:                -0.097
REMARK SMILES CCCCCCO
REMARK SMILES IDX 4 1 3 2 2 3 1 4 5 5 6 6 7 7
REMARK H PARENT 7 8
REMARK Flexibility Score: inf
ROOT
ATOM      1  C   UNL     1      34.537  -7.116  24.878  1.00  0.00     0.002 C 
ENDROOT
BRANCH   1   2
ATOM      2  C   UNL     1      34.157  -7.934  26.123  1.00  0.00    -0.000 C 
BRANCH   2   3
ATOM      3  C   UNL     1      32.920  -8.818  25.891  1.00  0.00    -0.003 C 
ATOM      4  C   UNL     1      31.785  -8.076  25.186  1.00  0.00     0.004 C 
ENDBRANCH   2   3
ENDBRANCH   1   2
BRANCH   1   5
ATOM      5  C   UNL     1      35.710  -6.154  25.138  1.00  0.00     0.028 C 
BRANCH   5   6
ATOM      6  C   UNL     1      35.734  -4.943  24.195  1.00  0.00     0.156 C 
BRANCH   6   7
ATOM      7  O   UNL     1      34.437  -4.566  23.822  1.00  0.00    -0.396 OA
ATOM      8  H   UNL     1      34.452  -3.581  23.699  1.00  0.00     0.210 HD
ENDBRANCH   6   7
ENDBRANCH   5   6
ENDBRANCH   1   5
TORSDOF 5
ENDMDL
MODEL 4
REMARK VINA RESULT:    -2.628     15.872     16.952
REMARK INTER + INTRA:          -3.417
REMARK INTER:                  -3.345
REMARK INTRA:                  -0.072
REMARK UNBOUND:                -0.097
REMARK SMILES CCCCCCO
REMARK SMILES IDX 4 1 3 2 2 3 1 4 5 5 6 6 7 7
REMARK H PARENT 7 8
REMARK Flexibility Score: inf
ROOT
ATOM      1  C   UNL     1      30.429 -20.028  22.127  1.00  0.00     0.002 C 
ENDROOT
BRANCH   1   2
ATOM      2  C   UNL     1      29.018 -19.897  21.530  1.00  0.00    -0.000 C 
BRANCH   2   3
ATOM      3  C   UNL     1      28.729 -18.481  21.007  1.00  0.00    -0.003 C 
ATOM      4  C   UNL     1      27.702 -18.465  19.875  1.00  0.00     0.004 C 
ENDBRANCH   2   3
ENDBRANCH   1   2
BRANCH   1   5
ATOM      5  C   UNL     1      30.978 -21.462  22.037  1.00  0.00     0.028 C 
BRANCH   5   6
ATOM      6  C   UNL     1      29.887 -22.541  22.012  1.00  0.00     0.156 C 
BRANCH   6   7
ATOM      7  O   UNL     1      29.722 -23.123  23.276  1.00  0.00    -0.396 OA
ATOM      8  H   UNL     1      29.988 -24.075  23.188  1.00  0.00     0.210 HD
ENDBRANCH   6   7
ENDBRANCH   5   6
ENDBRANCH   1   5
TORSDOF 5
ENDMDL
MODEL 5
REMARK VINA RESULT:    -2.628     14.378     15.108
REMARK INTER + INTRA:          -3.416
REMARK INTER:                  -3.339
REMARK INTRA:                  -0.077
REMARK UNBOUND:                -0.097
REMARK SMILES CCCCCCO
REMARK SMILES IDX 4 1 3 2 2 3 1 4 5 5 6 6 7 7
REMARK H PARENT 7 8
REMARK Flexibility Score: inf
ROOT
ATOM      1  C   UNL     1      34.986 -10.025  37.106  1.00  0.00     0.002 C 
ENDROOT
BRANCH   1   2
ATOM      2  C   UNL     1      33.664 -10.634  37.601  1.00  0.00    -0.000 C 
BRANCH   2   3
ATOM      3  C   UNL     1      32.913 -11.391  36.493  1.00  0.00    -0.003 C 
ATOM      4  C   UNL     1      31.463 -11.698  36.864  1.00  0.00     0.004 C 
ENDBRANCH   2   3
ENDBRANCH   1   2
BRANCH   1   5
ATOM      5  C   UNL     1      36.220 -10.720  37.710  1.00  0.00     0.028 C 
BRANCH   5   6
ATOM      6  C   UNL     1      35.922 -11.490  39.003  1.00  0.00     0.156 C 
BRANCH   6   7
ATOM      7  O   UNL     1      36.895 -11.236  39.980  1.00  0.00    -0.396 OA
ATOM      8  H   UNL     1      37.688 -11.783  39.740  1.00  0.00     0.210 HD
ENDBRANCH   6   7
ENDBRANCH   5   6
ENDBRANCH   1   5
TORSDOF 5
ENDMDL
MODEL 6
REMARK VINA RESULT:    -2.569     13.788     14.830
REMARK INTER + INTRA:          -3.342
REMARK INTER:                  -3.226
REMARK INTRA:                  -0.115
REMARK UNBOUND:                -0.097
REMARK SMILES CCCCCCO
REMARK SMILES IDX 4 1 3 2 2 3 1 4 5 5 6 6 7 7
REMARK H PARENT 7 8
REMARK Flexibility Score: inf
ROOT
ATOM      1  C   UNL     1      34.728 -10.085  36.752  1.00  0.00     0.002 C 
ENDROOT
BRANCH   1   2
ATOM      2  C   UNL     1      35.871 -10.730  37.553  1.00  0.00    -0.000 C 
BRANCH   2   3
ATOM      3  C   UNL     1      35.360 -11.577  38.730  1.00  0.00    -0.003 C 
ATOM      4  C   UNL     1      36.391 -11.717  39.850  1.00  0.00     0.004 C 
ENDBRANCH   2   3
ENDBRANCH   1   2
BRANCH   1   5
ATOM      5  C   UNL     1      33.374 -10.170  37.480  1.00  0.00     0.028 C 
BRANCH   5   6
ATOM      6  C   UNL     1      32.312 -10.970  36.715  1.00  0.00     0.156 C 
BRANCH   6   7
ATOM      7  O   UNL     1      31.528 -11.736  37.588  1.00  0.00    -0.396 OA
ATOM      8  H   UNL     1      31.633 -12.683  37.309  1.00  0.00     0.210 HD
ENDBRANCH   6   7
ENDBRANCH   5   6
ENDBRANCH   1   5
TORSDOF 5
ENDMDL
MODEL 7
REMARK VINA RESULT:    -2.554     15.592     17.541
REMARK INTER + INTRA:          -3.323
REMARK INTER:                  -3.174
REMARK INTRA:                  -0.149
REMARK UNBOUND:                -0.097
REMARK SMILES CCCCCCO
REMARK SMILES IDX 4 1 3 2 2 3 1 4 5 5 6 6 7 7
REMARK H PARENT 7 8
REMARK Flexibility Score: inf
ROOT
ATOM      1  C   UNL     1      29.993 -22.416  22.005  1.00  0.00     0.002 C 
ENDROOT
BRANCH   1   2
ATOM      2  C   UNL     1      29.749 -22.916  20.571  1.00  0.00    -0.000 C 
BRANCH   2   3
ATOM      3  C   UNL     1      28.255 -22.958  20.209  1.00  0.00    -0.003 C 
ATOM      4  C   UNL     1      27.346 -22.842  21.432  1.00  0.00     0.004 C 
ENDBRANCH   2   3
ENDBRANCH   1   2
BRANCH   1   5
ATOM      5  C   UNL     1      30.765 -21.084  22.043  1.00  0.00     0.028 C 
BRANCH   5   6
ATOM      6  C   UNL     1      29.887 -19.855  21.770  1.00  0.00     0.156 C 
BRANCH   6   7
ATOM      7  O   UNL     1      30.413 -18.711  22.386  1.00  0.00    -0.396 OA
ATOM      8  H   UNL     1      30.892 -19.020  23.198  1.00  0.00     0.210 HD
ENDBRANCH   6   7
ENDBRANCH   5   6
ENDBRANCH   1   5
TORSDOF 5
ENDMDL
MODEL 8
REMARK VINA RESULT:    -2.552     19.238     21.081
REMARK INTER + INTRA:          -3.320
REMARK INTER:                  -3.185
REMARK INTRA:                  -0.136
REMARK UNBOUND:                -0.097
REMARK SMILES CCCCCCO
REMARK SMILES IDX 4 1 3 2 2 3 1 4 5 5 6 6 7 7
REMARK H PARENT 7 8
REMARK Flexibility Score: inf
ROOT
ATOM      1  C   UNL     1      26.704 -20.450  36.744  1.00  0.00     0.002 C 
ENDROOT
BRANCH   1   2
ATOM      2  C   UNL     1      26.957 -18.933  36.710  1.00  0.00    -0.000 C 
BRANCH   2   3
ATOM      3  C   UNL     1      28.257 -18.570  35.975  1.00  0.00    -0.003 C 
ATOM      4  C   UNL     1      28.937 -17.329  36.553  1.00  0.00     0.004 C 
ENDBRANCH   2   3
ENDBRANCH   1   2
BRANCH   1   5
ATOM      5  C   UNL     1      27.687 -21.234  35.857  1.00  0.00     0.028 C 
BRANCH   5   6
ATOM      6  C   UNL     1      28.359 -22.412  36.574  1.00  0.00     0.156 C 
BRANCH   6   7
ATOM      7  O   UNL     1      28.170 -22.336  37.960  1.00  0.00    -0.396 OA
ATOM      8  H   UNL     1      27.228 -22.597  38.134  1.00  0.00     0.210 HD
ENDBRANCH   6   7
ENDBRANCH   5   6
ENDBRANCH   1   5
TORSDOF 5
ENDMDL
MODEL 9
REMARK VINA RESULT:    -2.497     16.214     17.389
REMARK INTER + INTRA:          -3.250
REMARK INTER:                  -3.118
REMARK INTRA:                  -0.132
REMARK UNBOUND:                -0.097
REMARK SMILES CCCCCCO
REMARK SMILES IDX 4 1 3 2 2 3 1 4 5 5 6 6 7 7
REMARK H PARENT 7 8
REMARK Flexibility Score: inf
ROOT
ATOM      1  C   UNL     1      28.669 -22.000  22.609  1.00  0.00     0.002 C 
ENDROOT
BRANCH   1   2
ATOM      2  C   UNL     1      28.566 -22.441  24.078  1.00  0.00    -0.000 C 
BRANCH   2   3
ATOM      3  C   UNL     1      28.265 -21.268  25.025  1.00  0.00    -0.003 C 
ATOM      4  C   UNL     1      29.392 -20.237  25.067  1.00  0.00     0.004 C 
ENDBRANCH   2   3
ENDBRANCH   1   2
BRANCH   1   5
ATOM      5  C   UNL     1      30.021 -22.370  21.973  1.00  0.00     0.028 C 
BRANCH   5   6
ATOM      6  C   UNL     1      30.970 -21.176  21.805  1.00  0.00     0.156 C 
BRANCH   6   7
ATOM      7  O   UNL     1      32.224 -21.588  21.333  1.00  0.00    -0.396 OA
ATOM      8  H   UNL     1      32.134 -22.546  21.087  1.00  0.00     0.210 HD
ENDBRANCH   6   7
ENDBRANCH   5   6
ENDBRANCH   1   5
TORSDOF 5
ENDMDL
