MODEL 1
REMARK VINA RESULT:    -3.803      0.000      0.000
REMARK INTER + INTRA:          -6.515
REMARK INTER:                  -5.805
REMARK INTRA:                  -0.710
REMARK UNBOUND:                -0.710
REMARK SMILES CCCCCCCCCCC(=O)[O-]
REMARK SMILES IDX 7 1 8 2 9 3 10 4 11 5 12 6 13 7 6 8 5 9 4 10 3 11 2 12 1 13
REMARK H PARENT
REMARK Flexibility Score: inf
ROOT
ATOM      1  C   UNL     1       4.429   4.874   1.705  1.00  0.00     0.000 C 
ENDROOT
BRANCH   1   2
ATOM      2  C   UNL     1       5.544   4.142   0.942  1.00  0.00     0.000 C 
BRANCH   2   3
ATOM      3  C   UNL     1       6.949   4.576   1.387  1.00  0.00     0.006 C 
BRANCH   3   4
ATOM      4  C   UNL     1       7.764   5.201   0.247  1.00  0.00     0.053 C 
BRANCH   4   5
ATOM      5  C   UNL     1       7.469   6.663   0.134  1.00  0.00     0.041 C 
ATOM      6  O   UNL     1       7.490   7.396   1.158  1.00  0.00    -0.550 OA
ATOM      7  O   UNL     1       7.218   7.227  -1.111  1.00  0.00    -0.550 OA
ENDBRANCH   4   5
ENDBRANCH   3   4
ENDBRANCH   2   3
ENDBRANCH   1   2
BRANCH   1   8
ATOM      8  C   UNL     1       4.005   6.151   0.965  1.00  0.00     0.000 C 
BRANCH   8   9
ATOM      9  C   UNL     1       3.545   7.269   1.918  1.00  0.00    -0.000 C 
BRANCH   9  10
ATOM     10  C   UNL     1       4.137   7.201   3.339  1.00  0.00    -0.000 C 
BRANCH  10  11
ATOM     11  C   UNL     1       3.172   7.603   4.472  1.00  0.00    -0.000 C 
BRANCH  11  12
ATOM     12  C   UNL     1       1.794   8.099   4.002  1.00  0.00    -0.003 C 
ATOM     13  C   UNL     1       0.746   8.083   5.114  1.00  0.00     0.004 C 
ENDBRANCH  11  12
ENDBRANCH  10  11
ENDBRANCH   9  10
ENDBRANCH   8   9
ENDBRANCH   1   8
TORSDOF 9
ENDMDL
MODEL 2
REMARK VINA RESULT:    -3.771      2.570      5.255
REMARK INTER + INTRA:          -6.465
REMARK INTER:                  -5.314
REMARK INTRA:                  -1.151
REMARK UNBOUND:                -0.710
REMARK SMILES CCCCCCCCCCC(=O)[O-]
REMARK SMILES IDX 7 1 8 2 9 3 10 4 11 5 12 6 13 7 6 8 5 9 4 10 3 11 2 12 1 13
REMARK H PARENT
REMARK Flexibility Score: inf
ROOT
ATOM      1  C   UNL     1       4.400   4.948   0.790  1.00  0.00     0.000 C 
ENDROOT
BRANCH   1   2
ATOM      2  C   UNL     1       4.041   5.640   2.114  1.00  0.00     0.000 C 
BRANCH   2   3
ATOM      3  C   UNL     1       3.285   6.961   1.905  1.00  0.00     0.006 C 
BRANCH   3   4
ATOM      4  C   UNL     1       3.833   8.100   2.774  1.00  0.00     0.053 C 
BRANCH   4   5
ATOM      5  C   UNL     1       3.642   7.789   4.224  1.00  0.00     0.041 C 
ATOM      6  O   UNL     1       2.506   7.459   4.658  1.00  0.00    -0.550 OA
ATOM      7  O   UNL     1       4.728   7.815   5.089  1.00  0.00    -0.550 OA
ENDBRANCH   4   5
ENDBRANCH   3   4
ENDBRANCH   2   3
ENDBRANCH   1   2
BRANCH   1   8
ATOM      8  C   UNL     1       5.612   4.021   0.966  1.00  0.00     0.000 C 
BRANCH   8   9
ATOM      9  C   UNL     1       6.886   4.776   1.385  1.00  0.00    -0.000 C 
BRANCH   9  10
ATOM     10  C   UNL     1       7.632   5.485   0.237  1.00  0.00    -0.000 C 
BRANCH  10  11
ATOM     11  C   UNL     1       8.008   6.956   0.509  1.00  0.00    -0.000 C 
BRANCH  11  12
ATOM     12  C   UNL     1       6.819   7.931   0.547  1.00  0.00    -0.003 C 
ATOM     13  C   UNL     1       5.980   7.895  -0.731  1.00  0.00     0.004 C 
ENDBRANCH  11  12
ENDBRANCH  10  11
ENDBRANCH   9  10
ENDBRANCH   8   9
ENDBRANCH   1   8
TORSDOF 9
ENDMDL
MODEL 3
REMARK VINA RESULT:    -2.976      2.035      3.144
REMARK INTER + INTRA:          -5.253
REMARK INTER:                  -4.473
REMARK INTRA:                  -0.780
REMARK UNBOUND:                -0.710
REMARK SMILES CCCCCCCCCCC(=O)[O-]
REMARK SMILES IDX 7 1 8 2 9 3 10 4 11 5 12 6 13 7 6 8 5 9 4 10 3 11 2 12 1 13
REMARK H PARENT
REMARK Flexibility Score: inf
ROOT
ATOM      1  C   UNL     1       8.121   5.564   2.508  1.00  0.00     0.000 C 
ENDROOT
BRANCH   1   2
ATOM      2  C   UNL     1       7.767   4.906   1.166  1.00  0.00     0.000 C 
BRANCH   2   3
ATOM      3  C   UNL     1       6.671   3.836   1.301  1.00  0.00     0.006 C 
BRANCH   3   4
ATOM      4  C   UNL     1       5.258   4.430   1.277  1.00  0.00     0.053 C 
BRANCH   4   5
ATOM      5  C   UNL     1       4.819   4.675  -0.133  1.00  0.00     0.041 C 
ATOM      6  O   UNL     1       4.031   3.873  -0.700  1.00  0.00    -0.550 OA
ATOM      7  O   UNL     1       5.241   5.816  -0.803  1.00  0.00    -0.550 OA
ENDBRANCH   4   5
ENDBRANCH   3   4
ENDBRANCH   2   3
ENDBRANCH   1   2
BRANCH   1   8
ATOM      8  C   UNL     1       7.996   7.092   2.419  1.00  0.00     0.000 C 
BRANCH   8   9
ATOM      9  C   UNL     1       6.625   7.608   2.892  1.00  0.00    -0.000 C 
BRANCH   9  10
ATOM     10  C   UNL     1       5.648   7.993   1.764  1.00  0.00    -0.000 C 
BRANCH  10  11
ATOM     11  C   UNL     1       4.172   8.124   2.191  1.00  0.00    -0.000 C 
BRANCH  11  12
ATOM     12  C   UNL     1       3.627   6.938   3.005  1.00  0.00    -0.003 C 
ATOM     13  C   UNL     1       3.319   7.306   4.457  1.00  0.00     0.004 C 
ENDBRANCH  11  12
ENDBRANCH  10  11
ENDBRANCH   9  10
ENDBRANCH   8   9
ENDBRANCH   1   8
TORSDOF 9
ENDMDL
MODEL 4
REMARK VINA RESULT:    -2.832     21.369     22.339
REMARK INTER + INTRA:          -5.032
REMARK INTER:                  -4.472
REMARK INTRA:                  -0.559
REMARK UNBOUND:                -0.710
REMARK SMILES CCCCCCCCCCC(=O)[O-]
REMARK SMILES IDX 7 1 8 2 9 3 10 4 11 5 12 6 13 7 6 8 5 9 4 10 3 11 2 12 1 13
REMARK H PARENT
REMARK Flexibility Score: inf
ROOT
ATOM      1  C   UNL     1      -8.718 -11.985   0.516  1.00  0.00     0.000 C 
ENDROOT
BRANCH   1   2
ATOM      2  C   UNL     1      -8.213 -12.118   1.961  1.00  0.00     0.000 C 
BRANCH   2   3
ATOM      3  C   UNL     1      -6.679 -12.118   2.054  1.00  0.00     0.006 C 
BRANCH   3   4
ATOM      4  C   UNL     1      -6.117 -10.784   2.560  1.00  0.00     0.053 C 
BRANCH   4   5
ATOM      5  C   UNL     1      -5.517 -10.952   3.921  1.00  0.00     0.041 C 
ATOM      6  O   UNL     1      -4.301 -10.688   4.115  1.00  0.00    -0.550 OA
ATOM      7  O   UNL     1      -6.314 -11.354   4.986  1.00  0.00    -0.550 OA
ENDBRANCH   4   5
ENDBRANCH   3   4
ENDBRANCH   2   3
ENDBRANCH   1   2
BRANCH   1   8
ATOM      8  C   UNL     1     -10.252 -12.026   0.466  1.00  0.00     0.000 C 
BRANCH   8   9
ATOM      9  C   UNL     1     -10.902 -11.798   1.842  1.00  0.00    -0.000 C 
BRANCH   9  10
ATOM     10  C   UNL     1     -11.801 -10.550   1.941  1.00  0.00    -0.000 C 
BRANCH  10  11
ATOM     11  C   UNL     1     -12.110  -9.856   0.599  1.00  0.00    -0.000 C 
BRANCH  11  12
ATOM     12  C   UNL     1     -11.884  -8.334   0.591  1.00  0.00    -0.003 C 
ATOM     13  C   UNL     1     -12.052  -7.702   1.972  1.00  0.00     0.004 C 
ENDBRANCH  11  12
ENDBRANCH  10  11
ENDBRANCH   9  10
ENDBRANCH   8   9
ENDBRANCH   1   8
TORSDOF 9
ENDMDL
MODEL 5
REMARK VINA RESULT:    -2.811      2.610      5.227
REMARK INTER + INTRA:          -5.001
REMARK INTER:                  -4.088
REMARK INTRA:                  -0.913
REMARK UNBOUND:                -0.710
REMARK SMILES CCCCCCCCCCC(=O)[O-]
REMARK SMILES IDX 7 1 8 2 9 3 10 4 11 5 12 6 13 7 6 8 5 9 4 10 3 11 2 12 1 13
REMARK H PARENT
REMARK Flexibility Score: inf
ROOT
ATOM      1  C   UNL     1       8.100   6.705   1.997  1.00  0.00     0.000 C 
ENDROOT
BRANCH   1   2
ATOM      2  C   UNL     1       7.388   7.551   3.063  1.00  0.00     0.000 C 
BRANCH   2   3
ATOM      3  C   UNL     1       5.883   7.701   2.791  1.00  0.00     0.006 C 
BRANCH   3   4
ATOM      4  C   UNL     1       5.075   7.969   4.068  1.00  0.00     0.053 C 
BRANCH   4   5
ATOM      5  C   UNL     1       3.680   7.448   3.922  1.00  0.00     0.041 C 
ATOM      6  O   UNL     1       2.727   8.012   4.520  1.00  0.00    -0.550 OA
ATOM      7  O   UNL     1       3.426   6.368   3.085  1.00  0.00    -0.550 OA
ENDBRANCH   4   5
ENDBRANCH   3   4
ENDBRANCH   2   3
ENDBRANCH   1   2
BRANCH   1   8
ATOM      8  C   UNL     1       8.027   5.211   2.343  1.00  0.00     0.000 C 
BRANCH   8   9
ATOM      9  C   UNL     1       7.365   4.372   1.235  1.00  0.00    -0.000 C 
BRANCH   9  10
ATOM     10  C   UNL     1       5.837   4.215   1.359  1.00  0.00    -0.000 C 
BRANCH  10  11
ATOM     11  C   UNL     1       5.010   5.002   0.322  1.00  0.00    -0.000 C 
BRANCH  11  12
ATOM     12  C   UNL     1       5.826   5.961  -0.562  1.00  0.00    -0.003 C 
ATOM     13  C   UNL     1       5.354   7.411  -0.459  1.00  0.00     0.004 C 
ENDBRANCH  11  12
ENDBRANCH  10  11
ENDBRANCH   9  10
ENDBRANCH   8   9
ENDBRANCH   1   8
TORSDOF 9
ENDMDL
MODEL 6
REMARK VINA RESULT:    -2.655      2.925      5.847
REMARK INTER + INTRA:          -4.762
REMARK INTER:                  -3.895
REMARK INTRA:                  -0.867
REMARK UNBOUND:                -0.710
REMARK SMILES CCCCCCCCCCC(=O)[O-]
REMARK SMILES IDX 7 1 8 2 9 3 10 4 11 5 12 6 13 7 6 8 5 9 4 10 3 11 2 12 1 13
REMARK H PARENT
REMARK Flexibility Score: inf
ROOT
ATOM      1  C   UNL     1       4.448   8.063   1.354  1.00  0.00     0.000 C 
ENDROOT
BRANCH   1   2
ATOM      2  C   UNL     1       5.143   7.547   2.623  1.00  0.00     0.000 C 
BRANCH   2   3
ATOM      3  C   UNL     1       4.149   7.009   3.665  1.00  0.00     0.006 C 
BRANCH   3   4
ATOM      4  C   UNL     1       3.359   8.124   4.360  1.00  0.00     0.053 C 
BRANCH   4   5
ATOM      5  C   UNL     1       1.889   7.922   4.168  1.00  0.00     0.041 C 
ATOM      6  O   UNL     1       1.398   7.902   3.009  1.00  0.00    -0.550 OA
ATOM      7  O   UNL     1       1.069   7.706   5.268  1.00  0.00    -0.550 OA
ENDBRANCH   4   5
ENDBRANCH   3   4
ENDBRANCH   2   3
ENDBRANCH   1   2
BRANCH   1   8
ATOM      8  C   UNL     1       5.230   7.656   0.096  1.00  0.00     0.000 C 
BRANCH   8   9
ATOM      9  C   UNL     1       6.751   7.826   0.257  1.00  0.00    -0.000 C 
BRANCH   9  10
ATOM     10  C   UNL     1       7.577   6.542   0.047  1.00  0.00    -0.000 C 
BRANCH  10  11
ATOM     11  C   UNL     1       7.836   5.713   1.322  1.00  0.00    -0.000 C 
BRANCH  11  12
ATOM     12  C   UNL     1       7.362   4.251   1.250  1.00  0.00    -0.003 C 
ATOM     13  C   UNL     1       5.844   4.126   1.117  1.00  0.00     0.004 C 
ENDBRANCH  11  12
ENDBRANCH  10  11
ENDBRANCH   9  10
ENDBRANCH   8   9
ENDBRANCH   1   8
TORSDOF 9
ENDMDL
MODEL 7
REMARK VINA RESULT:    -2.478     21.887     23.142
REMARK INTER + INTRA:          -4.492
REMARK INTER:                  -4.379
REMARK INTRA:                  -0.113
REMARK UNBOUND:                -0.710
REMARK SMILES CCCCCCCCCCC(=O)[O-]
REMARK SMILES IDX 7 1 8 2 9 3 10 4 11 5 12 6 13 7 6 8 5 9 4 10 3 11 2 12 1 13
REMARK H PARENT
REMARK Flexibility Score: inf
ROOT
ATOM      1  C   UNL     1     -10.158 -10.417  -0.879  1.00  0.00     0.000 C 
ENDROOT
BRANCH   1   2
ATOM      2  C   UNL     1     -11.563 -10.981  -1.136  1.00  0.00     0.000 C 
BRANCH   2   3
ATOM      3  C   UNL     1     -11.919 -11.027  -2.630  1.00  0.00     0.006 C 
BRANCH   3   4
ATOM      4  C   UNL     1     -10.709 -10.761  -3.535  1.00  0.00     0.053 C 
BRANCH   4   5
ATOM      5  C   UNL     1     -11.096  -9.878  -4.678  1.00  0.00     0.041 C 
ATOM      6  O   UNL     1     -12.086  -9.105  -4.577  1.00  0.00    -0.550 OA
ATOM      7  O   UNL     1     -10.334  -9.871  -5.840  1.00  0.00    -0.550 OA
ENDBRANCH   4   5
ENDBRANCH   3   4
ENDBRANCH   2   3
ENDBRANCH   1   2
BRANCH   1   8
ATOM      8  C   UNL     1      -9.138 -11.549  -0.690  1.00  0.00     0.000 C 
BRANCH   8   9
ATOM      9  C   UNL     1      -8.712 -11.731   0.778  1.00  0.00    -0.000 C 
BRANCH   9  10
ATOM     10  C   UNL     1      -7.190 -11.723   1.021  1.00  0.00    -0.000 C 
BRANCH  10  11
ATOM     11  C   UNL     1      -6.757 -11.974   2.480  1.00  0.00    -0.000 C 
BRANCH  11  12
ATOM     12  C   UNL     1      -5.661 -11.029   3.001  1.00  0.00    -0.003 C 
ATOM     13  C   UNL     1      -5.606 -10.966   4.527  1.00  0.00     0.004 C 
ENDBRANCH  11  12
ENDBRANCH  10  11
ENDBRANCH   9  10
ENDBRANCH   8   9
ENDBRANCH   1   8
TORSDOF 9
ENDMDL
MODEL 8
REMARK VINA RESULT:    -2.310     21.523     22.550
REMARK INTER + INTRA:          -4.235
REMARK INTER:                  -4.013
REMARK INTRA:                  -0.222
REMARK UNBOUND:                -0.710
REMARK SMILES CCCCCCCCCCC(=O)[O-]
REMARK SMILES IDX 7 1 8 2 9 3 10 4 11 5 12 6 13 7 6 8 5 9 4 10 3 11 2 12 1 13
REMARK H PARENT
REMARK Flexibility Score: inf
ROOT
ATOM      1  C   UNL     1      -8.099 -11.832   7.110  1.00  0.00     0.000 C 
ENDROOT
BRANCH   1   2
ATOM      2  C   UNL     1      -7.999 -12.070   5.596  1.00  0.00     0.000 C 
BRANCH   2   3
ATOM      3  C   UNL     1      -6.545 -12.125   5.099  1.00  0.00     0.006 C 
BRANCH   3   4
ATOM      4  C   UNL     1      -5.982 -10.739   4.764  1.00  0.00     0.053 C 
BRANCH   4   5
ATOM      5  C   UNL     1      -5.369 -10.740   3.399  1.00  0.00     0.041 C 
ATOM      6  O   UNL     1      -4.141 -10.499   3.255  1.00  0.00    -0.550 OA
ATOM      7  O   UNL     1      -6.144 -11.057   2.291  1.00  0.00    -0.550 OA
ENDBRANCH   4   5
ENDBRANCH   3   4
ENDBRANCH   2   3
ENDBRANCH   1   2
BRANCH   1   8
ATOM      8  C   UNL     1      -9.518 -12.123   7.619  1.00  0.00     0.000 C 
BRANCH   8   9
ATOM      9  C   UNL     1      -9.806 -11.479   8.987  1.00  0.00    -0.000 C 
BRANCH   9  10
ATOM     10  C   UNL     1     -11.081 -10.615   9.045  1.00  0.00    -0.000 C 
BRANCH  10  11
ATOM     11  C   UNL     1     -11.038  -9.448  10.053  1.00  0.00    -0.000 C 
BRANCH  11  12
ATOM     12  C   UNL     1     -11.461  -9.816  11.486  1.00  0.00    -0.003 C 
ATOM     13  C   UNL     1     -10.974  -8.807  12.526  1.00  0.00     0.004 C 
ENDBRANCH  11  12
ENDBRANCH  10  11
ENDBRANCH   9  10
ENDBRANCH   8   9
ENDBRANCH   1   8
TORSDOF 9
ENDMDL
