MODEL 1
REMARK VINA RESULT:    -3.782      0.000      0.000
REMARK INTER + INTRA:          -7.154
REMARK INTER:                  -5.772
REMARK INTRA:                  -1.382
REMARK UNBOUND:                -1.382
REMARK SMILES CCCCCCCCCC=CC(=O)[O-]
REMARK SMILES IDX 7 1 8 2 9 3 10 4 11 5 12 6 13 7 14 8 6 9 5 10 4 11 3 12 2 13
REMARK SMILES IDX 1 14
REMARK H PARENT
REMARK Flexibility Score: inf
ROOT
ATOM      1  C   UNL     1      16.813  17.212  29.129  1.00  0.00     0.000 C 
ENDROOT
BRANCH   1   2
ATOM      2  C   UNL     1      18.117  16.461  28.834  1.00  0.00     0.004 C 
BRANCH   2   3
ATOM      3  C   UNL     1      18.457  16.516  27.340  1.00  0.00     0.027 C 
BRANCH   3   4
ATOM      4  C   UNL     1      19.622  17.427  27.080  1.00  0.00    -0.025 C 
ATOM      5  C   UNL     1      20.828  16.945  26.762  1.00  0.00     0.020 C 
BRANCH   5   6
ATOM      6  C   UNL     1      21.974  17.825  26.491  1.00  0.00     0.064 C 
ATOM      7  O   UNL     1      22.622  17.690  25.421  1.00  0.00    -0.545 OA
ATOM      8  O   UNL     1      22.355  18.805  27.401  1.00  0.00    -0.545 OA
ENDBRANCH   5   6
ENDBRANCH   3   4
ENDBRANCH   2   3
ENDBRANCH   1   2
BRANCH   1   9
ATOM      9  C   UNL     1      16.901  17.962  30.466  1.00  0.00     0.000 C 
BRANCH   9  10
ATOM     10  C   UNL     1      17.450  19.394  30.316  1.00  0.00     0.000 C 
BRANCH  10  11
ATOM     11  C   UNL     1      18.801  19.648  31.010  1.00  0.00    -0.000 C 
BRANCH  11  12
ATOM     12  C   UNL     1      20.036  19.511  30.102  1.00  0.00    -0.000 C 
BRANCH  12  13
ATOM     13  C   UNL     1      20.936  18.307  30.450  1.00  0.00    -0.003 C 
ATOM     14  C   UNL     1      20.449  17.542  31.679  1.00  0.00     0.004 C 
ENDBRANCH  12  13
ENDBRANCH  11  12
ENDBRANCH  10  11
ENDBRANCH   9  10
ENDBRANCH   1   9
TORSDOF 9
ENDMDL
MODEL 2
REMARK VINA RESULT:    -3.650     17.449     19.127
REMARK INTER + INTRA:          -6.953
REMARK INTER:                  -5.612
REMARK INTRA:                  -1.342
REMARK UNBOUND:                -1.382
REMARK SMILES CCCCCCCCCC=CC(=O)[O-]
REMARK SMILES IDX 7 1 8 2 9 3 10 4 11 5 12 6 13 7 14 8 6 9 5 10 4 11 3 12 2 13
REMARK SMILES IDX 1 14
REMARK H PARENT
REMARK Flexibility Score: inf
ROOT
ATOM      1  C   UNL     1      32.695  28.178  18.647  1.00  0.00     0.000 C 
ENDROOT
BRANCH   1   2
ATOM      2  C   UNL     1      34.154  28.040  18.198  1.00  0.00     0.004 C 
BRANCH   2   3
ATOM      3  C   UNL     1      34.928  27.093  19.123  1.00  0.00     0.027 C 
BRANCH   3   4
ATOM      4  C   UNL     1      34.286  27.011  20.478  1.00  0.00    -0.025 C 
ATOM      5  C   UNL     1      34.458  25.946  21.268  1.00  0.00     0.020 C 
BRANCH   5   6
ATOM      6  C   UNL     1      33.847  25.858  22.603  1.00  0.00     0.064 C 
ATOM      7  O   UNL     1      34.129  26.720  23.474  1.00  0.00    -0.545 OA
ATOM      8  O   UNL     1      32.962  24.832  22.919  1.00  0.00    -0.545 OA
ENDBRANCH   5   6
ENDBRANCH   3   4
ENDBRANCH   2   3
ENDBRANCH   1   2
BRANCH   1   9
ATOM      9  C   UNL     1      31.735  27.976  17.466  1.00  0.00     0.000 C 
BRANCH   9  10
ATOM     10  C   UNL     1      31.176  26.543  17.385  1.00  0.00     0.000 C 
BRANCH  10  11
ATOM     11  C   UNL     1      31.626  25.739  16.151  1.00  0.00    -0.000 C 
BRANCH  11  12
ATOM     12  C   UNL     1      32.661  24.635  16.434  1.00  0.00    -0.000 C 
BRANCH  12  13
ATOM     13  C   UNL     1      32.837  24.314  17.933  1.00  0.00    -0.003 C 
ATOM     14  C   UNL     1      34.134  23.562  18.228  1.00  0.00     0.004 C 
ENDBRANCH  12  13
ENDBRANCH  11  12
ENDBRANCH  10  11
ENDBRANCH   9  10
ENDBRANCH   1   9
TORSDOF 9
ENDMDL
MODEL 3
REMARK VINA RESULT:    -3.633      2.558      4.133
REMARK INTER + INTRA:          -6.927
REMARK INTER:                  -6.478
REMARK INTRA:                  -0.449
REMARK UNBOUND:                -1.382
REMARK SMILES CCCCCCCCCC=CC(=O)[O-]
REMARK SMILES IDX 7 1 8 2 9 3 10 4 11 5 12 6 13 7 14 8 6 9 5 10 4 11 3 12 2 13
REMARK SMILES IDX 1 14
REMARK H PARENT
REMARK Flexibility Score: inf
ROOT
ATOM      1  C   UNL     1      22.152  18.176  27.620  1.00  0.00     0.000 C 
ENDROOT
BRANCH   1   2
ATOM      2  C   UNL     1      21.815  17.719  26.197  1.00  0.00     0.004 C 
BRANCH   2   3
ATOM      3  C   UNL     1      22.230  16.260  25.974  1.00  0.00     0.027 C 
BRANCH   3   4
ATOM      4  C   UNL     1      23.212  16.139  24.844  1.00  0.00    -0.025 C 
ATOM      5  C   UNL     1      23.352  17.110  23.935  1.00  0.00     0.020 C 
BRANCH   5   6
ATOM      6  C   UNL     1      24.318  17.012  22.831  1.00  0.00     0.064 C 
ATOM      7  O   UNL     1      24.050  16.298  21.831  1.00  0.00    -0.545 OA
ATOM      8  O   UNL     1      25.528  17.698  22.876  1.00  0.00    -0.545 OA
ENDBRANCH   5   6
ENDBRANCH   3   4
ENDBRANCH   2   3
ENDBRANCH   1   2
BRANCH   1   9
ATOM      9  C   UNL     1      20.911  18.129  28.522  1.00  0.00     0.000 C 
BRANCH   9  10
ATOM     10  C   UNL     1      21.163  18.720  29.922  1.00  0.00     0.000 C 
BRANCH  10  11
ATOM     11  C   UNL     1      20.624  17.875  31.092  1.00  0.00    -0.000 C 
BRANCH  11  12
ATOM     12  C   UNL     1      19.335  18.410  31.743  1.00  0.00    -0.000 C 
BRANCH  12  13
ATOM     13  C   UNL     1      18.974  19.850  31.321  1.00  0.00    -0.003 C 
ATOM     14  C   UNL     1      17.663  19.925  30.539  1.00  0.00     0.004 C 
ENDBRANCH  12  13
ENDBRANCH  11  12
ENDBRANCH  10  11
ENDBRANCH   9  10
ENDBRANCH   1   9
TORSDOF 9
ENDMDL
MODEL 4
REMARK VINA RESULT:    -3.523     13.595     14.621
REMARK INTER + INTRA:          -6.759
REMARK INTER:                  -5.621
REMARK INTRA:                  -1.138
REMARK UNBOUND:                -1.382
REMARK SMILES CCCCCCCCCC=CC(=O)[O-]
REMARK SMILES IDX 7 1 8 2 9 3 10 4 11 5 12 6 13 7 14 8 6 9 5 10 4 11 3 12 2 13
REMARK SMILES IDX 1 14
REMARK H PARENT
REMARK Flexibility Score: inf
ROOT
ATOM      1  C   UNL     1      21.467  31.336  29.370  1.00  0.00     0.000 C 
ENDROOT
BRANCH   1   2
ATOM      2  C   UNL     1      21.460  31.220  27.841  1.00  0.00     0.004 C 
BRANCH   2   3
ATOM      3  C   UNL     1      21.557  32.602  27.185  1.00  0.00     0.027 C 
BRANCH   3   4
ATOM      4  C   UNL     1      21.720  32.488  25.696  1.00  0.00    -0.025 C 
ATOM      5  C   UNL     1      21.456  31.347  25.051  1.00  0.00     0.020 C 
BRANCH   5   6
ATOM      6  C   UNL     1      21.598  31.224  23.592  1.00  0.00     0.064 C 
ATOM      7  O   UNL     1      22.232  32.103  22.953  1.00  0.00    -0.545 OA
ATOM      8  O   UNL     1      21.041  30.149  22.907  1.00  0.00    -0.545 OA
ENDBRANCH   5   6
ENDBRANCH   3   4
ENDBRANCH   2   3
ENDBRANCH   1   2
BRANCH   1   9
ATOM      9  C   UNL     1      21.774  32.774  29.812  1.00  0.00     0.000 C 
BRANCH   9  10
ATOM     10  C   UNL     1      20.934  33.222  31.023  1.00  0.00     0.000 C 
BRANCH  10  11
ATOM     11  C   UNL     1      19.511  33.704  30.684  1.00  0.00    -0.000 C 
BRANCH  11  12
ATOM     12  C   UNL     1      18.400  32.663  30.910  1.00  0.00    -0.000 C 
BRANCH  12  13
ATOM     13  C   UNL     1      17.823  32.073  29.606  1.00  0.00    -0.003 C 
ATOM     14  C   UNL     1      18.041  32.985  28.399  1.00  0.00     0.004 C 
ENDBRANCH  12  13
ENDBRANCH  11  12
ENDBRANCH  10  11
ENDBRANCH   9  10
ENDBRANCH   1   9
TORSDOF 9
ENDMDL
MODEL 5
REMARK VINA RESULT:    -3.522     13.062     14.931
REMARK INTER + INTRA:          -6.758
REMARK INTER:                  -6.142
REMARK INTRA:                  -0.616
REMARK UNBOUND:                -1.382
REMARK SMILES CCCCCCCCCC=CC(=O)[O-]
REMARK SMILES IDX 7 1 8 2 9 3 10 4 11 5 12 6 13 7 14 8 6 9 5 10 4 11 3 12 2 13
REMARK SMILES IDX 1 14
REMARK H PARENT
REMARK Flexibility Score: inf
ROOT
ATOM      1  C   UNL     1      22.549  32.409  32.028  1.00  0.00     0.000 C 
ENDROOT
BRANCH   1   2
ATOM      2  C   UNL     1      23.939  32.796  32.547  1.00  0.00     0.004 C 
BRANCH   2   3
ATOM      3  C   UNL     1      24.220  32.145  33.906  1.00  0.00     0.027 C 
BRANCH   3   4
ATOM      4  C   UNL     1      23.823  30.697  33.909  1.00  0.00    -0.025 C 
ATOM      5  C   UNL     1      24.224  29.866  34.877  1.00  0.00     0.020 C 
BRANCH   5   6
ATOM      6  C   UNL     1      23.831  28.449  34.901  1.00  0.00     0.064 C 
ATOM      7  O   UNL     1      22.616  28.139  34.803  1.00  0.00    -0.545 OA
ATOM      8  O   UNL     1      24.784  27.444  35.031  1.00  0.00    -0.545 OA
ENDBRANCH   5   6
ENDBRANCH   3   4
ENDBRANCH   2   3
ENDBRANCH   1   2
BRANCH   1   9
ATOM      9  C   UNL     1      21.726  33.657  31.676  1.00  0.00     0.000 C 
BRANCH   9  10
ATOM     10  C   UNL     1      20.274  33.327  31.283  1.00  0.00     0.000 C 
BRANCH  10  11
ATOM     11  C   UNL     1      20.044  33.090  29.779  1.00  0.00    -0.000 C 
BRANCH  11  12
ATOM     12  C   UNL     1      20.023  31.613  29.347  1.00  0.00    -0.000 C 
BRANCH  12  13
ATOM     13  C   UNL     1      21.267  31.180  28.542  1.00  0.00    -0.003 C 
ATOM     14  C   UNL     1      21.550  32.098  27.353  1.00  0.00     0.004 C 
ENDBRANCH  12  13
ENDBRANCH  11  12
ENDBRANCH  10  11
ENDBRANCH   9  10
ENDBRANCH   1   9
TORSDOF 9
ENDMDL
MODEL 6
REMARK VINA RESULT:    -3.521     14.058     14.754
REMARK INTER + INTRA:          -6.756
REMARK INTER:                  -6.083
REMARK INTRA:                  -0.673
REMARK UNBOUND:                -1.382
REMARK SMILES CCCCCCCCCC=CC(=O)[O-]
REMARK SMILES IDX 7 1 8 2 9 3 10 4 11 5 12 6 13 7 14 8 6 9 5 10 4 11 3 12 2 13
REMARK SMILES IDX 1 14
REMARK H PARENT
REMARK Flexibility Score: inf
ROOT
ATOM      1  C   UNL     1      19.973  32.178  29.309  1.00  0.00     0.000 C 
ENDROOT
BRANCH   1   2
ATOM      2  C   UNL     1      21.220  31.800  28.501  1.00  0.00     0.004 C 
BRANCH   2   3
ATOM      3  C   UNL     1      21.848  33.037  27.848  1.00  0.00     0.027 C 
BRANCH   3   4
ATOM      4  C   UNL     1      21.833  32.929  26.350  1.00  0.00    -0.025 C 
ATOM      5  C   UNL     1      21.466  31.800  25.735  1.00  0.00     0.020 C 
BRANCH   5   6
ATOM      6  C   UNL     1      21.434  31.683  24.270  1.00  0.00     0.064 C 
ATOM      7  O   UNL     1      22.026  30.726  23.709  1.00  0.00    -0.545 OA
ATOM      8  O   UNL     1      20.757  32.617  23.492  1.00  0.00    -0.545 OA
ENDBRANCH   5   6
ENDBRANCH   3   4
ENDBRANCH   2   3
ENDBRANCH   1   2
BRANCH   1   9
ATOM      9  C   UNL     1      20.188  33.495  30.069  1.00  0.00     0.000 C 
BRANCH   9  10
ATOM     10  C   UNL     1      20.710  33.282  31.502  1.00  0.00     0.000 C 
BRANCH  10  11
ATOM     11  C   UNL     1      22.242  33.332  31.651  1.00  0.00    -0.000 C 
BRANCH  11  12
ATOM     12  C   UNL     1      22.903  32.000  32.049  1.00  0.00    -0.000 C 
BRANCH  12  13
ATOM     13  C   UNL     1      24.149  32.164  32.944  1.00  0.00    -0.003 C 
ATOM     14  C   UNL     1      24.238  31.097  34.034  1.00  0.00     0.004 C 
ENDBRANCH  12  13
ENDBRANCH  11  12
ENDBRANCH  10  11
ENDBRANCH   9  10
ENDBRANCH   1   9
TORSDOF 9
ENDMDL
MODEL 7
REMARK VINA RESULT:    -3.508     13.885     15.811
REMARK INTER + INTRA:          -6.736
REMARK INTER:                  -5.498
REMARK INTRA:                  -1.238
REMARK UNBOUND:                -1.382
REMARK SMILES CCCCCCCCCC=CC(=O)[O-]
REMARK SMILES IDX 7 1 8 2 9 3 10 4 11 5 12 6 13 7 14 8 6 9 5 10 4 11 3 12 2 13
REMARK SMILES IDX 1 14
REMARK H PARENT
REMARK Flexibility Score: inf
ROOT
ATOM      1  C   UNL     1      21.116  35.232  31.639  1.00  0.00     0.000 C 
ENDROOT
BRANCH   1   2
ATOM      2  C   UNL     1      21.368  33.799  32.121  1.00  0.00     0.004 C 
BRANCH   2   3
ATOM      3  C   UNL     1      22.800  33.354  31.799  1.00  0.00     0.027 C 
BRANCH   3   4
ATOM      4  C   UNL     1      23.076  31.979  32.334  1.00  0.00    -0.025 C 
ATOM      5  C   UNL     1      23.872  31.788  33.391  1.00  0.00     0.020 C 
BRANCH   5   6
ATOM      6  C   UNL     1      24.141  30.448  33.934  1.00  0.00     0.064 C 
ATOM      7  O   UNL     1      23.304  29.910  34.703  1.00  0.00    -0.545 OA
ATOM      8  O   UNL     1      25.310  29.766  33.612  1.00  0.00    -0.545 OA
ENDBRANCH   5   6
ENDBRANCH   3   4
ENDBRANCH   2   3
ENDBRANCH   1   2
BRANCH   1   9
ATOM      9  C   UNL     1      20.220  35.244  30.392  1.00  0.00     0.000 C 
BRANCH   9  10
ATOM     10  C   UNL     1      21.021  35.193  29.077  1.00  0.00     0.000 C 
BRANCH  10  11
ATOM     11  C   UNL     1      20.721  33.978  28.179  1.00  0.00    -0.000 C 
BRANCH  11  12
ATOM     12  C   UNL     1      21.792  32.872  28.198  1.00  0.00    -0.000 C 
BRANCH  12  13
ATOM     13  C   UNL     1      21.315  31.553  28.840  1.00  0.00    -0.003 C 
ATOM     14  C   UNL     1      19.903  31.653  29.416  1.00  0.00     0.004 C 
ENDBRANCH  12  13
ENDBRANCH  11  12
ENDBRANCH  10  11
ENDBRANCH   9  10
ENDBRANCH   1   9
TORSDOF 9
ENDMDL
MODEL 8
REMARK VINA RESULT:    -3.487     17.630     19.109
REMARK INTER + INTRA:          -6.703
REMARK INTER:                  -5.674
REMARK INTRA:                  -1.029
REMARK UNBOUND:                -1.382
REMARK SMILES CCCCCCCCCC=CC(=O)[O-]
REMARK SMILES IDX 7 1 8 2 9 3 10 4 11 5 12 6 13 7 14 8 6 9 5 10 4 11 3 12 2 13
REMARK SMILES IDX 1 14
REMARK H PARENT
REMARK Flexibility Score: inf
ROOT
ATOM      1  C   UNL     1      34.853  23.777  18.874  1.00  0.00     0.000 C 
ENDROOT
BRANCH   1   2
ATOM      2  C   UNL     1      35.482  24.998  18.193  1.00  0.00     0.004 C 
BRANCH   2   3
ATOM      3  C   UNL     1      35.050  26.297  18.885  1.00  0.00     0.027 C 
BRANCH   3   4
ATOM      4  C   UNL     1      34.269  26.014  20.136  1.00  0.00    -0.025 C 
ATOM      5  C   UNL     1      34.781  26.254  21.347  1.00  0.00     0.020 C 
BRANCH   5   6
ATOM      6  C   UNL     1      34.024  25.996  22.581  1.00  0.00     0.064 C 
ATOM      7  O   UNL     1      33.238  25.015  22.634  1.00  0.00    -0.545 OA
ATOM      8  O   UNL     1      34.162  26.821  23.692  1.00  0.00    -0.545 OA
ENDBRANCH   5   6
ENDBRANCH   3   4
ENDBRANCH   2   3
ENDBRANCH   1   2
BRANCH   1   9
ATOM      9  C   UNL     1      33.954  23.006  17.898  1.00  0.00     0.000 C 
BRANCH   9  10
ATOM     10  C   UNL     1      32.591  23.687  17.671  1.00  0.00     0.000 C 
BRANCH  10  11
ATOM     11  C   UNL     1      32.381  24.268  16.260  1.00  0.00    -0.000 C 
BRANCH  11  12
ATOM     12  C   UNL     1      31.562  25.570  16.206  1.00  0.00    -0.000 C 
BRANCH  12  13
ATOM     13  C   UNL     1      31.657  26.421  17.490  1.00  0.00    -0.003 C 
ATOM     14  C   UNL     1      31.092  27.829  17.308  1.00  0.00     0.004 C 
ENDBRANCH  12  13
ENDBRANCH  11  12
ENDBRANCH  10  11
ENDBRANCH   9  10
ENDBRANCH   1   9
TORSDOF 9
ENDMDL
MODEL 9
REMARK VINA RESULT:    -3.454      1.584      2.938
REMARK INTER + INTRA:          -6.654
REMARK INTER:                  -5.598
REMARK INTRA:                  -1.056
REMARK UNBOUND:                -1.382
REMARK SMILES CCCCCCCCCC=CC(=O)[O-]
REMARK SMILES IDX 7 1 8 2 9 3 10 4 11 5 12 6 13 7 14 8 6 9 5 10 4 11 3 12 2 13
REMARK SMILES IDX 1 14
REMARK H PARENT
REMARK Flexibility Score: inf
ROOT
ATOM      1  C   UNL     1      20.264  17.778  30.565  1.00  0.00     0.000 C 
ENDROOT
BRANCH   1   2
ATOM      2  C   UNL     1      20.539  18.943  29.608  1.00  0.00     0.004 C 
BRANCH   2   3
ATOM      3  C   UNL     1      19.641  18.859  28.367  1.00  0.00     0.027 C 
BRANCH   3   4
ATOM      4  C   UNL     1      20.251  17.981  27.312  1.00  0.00    -0.025 C 
ATOM      5  C   UNL     1      21.537  18.097  26.966  1.00  0.00     0.020 C 
BRANCH   5   6
ATOM      6  C   UNL     1      22.151  17.235  25.944  1.00  0.00     0.064 C 
ATOM      7  O   UNL     1      23.129  17.661  25.279  1.00  0.00    -0.545 OA
ATOM      8  O   UNL     1      21.665  15.955  25.701  1.00  0.00    -0.545 OA
ENDBRANCH   5   6
ENDBRANCH   3   4
ENDBRANCH   2   3
ENDBRANCH   1   2
BRANCH   1   9
ATOM      9  C   UNL     1      19.843  18.291  31.950  1.00  0.00     0.000 C 
BRANCH   9  10
ATOM     10  C   UNL     1      19.604  19.813  31.979  1.00  0.00     0.000 C 
BRANCH  10  11
ATOM     11  C   UNL     1      18.136  20.238  32.173  1.00  0.00    -0.000 C 
BRANCH  11  12
ATOM     12  C   UNL     1      17.302  20.310  30.881  1.00  0.00    -0.000 C 
BRANCH  12  13
ATOM     13  C   UNL     1      16.537  19.009  30.559  1.00  0.00    -0.003 C 
ATOM     14  C   UNL     1      15.875  18.393  31.791  1.00  0.00     0.004 C 
ENDBRANCH  12  13
ENDBRANCH  11  12
ENDBRANCH  10  11
ENDBRANCH   9  10
ENDBRANCH   1   9
TORSDOF 9
ENDMDL
