MODEL 1
REMARK VINA RESULT:    -3.712      0.000      0.000
REMARK INTER + INTRA:          -4.582
REMARK INTER:                  -4.255
REMARK INTRA:                  -0.327
REMARK UNBOUND:                -0.327
REMARK SMILES COC(=O)c1ccccc1O
REMARK SMILES IDX 5 1 6 2 7 3 8 4 9 5 10 6 3 7 4 8 2 9 1 10 11 11
REMARK H PARENT 11 12
REMARK Flexibility Score: inf
ROOT
ATOM      1  C   UNL     1     114.468 117.265 112.974  1.00  0.00     0.101 A 
ATOM      2  C   UNL     1     114.061 116.476 111.878  1.00  0.00     0.019 A 
ATOM      3  C   UNL     1     113.611 115.167 112.068  1.00  0.00     0.001 A 
ATOM      4  C   UNL     1     113.558 114.625 113.352  1.00  0.00     0.004 A 
ATOM      5  C   UNL     1     113.956 115.390 114.449  1.00  0.00     0.047 A 
ATOM      6  C   UNL     1     114.411 116.706 114.272  1.00  0.00     0.130 A 
ENDROOT
BRANCH   1   7
ATOM      7  C   UNL     1     114.943 118.653 112.739  1.00  0.00     0.341 C 
ATOM      8  O   UNL     1     114.376 119.619 113.322  1.00  0.00    -0.246 OA
BRANCH   7   9
ATOM      9  O   UNL     1     116.015 118.901 111.875  1.00  0.00    -0.465 OA
ATOM     10  C   UNL     1     117.344 118.481 112.157  1.00  0.00     0.282 C 
ENDBRANCH   7   9
ENDBRANCH   1   7
BRANCH   6  11
ATOM     11  O   UNL     1     114.802 117.447 115.388  1.00  0.00    -0.507 OA
ATOM     12  H   UNL     1     115.519 118.160 115.329  1.00  0.00     0.293 HD
ENDBRANCH   6  11
TORSDOF 3
ENDMDL
MODEL 2
REMARK VINA RESULT:    -3.678      3.364      3.918
REMARK INTER + INTRA:          -4.543
REMARK INTER:                  -4.226
REMARK INTRA:                  -0.318
REMARK UNBOUND:                -0.327
REMARK SMILES COC(=O)c1ccccc1O
REMARK SMILES IDX 5 1 6 2 7 3 8 4 9 5 10 6 3 7 4 8 2 9 1 10 11 11
REMARK H PARENT 11 12
REMARK Flexibility Score: inf
ROOT
ATOM      1  C   UNL     1     115.879 114.413 112.977  1.00  0.00     0.101 A 
ATOM      2  C   UNL     1     116.660 114.008 111.875  1.00  0.00     0.019 A 
ATOM      3  C   UNL     1     117.961 113.534 112.059  1.00  0.00     0.001 A 
ATOM      4  C   UNL     1     118.503 113.456 113.341  1.00  0.00     0.004 A 
ATOM      5  C   UNL     1     117.746 113.852 114.444  1.00  0.00     0.047 A 
ATOM      6  C   UNL     1     116.437 114.330 114.274  1.00  0.00     0.130 A 
ENDROOT
BRANCH   1   7
ATOM      7  C   UNL     1     114.498 114.914 112.750  1.00  0.00     0.341 C 
ATOM      8  O   UNL     1     113.526 114.373 113.348  1.00  0.00    -0.246 OA
BRANCH   7   9
ATOM      9  O   UNL     1     114.264 115.981 111.876  1.00  0.00    -0.465 OA
ATOM     10  C   UNL     1     114.444 117.340 112.255  1.00  0.00     0.282 C 
ENDBRANCH   7   9
ENDBRANCH   1   7
BRANCH   6  11
ATOM     11  O   UNL     1     115.703 114.720 115.395  1.00  0.00    -0.507 OA
ATOM     12  H   UNL     1     115.017 114.109 115.822  1.00  0.00     0.293 HD
ENDBRANCH   6  11
TORSDOF 3
ENDMDL
MODEL 3
REMARK VINA RESULT:    -3.630      2.852      3.594
REMARK INTER + INTRA:          -4.488
REMARK INTER:                  -4.192
REMARK INTRA:                  -0.296
REMARK UNBOUND:                -0.327
REMARK SMILES COC(=O)c1ccccc1O
REMARK SMILES IDX 5 1 6 2 7 3 8 4 9 5 10 6 3 7 4 8 2 9 1 10 11 11
REMARK H PARENT 11 12
REMARK Flexibility Score: inf
ROOT
ATOM      1  C   UNL     1     116.221 115.900 112.457  1.00  0.00     0.101 A 
ATOM      2  C   UNL     1     117.553 116.366 112.464  1.00  0.00     0.019 A 
ATOM      3  C   UNL     1     118.615 115.493 112.217  1.00  0.00     0.001 A 
ATOM      4  C   UNL     1     118.367 114.145 111.960  1.00  0.00     0.004 A 
ATOM      5  C   UNL     1     117.057 113.665 111.948  1.00  0.00     0.047 A 
ATOM      6  C   UNL     1     115.981 114.531 112.195  1.00  0.00     0.130 A 
ENDROOT
BRANCH   1   7
ATOM      7  C   UNL     1     115.112 116.853 112.724  1.00  0.00     0.341 C 
ATOM      8  O   UNL     1     114.295 116.622 113.658  1.00  0.00    -0.246 OA
BRANCH   7   9
ATOM      9  O   UNL     1     114.964 118.007 111.946  1.00  0.00    -0.465 OA
ATOM     10  C   UNL     1     114.818 119.303 112.513  1.00  0.00     0.282 C 
ENDBRANCH   7   9
ENDBRANCH   1   7
BRANCH   6  11
ATOM     11  O   UNL     1     114.681 114.024 112.177  1.00  0.00    -0.507 OA
ATOM     12  H   UNL     1     114.028 114.205 112.930  1.00  0.00     0.293 HD
ENDBRANCH   6  11
TORSDOF 3
ENDMDL
MODEL 4
REMARK VINA RESULT:    -3.605      1.788      2.429
REMARK INTER + INTRA:          -4.460
REMARK INTER:                  -4.171
REMARK INTRA:                  -0.289
REMARK UNBOUND:                -0.327
REMARK SMILES COC(=O)c1ccccc1O
REMARK SMILES IDX 5 1 6 2 7 3 8 4 9 5 10 6 3 7 4 8 2 9 1 10 11 11
REMARK H PARENT 11 12
REMARK Flexibility Score: inf
ROOT
ATOM      1  C   UNL     1     116.106 116.882 112.504  1.00  0.00     0.101 A 
ATOM      2  C   UNL     1     116.517 115.536 112.599  1.00  0.00     0.019 A 
ATOM      3  C   UNL     1     115.622 114.496 112.335  1.00  0.00     0.001 A 
ATOM      4  C   UNL     1     114.305 114.781 111.974  1.00  0.00     0.004 A 
ATOM      5  C   UNL     1     113.880 116.106 111.875  1.00  0.00     0.047 A 
ATOM      6  C   UNL     1     114.769 117.160 112.137  1.00  0.00     0.130 A 
ENDROOT
BRANCH   1   7
ATOM      7  C   UNL     1     117.082 117.966 112.791  1.00  0.00     0.341 C 
ATOM      8  O   UNL     1     116.794 118.866 113.628  1.00  0.00    -0.246 OA
BRANCH   7   9
ATOM      9  O   UNL     1     118.319 117.999 112.139  1.00  0.00    -0.465 OA
ATOM     10  C   UNL     1     119.503 118.484 112.759  1.00  0.00     0.282 C 
ENDBRANCH   7   9
ENDBRANCH   1   7
BRANCH   6  11
ATOM     11  O   UNL     1     114.316 118.476 112.030  1.00  0.00    -0.507 OA
ATOM     12  H   UNL     1     114.783 119.155 111.441  1.00  0.00     0.293 HD
ENDBRANCH   6  11
TORSDOF 3
ENDMDL
MODEL 5
REMARK VINA RESULT:    -3.584      3.322      3.833
REMARK INTER + INTRA:          -4.435
REMARK INTER:                  -4.108
REMARK INTRA:                  -0.328
REMARK UNBOUND:                -0.327
REMARK SMILES COC(=O)c1ccccc1O
REMARK SMILES IDX 5 1 6 2 7 3 8 4 9 5 10 6 3 7 4 8 2 9 1 10 11 11
REMARK H PARENT 11 12
REMARK Flexibility Score: inf
ROOT
ATOM      1  C   UNL     1     116.533 114.363 112.990  1.00  0.00     0.101 A 
ATOM      2  C   UNL     1     115.633 114.480 111.910  1.00  0.00     0.019 A 
ATOM      3  C   UNL     1     114.277 114.729 112.136  1.00  0.00     0.001 A 
ATOM      4  C   UNL     1     113.797 114.865 113.438  1.00  0.00     0.004 A 
ATOM      5  C   UNL     1     114.672 114.752 114.519  1.00  0.00     0.047 A 
ATOM      6  C   UNL     1     116.037 114.502 114.307  1.00  0.00     0.130 A 
ENDROOT
BRANCH   1   7
ATOM      7  C   UNL     1     117.970 114.098 112.719  1.00  0.00     0.341 C 
ATOM      8  O   UNL     1     118.534 113.095 113.238  1.00  0.00    -0.246 OA
BRANCH   7   9
ATOM      9  O   UNL     1     118.707 114.953 111.891  1.00  0.00    -0.465 OA
ATOM     10  C   UNL     1     118.897 116.332 112.183  1.00  0.00     0.282 C 
ENDBRANCH   7   9
ENDBRANCH   1   7
BRANCH   6  11
ATOM     11  O   UNL     1     116.888 114.394 115.407  1.00  0.00    -0.507 OA
ATOM     12  H   UNL     1     117.817 113.998 115.326  1.00  0.00     0.293 HD
ENDBRANCH   6  11
TORSDOF 3
ENDMDL
MODEL 6
REMARK VINA RESULT:    -3.578      3.409      4.436
REMARK INTER + INTRA:          -4.428
REMARK INTER:                  -4.075
REMARK INTRA:                  -0.353
REMARK UNBOUND:                -0.327
REMARK SMILES COC(=O)c1ccccc1O
REMARK SMILES IDX 5 1 6 2 7 3 8 4 9 5 10 6 3 7 4 8 2 9 1 10 11 11
REMARK H PARENT 11 12
REMARK Flexibility Score: inf
ROOT
ATOM      1  C   UNL     1     117.090 118.610 114.055  1.00  0.00     0.101 A 
ATOM      2  C   UNL     1     115.930 118.803 114.833  1.00  0.00     0.019 A 
ATOM      3  C   UNL     1     114.771 119.339 114.266  1.00  0.00     0.001 A 
ATOM      4  C   UNL     1     114.750 119.688 112.916  1.00  0.00     0.004 A 
ATOM      5  C   UNL     1     115.887 119.505 112.129  1.00  0.00     0.047 A 
ATOM      6  C   UNL     1     117.058 118.968 112.686  1.00  0.00     0.130 A 
ENDROOT
BRANCH   1   7
ATOM      7  C   UNL     1     118.308 118.039 114.686  1.00  0.00     0.341 C 
ATOM      8  O   UNL     1     118.724 118.503 115.784  1.00  0.00    -0.246 OA
BRANCH   7   9
ATOM      9  O   UNL     1     119.001 116.988 114.074  1.00  0.00    -0.465 OA
ATOM     10  C   UNL     1     118.499 115.658 114.028  1.00  0.00     0.282 C 
ENDBRANCH   7   9
ENDBRANCH   1   7
BRANCH   6  11
ATOM     11  O   UNL     1     118.181 118.795 111.876  1.00  0.00    -0.507 OA
ATOM     12  H   UNL     1     118.827 119.553 111.690  1.00  0.00     0.293 HD
ENDBRANCH   6  11
TORSDOF 3
ENDMDL
MODEL 7
REMARK VINA RESULT:    -3.575      2.758      4.292
REMARK INTER + INTRA:          -4.425
REMARK INTER:                  -4.135
REMARK INTRA:                  -0.290
REMARK UNBOUND:                -0.327
REMARK SMILES COC(=O)c1ccccc1O
REMARK SMILES IDX 5 1 6 2 7 3 8 4 9 5 10 6 3 7 4 8 2 9 1 10 11 11
REMARK H PARENT 11 12
REMARK Flexibility Score: inf
ROOT
ATOM      1  C   UNL     1     117.051 117.063 112.442  1.00  0.00     0.101 A 
ATOM      2  C   UNL     1     115.707 116.633 112.445  1.00  0.00     0.019 A 
ATOM      3  C   UNL     1     114.669 117.534 112.195  1.00  0.00     0.001 A 
ATOM      4  C   UNL     1     114.953 118.874 111.937  1.00  0.00     0.004 A 
ATOM      5  C   UNL     1     116.275 119.319 111.929  1.00  0.00     0.047 A 
ATOM      6  C   UNL     1     117.328 118.425 112.179  1.00  0.00     0.130 A 
ENDROOT
BRANCH   1   7
ATOM      7  C   UNL     1     118.134 116.081 112.712  1.00  0.00     0.341 C 
ATOM      8  O   UNL     1     118.898 116.245 113.703  1.00  0.00    -0.246 OA
BRANCH   7   9
ATOM      9  O   UNL     1     118.315 114.975 111.875  1.00  0.00    -0.465 OA
ATOM     10  C   UNL     1     118.137 113.636 112.320  1.00  0.00     0.282 C 
ENDBRANCH   7   9
ENDBRANCH   1   7
BRANCH   6  11
ATOM     11  O   UNL     1     118.641 118.898 112.165  1.00  0.00    -0.507 OA
ATOM     12  H   UNL     1     119.010 119.422 111.380  1.00  0.00     0.293 HD
ENDBRANCH   6  11
TORSDOF 3
ENDMDL
MODEL 8
REMARK VINA RESULT:    -3.398      3.669      5.542
REMARK INTER + INTRA:          -4.222
REMARK INTER:                  -3.903
REMARK INTRA:                  -0.319
REMARK UNBOUND:                -0.327
REMARK SMILES COC(=O)c1ccccc1O
REMARK SMILES IDX 5 1 6 2 7 3 8 4 9 5 10 6 3 7 4 8 2 9 1 10 11 11
REMARK H PARENT 11 12
REMARK Flexibility Score: inf
ROOT
ATOM      1  C   UNL     1     118.729 115.837 112.952  1.00  0.00     0.101 A 
ATOM      2  C   UNL     1     119.133 116.654 111.875  1.00  0.00     0.019 A 
ATOM      3  C   UNL     1     119.579 117.959 112.098  1.00  0.00     0.001 A 
ATOM      4  C   UNL     1     119.629 118.470 113.394  1.00  0.00     0.004 A 
ATOM      5  C   UNL     1     119.233 117.678 114.472  1.00  0.00     0.047 A 
ATOM      6  C   UNL     1     118.783 116.365 114.264  1.00  0.00     0.130 A 
ENDROOT
BRANCH   1   7
ATOM      7  C   UNL     1     118.259 114.453 112.684  1.00  0.00     0.341 C 
ATOM      8  O   UNL     1     118.872 113.472 113.189  1.00  0.00    -0.246 OA
BRANCH   7   9
ATOM      9  O   UNL     1     117.141 114.226 111.875  1.00  0.00    -0.465 OA
ATOM     10  C   UNL     1     115.811 114.480 112.311  1.00  0.00     0.282 C 
ENDBRANCH   7   9
ENDBRANCH   1   7
BRANCH   6  11
ATOM     11  O   UNL     1     118.394 115.597 115.361  1.00  0.00    -0.507 OA
ATOM     12  H   UNL     1     117.967 116.014 116.180  1.00  0.00     0.293 HD
ENDBRANCH   6  11
TORSDOF 3
ENDMDL
MODEL 9
REMARK VINA RESULT:    -2.364      3.434      3.977
REMARK INTER + INTRA:          -3.037
REMARK INTER:                  -2.709
REMARK INTRA:                  -0.328
REMARK UNBOUND:                -0.327
REMARK SMILES COC(=O)c1ccccc1O
REMARK SMILES IDX 5 1 6 2 7 3 8 4 9 5 10 6 3 7 4 8 2 9 1 10 11 11
REMARK H PARENT 11 12
REMARK Flexibility Score: inf
ROOT
ATOM      1  C   UNL     1     117.385 118.746 112.970  1.00  0.00     0.101 A 
ATOM      2  C   UNL     1     116.562 119.083 111.875  1.00  0.00     0.019 A 
ATOM      3  C   UNL     1     115.251 119.521 112.076  1.00  0.00     0.001 A 
ATOM      4  C   UNL     1     114.740 119.631 113.368  1.00  0.00     0.004 A 
ATOM      5  C   UNL     1     115.538 119.302 114.465  1.00  0.00     0.047 A 
ATOM      6  C   UNL     1     116.857 118.861 114.278  1.00  0.00     0.130 A 
ENDROOT
BRANCH   1   7
ATOM      7  C   UNL     1     118.776 118.283 112.725  1.00  0.00     0.341 C 
ATOM      8  O   UNL     1     119.743 118.870 113.285  1.00  0.00    -0.246 OA
BRANCH   7   9
ATOM      9  O   UNL     1     119.024 117.200 111.875  1.00  0.00    -0.465 OA
ATOM     10  C   UNL     1     118.592 115.877 112.168  1.00  0.00     0.282 C 
ENDBRANCH   7   9
ENDBRANCH   1   7
BRANCH   6  11
ATOM     11  O   UNL     1     117.632 118.539 115.392  1.00  0.00    -0.507 OA
ATOM     12  H   UNL     1     117.230 118.102 116.213  1.00  0.00     0.293 HD
ENDBRANCH   6  11
TORSDOF 3
ENDMDL
