MODEL 1
REMARK VINA RESULT:    -4.016      0.000      0.000
REMARK INTER + INTRA:          -7.181
REMARK INTER:                  -6.129
REMARK INTRA:                  -1.052
REMARK UNBOUND:                -1.052
REMARK SMILES CCCCCCCCCCC(=O)[O-]
REMARK SMILES IDX 7 1 8 2 9 3 10 4 11 5 12 6 13 7 6 8 5 9 4 10 3 11 2 12 1 13
REMARK H PARENT
REMARK Flexibility Score: inf
ROOT
ATOM      1  C   UNL     1     174.118 174.879 181.927  1.00  0.00     0.000 C 
ENDROOT
BRANCH   1   2
ATOM      2  C   UNL     1     172.906 175.604 182.537  1.00  0.00     0.000 C 
BRANCH   2   3
ATOM      3  C   UNL     1     173.017 177.133 182.427  1.00  0.00     0.006 C 
BRANCH   3   4
ATOM      4  C   UNL     1     171.647 177.817 182.324  1.00  0.00     0.053 C 
BRANCH   4   5
ATOM      5  C   UNL     1     171.139 177.758 180.917  1.00  0.00     0.041 C 
ATOM      6  O   UNL     1     171.948 177.759 179.951  1.00  0.00    -0.550 OA
ATOM      7  O   UNL     1     169.773 177.752 180.671  1.00  0.00    -0.550 OA
ENDBRANCH   4   5
ENDBRANCH   3   4
ENDBRANCH   2   3
ENDBRANCH   1   2
BRANCH   1   8
ATOM      8  C   UNL     1     175.156 174.467 182.984  1.00  0.00     0.000 C 
BRANCH   8   9
ATOM      9  C   UNL     1     176.518 175.150 182.770  1.00  0.00    -0.000 C 
BRANCH   9  10
ATOM     10  C   UNL     1     176.511 176.628 183.195  1.00  0.00    -0.000 C 
BRANCH  10  11
ATOM     11  C   UNL     1     177.071 177.561 182.111  1.00  0.00    -0.000 C 
BRANCH  11  12
ATOM     12  C   UNL     1     176.968 176.914 180.724  1.00  0.00    -0.003 C 
ATOM     13  C   UNL     1     175.819 177.513 179.919  1.00  0.00     0.004 C 
ENDBRANCH  11  12
ENDBRANCH  10  11
ENDBRANCH   9  10
ENDBRANCH   8   9
ENDBRANCH   1   8
TORSDOF 9
ENDMDL
MODEL 2
REMARK VINA RESULT:    -3.886      2.179      4.855
REMARK INTER + INTRA:          -6.983
REMARK INTER:                  -6.164
REMARK INTRA:                  -0.819
REMARK UNBOUND:                -1.052
REMARK SMILES CCCCCCCCCCC(=O)[O-]
REMARK SMILES IDX 7 1 8 2 9 3 10 4 11 5 12 6 13 7 6 8 5 9 4 10 3 11 2 12 1 13
REMARK H PARENT
REMARK Flexibility Score: inf
ROOT
ATOM      1  C   UNL     1     175.615 175.233 183.233  1.00  0.00     0.000 C 
ENDROOT
BRANCH   1   2
ATOM      2  C   UNL     1     176.744 174.524 182.466  1.00  0.00     0.000 C 
BRANCH   2   3
ATOM      3  C   UNL     1     177.091 175.227 181.144  1.00  0.00     0.006 C 
BRANCH   3   4
ATOM      4  C   UNL     1     177.029 176.756 181.257  1.00  0.00     0.053 C 
BRANCH   4   5
ATOM      5  C   UNL     1     176.819 177.371 179.909  1.00  0.00     0.041 C 
ATOM      6  O   UNL     1     177.801 177.581 179.148  1.00  0.00    -0.550 OA
ATOM      7  O   UNL     1     175.545 177.756 179.511  1.00  0.00    -0.550 OA
ENDBRANCH   4   5
ENDBRANCH   3   4
ENDBRANCH   2   3
ENDBRANCH   1   2
BRANCH   1   8
ATOM      8  C   UNL     1     174.226 174.656 182.913  1.00  0.00     0.000 C 
BRANCH   8   9
ATOM      9  C   UNL     1     173.364 175.622 182.082  1.00  0.00    -0.000 C 
BRANCH   9  10
ATOM     10  C   UNL     1     173.570 177.092 182.485  1.00  0.00    -0.000 C 
BRANCH  10  11
ATOM     11  C   UNL     1     172.246 177.849 182.668  1.00  0.00    -0.000 C 
BRANCH  11  12
ATOM     12  C   UNL     1     171.049 176.903 182.520  1.00  0.00    -0.003 C 
ATOM     13  C   UNL     1     169.979 177.198 183.568  1.00  0.00     0.004 C 
ENDBRANCH  11  12
ENDBRANCH  10  11
ENDBRANCH   9  10
ENDBRANCH   8   9
ENDBRANCH   1   8
TORSDOF 9
ENDMDL
MODEL 3
REMARK VINA RESULT:    -3.864      0.784      1.288
REMARK INTER + INTRA:          -6.949
REMARK INTER:                  -6.011
REMARK INTRA:                  -0.937
REMARK UNBOUND:                -1.052
REMARK SMILES CCCCCCCCCCC(=O)[O-]
REMARK SMILES IDX 7 1 8 2 9 3 10 4 11 5 12 6 13 7 6 8 5 9 4 10 3 11 2 12 1 13
REMARK H PARENT
REMARK Flexibility Score: inf
ROOT
ATOM      1  C   UNL     1     173.729 175.646 182.229  1.00  0.00     0.000 C 
ENDROOT
BRANCH   1   2
ATOM      2  C   UNL     1     173.627 177.040 182.871  1.00  0.00     0.000 C 
BRANCH   2   3
ATOM      3  C   UNL     1     172.349 177.788 182.458  1.00  0.00     0.006 C 
BRANCH   3   4
ATOM      4  C   UNL     1     171.409 176.922 181.609  1.00  0.00     0.053 C 
BRANCH   4   5
ATOM      5  C   UNL     1     171.024 177.644 180.356  1.00  0.00     0.041 C 
ATOM      6  O   UNL     1     169.866 178.123 180.231  1.00  0.00    -0.550 OA
ATOM      7  O   UNL     1     171.928 177.746 179.306  1.00  0.00    -0.550 OA
ENDBRANCH   4   5
ENDBRANCH   3   4
ENDBRANCH   2   3
ENDBRANCH   1   2
BRANCH   1   8
ATOM      8  C   UNL     1     174.864 174.799 182.828  1.00  0.00     0.000 C 
BRANCH   8   9
ATOM      9  C   UNL     1     176.108 175.637 183.171  1.00  0.00    -0.000 C 
BRANCH   9  10
ATOM     10  C   UNL     1     176.947 175.985 181.930  1.00  0.00    -0.000 C 
BRANCH  10  11
ATOM     11  C   UNL     1     177.142 177.497 181.750  1.00  0.00    -0.000 C 
BRANCH  11  12
ATOM     12  C   UNL     1     177.004 177.896 180.276  1.00  0.00    -0.003 C 
ATOM     13  C   UNL     1     175.704 177.364 179.679  1.00  0.00     0.004 C 
ENDBRANCH  11  12
ENDBRANCH  10  11
ENDBRANCH   9  10
ENDBRANCH   8   9
ENDBRANCH   1   8
TORSDOF 9
ENDMDL
MODEL 4
REMARK VINA RESULT:    -3.813      2.574      4.578
REMARK INTER + INTRA:          -6.872
REMARK INTER:                  -5.529
REMARK INTRA:                  -1.343
REMARK UNBOUND:                -1.052
REMARK SMILES CCCCCCCCCCC(=O)[O-]
REMARK SMILES IDX 7 1 8 2 9 3 10 4 11 5 12 6 13 7 6 8 5 9 4 10 3 11 2 12 1 13
REMARK H PARENT
REMARK Flexibility Score: inf
ROOT
ATOM      1  C   UNL     1     176.181 176.330 183.401  1.00  0.00     0.000 C 
ENDROOT
BRANCH   1   2
ATOM      2  C   UNL     1     176.533 177.449 182.406  1.00  0.00     0.000 C 
BRANCH   2   3
ATOM      3  C   UNL     1     177.226 176.917 181.142  1.00  0.00     0.006 C 
BRANCH   3   4
ATOM      4  C   UNL     1     176.438 177.229 179.863  1.00  0.00     0.053 C 
BRANCH   4   5
ATOM      5  C   UNL     1     176.612 176.130 178.862  1.00  0.00     0.041 C 
ATOM      6  O   UNL     1     176.200 174.968 179.120  1.00  0.00    -0.550 OA
ATOM      7  O   UNL     1     177.273 176.376 177.666  1.00  0.00    -0.550 OA
ENDBRANCH   4   5
ENDBRANCH   3   4
ENDBRANCH   2   3
ENDBRANCH   1   2
BRANCH   1   8
ATOM      8  C   UNL     1     176.348 174.925 182.798  1.00  0.00     0.000 C 
BRANCH   8   9
ATOM      9  C   UNL     1     174.999 174.234 182.532  1.00  0.00    -0.000 C 
BRANCH   9  10
ATOM     10  C   UNL     1     173.815 175.213 182.573  1.00  0.00    -0.000 C 
BRANCH  10  11
ATOM     11  C   UNL     1     173.334 175.624 181.173  1.00  0.00    -0.000 C 
BRANCH  11  12
ATOM     12  C   UNL     1     172.703 177.021 181.198  1.00  0.00    -0.003 C 
ATOM     13  C   UNL     1     172.778 177.636 182.593  1.00  0.00     0.004 C 
ENDBRANCH  11  12
ENDBRANCH  10  11
ENDBRANCH   9  10
ENDBRANCH   8   9
ENDBRANCH   1   8
TORSDOF 9
ENDMDL
MODEL 5
REMARK VINA RESULT:    -3.812      3.302      4.795
REMARK INTER + INTRA:          -6.870
REMARK INTER:                  -5.534
REMARK INTRA:                  -1.336
REMARK UNBOUND:                -1.052
REMARK SMILES CCCCCCCCCCC(=O)[O-]
REMARK SMILES IDX 7 1 8 2 9 3 10 4 11 5 12 6 13 7 6 8 5 9 4 10 3 11 2 12 1 13
REMARK H PARENT
REMARK Flexibility Score: inf
ROOT
ATOM      1  C   UNL     1     176.950 177.271 180.749  1.00  0.00     0.000 C 
ENDROOT
BRANCH   1   2
ATOM      2  C   UNL     1     175.512 177.386 180.214  1.00  0.00     0.000 C 
BRANCH   2   3
ATOM      3  C   UNL     1     175.123 176.203 179.313  1.00  0.00     0.006 C 
BRANCH   3   4
ATOM      4  C   UNL     1     176.341 175.524 178.673  1.00  0.00     0.053 C 
BRANCH   4   5
ATOM      5  C   UNL     1     176.632 176.129 177.335  1.00  0.00     0.041 C 
ATOM      6  O   UNL     1     177.774 176.600 177.088  1.00  0.00    -0.550 OA
ATOM      7  O   UNL     1     175.629 176.218 176.379  1.00  0.00    -0.550 OA
ENDBRANCH   4   5
ENDBRANCH   3   4
ENDBRANCH   2   3
ENDBRANCH   1   2
BRANCH   1   8
ATOM      8  C   UNL     1     177.022 177.376 182.282  1.00  0.00     0.000 C 
BRANCH   8   9
ATOM      9  C   UNL     1     175.803 176.742 182.974  1.00  0.00    -0.000 C 
BRANCH   9  10
ATOM     10  C   UNL     1     176.033 175.268 183.343  1.00  0.00    -0.000 C 
BRANCH  10  11
ATOM     11  C   UNL     1     175.277 174.299 182.422  1.00  0.00    -0.000 C 
BRANCH  11  12
ATOM     12  C   UNL     1     176.204 173.186 181.917  1.00  0.00    -0.003 C 
ATOM     13  C   UNL     1     177.630 173.697 181.733  1.00  0.00     0.004 C 
ENDBRANCH  11  12
ENDBRANCH  10  11
ENDBRANCH   9  10
ENDBRANCH   8   9
ENDBRANCH   1   8
TORSDOF 9
ENDMDL
MODEL 6
REMARK VINA RESULT:    -3.769      1.211      2.434
REMARK INTER + INTRA:          -6.804
REMARK INTER:                  -5.653
REMARK INTRA:                  -1.151
REMARK UNBOUND:                -1.052
REMARK SMILES CCCCCCCCCCC(=O)[O-]
REMARK SMILES IDX 7 1 8 2 9 3 10 4 11 5 12 6 13 7 6 8 5 9 4 10 3 11 2 12 1 13
REMARK H PARENT
REMARK Flexibility Score: inf
ROOT
ATOM      1  C   UNL     1     176.468 175.346 182.719  1.00  0.00     0.000 C 
ENDROOT
BRANCH   1   2
ATOM      2  C   UNL     1     175.068 174.750 182.942  1.00  0.00     0.000 C 
BRANCH   2   3
ATOM      3  C   UNL     1     174.069 175.167 181.851  1.00  0.00     0.006 C 
BRANCH   3   4
ATOM      4  C   UNL     1     172.775 175.754 182.429  1.00  0.00     0.053 C 
BRANCH   4   5
ATOM      5  C   UNL     1     172.606 177.175 181.990  1.00  0.00     0.041 C 
ATOM      6  O   UNL     1     172.945 177.524 180.828  1.00  0.00    -0.550 OA
ATOM      7  O   UNL     1     172.121 178.125 182.880  1.00  0.00    -0.550 OA
ENDBRANCH   4   5
ENDBRANCH   3   4
ENDBRANCH   2   3
ENDBRANCH   1   2
BRANCH   1   8
ATOM      8  C   UNL     1     176.602 176.773 183.275  1.00  0.00     0.000 C 
BRANCH   8   9
ATOM      9  C   UNL     1     177.172 177.759 182.240  1.00  0.00    -0.000 C 
BRANCH   9  10
ATOM     10  C   UNL     1     177.260 177.149 180.831  1.00  0.00    -0.000 C 
BRANCH  10  11
ATOM     11  C   UNL     1     176.204 177.717 179.871  1.00  0.00    -0.000 C 
BRANCH  11  12
ATOM     12  C   UNL     1     175.837 176.691 178.792  1.00  0.00    -0.003 C 
ATOM     13  C   UNL     1     176.544 175.360 179.031  1.00  0.00     0.004 C 
ENDBRANCH  11  12
ENDBRANCH  10  11
ENDBRANCH   9  10
ENDBRANCH   8   9
ENDBRANCH   1   8
TORSDOF 9
ENDMDL
MODEL 7
REMARK VINA RESULT:    -3.753      3.734      5.207
REMARK INTER + INTRA:          -6.779
REMARK INTER:                  -5.552
REMARK INTRA:                  -1.227
REMARK UNBOUND:                -1.052
REMARK SMILES CCCCCCCCCCC(=O)[O-]
REMARK SMILES IDX 7 1 8 2 9 3 10 4 11 5 12 6 13 7 6 8 5 9 4 10 3 11 2 12 1 13
REMARK H PARENT
REMARK Flexibility Score: inf
ROOT
ATOM      1  C   UNL     1     175.932 177.018 182.435  1.00  0.00     0.000 C 
ENDROOT
BRANCH   1   2
ATOM      2  C   UNL     1     176.151 175.817 183.372  1.00  0.00     0.000 C 
BRANCH   2   3
ATOM      3  C   UNL     1     175.940 174.470 182.662  1.00  0.00     0.006 C 
BRANCH   3   4
ATOM      4  C   UNL     1     177.134 174.074 181.785  1.00  0.00     0.053 C 
BRANCH   4   5
ATOM      5  C   UNL     1     176.934 172.702 181.220  1.00  0.00     0.041 C 
ATOM      6  O   UNL     1     176.380 172.554 180.098  1.00  0.00    -0.550 OA
ATOM      7  O   UNL     1     177.313 171.586 181.953  1.00  0.00    -0.550 OA
ENDBRANCH   4   5
ENDBRANCH   3   4
ENDBRANCH   2   3
ENDBRANCH   1   2
BRANCH   1   8
ATOM      8  C   UNL     1     177.235 177.769 182.118  1.00  0.00     0.000 C 
BRANCH   8   9
ATOM      9  C   UNL     1     177.380 178.094 180.621  1.00  0.00    -0.000 C 
BRANCH   9  10
ATOM     10  C   UNL     1     176.198 177.572 179.787  1.00  0.00    -0.000 C 
BRANCH  10  11
ATOM     11  C   UNL     1     176.630 176.574 178.703  1.00  0.00    -0.000 C 
BRANCH  11  12
ATOM     12  C   UNL     1     175.507 175.576 178.396  1.00  0.00    -0.003 C 
ATOM     13  C   UNL     1     174.400 175.653 179.444  1.00  0.00     0.004 C 
ENDBRANCH  11  12
ENDBRANCH  10  11
ENDBRANCH   9  10
ENDBRANCH   8   9
ENDBRANCH   1   8
TORSDOF 9
ENDMDL
MODEL 8
REMARK VINA RESULT:    -3.745      1.246      2.686
REMARK INTER + INTRA:          -6.768
REMARK INTER:                  -5.619
REMARK INTRA:                  -1.149
REMARK UNBOUND:                -1.052
REMARK SMILES CCCCCCCCCCC(=O)[O-]
REMARK SMILES IDX 7 1 8 2 9 3 10 4 11 5 12 6 13 7 6 8 5 9 4 10 3 11 2 12 1 13
REMARK H PARENT
REMARK Flexibility Score: inf
ROOT
ATOM      1  C   UNL     1     174.661 176.346 179.850  1.00  0.00     0.000 C 
ENDROOT
BRANCH   1   2
ATOM      2  C   UNL     1     173.320 177.010 180.205  1.00  0.00     0.000 C 
BRANCH   2   3
ATOM      3  C   UNL     1     173.131 177.183 181.721  1.00  0.00     0.006 C 
BRANCH   3   4
ATOM      4  C   UNL     1     171.983 176.328 182.273  1.00  0.00     0.053 C 
BRANCH   4   5
ATOM      5  C   UNL     1     170.739 177.149 182.409  1.00  0.00     0.041 C 
ATOM      6  O   UNL     1     170.247 177.370 183.547  1.00  0.00    -0.550 OA
ATOM      7  O   UNL     1     170.096 177.631 181.276  1.00  0.00    -0.550 OA
ENDBRANCH   4   5
ENDBRANCH   3   4
ENDBRANCH   2   3
ENDBRANCH   1   2
BRANCH   1   8
ATOM      8  C   UNL     1     175.831 177.344 179.830  1.00  0.00     0.000 C 
BRANCH   8   9
ATOM      9  C   UNL     1     177.003 176.896 180.721  1.00  0.00    -0.000 C 
BRANCH   9  10
ATOM     10  C   UNL     1     176.995 177.582 182.097  1.00  0.00    -0.000 C 
BRANCH  10  11
ATOM     11  C   UNL     1     176.452 176.675 183.210  1.00  0.00    -0.000 C 
BRANCH  11  12
ATOM     12  C   UNL     1     176.607 175.196 182.837  1.00  0.00    -0.003 C 
ATOM     13  C   UNL     1     175.282 174.451 182.970  1.00  0.00     0.004 C 
ENDBRANCH  11  12
ENDBRANCH  10  11
ENDBRANCH   9  10
ENDBRANCH   8   9
ENDBRANCH   1   8
TORSDOF 9
ENDMDL
MODEL 9
REMARK VINA RESULT:    -3.675      3.076      4.278
REMARK INTER + INTRA:          -6.661
REMARK INTER:                  -5.171
REMARK INTRA:                  -1.490
REMARK UNBOUND:                -1.052
REMARK SMILES CCCCCCCCCCC(=O)[O-]
REMARK SMILES IDX 7 1 8 2 9 3 10 4 11 5 12 6 13 7 6 8 5 9 4 10 3 11 2 12 1 13
REMARK H PARENT
REMARK Flexibility Score: inf
ROOT
ATOM      1  C   UNL     1     173.878 176.692 182.539  1.00  0.00     0.000 C 
ENDROOT
BRANCH   1   2
ATOM      2  C   UNL     1     173.606 176.683 181.024  1.00  0.00     0.000 C 
BRANCH   2   3
ATOM      3  C   UNL     1     174.741 177.333 180.218  1.00  0.00     0.006 C 
BRANCH   3   4
ATOM      4  C   UNL     1     175.167 176.486 179.012  1.00  0.00     0.053 C 
BRANCH   4   5
ATOM      5  C   UNL     1     176.650 176.558 178.821  1.00  0.00     0.041 C 
ATOM      6  O   UNL     1     177.202 175.907 177.895  1.00  0.00    -0.550 OA
ATOM      7  O   UNL     1     177.428 177.305 179.696  1.00  0.00    -0.550 OA
ENDBRANCH   4   5
ENDBRANCH   3   4
ENDBRANCH   2   3
ENDBRANCH   1   2
BRANCH   1   8
ATOM      8  C   UNL     1     175.378 176.717 182.872  1.00  0.00     0.000 C 
BRANCH   8   9
ATOM      9  C   UNL     1     175.914 175.336 183.286  1.00  0.00    -0.000 C 
BRANCH   9  10
ATOM     10  C   UNL     1     177.030 174.832 182.355  1.00  0.00    -0.000 C 
BRANCH  10  11
ATOM     11  C   UNL     1     176.528 173.812 181.323  1.00  0.00    -0.000 C 
BRANCH  11  12
ATOM     12  C   UNL     1     175.228 173.150 181.794  1.00  0.00    -0.003 C 
ATOM     13  C   UNL     1     174.201 173.086 180.667  1.00  0.00     0.004 C 
ENDBRANCH  11  12
ENDBRANCH  10  11
ENDBRANCH   9  10
ENDBRANCH   8   9
ENDBRANCH   1   8
TORSDOF 9
ENDMDL
