MODEL 1
REMARK VINA RESULT:    -6.366      0.000      0.000
REMARK INTER + INTRA:         -11.932
REMARK INTER:                  -9.901
REMARK INTRA:                  -2.030
REMARK UNBOUND:                -2.030
REMARK SMILES C[C@]12C[C@]3(O)O[C@H](O1)[C@@]1(COC(=O)c4ccccc4)[C@@H]3C[C@]12O[C@@H]1O[C@H](CO)[C@H](O)[C@@H](O)[C@@H]1O
REMARK SMILES IDX 1 1 2 2 3 3 4 4 20 5 21 6 22 7 9 8 7 9 8 10 6 11 23 12 24 13
REMARK SMILES IDX 33 14 25 15 31 16 26 17 29 18 34 19 32 21 27 23 28 24 30 26
REMARK SMILES IDX 5 28 10 30 11 31 12 32 13 33 14 34 15 35 19 36 16 37 18 38
REMARK SMILES IDX 17 39
REMARK H PARENT 34 20 32 22 28 25 30 27 5 29
REMARK Flexibility Score: inf
ROOT
ATOM      1  C   UNL     1      15.837  52.675  33.074  1.00  0.00     0.046 C 
ATOM      2  C   UNL     1      14.618  53.222  33.779  1.00  0.00     0.104 C 
ATOM      3  C   UNL     1      14.161  52.276  34.991  1.00  0.00     0.104 C 
ATOM      4  C   UNL     1      12.979  53.074  35.698  1.00  0.00     0.175 C 
ATOM      5  C   UNL     1      13.518  54.563  35.804  1.00  0.00     0.070 C 
ATOM      6  C   UNL     1      15.092  54.895  35.549  1.00  0.00     0.050 C 
ATOM      7  C   UNL     1      14.690  54.789  33.968  1.00  0.00     0.115 C 
ATOM      8  C   UNL     1      13.262  55.044  34.356  1.00  0.00     0.096 C 
ATOM      9  C   UNL     1      12.480  53.947  33.733  1.00  0.00     0.267 C 
ATOM     10  O   UNL     1      13.437  53.081  33.074  1.00  0.00    -0.342 OA
ATOM     11  O   UNL     1      11.912  53.188  34.824  1.00  0.00    -0.320 OA
ENDROOT
BRANCH   7  12
ATOM     12  O   UNL     1      14.840  55.667  32.745  1.00  0.00    -0.339 OA
BRANCH  12  13
ATOM     13  C   UNL     1      15.931  56.651  32.655  1.00  0.00     0.282 C 
ATOM     14  C   UNL     1      16.815  56.844  31.265  1.00  0.00     0.202 C 
ATOM     15  O   UNL     1      15.422  58.024  32.975  1.00  0.00    -0.341 OA
ATOM     16  C   UNL     1      15.931  57.619  30.392  1.00  0.00     0.179 C 
ATOM     17  C   UNL     1      16.380  59.032  32.556  1.00  0.00     0.178 C 
ATOM     18  C   UNL     1      16.261  59.056  30.899  1.00  0.00     0.177 C 
BRANCH  14  19
ATOM     19  O   UNL     1      17.578  56.030  30.367  1.00  0.00    -0.385 OA
ATOM     20  H   UNL     1      16.944  55.585  29.749  1.00  0.00     0.211 HD
ENDBRANCH  14  19
BRANCH  16  21
ATOM     21  O   UNL     1      16.062  57.136  29.026  1.00  0.00    -0.387 OA
ATOM     22  H   UNL     1      15.805  56.189  29.023  1.00  0.00     0.211 HD
ENDBRANCH  16  21
BRANCH  17  23
ATOM     23  C   UNL     1      16.565  60.492  33.083  1.00  0.00     0.191 C 
BRANCH  23  24
ATOM     24  O   UNL     1      17.374  61.259  32.242  1.00  0.00    -0.394 OA
ATOM     25  H   UNL     1      17.893  61.933  32.817  1.00  0.00     0.210 HD
ENDBRANCH  23  24
ENDBRANCH  17  23
BRANCH  18  26
ATOM     26  O   UNL     1      15.303  60.086  30.596  1.00  0.00    -0.387 OA
ATOM     27  H   UNL     1      15.253  60.081  29.600  1.00  0.00     0.211 HD
ENDBRANCH  18  26
ENDBRANCH  12  13
ENDBRANCH   7  12
BRANCH   4  28
ATOM     28  O   UNL     1      12.496  52.330  36.808  1.00  0.00    -0.365 OA
ATOM     29  H   UNL     1      12.971  51.411  36.770  1.00  0.00     0.214 HD
ENDBRANCH   4  28
BRANCH   8  30
ATOM     30  C   UNL     1      12.466  56.381  34.217  1.00  0.00     0.249 C 
BRANCH  30  31
ATOM     31  O   UNL     1      11.970  56.578  32.852  1.00  0.00    -0.461 OA
BRANCH  31  32
ATOM     32  C   UNL     1      12.106  57.721  32.026  1.00  0.00     0.338 C 
ATOM     33  O   UNL     1      12.454  57.523  30.829  1.00  0.00    -0.246 OA
BRANCH  32  34
ATOM     34  C   UNL     1      11.528  59.076  32.414  1.00  0.00     0.060 A 
ATOM     35  C   UNL     1      10.333  59.016  33.182  1.00  0.00     0.015 A 
ATOM     36  C   UNL     1      12.470  60.093  32.721  1.00  0.00     0.015 A 
ATOM     37  C   UNL     1      10.343  59.507  34.515  1.00  0.00     0.001 A 
ATOM     38  C   UNL     1      12.318  60.827  33.926  1.00  0.00     0.001 A 
ATOM     39  C   UNL     1      11.317  60.447  34.862  1.00  0.00     0.000 A 
ENDBRANCH  32  34
ENDBRANCH  31  32
ENDBRANCH  30  31
ENDBRANCH   8  30
TORSDOF 12
ENDMDL
MODEL 2
REMARK VINA RESULT:    -6.028      1.821      6.705
REMARK INTER + INTRA:         -11.406
REMARK INTER:                  -9.727
REMARK INTRA:                  -1.680
REMARK UNBOUND:                -2.030
REMARK SMILES C[C@]12C[C@]3(O)O[C@H](O1)[C@@]1(COC(=O)c4ccccc4)[C@@H]3C[C@]12O[C@@H]1O[C@H](CO)[C@H](O)[C@@H](O)[C@@H]1O
REMARK SMILES IDX 1 1 2 2 3 3 4 4 20 5 21 6 22 7 9 8 7 9 8 10 6 11 23 12 24 13
REMARK SMILES IDX 33 14 25 15 31 16 26 17 29 18 34 19 32 21 27 23 28 24 30 26
REMARK SMILES IDX 5 28 10 30 11 31 12 32 13 33 14 34 15 35 19 36 16 37 18 38
REMARK SMILES IDX 17 39
REMARK H PARENT 34 20 32 22 28 25 30 27 5 29
REMARK Flexibility Score: inf
ROOT
ATOM      1  C   UNL     1      13.985  60.395  32.819  1.00  0.00     0.046 C 
ATOM      2  C   UNL     1      14.893  59.380  32.166  1.00  0.00     0.104 C 
ATOM      3  C   UNL     1      16.421  59.583  32.608  1.00  0.00     0.104 C 
ATOM      4  C   UNL     1      17.193  58.354  31.955  1.00  0.00     0.175 C 
ATOM      5  C   UNL     1      16.271  57.100  32.267  1.00  0.00     0.070 C 
ATOM      6  C   UNL     1      15.065  57.209  33.356  1.00  0.00     0.050 C 
ATOM      7  C   UNL     1      14.252  57.937  32.138  1.00  0.00     0.115 C 
ATOM      8  C   UNL     1      15.194  57.280  31.171  1.00  0.00     0.096 C 
ATOM      9  C   UNL     1      15.713  58.378  30.317  1.00  0.00     0.267 C 
ATOM     10  O   UNL     1      15.132  59.604  30.824  1.00  0.00    -0.342 OA
ATOM     11  O   UNL     1      17.133  58.451  30.576  1.00  0.00    -0.320 OA
ENDROOT
BRANCH   7  12
ATOM     12  O   UNL     1      12.918  57.742  31.451  1.00  0.00    -0.339 OA
BRANCH  12  13
ATOM     13  C   UNL     1      11.675  57.645  32.234  1.00  0.00     0.282 C 
ATOM     14  C   UNL     1      10.744  56.273  32.218  1.00  0.00     0.202 C 
ATOM     15  O   UNL     1      11.951  57.901  33.684  1.00  0.00    -0.341 OA
ATOM     16  C   UNL     1      11.466  55.349  33.095  1.00  0.00     0.179 C 
ATOM     17  C   UNL     1      10.827  57.471  34.499  1.00  0.00     0.178 C 
ATOM     18  C   UNL     1      10.908  55.812  34.476  1.00  0.00     0.177 C 
BRANCH  14  19
ATOM     19  O   UNL     1      10.111  55.425  31.253  1.00  0.00    -0.385 OA
ATOM     20  H   UNL     1       9.349  54.976  31.698  1.00  0.00     0.211 HD
ENDBRANCH  14  19
BRANCH  16  21
ATOM     21  O   UNL     1      11.391  54.006  32.542  1.00  0.00    -0.387 OA
ATOM     22  H   UNL     1      11.695  53.383  33.238  1.00  0.00     0.211 HD
ENDBRANCH  16  21
BRANCH  17  23
ATOM     23  C   UNL     1      10.409  57.949  35.927  1.00  0.00     0.191 C 
BRANCH  23  24
ATOM     24  O   UNL     1      10.868  59.237  36.210  1.00  0.00    -0.394 OA
ATOM     25  H   UNL     1      11.751  59.161  36.727  1.00  0.00     0.210 HD
ENDBRANCH  23  24
ENDBRANCH  17  23
BRANCH  18  26
ATOM     26  O   UNL     1      11.672  55.445  35.639  1.00  0.00    -0.387 OA
ATOM     27  H   UNL     1      10.981  55.292  36.341  1.00  0.00     0.211 HD
ENDBRANCH  18  26
ENDBRANCH  12  13
ENDBRANCH   7  12
BRANCH   4  28
ATOM     28  O   UNL     1      18.572  58.420  32.291  1.00  0.00    -0.365 OA
ATOM     29  H   UNL     1      18.641  59.055  33.106  1.00  0.00     0.214 HD
ENDBRANCH   4  28
BRANCH   8  30
ATOM     30  C   UNL     1      14.918  56.027  30.280  1.00  0.00     0.249 C 
BRANCH  30  31
ATOM     31  O   UNL     1      15.481  54.808  30.867  1.00  0.00    -0.461 OA
BRANCH  31  32
ATOM     32  C   UNL     1      14.843  53.864  31.708  1.00  0.00     0.338 C 
ATOM     33  O   UNL     1      13.935  53.157  31.188  1.00  0.00    -0.246 OA
BRANCH  32  34
ATOM     34  C   UNL     1      15.431  53.445  33.049  1.00  0.00     0.060 A 
ATOM     35  C   UNL     1      14.773  53.990  34.185  1.00  0.00     0.015 A 
ATOM     36  C   UNL     1      15.912  52.111  33.131  1.00  0.00     0.015 A 
ATOM     37  C   UNL     1      14.103  53.115  35.082  1.00  0.00     0.001 A 
ATOM     38  C   UNL     1      15.493  51.296  34.215  1.00  0.00     0.001 A 
ATOM     39  C   UNL     1      14.504  51.777  35.117  1.00  0.00     0.000 A 
ENDBRANCH  32  34
ENDBRANCH  31  32
ENDBRANCH  30  31
ENDBRANCH   8  30
TORSDOF 12
ENDMDL
MODEL 3
REMARK VINA RESULT:    -5.998      1.888      4.917
REMARK INTER + INTRA:         -11.359
REMARK INTER:                  -9.148
REMARK INTRA:                  -2.211
REMARK UNBOUND:                -2.030
REMARK SMILES C[C@]12C[C@]3(O)O[C@H](O1)[C@@]1(COC(=O)c4ccccc4)[C@@H]3C[C@]12O[C@@H]1O[C@H](CO)[C@H](O)[C@@H](O)[C@@H]1O
REMARK SMILES IDX 1 1 2 2 3 3 4 4 20 5 21 6 22 7 9 8 7 9 8 10 6 11 23 12 24 13
REMARK SMILES IDX 33 14 25 15 31 16 26 17 29 18 34 19 32 21 27 23 28 24 30 26
REMARK SMILES IDX 5 28 10 30 11 31 12 32 13 33 14 34 15 35 19 36 16 37 18 38
REMARK SMILES IDX 17 39
REMARK H PARENT 34 20 32 22 28 25 30 27 5 29
REMARK Flexibility Score: inf
ROOT
ATOM      1  C   UNL     1      12.419  54.409  35.851  1.00  0.00     0.046 C 
ATOM      2  C   UNL     1      13.469  54.040  34.830  1.00  0.00     0.104 C 
ATOM      3  C   UNL     1      14.006  52.545  35.048  1.00  0.00     0.104 C 
ATOM      4  C   UNL     1      14.976  52.283  33.813  1.00  0.00     0.175 C 
ATOM      5  C   UNL     1      14.171  52.832  32.560  1.00  0.00     0.070 C 
ATOM      6  C   UNL     1      12.584  53.177  32.679  1.00  0.00     0.050 C 
ATOM      7  C   UNL     1      13.104  54.558  33.384  1.00  0.00     0.115 C 
ATOM      8  C   UNL     1      14.434  54.349  32.717  1.00  0.00     0.096 C 
ATOM      9  C   UNL     1      15.440  54.442  33.805  1.00  0.00     0.267 C 
ATOM     10  O   UNL     1      14.701  54.633  35.035  1.00  0.00    -0.342 OA
ATOM     11  O   UNL     1      16.061  53.139  33.889  1.00  0.00    -0.320 OA
ENDROOT
BRANCH   7  12
ATOM     12  O   UNL     1      12.880  56.039  33.172  1.00  0.00    -0.339 OA
BRANCH  12  13
ATOM     13  C   UNL     1      11.551  56.555  32.808  1.00  0.00     0.282 C 
ATOM     14  C   UNL     1      10.541  57.228  33.938  1.00  0.00     0.202 C 
ATOM     15  O   UNL     1      11.671  57.596  31.737  1.00  0.00    -0.341 OA
ATOM     16  C   UNL     1      11.095  58.568  34.149  1.00  0.00     0.179 C 
ATOM     17  C   UNL     1      10.435  58.350  31.620  1.00  0.00     0.178 C 
ATOM     18  C   UNL     1      10.410  59.321  32.967  1.00  0.00     0.177 C 
BRANCH  14  19
ATOM     19  O   UNL     1       9.973  56.875  35.204  1.00  0.00    -0.385 OA
ATOM     20  H   UNL     1      10.673  56.996  35.894  1.00  0.00     0.211 HD
ENDBRANCH  14  19
BRANCH  16  21
ATOM     21  O   UNL     1      10.998  58.909  35.560  1.00  0.00    -0.387 OA
ATOM     22  H   UNL     1      11.550  58.266  36.057  1.00  0.00     0.211 HD
ENDBRANCH  16  21
BRANCH  17  23
ATOM     23  C   UNL     1       9.884  59.150  30.396  1.00  0.00     0.191 C 
BRANCH  23  24
ATOM     24  O   UNL     1      10.862  59.952  29.803  1.00  0.00    -0.394 OA
ATOM     25  H   UNL     1      10.408  60.790  29.422  1.00  0.00     0.210 HD
ENDBRANCH  23  24
ENDBRANCH  17  23
BRANCH  18  26
ATOM     26  O   UNL     1      11.008  60.564  32.560  1.00  0.00    -0.387 OA
ATOM     27  H   UNL     1      11.907  60.298  32.223  1.00  0.00     0.211 HD
ENDBRANCH  18  26
ENDBRANCH  12  13
ENDBRANCH   7  12
BRANCH   4  28
ATOM     28  O   UNL     1      15.509  50.969  33.892  1.00  0.00    -0.365 OA
ATOM     29  H   UNL     1      16.531  51.063  33.758  1.00  0.00     0.214 HD
ENDBRANCH   4  28
BRANCH   8  30
ATOM     30  C   UNL     1      14.984  55.078  31.449  1.00  0.00     0.249 C 
BRANCH  30  31
ATOM     31  O   UNL     1      16.080  55.992  31.781  1.00  0.00    -0.461 OA
BRANCH  31  32
ATOM     32  C   UNL     1      16.161  57.386  31.545  1.00  0.00     0.338 C 
ATOM     33  O   UNL     1      16.147  57.764  30.340  1.00  0.00    -0.246 OA
BRANCH  32  34
ATOM     34  C   UNL     1      15.913  58.411  32.644  1.00  0.00     0.060 A 
ATOM     35  C   UNL     1      17.040  59.208  32.981  1.00  0.00     0.015 A 
ATOM     36  C   UNL     1      14.633  59.026  32.647  1.00  0.00     0.015 A 
ATOM     37  C   UNL     1      16.995  60.607  32.736  1.00  0.00     0.001 A 
ATOM     38  C   UNL     1      14.553  60.442  32.719  1.00  0.00     0.001 A 
ATOM     39  C   UNL     1      15.742  61.219  32.651  1.00  0.00     0.000 A 
ENDBRANCH  32  34
ENDBRANCH  31  32
ENDBRANCH  30  31
ENDBRANCH   8  30
TORSDOF 12
ENDMDL
MODEL 4
REMARK VINA RESULT:    -5.719      4.410      6.882
REMARK INTER + INTRA:         -10.925
REMARK INTER:                  -8.994
REMARK INTRA:                  -1.932
REMARK UNBOUND:                -2.030
REMARK SMILES C[C@]12C[C@]3(O)O[C@H](O1)[C@@]1(COC(=O)c4ccccc4)[C@@H]3C[C@]12O[C@@H]1O[C@H](CO)[C@H](O)[C@@H](O)[C@@H]1O
REMARK SMILES IDX 1 1 2 2 3 3 4 4 20 5 21 6 22 7 9 8 7 9 8 10 6 11 23 12 24 13
REMARK SMILES IDX 33 14 25 15 31 16 26 17 29 18 34 19 32 21 27 23 28 24 30 26
REMARK SMILES IDX 5 28 10 30 11 31 12 32 13 33 14 34 15 35 19 36 16 37 18 38
REMARK SMILES IDX 17 39
REMARK H PARENT 34 20 32 22 28 25 30 27 5 29
REMARK Flexibility Score: inf
ROOT
ATOM      1  C   UNL     1      13.576  49.246  27.748  1.00  0.00     0.046 C 
ATOM      2  C   UNL     1      14.137  49.032  29.135  1.00  0.00     0.104 C 
ATOM      3  C   UNL     1      14.393  47.477  29.435  1.00  0.00     0.104 C 
ATOM      4  C   UNL     1      15.113  47.457  30.855  1.00  0.00     0.175 C 
ATOM      5  C   UNL     1      16.209  48.600  30.755  1.00  0.00     0.070 C 
ATOM      6  C   UNL     1      16.602  49.250  29.315  1.00  0.00     0.050 C 
ATOM      7  C   UNL     1      15.226  50.111  29.512  1.00  0.00     0.115 C 
ATOM      8  C   UNL     1      15.320  49.845  30.987  1.00  0.00     0.096 C 
ATOM      9  C   UNL     1      13.998  49.291  31.373  1.00  0.00     0.267 C 
ATOM     10  O   UNL     1      13.219  49.194  30.155  1.00  0.00    -0.342 OA
ATOM     11  O   UNL     1      14.245  47.938  31.819  1.00  0.00    -0.320 OA
ENDROOT
BRANCH   7  12
ATOM     12  O   UNL     1      14.846  51.575  29.484  1.00  0.00    -0.339 OA
BRANCH  12  13
ATOM     13  C   UNL     1      14.980  52.365  28.250  1.00  0.00     0.282 C 
ATOM     14  C   UNL     1      15.119  54.017  28.286  1.00  0.00     0.202 C 
ATOM     15  O   UNL     1      16.167  51.901  27.461  1.00  0.00    -0.341 OA
ATOM     16  C   UNL     1      16.511  54.243  28.682  1.00  0.00     0.179 C 
ATOM     17  C   UNL     1      16.513  52.878  26.442  1.00  0.00     0.178 C 
ATOM     18  C   UNL     1      17.198  54.134  27.286  1.00  0.00     0.177 C 
BRANCH  14  19
ATOM     19  O   UNL     1      14.408  55.134  28.832  1.00  0.00    -0.385 OA
ATOM     20  H   UNL     1      14.723  55.950  28.366  1.00  0.00     0.211 HD
ENDBRANCH  14  19
BRANCH  16  21
ATOM     21  O   UNL     1      16.573  55.381  29.586  1.00  0.00    -0.387 OA
ATOM     22  H   UNL     1      15.911  55.231  30.295  1.00  0.00     0.211 HD
ENDBRANCH  16  21
BRANCH  17  23
ATOM     23  C   UNL     1      17.293  52.668  25.104  1.00  0.00     0.191 C 
BRANCH  23  24
ATOM     24  O   UNL     1      18.361  51.779  25.247  1.00  0.00    -0.394 OA
ATOM     25  H   UNL     1      17.988  50.823  25.256  1.00  0.00     0.210 HD
ENDBRANCH  23  24
ENDBRANCH  17  23
BRANCH  18  26
ATOM     26  O   UNL     1      18.614  53.878  27.280  1.00  0.00    -0.387 OA
ATOM     27  H   UNL     1      19.017  54.753  27.534  1.00  0.00     0.211 HD
ENDBRANCH  18  26
ENDBRANCH  12  13
ENDBRANCH   7  12
BRANCH   4  28
ATOM     28  O   UNL     1      15.404  46.117  31.226  1.00  0.00    -0.365 OA
ATOM     29  H   UNL     1      16.127  46.172  31.964  1.00  0.00     0.214 HD
ENDBRANCH   4  28
BRANCH   8  30
ATOM     30  C   UNL     1      15.806  50.829  32.099  1.00  0.00     0.249 C 
BRANCH  30  31
ATOM     31  O   UNL     1      14.732  51.723  32.540  1.00  0.00    -0.461 OA
BRANCH  31  32
ATOM     32  C   UNL     1      14.799  53.114  32.795  1.00  0.00     0.338 C 
ATOM     33  O   UNL     1      14.868  53.878  31.791  1.00  0.00    -0.246 OA
BRANCH  32  34
ATOM     34  C   UNL     1      14.444  53.708  34.153  1.00  0.00     0.060 A 
ATOM     35  C   UNL     1      13.791  54.969  34.099  1.00  0.00     0.015 A 
ATOM     36  C   UNL     1      14.035  52.785  35.151  1.00  0.00     0.015 A 
ATOM     37  C   UNL     1      12.454  55.076  34.569  1.00  0.00     0.001 A 
ATOM     38  C   UNL     1      12.837  53.037  35.869  1.00  0.00     0.001 A 
ATOM     39  C   UNL     1      12.004  54.125  35.489  1.00  0.00     0.000 A 
ENDBRANCH  32  34
ENDBRANCH  31  32
ENDBRANCH  30  31
ENDBRANCH   8  30
TORSDOF 12
ENDMDL
MODEL 5
REMARK VINA RESULT:    -5.650      2.736      6.578
REMARK INTER + INTRA:         -10.819
REMARK INTER:                  -9.117
REMARK INTRA:                  -1.702
REMARK UNBOUND:                -2.030
REMARK SMILES C[C@]12C[C@]3(O)O[C@H](O1)[C@@]1(COC(=O)c4ccccc4)[C@@H]3C[C@]12O[C@@H]1O[C@H](CO)[C@H](O)[C@@H](O)[C@@H]1O
REMARK SMILES IDX 1 1 2 2 3 3 4 4 20 5 21 6 22 7 9 8 7 9 8 10 6 11 23 12 24 13
REMARK SMILES IDX 33 14 25 15 31 16 26 17 29 18 34 19 32 21 27 23 28 24 30 26
REMARK SMILES IDX 5 28 10 30 11 31 12 32 13 33 14 34 15 35 19 36 16 37 18 38
REMARK SMILES IDX 17 39
REMARK H PARENT 34 20 32 22 28 25 30 27 5 29
REMARK Flexibility Score: inf
ROOT
ATOM      1  C   UNL     1      14.263  58.523  29.008  1.00  0.00     0.046 C 
ATOM      2  C   UNL     1      15.082  58.229  30.243  1.00  0.00     0.104 C 
ATOM      3  C   UNL     1      16.132  59.402  30.549  1.00  0.00     0.104 C 
ATOM      4  C   UNL     1      16.787  59.000  31.943  1.00  0.00     0.175 C 
ATOM      5  C   UNL     1      15.555  58.567  32.845  1.00  0.00     0.070 C 
ATOM      6  C   UNL     1      14.030  58.907  32.386  1.00  0.00     0.050 C 
ATOM      7  C   UNL     1      14.209  57.611  31.405  1.00  0.00     0.115 C 
ATOM      8  C   UNL     1      15.316  57.137  32.303  1.00  0.00     0.096 C 
ATOM      9  C   UNL     1      16.471  56.882  31.406  1.00  0.00     0.267 C 
ATOM     10  O   UNL     1      16.047  57.255  30.072  1.00  0.00    -0.342 OA
ATOM     11  O   UNL     1      17.497  57.822  31.796  1.00  0.00    -0.320 OA
ENDROOT
BRANCH   7  12
ATOM     12  O   UNL     1      13.449  56.329  31.147  1.00  0.00    -0.339 OA
BRANCH  12  13
ATOM     13  C   UNL     1      13.208  55.860  29.773  1.00  0.00     0.282 C 
ATOM     14  C   UNL     1      14.170  54.709  29.066  1.00  0.00     0.202 C 
ATOM     15  O   UNL     1      11.815  55.325  29.641  1.00  0.00    -0.341 OA
ATOM     16  C   UNL     1      13.710  53.454  29.663  1.00  0.00     0.179 C 
ATOM     17  C   UNL     1      11.681  54.553  28.417  1.00  0.00     0.178 C 
ATOM     18  C   UNL     1      12.506  53.144  28.721  1.00  0.00     0.177 C 
BRANCH  14  19
ATOM     19  O   UNL     1      15.563  54.494  28.813  1.00  0.00    -0.385 OA
ATOM     20  H   UNL     1      15.655  53.620  28.355  1.00  0.00     0.211 HD
ENDBRANCH  14  19
BRANCH  16  21
ATOM     21  O   UNL     1      14.856  52.592  29.908  1.00  0.00    -0.387 OA
ATOM     22  H   UNL     1      15.576  52.881  29.307  1.00  0.00     0.211 HD
ENDBRANCH  16  21
BRANCH  17  23
ATOM     23  C   UNL     1      10.391  54.230  27.595  1.00  0.00     0.191 C 
BRANCH  23  24
ATOM     24  O   UNL     1      10.601  53.216  26.658  1.00  0.00    -0.394 OA
ATOM     25  H   UNL     1      11.599  53.197  26.419  1.00  0.00     0.210 HD
ENDBRANCH  23  24
ENDBRANCH  17  23
BRANCH  18  26
ATOM     26  O   UNL     1      11.522  52.217  29.213  1.00  0.00    -0.387 OA
ATOM     27  H   UNL     1      12.058  51.427  29.498  1.00  0.00     0.211 HD
ENDBRANCH  18  26
ENDBRANCH  12  13
ENDBRANCH   7  12
BRANCH   4  28
ATOM     28  O   UNL     1      17.737  59.983  32.328  1.00  0.00    -0.365 OA
ATOM     29  H   UNL     1      17.341  60.459  33.158  1.00  0.00     0.214 HD
ENDBRANCH   4  28
BRANCH   8  30
ATOM     30  C   UNL     1      15.246  56.007  33.379  1.00  0.00     0.249 C 
BRANCH  30  31
ATOM     31  O   UNL     1      15.567  54.695  32.810  1.00  0.00    -0.461 OA
BRANCH  31  32
ATOM     32  C   UNL     1      15.292  53.414  33.349  1.00  0.00     0.338 C 
ATOM     33  O   UNL     1      16.286  52.711  33.687  1.00  0.00    -0.246 OA
BRANCH  32  34
ATOM     34  C   UNL     1      13.906  53.022  33.845  1.00  0.00     0.060 A 
ATOM     35  C   UNL     1      13.770  52.973  35.258  1.00  0.00     0.015 A 
ATOM     36  C   UNL     1      12.810  53.509  33.084  1.00  0.00     0.015 A 
ATOM     37  C   UNL     1      12.893  53.888  35.901  1.00  0.00     0.001 A 
ATOM     38  C   UNL     1      11.747  54.166  33.756  1.00  0.00     0.001 A 
ATOM     39  C   UNL     1      11.857  54.445  35.146  1.00  0.00     0.000 A 
ENDBRANCH  32  34
ENDBRANCH  31  32
ENDBRANCH  30  31
ENDBRANCH   8  30
TORSDOF 12
ENDMDL
MODEL 6
REMARK VINA RESULT:    -5.649      2.388      6.160
REMARK INTER + INTRA:         -10.817
REMARK INTER:                  -8.656
REMARK INTRA:                  -2.161
REMARK UNBOUND:                -2.030
REMARK SMILES C[C@]12C[C@]3(O)O[C@H](O1)[C@@]1(COC(=O)c4ccccc4)[C@@H]3C[C@]12O[C@@H]1O[C@H](CO)[C@H](O)[C@@H](O)[C@@H]1O
REMARK SMILES IDX 1 1 2 2 3 3 4 4 20 5 21 6 22 7 9 8 7 9 8 10 6 11 23 12 24 13
REMARK SMILES IDX 33 14 25 15 31 16 26 17 29 18 34 19 32 21 27 23 28 24 30 26
REMARK SMILES IDX 5 28 10 30 11 31 12 32 13 33 14 34 15 35 19 36 16 37 18 38
REMARK SMILES IDX 17 39
REMARK H PARENT 34 20 32 22 28 25 30 27 5 29
REMARK Flexibility Score: inf
ROOT
ATOM      1  C   UNL     1      17.595  58.149  31.723  1.00  0.00     0.046 C 
ATOM      2  C   UNL     1      16.171  58.641  31.601  1.00  0.00     0.104 C 
ATOM      3  C   UNL     1      16.114  60.203  31.244  1.00  0.00     0.104 C 
ATOM      4  C   UNL     1      14.569  60.504  31.009  1.00  0.00     0.175 C 
ATOM      5  C   UNL     1      14.069  59.302  30.101  1.00  0.00     0.070 C 
ATOM      6  C   UNL     1      15.137  58.316  29.369  1.00  0.00     0.050 C 
ATOM      7  C   UNL     1      15.247  57.611  30.840  1.00  0.00     0.115 C 
ATOM      8  C   UNL     1      13.909  58.202  31.178  1.00  0.00     0.096 C 
ATOM      9  C   UNL     1      14.104  58.913  32.467  1.00  0.00     0.267 C 
ATOM     10  O   UNL     1      15.506  58.775  32.805  1.00  0.00    -0.342 OA
ATOM     11  O   UNL     1      13.877  60.313  32.192  1.00  0.00    -0.320 OA
ENDROOT
BRANCH   7  12
ATOM     12  O   UNL     1      15.112  56.207  31.387  1.00  0.00    -0.339 OA
BRANCH  12  13
ATOM     13  C   UNL     1      15.568  55.047  30.604  1.00  0.00     0.282 C 
ATOM     14  C   UNL     1      14.560  53.774  30.269  1.00  0.00     0.202 C 
ATOM     15  O   UNL     1      16.080  55.489  29.267  1.00  0.00    -0.341 OA
ATOM     16  C   UNL     1      13.711  54.275  29.186  1.00  0.00     0.179 C 
ATOM     17  C   UNL     1      16.202  54.353  28.369  1.00  0.00     0.178 C 
ATOM     18  C   UNL     1      14.636  53.970  27.968  1.00  0.00     0.177 C 
BRANCH  14  19
ATOM     19  O   UNL     1      13.720  52.862  30.986  1.00  0.00    -0.385 OA
ATOM     20  H   UNL     1      13.561  52.076  30.405  1.00  0.00     0.211 HD
ENDBRANCH  14  19
BRANCH  16  21
ATOM     21  O   UNL     1      12.352  53.791  29.379  1.00  0.00    -0.387 OA
ATOM     22  H   UNL     1      12.272  52.939  28.898  1.00  0.00     0.211 HD
ENDBRANCH  16  21
BRANCH  17  23
ATOM     23  C   UNL     1      17.112  54.190  27.109  1.00  0.00     0.191 C 
BRANCH  23  24
ATOM     24  O   UNL     1      18.431  53.876  27.446  1.00  0.00    -0.394 OA
ATOM     25  H   UNL     1      18.436  52.968  27.924  1.00  0.00     0.210 HD
ENDBRANCH  23  24
ENDBRANCH  17  23
BRANCH  18  26
ATOM     26  O   UNL     1      14.361  54.687  26.751  1.00  0.00    -0.387 OA
ATOM     27  H   UNL     1      13.794  55.452  27.047  1.00  0.00     0.211 HD
ENDBRANCH  18  26
ENDBRANCH  12  13
ENDBRANCH   7  12
BRANCH   4  28
ATOM     28  O   UNL     1      14.393  61.873  30.671  1.00  0.00    -0.365 OA
ATOM     29  H   UNL     1      14.160  62.362  31.553  1.00  0.00     0.214 HD
ENDBRANCH   4  28
BRANCH   8  30
ATOM     30  C   UNL     1      12.528  57.472  31.201  1.00  0.00     0.249 C 
BRANCH  30  31
ATOM     31  O   UNL     1      12.175  57.021  32.550  1.00  0.00    -0.461 OA
BRANCH  31  32
ATOM     32  C   UNL     1      12.173  55.700  33.060  1.00  0.00     0.338 C 
ATOM     33  O   UNL     1      11.849  54.778  32.260  1.00  0.00    -0.246 OA
BRANCH  32  34
ATOM     34  C   UNL     1      12.861  55.334  34.369  1.00  0.00     0.060 A 
ATOM     35  C   UNL     1      12.000  54.802  35.367  1.00  0.00     0.015 A 
ATOM     36  C   UNL     1      14.170  54.794  34.258  1.00  0.00     0.015 A 
ATOM     37  C   UNL     1      12.183  53.459  35.794  1.00  0.00     0.001 A 
ATOM     38  C   UNL     1      14.475  53.590  34.945  1.00  0.00     0.001 A 
ATOM     39  C   UNL     1      13.442  52.879  35.615  1.00  0.00     0.000 A 
ENDBRANCH  32  34
ENDBRANCH  31  32
ENDBRANCH  30  31
ENDBRANCH   8  30
TORSDOF 12
ENDMDL
MODEL 7
REMARK VINA RESULT:    -5.635      6.996     10.171
REMARK INTER + INTRA:         -10.795
REMARK INTER:                  -8.890
REMARK INTRA:                  -1.905
REMARK UNBOUND:                -2.030
REMARK SMILES C[C@]12C[C@]3(O)O[C@H](O1)[C@@]1(COC(=O)c4ccccc4)[C@@H]3C[C@]12O[C@@H]1O[C@H](CO)[C@H](O)[C@@H](O)[C@@H]1O
REMARK SMILES IDX 1 1 2 2 3 3 4 4 20 5 21 6 22 7 9 8 7 9 8 10 6 11 23 12 24 13
REMARK SMILES IDX 33 14 25 15 31 16 26 17 29 18 34 19 32 21 27 23 28 24 30 26
REMARK SMILES IDX 5 28 10 30 11 31 12 32 13 33 14 34 15 35 19 36 16 37 18 38
REMARK SMILES IDX 17 39
REMARK H PARENT 34 20 32 22 28 25 30 27 5 29
REMARK Flexibility Score: inf
ROOT
ATOM      1  C   UNL     1      12.541  43.650  30.254  1.00  0.00     0.046 C 
ATOM      2  C   UNL     1      12.579  44.794  31.240  1.00  0.00     0.104 C 
ATOM      3  C   UNL     1      12.678  44.268  32.752  1.00  0.00     0.104 C 
ATOM      4  C   UNL     1      12.858  45.588  33.624  1.00  0.00     0.175 C 
ATOM      5  C   UNL     1      13.948  46.432  32.837  1.00  0.00     0.070 C 
ATOM      6  C   UNL     1      14.832  45.748  31.654  1.00  0.00     0.050 C 
ATOM      7  C   UNL     1      13.495  45.981  30.743  1.00  0.00     0.115 C 
ATOM      8  C   UNL     1      13.063  47.036  31.720  1.00  0.00     0.096 C 
ATOM      9  C   UNL     1      11.676  46.673  32.107  1.00  0.00     0.267 C 
ATOM     10  O   UNL     1      11.368  45.434  31.422  1.00  0.00    -0.342 OA
ATOM     11  O   UNL     1      11.720  46.368  33.519  1.00  0.00    -0.320 OA
ENDROOT
BRANCH   7  12
ATOM     12  O   UNL     1      13.183  46.639  29.417  1.00  0.00    -0.339 OA
BRANCH  12  13
ATOM     13  C   UNL     1      14.143  46.582  28.303  1.00  0.00     0.282 C 
ATOM     14  C   UNL     1      15.359  47.698  28.146  1.00  0.00     0.202 C 
ATOM     15  O   UNL     1      14.839  45.255  28.282  1.00  0.00    -0.341 OA
ATOM     16  C   UNL     1      16.354  47.274  29.134  1.00  0.00     0.179 C 
ATOM     17  C   UNL     1      16.012  45.310  27.428  1.00  0.00     0.178 C 
ATOM     18  C   UNL     1      17.114  46.203  28.292  1.00  0.00     0.177 C 
BRANCH  14  19
ATOM     19  O   UNL     1      15.498  49.122  28.091  1.00  0.00    -0.385 OA
ATOM     20  H   UNL     1      16.305  49.368  28.611  1.00  0.00     0.211 HD
ENDBRANCH  14  19
BRANCH  16  21
ATOM     21  O   UNL     1      16.936  48.449  29.763  1.00  0.00    -0.387 OA
ATOM     22  H   UNL     1      17.549  48.135  30.463  1.00  0.00     0.211 HD
ENDBRANCH  16  21
BRANCH  17  23
ATOM     23  C   UNL     1      16.752  44.144  26.697  1.00  0.00     0.191 C 
BRANCH  23  24
ATOM     24  O   UNL     1      18.082  44.459  26.407  1.00  0.00    -0.394 OA
ATOM     25  H   UNL     1      18.220  44.382  25.393  1.00  0.00     0.210 HD
ENDBRANCH  23  24
ENDBRANCH  17  23
BRANCH  18  26
ATOM     26  O   UNL     1      17.901  45.245  29.023  1.00  0.00    -0.387 OA
ATOM     27  H   UNL     1      18.841  45.482  28.793  1.00  0.00     0.211 HD
ENDBRANCH  18  26
ENDBRANCH  12  13
ENDBRANCH   7  12
BRANCH   4  28
ATOM     28  O   UNL     1      12.970  45.244  34.997  1.00  0.00    -0.365 OA
ATOM     29  H   UNL     1      12.033  45.393  35.411  1.00  0.00     0.214 HD
ENDBRANCH   4  28
BRANCH   8  30
ATOM     30  C   UNL     1      13.155  48.585  31.545  1.00  0.00     0.249 C 
BRANCH  30  31
ATOM     31  O   UNL     1      14.545  49.047  31.510  1.00  0.00    -0.461 OA
BRANCH  31  32
ATOM     32  C   UNL     1      15.030  50.376  31.561  1.00  0.00     0.338 C 
ATOM     33  O   UNL     1      15.568  50.830  30.513  1.00  0.00    -0.246 OA
BRANCH  32  34
ATOM     34  C   UNL     1      14.621  51.346  32.663  1.00  0.00     0.060 A 
ATOM     35  C   UNL     1      15.596  51.539  33.679  1.00  0.00     0.015 A 
ATOM     36  C   UNL     1      13.851  52.467  32.254  1.00  0.00     0.015 A 
ATOM     37  C   UNL     1      16.187  52.822  33.836  1.00  0.00     0.001 A 
ATOM     38  C   UNL     1      14.253  53.764  32.668  1.00  0.00     0.001 A 
ATOM     39  C   UNL     1      15.482  53.932  33.363  1.00  0.00     0.000 A 
ENDBRANCH  32  34
ENDBRANCH  31  32
ENDBRANCH  30  31
ENDBRANCH   8  30
TORSDOF 12
ENDMDL
MODEL 8
REMARK VINA RESULT:    -5.627      2.460      6.396
REMARK INTER + INTRA:         -10.783
REMARK INTER:                  -9.135
REMARK INTRA:                  -1.648
REMARK UNBOUND:                -2.030
REMARK SMILES C[C@]12C[C@]3(O)O[C@H](O1)[C@@]1(COC(=O)c4ccccc4)[C@@H]3C[C@]12O[C@@H]1O[C@H](CO)[C@H](O)[C@@H](O)[C@@H]1O
REMARK SMILES IDX 1 1 2 2 3 3 4 4 20 5 21 6 22 7 9 8 7 9 8 10 6 11 23 12 24 13
REMARK SMILES IDX 33 14 25 15 31 16 26 17 29 18 34 19 32 21 27 23 28 24 30 26
REMARK SMILES IDX 5 28 10 30 11 31 12 32 13 33 14 34 15 35 19 36 16 37 18 38
REMARK SMILES IDX 17 39
REMARK H PARENT 34 20 32 22 28 25 30 27 5 29
REMARK Flexibility Score: inf
ROOT
ATOM      1  C   UNL     1      15.132  60.207  28.815  1.00  0.00     0.046 C 
ATOM      2  C   UNL     1      15.211  59.977  30.306  1.00  0.00     0.104 C 
ATOM      3  C   UNL     1      14.378  61.080  31.120  1.00  0.00     0.104 C 
ATOM      4  C   UNL     1      14.449  60.598  32.635  1.00  0.00     0.175 C 
ATOM      5  C   UNL     1      14.151  59.041  32.567  1.00  0.00     0.070 C 
ATOM      6  C   UNL     1      13.549  58.371  31.210  1.00  0.00     0.050 C 
ATOM      7  C   UNL     1      15.094  58.447  30.681  1.00  0.00     0.115 C 
ATOM      8  C   UNL     1      15.537  58.522  32.114  1.00  0.00     0.096 C 
ATOM      9  C   UNL     1      16.423  59.712  32.193  1.00  0.00     0.267 C 
ATOM     10  O   UNL     1      16.426  60.311  30.874  1.00  0.00    -0.342 OA
ATOM     11  O   UNL     1      15.761  60.647  33.074  1.00  0.00    -0.320 OA
ENDROOT
BRANCH   7  12
ATOM     12  O   UNL     1      16.095  57.473  30.099  1.00  0.00    -0.339 OA
BRANCH  12  13
ATOM     13  C   UNL     1      15.644  56.292  29.344  1.00  0.00     0.282 C 
ATOM     14  C   UNL     1      14.604  56.426  28.060  1.00  0.00     0.202 C 
ATOM     15  O   UNL     1      16.821  55.539  28.803  1.00  0.00    -0.341 OA
ATOM     16  C   UNL     1      15.455  56.902  26.968  1.00  0.00     0.179 C 
ATOM     17  C   UNL     1      16.396  54.594  27.786  1.00  0.00     0.178 C 
ATOM     18  C   UNL     1      16.025  55.538  26.470  1.00  0.00     0.177 C 
BRANCH  14  19
ATOM     19  O   UNL     1      13.320  56.997  27.784  1.00  0.00    -0.385 OA
ATOM     20  H   UNL     1      13.308  57.269  26.832  1.00  0.00     0.211 HD
ENDBRANCH  14  19
BRANCH  16  21
ATOM     21  O   UNL     1      14.717  57.870  26.171  1.00  0.00    -0.387 OA
ATOM     22  H   UNL     1      15.192  57.974  25.319  1.00  0.00     0.211 HD
ENDBRANCH  16  21
BRANCH  17  23
ATOM     23  C   UNL     1      17.102  53.287  27.301  1.00  0.00     0.191 C 
BRANCH  23  24
ATOM     24  O   UNL     1      18.487  53.439  27.199  1.00  0.00    -0.394 OA
ATOM     25  H   UNL     1      18.870  52.614  26.724  1.00  0.00     0.210 HD
ENDBRANCH  23  24
ENDBRANCH  17  23
BRANCH  18  26
ATOM     26  O   UNL     1      17.226  55.589  25.679  1.00  0.00    -0.387 OA
ATOM     27  H   UNL     1      16.894  55.695  24.746  1.00  0.00     0.211 HD
ENDBRANCH  18  26
ENDBRANCH  12  13
ENDBRANCH   7  12
BRANCH   4  28
ATOM     28  O   UNL     1      13.728  61.502  33.461  1.00  0.00    -0.365 OA
ATOM     29  H   UNL     1      14.430  61.973  34.058  1.00  0.00     0.214 HD
ENDBRANCH   4  28
BRANCH   8  30
ATOM     30  C   UNL     1      16.147  57.374  32.980  1.00  0.00     0.249 C 
BRANCH  30  31
ATOM     31  O   UNL     1      15.114  56.464  33.480  1.00  0.00    -0.461 OA
BRANCH  31  32
ATOM     32  C   UNL     1      14.726  55.206  32.959  1.00  0.00     0.338 C 
ATOM     33  O   UNL     1      15.597  54.563  32.307  1.00  0.00    -0.246 OA
BRANCH  32  34
ATOM     34  C   UNL     1      13.476  54.478  33.438  1.00  0.00     0.060 A 
ATOM     35  C   UNL     1      13.720  53.234  34.081  1.00  0.00     0.015 A 
ATOM     36  C   UNL     1      12.432  55.298  33.942  1.00  0.00     0.015 A 
ATOM     37  C   UNL     1      13.391  53.090  35.456  1.00  0.00     0.001 A 
ATOM     38  C   UNL     1      11.859  54.982  35.202  1.00  0.00     0.001 A 
ATOM     39  C   UNL     1      12.425  53.944  35.993  1.00  0.00     0.000 A 
ENDBRANCH  32  34
ENDBRANCH  31  32
ENDBRANCH  30  31
ENDBRANCH   8  30
TORSDOF 12
ENDMDL
MODEL 9
REMARK VINA RESULT:    -5.600      2.492      5.774
REMARK INTER + INTRA:         -10.740
REMARK INTER:                  -8.887
REMARK INTRA:                  -1.853
REMARK UNBOUND:                -2.030
REMARK SMILES C[C@]12C[C@]3(O)O[C@H](O1)[C@@]1(COC(=O)c4ccccc4)[C@@H]3C[C@]12O[C@@H]1O[C@H](CO)[C@H](O)[C@@H](O)[C@@H]1O
REMARK SMILES IDX 1 1 2 2 3 3 4 4 20 5 21 6 22 7 9 8 7 9 8 10 6 11 23 12 24 13
REMARK SMILES IDX 33 14 25 15 31 16 26 17 29 18 34 19 32 21 27 23 28 24 30 26
REMARK SMILES IDX 5 28 10 30 11 31 12 32 13 33 14 34 15 35 19 36 16 37 18 38
REMARK SMILES IDX 17 39
REMARK H PARENT 34 20 32 22 28 25 30 27 5 29
REMARK Flexibility Score: inf
ROOT
ATOM      1  C   UNL     1      15.499  58.208  27.082  1.00  0.00     0.046 C 
ATOM      2  C   UNL     1      15.170  56.791  27.491  1.00  0.00     0.104 C 
ATOM      3  C   UNL     1      16.120  55.728  26.756  1.00  0.00     0.104 C 
ATOM      4  C   UNL     1      15.738  54.329  27.411  1.00  0.00     0.175 C 
ATOM      5  C   UNL     1      15.672  54.629  28.968  1.00  0.00     0.070 C 
ATOM      6  C   UNL     1      16.277  56.016  29.571  1.00  0.00     0.050 C 
ATOM      7  C   UNL     1      14.877  56.668  29.038  1.00  0.00     0.115 C 
ATOM      8  C   UNL     1      14.277  55.292  29.055  1.00  0.00     0.096 C 
ATOM      9  C   UNL     1      13.690  55.100  27.704  1.00  0.00     0.267 C 
ATOM     10  O   UNL     1      14.001  56.294  26.946  1.00  0.00    -0.342 OA
ATOM     11  O   UNL     1      14.427  54.015  27.097  1.00  0.00    -0.320 OA
ENDROOT
BRANCH   7  12
ATOM     12  O   UNL     1      13.764  57.499  29.639  1.00  0.00    -0.339 OA
BRANCH  12  13
ATOM     13  C   UNL     1      14.057  58.541  30.636  1.00  0.00     0.282 C 
ATOM     14  C   UNL     1      14.209  58.183  32.248  1.00  0.00     0.202 C 
ATOM     15  O   UNL     1      15.325  59.257  30.285  1.00  0.00    -0.341 OA
ATOM     16  C   UNL     1      15.545  57.592  32.352  1.00  0.00     0.179 C 
ATOM     17  C   UNL     1      15.804  60.030  31.418  1.00  0.00     0.178 C 
ATOM     18  C   UNL     1      16.395  58.893  32.476  1.00  0.00     0.177 C 
BRANCH  14  19
ATOM     19  O   UNL     1      13.450  57.527  33.270  1.00  0.00    -0.385 OA
ATOM     20  H   UNL     1      13.501  56.551  33.105  1.00  0.00     0.211 HD
ENDBRANCH  14  19
BRANCH  16  21
ATOM     21  O   UNL     1      15.510  56.491  33.302  1.00  0.00    -0.387 OA
ATOM     22  H   UNL     1      16.113  55.793  32.967  1.00  0.00     0.211 HD
ENDBRANCH  16  21
BRANCH  17  23
ATOM     23  C   UNL     1      16.738  61.283  31.430  1.00  0.00     0.191 C 
BRANCH  23  24
ATOM     24  O   UNL     1      17.130  61.638  32.723  1.00  0.00    -0.394 OA
ATOM     25  H   UNL     1      17.914  62.297  32.654  1.00  0.00     0.210 HD
ENDBRANCH  23  24
ENDBRANCH  17  23
BRANCH  18  26
ATOM     26  O   UNL     1      17.798  58.780  32.178  1.00  0.00    -0.387 OA
ATOM     27  H   UNL     1      18.121  59.723  32.182  1.00  0.00     0.211 HD
ENDBRANCH  18  26
ENDBRANCH  12  13
ENDBRANCH   7  12
BRANCH   4  28
ATOM     28  O   UNL     1      16.533  53.299  26.841  1.00  0.00    -0.365 OA
ATOM     29  H   UNL     1      16.902  52.745  27.634  1.00  0.00     0.214 HD
ENDBRANCH   4  28
BRANCH   8  30
ATOM     30  C   UNL     1      13.306  54.693  30.123  1.00  0.00     0.249 C 
BRANCH  30  31
ATOM     31  O   UNL     1      13.836  54.842  31.481  1.00  0.00    -0.461 OA
BRANCH  31  32
ATOM     32  C   UNL     1      14.205  53.826  32.395  1.00  0.00     0.338 C 
ATOM     33  O   UNL     1      15.431  53.531  32.458  1.00  0.00    -0.246 OA
BRANCH  32  34
ATOM     34  C   UNL     1      13.273  53.354  33.504  1.00  0.00     0.060 A 
ATOM     35  C   UNL     1      13.895  53.176  34.769  1.00  0.00     0.015 A 
ATOM     36  C   UNL     1      11.953  53.876  33.475  1.00  0.00     0.015 A 
ATOM     37  C   UNL     1      13.505  54.006  35.855  1.00  0.00     0.001 A 
ATOM     38  C   UNL     1      11.413  54.442  34.659  1.00  0.00     0.001 A 
ATOM     39  C   UNL     1      12.240  54.599  35.806  1.00  0.00     0.000 A 
ENDBRANCH  32  34
ENDBRANCH  31  32
ENDBRANCH  30  31
ENDBRANCH   8  30
TORSDOF 12
ENDMDL
