MODEL 1
REMARK VINA RESULT:    -3.682      0.000      0.000
REMARK INTER + INTRA:          -7.266
REMARK INTER:                  -5.834
REMARK INTRA:                  -1.432
REMARK UNBOUND:                -1.432
REMARK SMILES C=CCCCCCCCCCCC
REMARK SMILES IDX 7 1 8 2 9 3 10 4 11 5 12 6 13 7 6 8 5 9 4 10 3 11 2 12 1 13
REMARK H PARENT
REMARK Flexibility Score: inf
ROOT
ATOM      1  C   UNL     1      55.987  43.098  42.086  1.00  0.00     0.000 C 
ENDROOT
BRANCH   1   2
ATOM      2  C   UNL     1      54.745  43.746  42.725  1.00  0.00     0.000 C 
BRANCH   2   3
ATOM      3  C   UNL     1      55.041  44.913  43.686  1.00  0.00    -0.000 C 
BRANCH   3   4
ATOM      4  C   UNL     1      54.223  46.174  43.367  1.00  0.00    -0.000 C 
BRANCH   4   5
ATOM      5  C   UNL     1      53.119  45.867  42.343  1.00  0.00    -0.000 C 
BRANCH   5   6
ATOM      6  C   UNL     1      51.744  46.393  42.784  1.00  0.00    -0.003 C 
ATOM      7  C   UNL     1      51.791  47.125  44.125  1.00  0.00     0.004 C 
ENDBRANCH   5   6
ENDBRANCH   4   5
ENDBRANCH   3   4
ENDBRANCH   2   3
ENDBRANCH   1   2
BRANCH   1   8
ATOM      8  C   UNL     1      57.118  42.846  43.095  1.00  0.00     0.000 C 
BRANCH   8   9
ATOM      9  C   UNL     1      58.491  42.989  42.427  1.00  0.00     0.000 C 
BRANCH   9  10
ATOM     10  C   UNL     1      58.658  44.380  41.805  1.00  0.00     0.004 C 
BRANCH  10  11
ATOM     11  C   UNL     1      58.898  45.442  42.884  1.00  0.00     0.027 C 
BRANCH  11  12
ATOM     12  C   UNL     1      58.097  46.685  42.616  1.00  0.00    -0.035 C 
ATOM     13  C   UNL     1      57.400  46.843  41.486  1.00  0.00     0.004 C 
ENDBRANCH  11  12
ENDBRANCH  10  11
ENDBRANCH   9  10
ENDBRANCH   8   9
ENDBRANCH   1   8
TORSDOF 10
ENDMDL
MODEL 2
REMARK VINA RESULT:    -3.604      1.615      2.498
REMARK INTER + INTRA:          -7.144
REMARK INTER:                  -6.506
REMARK INTRA:                  -0.637
REMARK UNBOUND:                -1.432
REMARK SMILES C=CCCCCCCCCCCC
REMARK SMILES IDX 7 1 8 2 9 3 10 4 11 5 12 6 13 7 6 8 5 9 4 10 3 11 2 12 1 13
REMARK H PARENT
REMARK Flexibility Score: inf
ROOT
ATOM      1  C   UNL     1      54.962  43.356  42.644  1.00  0.00     0.000 C 
ENDROOT
BRANCH   1   2
ATOM      2  C   UNL     1      54.038  44.541  42.309  1.00  0.00     0.000 C 
BRANCH   2   3
ATOM      3  C   UNL     1      54.358  45.848  43.059  1.00  0.00    -0.000 C 
BRANCH   3   4
ATOM      4  C   UNL     1      53.105  46.543  43.612  1.00  0.00    -0.000 C 
BRANCH   4   5
ATOM      5  C   UNL     1      51.931  46.420  42.629  1.00  0.00    -0.000 C 
BRANCH   5   6
ATOM      6  C   UNL     1      50.662  47.125  43.135  1.00  0.00    -0.003 C 
ATOM      7  C   UNL     1      49.444  46.858  42.251  1.00  0.00     0.004 C 
ENDBRANCH   5   6
ENDBRANCH   4   5
ENDBRANCH   3   4
ENDBRANCH   2   3
ENDBRANCH   1   2
BRANCH   1   8
ATOM      8  C   UNL     1      55.995  43.688  43.731  1.00  0.00     0.000 C 
BRANCH   8   9
ATOM      9  C   UNL     1      57.302  42.920  43.500  1.00  0.00     0.000 C 
BRANCH   9  10
ATOM     10  C   UNL     1      57.585  42.752  42.003  1.00  0.00     0.004 C 
BRANCH  10  11
ATOM     11  C   UNL     1      58.546  43.835  41.499  1.00  0.00     0.027 C 
BRANCH  11  12
ATOM     12  C   UNL     1      59.772  43.230  40.873  1.00  0.00    -0.035 C 
ATOM     13  C   UNL     1      59.938  41.907  40.789  1.00  0.00     0.004 C 
ENDBRANCH  11  12
ENDBRANCH  10  11
ENDBRANCH   9  10
ENDBRANCH   8   9
ENDBRANCH   1   8
TORSDOF 10
ENDMDL
MODEL 3
REMARK VINA RESULT:    -3.586      1.395      2.690
REMARK INTER + INTRA:          -7.115
REMARK INTER:                  -5.574
REMARK INTRA:                  -1.541
REMARK UNBOUND:                -1.432
REMARK SMILES C=CCCCCCCCCCCC
REMARK SMILES IDX 7 1 8 2 9 3 10 4 11 5 12 6 13 7 6 8 5 9 4 10 3 11 2 12 1 13
REMARK H PARENT
REMARK Flexibility Score: inf
ROOT
ATOM      1  C   UNL     1      55.627  43.163  42.551  1.00  0.00     0.000 C 
ENDROOT
BRANCH   1   2
ATOM      2  C   UNL     1      54.212  43.751  42.398  1.00  0.00     0.000 C 
BRANCH   2   3
ATOM      3  C   UNL     1      54.165  45.253  42.060  1.00  0.00    -0.000 C 
BRANCH   3   4
ATOM      4  C   UNL     1      53.837  46.132  43.277  1.00  0.00    -0.000 C 
BRANCH   4   5
ATOM      5  C   UNL     1      54.992  47.098  43.583  1.00  0.00    -0.000 C 
BRANCH   5   6
ATOM      6  C   UNL     1      56.210  46.866  42.674  1.00  0.00    -0.003 C 
ATOM      7  C   UNL     1      57.538  46.995  43.420  1.00  0.00     0.004 C 
ENDBRANCH   5   6
ENDBRANCH   4   5
ENDBRANCH   3   4
ENDBRANCH   2   3
ENDBRANCH   1   2
BRANCH   1   8
ATOM      8  C   UNL     1      56.249  43.447  43.926  1.00  0.00     0.000 C 
BRANCH   8   9
ATOM      9  C   UNL     1      57.746  43.115  43.930  1.00  0.00     0.000 C 
BRANCH   9  10
ATOM     10  C   UNL     1      58.241  42.783  42.518  1.00  0.00     0.004 C 
BRANCH  10  11
ATOM     11  C   UNL     1      59.230  43.843  42.018  1.00  0.00     0.027 C 
BRANCH  11  12
ATOM     12  C   UNL     1      58.677  44.593  40.838  1.00  0.00    -0.035 C 
ATOM     13  C   UNL     1      59.465  45.035  39.853  1.00  0.00     0.004 C 
ENDBRANCH  11  12
ENDBRANCH  10  11
ENDBRANCH   9  10
ENDBRANCH   8   9
ENDBRANCH   1   8
TORSDOF 10
ENDMDL
MODEL 4
REMARK VINA RESULT:    -3.526      1.642      5.035
REMARK INTER + INTRA:          -7.019
REMARK INTER:                  -5.247
REMARK INTRA:                  -1.772
REMARK UNBOUND:                -1.432
REMARK SMILES C=CCCCCCCCCCCC
REMARK SMILES IDX 7 1 8 2 9 3 10 4 11 5 12 6 13 7 6 8 5 9 4 10 3 11 2 12 1 13
REMARK H PARENT
REMARK Flexibility Score: inf
ROOT
ATOM      1  C   UNL     1      55.142  43.331  42.565  1.00  0.00     0.000 C 
ENDROOT
BRANCH   1   2
ATOM      2  C   UNL     1      56.104  43.293  43.766  1.00  0.00     0.000 C 
BRANCH   2   3
ATOM      3  C   UNL     1      57.573  42.992  43.413  1.00  0.00    -0.000 C 
BRANCH   3   4
ATOM      4  C   UNL     1      57.845  43.024  41.902  1.00  0.00    -0.000 C 
BRANCH   4   5
ATOM      5  C   UNL     1      59.354  42.974  41.616  1.00  0.00    -0.000 C 
BRANCH   5   6
ATOM      6  C   UNL     1      60.199  43.011  42.899  1.00  0.00    -0.003 C 
ATOM      7  C   UNL     1      61.128  44.223  42.962  1.00  0.00     0.004 C 
ENDBRANCH   5   6
ENDBRANCH   4   5
ENDBRANCH   3   4
ENDBRANCH   2   3
ENDBRANCH   1   2
BRANCH   1   8
ATOM      8  C   UNL     1      54.542  44.724  42.320  1.00  0.00     0.000 C 
BRANCH   8   9
ATOM      9  C   UNL     1      54.825  45.658  43.503  1.00  0.00     0.000 C 
BRANCH   9  10
ATOM     10  C   UNL     1      55.648  46.873  43.060  1.00  0.00     0.004 C 
BRANCH  10  11
ATOM     11  C   UNL     1      56.632  46.496  41.947  1.00  0.00     0.027 C 
BRANCH  11  12
ATOM     12  C   UNL     1      58.057  46.673  42.394  1.00  0.00    -0.035 C 
ATOM     13  C   UNL     1      58.399  46.636  43.686  1.00  0.00     0.004 C 
ENDBRANCH  11  12
ENDBRANCH  10  11
ENDBRANCH   9  10
ENDBRANCH   8   9
ENDBRANCH   1   8
TORSDOF 10
ENDMDL
MODEL 5
REMARK VINA RESULT:    -3.463      0.980      5.023
REMARK INTER + INTRA:          -6.920
REMARK INTER:                  -5.890
REMARK INTRA:                  -1.030
REMARK UNBOUND:                -1.432
REMARK SMILES C=CCCCCCCCCCCC
REMARK SMILES IDX 7 1 8 2 9 3 10 4 11 5 12 6 13 7 6 8 5 9 4 10 3 11 2 12 1 13
REMARK H PARENT
REMARK Flexibility Score: inf
ROOT
ATOM      1  C   UNL     1      56.811  42.744  42.421  1.00  0.00     0.000 C 
ENDROOT
BRANCH   1   2
ATOM      2  C   UNL     1      58.345  42.868  42.432  1.00  0.00     0.000 C 
BRANCH   2   3
ATOM      3  C   UNL     1      59.019  42.735  41.053  1.00  0.00    -0.000 C 
BRANCH   3   4
ATOM      4  C   UNL     1      59.381  44.092  40.430  1.00  0.00    -0.000 C 
BRANCH   4   5
ATOM      5  C   UNL     1      59.244  45.223  41.461  1.00  0.00    -0.000 C 
BRANCH   5   6
ATOM      6  C   UNL     1      58.011  46.105  41.207  1.00  0.00    -0.003 C 
ATOM      7  C   UNL     1      57.771  47.123  42.321  1.00  0.00     0.004 C 
ENDBRANCH   5   6
ENDBRANCH   4   5
ENDBRANCH   3   4
ENDBRANCH   2   3
ENDBRANCH   1   2
BRANCH   1   8
ATOM      8  C   UNL     1      56.138  43.520  43.562  1.00  0.00     0.000 C 
BRANCH   8   9
ATOM      9  C   UNL     1      55.090  44.498  43.017  1.00  0.00     0.000 C 
BRANCH   9  10
ATOM     10  C   UNL     1      54.842  45.646  44.003  1.00  0.00     0.004 C 
BRANCH  10  11
ATOM     11  C   UNL     1      54.153  46.828  43.310  1.00  0.00     0.027 C 
BRANCH  11  12
ATOM     12  C   UNL     1      52.750  47.016  43.817  1.00  0.00    -0.035 C 
ATOM     13  C   UNL     1      51.686  46.791  43.041  1.00  0.00     0.004 C 
ENDBRANCH  11  12
ENDBRANCH  10  11
ENDBRANCH   9  10
ENDBRANCH   8   9
ENDBRANCH   1   8
TORSDOF 10
ENDMDL
MODEL 6
REMARK VINA RESULT:    -3.262     21.566     23.352
REMARK INTER + INTRA:          -6.601
REMARK INTER:                  -4.875
REMARK INTRA:                  -1.726
REMARK UNBOUND:                -1.432
REMARK SMILES C=CCCCCCCCCCCC
REMARK SMILES IDX 7 1 8 2 9 3 10 4 11 5 12 6 13 7 6 8 5 9 4 10 3 11 2 12 1 13
REMARK H PARENT
REMARK Flexibility Score: inf
ROOT
ATOM      1  C   UNL     1      53.475  28.220  26.781  1.00  0.00     0.000 C 
ENDROOT
BRANCH   1   2
ATOM      2  C   UNL     1      53.607  27.909  25.279  1.00  0.00     0.000 C 
BRANCH   2   3
ATOM      3  C   UNL     1      53.398  29.115  24.344  1.00  0.00    -0.000 C 
BRANCH   3   4
ATOM      4  C   UNL     1      54.308  30.304  24.688  1.00  0.00    -0.000 C 
BRANCH   4   5
ATOM      5  C   UNL     1      53.493  31.602  24.798  1.00  0.00    -0.000 C 
BRANCH   5   6
ATOM      6  C   UNL     1      53.295  32.053  26.254  1.00  0.00    -0.003 C 
ATOM      7  C   UNL     1      51.968  31.578  26.845  1.00  0.00     0.004 C 
ENDBRANCH   5   6
ENDBRANCH   4   5
ENDBRANCH   3   4
ENDBRANCH   2   3
ENDBRANCH   1   2
BRANCH   1   8
ATOM      8  C   UNL     1      54.725  27.835  27.586  1.00  0.00     0.000 C 
BRANCH   8   9
ATOM      9  C   UNL     1      55.696  29.017  27.692  1.00  0.00     0.000 C 
BRANCH   9  10
ATOM     10  C   UNL     1      57.004  28.723  26.949  1.00  0.00     0.004 C 
BRANCH  10  11
ATOM     11  C   UNL     1      57.097  27.243  26.560  1.00  0.00     0.027 C 
BRANCH  11  12
ATOM     12  C   UNL     1      57.566  27.079  25.141  1.00  0.00    -0.035 C 
ATOM     13  C   UNL     1      57.154  27.894  24.165  1.00  0.00     0.004 C 
ENDBRANCH  11  12
ENDBRANCH  10  11
ENDBRANCH   9  10
ENDBRANCH   8   9
ENDBRANCH   1   8
TORSDOF 10
ENDMDL
MODEL 7
REMARK VINA RESULT:    -3.208     19.012     21.351
REMARK INTER + INTRA:          -6.515
REMARK INTER:                  -6.013
REMARK INTRA:                  -0.503
REMARK UNBOUND:                -1.432
REMARK SMILES C=CCCCCCCCCCCC
REMARK SMILES IDX 7 1 8 2 9 3 10 4 11 5 12 6 13 7 6 8 5 9 4 10 3 11 2 12 1 13
REMARK H PARENT
REMARK Flexibility Score: inf
ROOT
ATOM      1  C   UNL     1      52.931  32.626  26.577  1.00  0.00     0.000 C 
ENDROOT
BRANCH   1   2
ATOM      2  C   UNL     1      53.274  31.315  25.847  1.00  0.00     0.000 C 
BRANCH   2   3
ATOM      3  C   UNL     1      54.628  30.690  26.231  1.00  0.00    -0.000 C 
BRANCH   3   4
ATOM      4  C   UNL     1      54.547  29.171  26.450  1.00  0.00    -0.000 C 
BRANCH   4   5
ATOM      5  C   UNL     1      55.450  28.737  27.615  1.00  0.00    -0.000 C 
BRANCH   5   6
ATOM      6  C   UNL     1      56.938  28.712  27.230  1.00  0.00    -0.003 C 
ATOM      7  C   UNL     1      57.285  27.570  26.277  1.00  0.00     0.004 C 
ENDBRANCH   5   6
ENDBRANCH   4   5
ENDBRANCH   3   4
ENDBRANCH   2   3
ENDBRANCH   1   2
BRANCH   1   8
ATOM      8  C   UNL     1      51.545  32.601  27.237  1.00  0.00     0.000 C 
BRANCH   8   9
ATOM      9  C   UNL     1      51.233  33.943  27.911  1.00  0.00     0.000 C 
BRANCH   9  10
ATOM     10  C   UNL     1      50.172  33.777  29.005  1.00  0.00     0.004 C 
BRANCH  10  11
ATOM     11  C   UNL     1      50.792  33.915  30.400  1.00  0.00     0.027 C 
BRANCH  11  12
ATOM     12  C   UNL     1      50.898  32.580  31.085  1.00  0.00    -0.035 C 
ATOM     13  C   UNL     1      49.909  31.684  31.036  1.00  0.00     0.004 C 
ENDBRANCH  11  12
ENDBRANCH  10  11
ENDBRANCH   9  10
ENDBRANCH   8   9
ENDBRANCH   1   8
TORSDOF 10
ENDMDL
MODEL 8
REMARK VINA RESULT:    -3.188      2.512      4.586
REMARK INTER + INTRA:          -6.484
REMARK INTER:                  -5.403
REMARK INTRA:                  -1.081
REMARK UNBOUND:                -1.432
REMARK SMILES C=CCCCCCCCCCCC
REMARK SMILES IDX 7 1 8 2 9 3 10 4 11 5 12 6 13 7 6 8 5 9 4 10 3 11 2 12 1 13
REMARK H PARENT
REMARK Flexibility Score: inf
ROOT
ATOM      1  C   UNL     1      58.850  44.705  40.487  1.00  0.00     0.000 C 
ENDROOT
BRANCH   1   2
ATOM      2  C   UNL     1      58.344  45.746  41.503  1.00  0.00     0.000 C 
BRANCH   2   3
ATOM      3  C   UNL     1      56.857  45.614  41.884  1.00  0.00    -0.000 C 
BRANCH   3   4
ATOM      4  C   UNL     1      56.634  45.519  43.401  1.00  0.00    -0.000 C 
BRANCH   4   5
ATOM      5  C   UNL     1      56.144  44.117  43.796  1.00  0.00    -0.000 C 
BRANCH   5   6
ATOM      6  C   UNL     1      55.990  43.184  42.585  1.00  0.00    -0.003 C 
ATOM      7  C   UNL     1      54.541  42.763  42.341  1.00  0.00     0.004 C 
ENDBRANCH   5   6
ENDBRANCH   4   5
ENDBRANCH   3   4
ENDBRANCH   2   3
ENDBRANCH   1   2
BRANCH   1   8
ATOM      8  C   UNL     1      59.708  43.606  41.131  1.00  0.00     0.000 C 
BRANCH   8   9
ATOM      9  C   UNL     1      59.990  43.923  42.605  1.00  0.00     0.000 C 
BRANCH   9  10
ATOM     10  C   UNL     1      60.472  42.675  43.354  1.00  0.00     0.004 C 
BRANCH  10  11
ATOM     11  C   UNL     1      62.004  42.614  43.394  1.00  0.00     0.027 C 
BRANCH  11  12
ATOM     12  C   UNL     1      62.496  41.196  43.313  1.00  0.00    -0.035 C 
ATOM     13  C   UNL     1      62.223  40.415  42.263  1.00  0.00     0.004 C 
ENDBRANCH  11  12
ENDBRANCH  10  11
ENDBRANCH   9  10
ENDBRANCH   8   9
ENDBRANCH   1   8
TORSDOF 10
ENDMDL
MODEL 9
REMARK VINA RESULT:    -3.166      1.714      3.358
REMARK INTER + INTRA:          -6.449
REMARK INTER:                  -4.973
REMARK INTRA:                  -1.476
REMARK UNBOUND:                -1.432
REMARK SMILES C=CCCCCCCCCCCC
REMARK SMILES IDX 7 1 8 2 9 3 10 4 11 5 12 6 13 7 6 8 5 9 4 10 3 11 2 12 1 13
REMARK H PARENT
REMARK Flexibility Score: inf
ROOT
ATOM      1  C   UNL     1      57.730  43.166  41.876  1.00  0.00     0.000 C 
ENDROOT
BRANCH   1   2
ATOM      2  C   UNL     1      57.352  42.890  43.343  1.00  0.00     0.000 C 
BRANCH   2   3
ATOM      3  C   UNL     1      55.946  43.366  43.753  1.00  0.00    -0.000 C 
BRANCH   3   4
ATOM      4  C   UNL     1      54.930  43.294  42.603  1.00  0.00    -0.000 C 
BRANCH   4   5
ATOM      5  C   UNL     1      54.327  44.678  42.317  1.00  0.00    -0.000 C 
BRANCH   5   6
ATOM      6  C   UNL     1      54.617  45.690  43.437  1.00  0.00    -0.003 C 
ATOM      7  C   UNL     1      55.515  46.838  42.980  1.00  0.00     0.004 C 
ENDBRANCH   5   6
ENDBRANCH   4   5
ENDBRANCH   3   4
ENDBRANCH   2   3
ENDBRANCH   1   2
BRANCH   1   8
ATOM      8  C   UNL     1      58.262  44.589  41.650  1.00  0.00     0.000 C 
BRANCH   8   9
ATOM      9  C   UNL     1      59.093  45.061  42.849  1.00  0.00     0.000 C 
BRANCH   9  10
ATOM     10  C   UNL     1      60.535  44.549  42.756  1.00  0.00     0.004 C 
BRANCH  10  11
ATOM     11  C   UNL     1      60.970  43.888  44.069  1.00  0.00     0.027 C 
BRANCH  11  12
ATOM     12  C   UNL     1      61.010  42.390  43.940  1.00  0.00    -0.035 C 
ATOM     13  C   UNL     1      61.388  41.791  42.807  1.00  0.00     0.004 C 
ENDBRANCH  11  12
ENDBRANCH  10  11
ENDBRANCH   9  10
ENDBRANCH   8   9
ENDBRANCH   1   8
TORSDOF 10
ENDMDL
