MODEL 1
REMARK VINA RESULT:    -5.308      0.000      0.000
REMARK INTER + INTRA:          -7.246
REMARK INTER:                  -6.859
REMARK INTRA:                  -0.387
REMARK UNBOUND:                -0.387
REMARK SMILES CCO[C@H]1O[C@H](CO)[C@@H](O)[C@@H](O)[C@H]1O
REMARK SMILES IDX 4 1 13 2 11 3 9 4 6 5 5 6 3 7 2 8 1 9 14 10 12 12 7 14 8 15
REMARK SMILES IDX 10 17
REMARK H PARENT 14 11 12 13 8 16 10 18
REMARK Flexibility Score: inf
ROOT
ATOM      1  C   UNL     1     234.249 240.439 241.782  1.00  0.00     0.281 C 
ATOM      2  C   UNL     1     235.262 239.846 240.756  1.00  0.00     0.202 C 
ATOM      3  C   UNL     1     234.553 239.428 239.452  1.00  0.00     0.179 C 
ATOM      4  C   UNL     1     233.151 238.893 239.782  1.00  0.00     0.177 C 
ATOM      5  C   UNL     1     232.313 240.005 240.480  1.00  0.00     0.178 C 
ATOM      6  O   UNL     1     233.099 240.990 241.147  1.00  0.00    -0.341 OA
ENDROOT
BRANCH   1   7
ATOM      7  O   UNL     1     234.866 241.372 242.661  1.00  0.00    -0.350 OA
BRANCH   7   8
ATOM      8  C   UNL     1     234.853 240.959 244.017  1.00  0.00     0.160 C 
ATOM      9  C   UNL     1     233.508 241.291 244.651  1.00  0.00     0.035 C 
ENDBRANCH   7   8
ENDBRANCH   1   7
BRANCH   2  10
ATOM     10  O   UNL     1     236.301 240.746 240.459  1.00  0.00    -0.385 OA
ATOM     11  H   UNL     1     235.940 241.401 239.806  1.00  0.00     0.211 HD
ENDBRANCH   2  10
BRANCH   3  12
ATOM     12  O   UNL     1     234.460 240.530 238.581  1.00  0.00    -0.387 OA
ATOM     13  H   UNL     1     235.375 240.709 238.240  1.00  0.00     0.211 HD
ENDBRANCH   3  12
BRANCH   5  14
ATOM     14  C   UNL     1     231.255 239.422 241.429  1.00  0.00     0.191 C 
BRANCH  14  15
ATOM     15  O   UNL     1     230.493 238.461 240.754  1.00  0.00    -0.394 OA
ATOM     16  H   UNL     1     229.550 238.762 240.817  1.00  0.00     0.210 HD
ENDBRANCH  14  15
ENDBRANCH   5  14
BRANCH   4  17
ATOM     17  O   UNL     1     232.521 238.466 238.601  1.00  0.00    -0.387 OA
ATOM     18  H   UNL     1     232.311 237.504 238.720  1.00  0.00     0.211 HD
ENDBRANCH   4  17
TORSDOF 7
ENDMDL
MODEL 2
REMARK VINA RESULT:    -4.884      1.546      3.462
REMARK INTER + INTRA:          -6.698
REMARK INTER:                  -6.331
REMARK INTRA:                  -0.367
REMARK UNBOUND:                -0.387
REMARK SMILES CCO[C@H]1O[C@H](CO)[C@@H](O)[C@@H](O)[C@H]1O
REMARK SMILES IDX 4 1 13 2 11 3 9 4 6 5 5 6 3 7 2 8 1 9 14 10 12 12 7 14 8 15
REMARK SMILES IDX 10 17
REMARK H PARENT 14 11 12 13 8 16 10 18
REMARK Flexibility Score: inf
ROOT
ATOM      1  C   UNL     1     234.593 239.400 240.621  1.00  0.00     0.281 C 
ATOM      2  C   UNL     1     233.828 238.211 239.966  1.00  0.00     0.202 C 
ATOM      3  C   UNL     1     232.313 238.491 239.900  1.00  0.00     0.179 C 
ATOM      4  C   UNL     1     231.889 239.293 241.140  1.00  0.00     0.177 C 
ATOM      5  C   UNL     1     232.655 240.648 241.180  1.00  0.00     0.178 C 
ATOM      6  O   UNL     1     233.895 240.633 240.479  1.00  0.00    -0.341 OA
ENDROOT
BRANCH   1   7
ATOM      7  O   UNL     1     235.934 239.493 240.154  1.00  0.00    -0.350 OA
BRANCH   7   8
ATOM      8  C   UNL     1     236.192 240.677 239.418  1.00  0.00     0.160 C 
ATOM      9  C   UNL     1     236.861 240.332 238.093  1.00  0.00     0.035 C 
ENDBRANCH   7   8
ENDBRANCH   1   7
BRANCH   2  10
ATOM     10  O   UNL     1     234.309 237.920 238.676  1.00  0.00    -0.385 OA
ATOM     11  H   UNL     1     233.698 237.243 238.284  1.00  0.00     0.211 HD
ENDBRANCH   2  10
BRANCH   3  12
ATOM     12  O   UNL     1     232.009 239.211 238.729  1.00  0.00    -0.387 OA
ATOM     13  H   UNL     1     232.820 239.192 238.158  1.00  0.00     0.211 HD
ENDBRANCH   3  12
BRANCH   5  14
ATOM     14  C   UNL     1     232.848 241.162 242.615  1.00  0.00     0.191 C 
BRANCH  14  15
ATOM     15  O   UNL     1     231.661 241.746 243.072  1.00  0.00    -0.394 OA
ATOM     16  H   UNL     1     231.592 241.514 244.035  1.00  0.00     0.210 HD
ENDBRANCH  14  15
ENDBRANCH   5  14
BRANCH   4  17
ATOM     17  O   UNL     1     230.501 239.509 241.108  1.00  0.00    -0.387 OA
ATOM     18  H   UNL     1     230.096 238.711 240.680  1.00  0.00     0.211 HD
ENDBRANCH   4  17
TORSDOF 7
ENDMDL
MODEL 3
REMARK VINA RESULT:    -4.861      1.558      4.977
REMARK INTER + INTRA:          -6.668
REMARK INTER:                  -6.258
REMARK INTRA:                  -0.410
REMARK UNBOUND:                -0.387
REMARK SMILES CCO[C@H]1O[C@H](CO)[C@@H](O)[C@@H](O)[C@H]1O
REMARK SMILES IDX 4 1 13 2 11 3 9 4 6 5 5 6 3 7 2 8 1 9 14 10 12 12 7 14 8 15
REMARK SMILES IDX 10 17
REMARK H PARENT 14 11 12 13 8 16 10 18
REMARK Flexibility Score: inf
ROOT
ATOM      1  C   UNL     1     233.404 239.219 239.544  1.00  0.00     0.281 C 
ATOM      2  C   UNL     1     232.396 239.488 240.703  1.00  0.00     0.202 C 
ATOM      3  C   UNL     1     232.970 240.497 241.718  1.00  0.00     0.179 C 
ATOM      4  C   UNL     1     234.487 240.288 241.842  1.00  0.00     0.177 C 
ATOM      5  C   UNL     1     235.167 240.517 240.460  1.00  0.00     0.178 C 
ATOM      6  O   UNL     1     234.301 240.308 239.347  1.00  0.00    -0.341 OA
ENDROOT
BRANCH   1   7
ATOM      7  O   UNL     1     232.744 238.851 238.339  1.00  0.00    -0.350 OA
BRANCH   7   8
ATOM      8  C   UNL     1     233.432 239.268 237.171  1.00  0.00     0.160 C 
ATOM      9  C   UNL     1     233.460 238.138 236.150  1.00  0.00     0.035 C 
ENDBRANCH   7   8
ENDBRANCH   1   7
BRANCH   2  10
ATOM     10  O   UNL     1     231.157 239.954 240.227  1.00  0.00    -0.385 OA
ATOM     11  H   UNL     1     231.198 239.926 239.235  1.00  0.00     0.211 HD
ENDBRANCH   2  10
BRANCH   3  12
ATOM     12  O   UNL     1     232.695 241.812 241.297  1.00  0.00    -0.387 OA
ATOM     13  H   UNL     1     231.768 241.814 240.939  1.00  0.00     0.211 HD
ENDBRANCH   3  12
BRANCH   5  14
ATOM     14  C   UNL     1     236.456 239.697 240.306  1.00  0.00     0.191 C 
BRANCH  14  15
ATOM     15  O   UNL     1     236.657 238.913 241.448  1.00  0.00    -0.394 OA
ATOM     16  H   UNL     1     237.367 239.366 241.973  1.00  0.00     0.210 HD
ENDBRANCH  14  15
ENDBRANCH   5  14
BRANCH   4  17
ATOM     17  O   UNL     1     235.007 241.173 242.802  1.00  0.00    -0.387 OA
ATOM     18  H   UNL     1     235.838 241.554 242.420  1.00  0.00     0.211 HD
ENDBRANCH   4  17
TORSDOF 7
ENDMDL
MODEL 4
REMARK VINA RESULT:    -4.837      1.356      3.354
REMARK INTER + INTRA:          -6.637
REMARK INTER:                  -6.437
REMARK INTRA:                  -0.200
REMARK UNBOUND:                -0.387
REMARK SMILES CCO[C@H]1O[C@H](CO)[C@@H](O)[C@@H](O)[C@H]1O
REMARK SMILES IDX 4 1 13 2 11 3 9 4 6 5 5 6 3 7 2 8 1 9 14 10 12 12 7 14 8 15
REMARK SMILES IDX 10 17
REMARK H PARENT 14 11 12 13 8 16 10 18
REMARK Flexibility Score: inf
ROOT
ATOM      1  C   UNL     1     233.176 240.838 240.993  1.00  0.00     0.281 C 
ATOM      2  C   UNL     1     231.992 240.196 240.207  1.00  0.00     0.202 C 
ATOM      3  C   UNL     1     232.483 239.055 239.295  1.00  0.00     0.179 C 
ATOM      4  C   UNL     1     233.876 239.403 238.747  1.00  0.00     0.177 C 
ATOM      5  C   UNL     1     234.878 239.577 239.927  1.00  0.00     0.178 C 
ATOM      6  O   UNL     1     234.263 239.935 241.161  1.00  0.00    -0.341 OA
ENDROOT
BRANCH   1   7
ATOM      7  O   UNL     1     232.752 241.395 242.231  1.00  0.00    -0.350 OA
BRANCH   7   8
ATOM      8  C   UNL     1     233.726 241.290 243.257  1.00  0.00     0.160 C 
ATOM      9  C   UNL     1     233.062 240.884 244.567  1.00  0.00     0.035 C 
ENDBRANCH   7   8
ENDBRANCH   1   7
BRANCH   2  10
ATOM     10  O   UNL     1     230.988 239.713 241.066  1.00  0.00    -0.385 OA
ATOM     11  H   UNL     1     230.754 238.800 240.754  1.00  0.00     0.211 HD
ENDBRANCH   2  10
BRANCH   3  12
ATOM     12  O   UNL     1     232.535 237.849 240.020  1.00  0.00    -0.387 OA
ATOM     13  H   UNL     1     232.870 238.070 240.927  1.00  0.00     0.211 HD
ENDBRANCH   3  12
BRANCH   5  14
ATOM     14  C   UNL     1     236.013 240.554 239.582  1.00  0.00     0.191 C 
BRANCH  14  15
ATOM     15  O   UNL     1     237.177 240.187 240.268  1.00  0.00    -0.394 OA
ATOM     16  H   UNL     1     237.910 240.732 239.879  1.00  0.00     0.210 HD
ENDBRANCH  14  15
ENDBRANCH   5  14
BRANCH   4  17
ATOM     17  O   UNL     1     234.307 238.387 237.877  1.00  0.00    -0.387 OA
ATOM     18  H   UNL     1     235.275 238.534 237.723  1.00  0.00     0.211 HD
ENDBRANCH   4  17
TORSDOF 7
ENDMDL
MODEL 5
REMARK VINA RESULT:    -4.765      2.050      2.994
REMARK INTER + INTRA:          -6.544
REMARK INTER:                  -6.167
REMARK INTRA:                  -0.378
REMARK UNBOUND:                -0.387
REMARK SMILES CCO[C@H]1O[C@H](CO)[C@@H](O)[C@@H](O)[C@H]1O
REMARK SMILES IDX 4 1 13 2 11 3 9 4 6 5 5 6 3 7 2 8 1 9 14 10 12 12 7 14 8 15
REMARK SMILES IDX 10 17
REMARK H PARENT 14 11 12 13 8 16 10 18
REMARK Flexibility Score: inf
ROOT
ATOM      1  C   UNL     1     234.623 239.691 239.963  1.00  0.00     0.281 C 
ATOM      2  C   UNL     1     236.156 239.589 239.699  1.00  0.00     0.202 C 
ATOM      3  C   UNL     1     236.468 239.663 238.191  1.00  0.00     0.179 C 
ATOM      4  C   UNL     1     235.346 238.967 237.403  1.00  0.00     0.177 C 
ATOM      5  C   UNL     1     233.989 239.682 237.676  1.00  0.00     0.178 C 
ATOM      6  O   UNL     1     233.941 240.379 238.919  1.00  0.00    -0.341 OA
ENDROOT
BRANCH   1   7
ATOM      7  O   UNL     1     234.338 240.249 241.240  1.00  0.00    -0.350 OA
BRANCH   7   8
ATOM      8  C   UNL     1     233.053 240.843 241.320  1.00  0.00     0.160 C 
ATOM      9  C   UNL     1     233.124 242.132 242.130  1.00  0.00     0.035 C 
ENDBRANCH   7   8
ENDBRANCH   1   7
BRANCH   2  10
ATOM     10  O   UNL     1     236.876 240.589 240.377  1.00  0.00    -0.385 OA
ATOM     11  H   UNL     1     237.192 240.192 241.230  1.00  0.00     0.211 HD
ENDBRANCH   2  10
BRANCH   3  12
ATOM     12  O   UNL     1     236.581 241.007 237.789  1.00  0.00    -0.387 OA
ATOM     13  H   UNL     1     236.517 241.020 236.798  1.00  0.00     0.211 HD
ENDBRANCH   3  12
BRANCH   5  14
ATOM     14  C   UNL     1     232.795 238.725 237.544  1.00  0.00     0.191 C 
BRANCH  14  15
ATOM     15  O   UNL     1     232.610 238.383 236.199  1.00  0.00    -0.394 OA
ATOM     16  H   UNL     1     231.776 238.838 235.911  1.00  0.00     0.210 HD
ENDBRANCH  14  15
ENDBRANCH   5  14
BRANCH   4  17
ATOM     17  O   UNL     1     235.650 238.990 236.032  1.00  0.00    -0.387 OA
ATOM     18  H   UNL     1     236.399 238.354 235.894  1.00  0.00     0.211 HD
ENDBRANCH   4  17
TORSDOF 7
ENDMDL
MODEL 6
REMARK VINA RESULT:    -4.739      1.679      3.851
REMARK INTER + INTRA:          -6.511
REMARK INTER:                  -6.121
REMARK INTRA:                  -0.390
REMARK UNBOUND:                -0.387
REMARK SMILES CCO[C@H]1O[C@H](CO)[C@@H](O)[C@@H](O)[C@H]1O
REMARK SMILES IDX 4 1 13 2 11 3 9 4 6 5 5 6 3 7 2 8 1 9 14 10 12 12 7 14 8 15
REMARK SMILES IDX 10 17
REMARK H PARENT 14 11 12 13 8 16 10 18
REMARK Flexibility Score: inf
ROOT
ATOM      1  C   UNL     1     234.681 239.434 239.472  1.00  0.00     0.281 C 
ATOM      2  C   UNL     1     235.411 240.652 240.117  1.00  0.00     0.202 C 
ATOM      3  C   UNL     1     234.773 241.030 241.468  1.00  0.00     0.179 C 
ATOM      4  C   UNL     1     233.257 240.789 241.403  1.00  0.00     0.177 C 
ATOM      5  C   UNL     1     232.975 239.285 241.113  1.00  0.00     0.178 C 
ATOM      6  O   UNL     1     234.039 238.615 240.444  1.00  0.00    -0.341 OA
ENDROOT
BRANCH   1   7
ATOM      7  O   UNL     1     235.546 238.680 238.631  1.00  0.00    -0.350 OA
BRANCH   7   8
ATOM      8  C   UNL     1     234.929 238.252 237.428  1.00  0.00     0.160 C 
ATOM      9  C   UNL     1     233.731 239.139 237.113  1.00  0.00     0.035 C 
ENDBRANCH   7   8
ENDBRANCH   1   7
BRANCH   2  10
ATOM     10  O   UNL     1     236.785 240.410 240.296  1.00  0.00    -0.385 OA
ATOM     11  H   UNL     1     237.113 239.973 239.467  1.00  0.00     0.211 HD
ENDBRANCH   2  10
BRANCH   3  12
ATOM     12  O   UNL     1     235.343 240.261 242.501  1.00  0.00    -0.387 OA
ATOM     13  H   UNL     1     234.644 240.145 243.196  1.00  0.00     0.211 HD
ENDBRANCH   3  12
BRANCH   5  14
ATOM     14  C   UNL     1     231.648 239.080 240.365  1.00  0.00     0.191 C 
BRANCH  14  15
ATOM     15  O   UNL     1     230.576 239.367 241.218  1.00  0.00    -0.394 OA
ATOM     16  H   UNL     1     230.811 240.212 241.682  1.00  0.00     0.210 HD
ENDBRANCH  14  15
ENDBRANCH   5  14
BRANCH   4  17
ATOM     17  O   UNL     1     232.666 241.179 242.617  1.00  0.00    -0.387 OA
ATOM     18  H   UNL     1     233.019 240.570 243.316  1.00  0.00     0.211 HD
ENDBRANCH   4  17
TORSDOF 7
ENDMDL
MODEL 7
REMARK VINA RESULT:    -4.687      1.551      4.377
REMARK INTER + INTRA:          -6.444
REMARK INTER:                  -6.000
REMARK INTRA:                  -0.444
REMARK UNBOUND:                -0.387
REMARK SMILES CCO[C@H]1O[C@H](CO)[C@@H](O)[C@@H](O)[C@H]1O
REMARK SMILES IDX 4 1 13 2 11 3 9 4 6 5 5 6 3 7 2 8 1 9 14 10 12 12 7 14 8 15
REMARK SMILES IDX 10 17
REMARK H PARENT 14 11 12 13 8 16 10 18
REMARK Flexibility Score: inf
ROOT
ATOM      1  C   UNL     1     234.263 239.181 239.748  1.00  0.00     0.281 C 
ATOM      2  C   UNL     1     232.760 238.810 239.569  1.00  0.00     0.202 C 
ATOM      3  C   UNL     1     231.853 239.752 240.385  1.00  0.00     0.179 C 
ATOM      4  C   UNL     1     232.561 240.135 241.694  1.00  0.00     0.177 C 
ATOM      5  C   UNL     1     233.898 240.868 241.375  1.00  0.00     0.178 C 
ATOM      6  O   UNL     1     234.442 240.550 240.097  1.00  0.00    -0.341 OA
ENDROOT
BRANCH   1   7
ATOM      7  O   UNL     1     235.040 238.817 238.612  1.00  0.00    -0.350 OA
BRANCH   7   8
ATOM      8  C   UNL     1     235.778 239.898 238.067  1.00  0.00     0.160 C 
ATOM      9  C   UNL     1     235.260 240.234 236.674  1.00  0.00     0.035 C 
ENDBRANCH   7   8
ENDBRANCH   1   7
BRANCH   2  10
ATOM     10  O   UNL     1     232.367 238.833 238.218  1.00  0.00    -0.385 OA
ATOM     11  H   UNL     1     231.381 238.948 238.204  1.00  0.00     0.211 HD
ENDBRANCH   2  10
BRANCH   3  12
ATOM     12  O   UNL     1     231.561 240.907 239.635  1.00  0.00    -0.387 OA
ATOM     13  H   UNL     1     230.860 240.657 238.979  1.00  0.00     0.211 HD
ENDBRANCH   3  12
BRANCH   5  14
ATOM     14  C   UNL     1     234.947 240.664 242.478  1.00  0.00     0.191 C 
BRANCH  14  15
ATOM     15  O   UNL     1     234.528 241.298 243.653  1.00  0.00    -0.394 OA
ATOM     16  H   UNL     1     235.040 240.878 244.392  1.00  0.00     0.210 HD
ENDBRANCH  14  15
ENDBRANCH   5  14
BRANCH   4  17
ATOM     17  O   UNL     1     231.719 240.954 242.463  1.00  0.00    -0.387 OA
ATOM     18  H   UNL     1     231.859 241.885 242.149  1.00  0.00     0.211 HD
ENDBRANCH   4  17
TORSDOF 7
ENDMDL
MODEL 8
REMARK VINA RESULT:    -4.669      1.597      4.135
REMARK INTER + INTRA:          -6.420
REMARK INTER:                  -5.990
REMARK INTRA:                  -0.430
REMARK UNBOUND:                -0.387
REMARK SMILES CCO[C@H]1O[C@H](CO)[C@@H](O)[C@@H](O)[C@H]1O
REMARK SMILES IDX 4 1 13 2 11 3 9 4 6 5 5 6 3 7 2 8 1 9 14 10 12 12 7 14 8 15
REMARK SMILES IDX 10 17
REMARK H PARENT 14 11 12 13 8 16 10 18
REMARK Flexibility Score: inf
ROOT
ATOM      1  C   UNL     1     234.758 239.634 240.972  1.00  0.00     0.281 C 
ATOM      2  C   UNL     1     233.322 239.365 240.428  1.00  0.00     0.202 C 
ATOM      3  C   UNL     1     232.301 240.340 241.047  1.00  0.00     0.179 C 
ATOM      4  C   UNL     1     232.698 240.640 242.501  1.00  0.00     0.177 C 
ATOM      5  C   UNL     1     234.111 241.294 242.538  1.00  0.00     0.178 C 
ATOM      6  O   UNL     1     234.925 240.978 241.412  1.00  0.00    -0.341 OA
ENDROOT
BRANCH   1   7
ATOM      7  O   UNL     1     235.761 239.253 240.038  1.00  0.00    -0.350 OA
BRANCH   7   8
ATOM      8  C   UNL     1     236.587 240.331 239.629  1.00  0.00     0.160 C 
ATOM      9  C   UNL     1     236.725 240.336 238.112  1.00  0.00     0.035 C 
ENDBRANCH   7   8
ENDBRANCH   1   7
BRANCH   2  10
ATOM     10  O   UNL     1     233.265 239.452 239.025  1.00  0.00    -0.385 OA
ATOM     11  H   UNL     1     233.294 238.523 238.675  1.00  0.00     0.211 HD
ENDBRANCH   2  10
BRANCH   3  12
ATOM     12  O   UNL     1     232.261 241.533 240.299  1.00  0.00    -0.387 OA
ATOM     13  H   UNL     1     231.706 241.353 239.496  1.00  0.00     0.211 HD
ENDBRANCH   3  12
BRANCH   5  14
ATOM     14  C   UNL     1     234.854 240.992 243.848  1.00  0.00     0.191 C 
BRANCH  14  15
ATOM     15  O   UNL     1     234.158 241.551 244.927  1.00  0.00    -0.394 OA
ATOM     16  H   UNL     1     234.849 241.872 245.563  1.00  0.00     0.210 HD
ENDBRANCH  14  15
ENDBRANCH   5  14
BRANCH   4  17
ATOM     17  O   UNL     1     231.743 241.490 243.083  1.00  0.00    -0.387 OA
ATOM     18  H   UNL     1     231.811 242.361 242.614  1.00  0.00     0.211 HD
ENDBRANCH   4  17
TORSDOF 7
ENDMDL
MODEL 9
REMARK VINA RESULT:    -4.549      1.912      3.447
REMARK INTER + INTRA:          -6.265
REMARK INTER:                  -5.931
REMARK INTRA:                  -0.334
REMARK UNBOUND:                -0.387
REMARK SMILES CCO[C@H]1O[C@H](CO)[C@@H](O)[C@@H](O)[C@H]1O
REMARK SMILES IDX 4 1 13 2 11 3 9 4 6 5 5 6 3 7 2 8 1 9 14 10 12 12 7 14 8 15
REMARK SMILES IDX 10 17
REMARK H PARENT 14 11 12 13 8 16 10 18
REMARK Flexibility Score: inf
ROOT
ATOM      1  C   UNL     1     235.286 239.556 240.690  1.00  0.00     0.281 C 
ATOM      2  C   UNL     1     234.737 240.765 241.507  1.00  0.00     0.202 C 
ATOM      3  C   UNL     1     233.225 240.956 241.271  1.00  0.00     0.179 C 
ATOM      4  C   UNL     1     232.885 240.591 239.818  1.00  0.00     0.177 C 
ATOM      5  C   UNL     1     233.257 239.103 239.546  1.00  0.00     0.178 C 
ATOM      6  O   UNL     1     234.274 238.595 240.405  1.00  0.00    -0.341 OA
ENDROOT
BRANCH   1   7
ATOM      7  O   UNL     1     236.420 238.964 241.313  1.00  0.00    -0.350 OA
BRANCH   7   8
ATOM      8  C   UNL     1     236.672 237.639 240.877  1.00  0.00     0.160 C 
ATOM      9  C   UNL     1     237.396 236.859 241.968  1.00  0.00     0.035 C 
ENDBRANCH   7   8
ENDBRANCH   1   7
BRANCH   2  10
ATOM     10  O   UNL     1     234.984 240.627 242.885  1.00  0.00    -0.385 OA
ATOM     11  H   UNL     1     234.701 239.711 243.141  1.00  0.00     0.211 HD
ENDBRANCH   2  10
BRANCH   3  12
ATOM     12  O   UNL     1     232.494 240.143 242.159  1.00  0.00    -0.387 OA
ATOM     13  H   UNL     1     231.709 240.673 242.457  1.00  0.00     0.211 HD
ENDBRANCH   3  12
BRANCH   5  14
ATOM     14  C   UNL     1     233.617 238.856 238.073  1.00  0.00     0.191 C 
BRANCH  14  15
ATOM     15  O   UNL     1     232.447 238.768 237.309  1.00  0.00    -0.394 OA
ATOM     16  H   UNL     1     232.301 239.671 236.923  1.00  0.00     0.210 HD
ENDBRANCH  14  15
ENDBRANCH   5  14
BRANCH   4  17
ATOM     17  O   UNL     1     231.517 240.810 239.585  1.00  0.00    -0.387 OA
ATOM     18  H   UNL     1     231.225 241.507 240.228  1.00  0.00     0.211 HD
ENDBRANCH   4  17
TORSDOF 7
ENDMDL
