MODEL 1
REMARK VINA RESULT:    -5.531      0.000      0.000
REMARK INTER + INTRA:          -5.695
REMARK INTER:                  -6.825
REMARK INTRA:                   1.130
REMARK UNBOUND:                 1.130
REMARK SMILES CC1=CC=CC(C)(C)CC1=O
REMARK SMILES IDX 1 1 2 2 3 3 10 4 11 5 9 6 4 8 5 9 6 10 7 11 8 12
REMARK H PARENT
REMARK Flexibility Score: 80.00
ROOT
ATOM      1  C   UNL     1     109.443  46.355  64.817  1.00  0.00     0.048 C 
ATOM      2  C   UNL     1     108.923  47.612  64.159  1.00  0.00    -0.008 C 
ATOM      3  C   UNL     1     108.163  48.446  64.903  1.00  0.00     0.007 C 
ENDROOT
BRANCH   2   4
ATOM      4  C   UNL     1     109.341  47.851  62.751  1.00  0.00     0.159 C 
ATOM      5  O   UNL     1     110.250  47.127  62.262  1.00  0.00    -0.295 OA
BRANCH   4   6
ATOM      6  C   UNL     1     108.775  48.932  61.878  1.00  0.00     0.091 CG0
ATOM      7  G   UNL     1     108.903  50.351  62.475  1.00  0.00     0.000 G0
ENDBRANCH   4   6
ENDBRANCH   2   4
BRANCH   3   8
ATOM      8  C   UNL     1     107.518  49.724  64.529  1.00  0.00    -0.003 C 
ATOM      9  C   UNL     1     107.790  50.525  63.491  1.00  0.00    -0.020 C 
BRANCH   9  10
ATOM     10  C   UNL     1     108.896  50.330  62.483  1.00  0.00    -0.010 CG0
ATOM     11  C   UNL     1     110.249  50.424  63.224  1.00  0.00     0.016 C 
ATOM     12  C   UNL     1     108.858  51.455  61.421  1.00  0.00     0.016 C 
ATOM     13  G   UNL     1     108.784  48.920  61.861  1.00  0.00     0.000 G0
ENDBRANCH   9  10
ENDBRANCH   3   8
TORSDOF 0
ENDMDL
MODEL 2
REMARK VINA RESULT:    -5.228      1.462      2.440
REMARK INTER + INTRA:          -5.321
REMARK INTER:                  -6.174
REMARK INTRA:                   0.854
REMARK UNBOUND:                 1.130
REMARK SMILES CC1=CC=CC(C)(C)CC1=O
REMARK SMILES IDX 1 1 2 2 3 3 10 4 11 5 9 6 4 8 5 9 6 10 7 11 8 12
REMARK H PARENT
REMARK Flexibility Score: 80.00
ROOT
ATOM      1  C   UNL     1     109.458  46.448  65.001  1.00  0.00     0.048 C 
ATOM      2  C   UNL     1     109.070  47.382  63.877  1.00  0.00    -0.008 C 
ATOM      3  C   UNL     1     109.516  47.094  62.635  1.00  0.00     0.007 C 
ENDROOT
BRANCH   2   4
ATOM      4  C   UNL     1     108.178  48.518  64.232  1.00  0.00     0.159 C 
ATOM      5  O   UNL     1     107.877  48.693  65.445  1.00  0.00    -0.295 OA
BRANCH   4   6
ATOM      6  C   UNL     1     107.573  49.456  63.230  1.00  0.00     0.091 CG0
ATOM      7  G   UNL     1     108.599  50.086  62.262  1.00  0.00     0.000 G0
ENDBRANCH   4   6
ENDBRANCH   2   4
BRANCH   3   8
ATOM      8  C   UNL     1     109.308  47.822  61.363  1.00  0.00    -0.003 C 
ATOM      9  C   UNL     1     108.947  49.098  61.181  1.00  0.00    -0.020 C 
BRANCH   9  10
ATOM     10  C   UNL     1     108.594  50.087  62.266  1.00  0.00    -0.010 CG0
ATOM     11  C   UNL     1     107.924  51.313  61.604  1.00  0.00     0.016 C 
ATOM     12  C   UNL     1     109.874  50.576  62.984  1.00  0.00     0.016 C 
ATOM     13  G   UNL     1     107.574  49.447  63.234  1.00  0.00     0.000 G0
ENDBRANCH   9  10
ENDBRANCH   3   8
TORSDOF 0
ENDMDL
MODEL 3
REMARK VINA RESULT:    -4.876      1.721      3.743
REMARK INTER + INTRA:          -4.886
REMARK INTER:                  -5.749
REMARK INTRA:                   0.863
REMARK UNBOUND:                 1.130
REMARK SMILES CC1=CC=CC(C)(C)CC1=O
REMARK SMILES IDX 1 1 2 2 3 3 10 4 11 5 9 6 4 8 5 9 6 10 7 11 8 12
REMARK H PARENT
REMARK Flexibility Score: 80.00
ROOT
ATOM      1  C   UNL     1     108.438  52.498  62.167  1.00  0.00     0.048 C 
ATOM      2  C   UNL     1     108.711  51.017  62.035  1.00  0.00    -0.008 C 
ATOM      3  C   UNL     1     108.004  50.324  61.116  1.00  0.00     0.007 C 
ENDROOT
BRANCH   2   4
ATOM      4  C   UNL     1     109.782  50.457  62.902  1.00  0.00     0.159 C 
ATOM      5  O   UNL     1     110.344  51.219  63.735  1.00  0.00    -0.295 OA
BRANCH   4   6
ATOM      6  C   UNL     1     110.271  49.041  62.824  1.00  0.00     0.091 CG0
ATOM      7  G   UNL     1     109.145  47.985  62.871  1.00  0.00     0.000 G0
ENDBRANCH   4   6
ENDBRANCH   2   4
BRANCH   3   8
ATOM      8  C   UNL     1     108.049  48.885  60.777  1.00  0.00    -0.003 C 
ATOM      9  C   UNL     1     108.502  47.866  61.518  1.00  0.00    -0.020 C 
BRANCH   9  10
ATOM     10  C   UNL     1     109.150  47.973  62.877  1.00  0.00    -0.010 CG0
ATOM     11  C   UNL     1     109.794  46.609  63.215  1.00  0.00     0.016 C 
ATOM     12  C   UNL     1     108.085  48.275  63.957  1.00  0.00     0.016 C 
ATOM     13  G   UNL     1     110.271  49.036  62.831  1.00  0.00     0.000 G0
ENDBRANCH   9  10
ENDBRANCH   3   8
TORSDOF 0
ENDMDL
MODEL 4
REMARK VINA RESULT:    -4.868      1.912      3.917
REMARK INTER + INTRA:          -4.876
REMARK INTER:                  -5.727
REMARK INTRA:                   0.852
REMARK UNBOUND:                 1.130
REMARK SMILES CC1=CC=CC(C)(C)CC1=O
REMARK SMILES IDX 1 1 2 2 3 3 10 4 11 5 9 6 4 8 5 9 6 10 7 11 8 12
REMARK H PARENT
REMARK Flexibility Score: 80.00
ROOT
ATOM      1  C   UNL     1     107.237  52.385  61.086  1.00  0.00     0.048 C 
ATOM      2  C   UNL     1     108.051  51.261  61.685  1.00  0.00    -0.008 C 
ATOM      3  C   UNL     1     109.384  51.260  61.465  1.00  0.00     0.007 C 
ENDROOT
BRANCH   2   4
ATOM      4  C   UNL     1     107.313  50.273  62.517  1.00  0.00     0.159 C 
ATOM      5  O   UNL     1     106.057  50.360  62.584  1.00  0.00    -0.295 OA
BRANCH   4   6
ATOM      6  C   UNL     1     107.973  49.193  63.322  1.00  0.00     0.091 CG0
ATOM      7  G   UNL     1     108.937  48.303  62.507  1.00  0.00     0.000 G0
ENDBRANCH   4   6
ENDBRANCH   2   4
BRANCH   3   8
ATOM      8  C   UNL     1     110.415  50.296  61.910  1.00  0.00    -0.003 C 
ATOM      9  C   UNL     1     110.255  49.034  62.324  1.00  0.00    -0.020 C 
BRANCH   9  10
ATOM     10  C   UNL     1     108.939  48.315  62.499  1.00  0.00    -0.010 CG0
ATOM     11  C   UNL     1     109.198  47.021  63.304  1.00  0.00     0.016 C 
ATOM     12  C   UNL     1     108.362  47.909  61.123  1.00  0.00     0.016 C 
ATOM     13  G   UNL     1     107.972  49.202  63.314  1.00  0.00     0.000 G0
ENDBRANCH   9  10
ENDBRANCH   3   8
TORSDOF 0
ENDMDL
MODEL 5
REMARK VINA RESULT:    -4.794      1.625      3.382
REMARK INTER + INTRA:          -4.784
REMARK INTER:                  -5.861
REMARK INTRA:                   1.076
REMARK UNBOUND:                 1.130
REMARK SMILES CC1=CC=CC(C)(C)CC1=O
REMARK SMILES IDX 1 1 2 2 3 3 10 4 11 5 9 6 4 8 5 9 6 10 7 11 8 12
REMARK H PARENT
REMARK Flexibility Score: 80.00
ROOT
ATOM      1  C   UNL     1     108.349  52.677  62.793  1.00  0.00     0.048 C 
ATOM      2  C   UNL     1     108.652  51.222  63.068  1.00  0.00    -0.008 C 
ATOM      3  C   UNL     1     107.917  50.592  64.011  1.00  0.00     0.007 C 
ENDROOT
BRANCH   2   4
ATOM      4  C   UNL     1     109.706  50.590  62.231  1.00  0.00     0.159 C 
ATOM      5  O   UNL     1     110.155  51.231  61.241  1.00  0.00    -0.295 OA
BRANCH   4   6
ATOM      6  C   UNL     1     110.249  49.211  62.463  1.00  0.00     0.091 CG0
ATOM      7  G   UNL     1     109.164  48.115  62.543  1.00  0.00     0.000 G0
ENDBRANCH   4   6
ENDBRANCH   2   4
BRANCH   3   8
ATOM      8  C   UNL     1     107.995  49.195  64.493  1.00  0.00    -0.003 C 
ATOM      9  C   UNL     1     108.554  48.136  63.896  1.00  0.00    -0.020 C 
BRANCH   9  10
ATOM     10  C   UNL     1     109.186  48.117  62.525  1.00  0.00    -0.010 CG0
ATOM     11  C   UNL     1     108.087  48.417  61.480  1.00  0.00     0.016 C 
ATOM     12  C   UNL     1     109.761  46.714  62.219  1.00  0.00     0.016 C 
ATOM     13  G   UNL     1     110.253  49.231  62.435  1.00  0.00     0.000 G0
ENDBRANCH   9  10
ENDBRANCH   3   8
TORSDOF 0
ENDMDL
MODEL 6
REMARK VINA RESULT:    -4.562      1.860      2.568
REMARK INTER + INTRA:          -4.498
REMARK INTER:                  -5.338
REMARK INTRA:                   0.840
REMARK UNBOUND:                 1.130
REMARK SMILES CC1=CC=CC(C)(C)CC1=O
REMARK SMILES IDX 1 1 2 2 3 3 10 4 11 5 9 6 4 8 5 9 6 10 7 11 8 12
REMARK H PARENT
REMARK Flexibility Score: 80.00
ROOT
ATOM      1  C   UNL     1     109.691  46.946  62.268  1.00  0.00     0.048 C 
ATOM      2  C   UNL     1     109.417  48.425  62.118  1.00  0.00    -0.008 C 
ATOM      3  C   UNL     1     110.191  49.284  62.817  1.00  0.00     0.007 C 
ENDROOT
BRANCH   2   4
ATOM      4  C   UNL     1     108.343  48.812  61.164  1.00  0.00     0.159 C 
ATOM      5  O   UNL     1     107.667  47.900  60.615  1.00  0.00    -0.295 OA
BRANCH   4   6
ATOM      6  C   UNL     1     108.032  50.228  60.778  1.00  0.00     0.091 CG0
ATOM      7  G   UNL     1     107.790  51.167  61.980  1.00  0.00     0.000 G0
ENDBRANCH   4   6
ENDBRANCH   2   4
BRANCH   3   8
ATOM      8  C   UNL     1     110.148  50.762  62.876  1.00  0.00    -0.003 C 
ATOM      9  C   UNL     1     109.140  51.582  62.556  1.00  0.00    -0.020 C 
BRANCH   9  10
ATOM     10  C   UNL     1     107.806  51.170  61.980  1.00  0.00    -0.010 CG0
ATOM     11  C   UNL     1     107.097  52.436  61.447  1.00  0.00     0.016 C 
ATOM     12  C   UNL     1     106.913  50.555  63.083  1.00  0.00     0.016 C 
ATOM     13  G   UNL     1     108.033  50.209  60.792  1.00  0.00     0.000 G0
ENDBRANCH   9  10
ENDBRANCH   3   8
TORSDOF 0
ENDMDL
MODEL 7
REMARK VINA RESULT:    -4.373      1.564      3.245
REMARK INTER + INTRA:          -4.265
REMARK INTER:                  -5.135
REMARK INTRA:                   0.870
REMARK UNBOUND:                 1.130
REMARK SMILES CC1=CC=CC(C)(C)CC1=O
REMARK SMILES IDX 1 1 2 2 3 3 10 4 11 5 9 6 4 8 5 9 6 10 7 11 8 12
REMARK H PARENT
REMARK Flexibility Score: 80.00
ROOT
ATOM      1  C   UNL     1     107.551  51.419  61.160  1.00  0.00     0.048 C 
ATOM      2  C   UNL     1     107.784  50.298  62.147  1.00  0.00    -0.008 C 
ATOM      3  C   UNL     1     107.748  50.599  63.463  1.00  0.00     0.007 C 
ENDROOT
BRANCH   2   4
ATOM      4  C   UNL     1     107.982  48.938  61.577  1.00  0.00     0.159 C 
ATOM      5  O   UNL     1     108.024  48.809  60.323  1.00  0.00    -0.295 OA
BRANCH   4   6
ATOM      6  C   UNL     1     108.096  47.690  62.402  1.00  0.00     0.091 CG0
ATOM      7  G   UNL     1     109.129  47.787  63.547  1.00  0.00     0.000 G0
ENDBRANCH   4   6
ENDBRANCH   2   4
BRANCH   3   8
ATOM      8  C   UNL     1     107.948  49.723  64.639  1.00  0.00    -0.003 C 
ATOM      9  C   UNL     1     108.555  48.532  64.700  1.00  0.00    -0.020 C 
BRANCH   9  10
ATOM     10  C   UNL     1     109.128  47.764  63.533  1.00  0.00    -0.010 CG0
ATOM     11  C   UNL     1     109.441  46.326  64.006  1.00  0.00     0.016 C 
ATOM     12  C   UNL     1     110.454  48.408  63.065  1.00  0.00     0.016 C 
ATOM     13  G   UNL     1     108.075  47.681  62.405  1.00  0.00     0.000 G0
ENDBRANCH   9  10
ENDBRANCH   3   8
TORSDOF 0
ENDMDL
MODEL 8
REMARK VINA RESULT:    -3.944      1.615      2.156
REMARK INTER + INTRA:          -3.736
REMARK INTER:                  -4.802
REMARK INTRA:                   1.066
REMARK UNBOUND:                 1.130
REMARK SMILES CC1=CC=CC(C)(C)CC1=O
REMARK SMILES IDX 1 1 2 2 3 3 10 4 11 5 9 6 4 8 5 9 6 10 7 11 8 12
REMARK H PARENT
REMARK Flexibility Score: 80.00
ROOT
ATOM      1  C   UNL     1     109.038  48.257  64.792  1.00  0.00     0.048 C 
ATOM      2  C   UNL     1     108.705  49.232  63.686  1.00  0.00    -0.008 C 
ATOM      3  C   UNL     1     107.406  49.386  63.350  1.00  0.00     0.007 C 
ENDROOT
BRANCH   2   4
ATOM      4  C   UNL     1     109.844  49.985  63.094  1.00  0.00     0.159 C 
ATOM      5  O   UNL     1     110.968  49.925  63.664  1.00  0.00    -0.295 OA
BRANCH   4   6
ATOM      6  C   UNL     1     109.735  50.851  61.875  1.00  0.00     0.091 CG0
ATOM      7  G   UNL     1     108.659  51.954  61.983  1.00  0.00     0.000 G0
ENDBRANCH   4   6
ENDBRANCH   2   4
BRANCH   3   8
ATOM      8  C   UNL     1     106.792  50.247  62.316  1.00  0.00    -0.003 C 
ATOM      9  C   UNL     1     107.314  51.315  61.700  1.00  0.00    -0.020 C 
BRANCH   9  10
ATOM     10  C   UNL     1     108.660  51.936  61.985  1.00  0.00    -0.010 CG0
ATOM     11  C   UNL     1     108.639  52.500  63.424  1.00  0.00     0.016 C 
ATOM     12  C   UNL     1     108.922  53.115  61.018  1.00  0.00     0.016 C 
ATOM     13  G   UNL     1     109.755  50.849  61.910  1.00  0.00     0.000 G0
ENDBRANCH   9  10
ENDBRANCH   3   8
TORSDOF 0
ENDMDL
MODEL 9
REMARK VINA RESULT:    -3.747      1.356      2.444
REMARK INTER + INTRA:          -3.492
REMARK INTER:                  -4.355
REMARK INTRA:                   0.863
REMARK UNBOUND:                 1.130
REMARK SMILES CC1=CC=CC(C)(C)CC1=O
REMARK SMILES IDX 1 1 2 2 3 3 10 4 11 5 9 6 4 8 5 9 6 10 7 11 8 12
REMARK H PARENT
REMARK Flexibility Score: 80.00
ROOT
ATOM      1  C   UNL     1     109.493  46.438  60.922  1.00  0.00     0.048 C 
ATOM      2  C   UNL     1     108.961  47.747  61.456  1.00  0.00    -0.008 C 
ATOM      3  C   UNL     1     108.401  48.608  60.578  1.00  0.00     0.007 C 
ENDROOT
BRANCH   2   4
ATOM      4  C   UNL     1     109.052  47.954  62.927  1.00  0.00     0.159 C 
ATOM      5  O   UNL     1     109.645  47.085  63.622  1.00  0.00    -0.295 OA
BRANCH   4   6
ATOM      6  C   UNL     1     108.446  49.119  63.651  1.00  0.00     0.091 CG0
ATOM      7  G   UNL     1     108.847  50.495  63.073  1.00  0.00     0.000 G0
ENDBRANCH   4   6
ENDBRANCH   2   4
BRANCH   3   8
ATOM      8  C   UNL     1     107.815  49.947  60.807  1.00  0.00    -0.003 C 
ATOM      9  C   UNL     1     108.007  50.776  61.840  1.00  0.00    -0.020 C 
BRANCH   9  10
ATOM     10  C   UNL     1     108.835  50.490  63.069  1.00  0.00    -0.010 CG0
ATOM     11  C   UNL     1     108.519  51.571  64.129  1.00  0.00     0.016 C 
ATOM     12  C   UNL     1     110.343  50.583  62.734  1.00  0.00     0.016 C 
ATOM     13  G   UNL     1     108.437  49.115  63.651  1.00  0.00     0.000 G0
ENDBRANCH   9  10
ENDBRANCH   3   8
TORSDOF 0
ENDMDL
