MODEL 1
REMARK VINA RESULT:    -2.799      0.000      0.000
REMARK INTER + INTRA:          -3.994
REMARK INTER:                  -3.618
REMARK INTRA:                  -0.376
REMARK UNBOUND:                -0.376
REMARK SMILES CCCCCCC=O
REMARK SMILES IDX 4 1 3 2 2 3 1 4 5 5 6 6 7 7 8 8
REMARK H PARENT
REMARK Flexibility Score: inf
ROOT
ATOM      1  C   UNL     1      10.979  -5.467  -1.584  1.00  0.00     0.000 C 
ENDROOT
BRANCH   1   2
ATOM      2  C   UNL     1       9.636  -5.324  -2.309  1.00  0.00    -0.000 C 
BRANCH   2   3
ATOM      3  C   UNL     1       9.237  -3.850  -2.440  1.00  0.00    -0.003 C 
ATOM      4  C   UNL     1       9.182  -3.422  -3.903  1.00  0.00     0.004 C 
ENDBRANCH   2   3
ENDBRANCH   1   2
BRANCH   1   5
ATOM      5  C   UNL     1      11.499  -4.102  -1.112  1.00  0.00     0.008 C 
BRANCH   5   6
ATOM      6  C   UNL     1      12.927  -3.825  -1.604  1.00  0.00     0.072 C 
BRANCH   6   7
ATOM      7  C   UNL     1      13.074  -4.072  -3.077  1.00  0.00     0.224 C 
ATOM      8  O   UNL     1      12.802  -3.196  -3.883  1.00  0.00    -0.303 OA
ENDBRANCH   6   7
ENDBRANCH   5   6
ENDBRANCH   1   5
TORSDOF 5
ENDMDL
MODEL 2
REMARK VINA RESULT:    -2.771      0.730      0.968
REMARK INTER + INTRA:          -3.957
REMARK INTER:                  -3.661
REMARK INTRA:                  -0.296
REMARK UNBOUND:                -0.376
REMARK SMILES CCCCCCC=O
REMARK SMILES IDX 4 1 3 2 2 3 1 4 5 5 6 6 7 7 8 8
REMARK H PARENT
REMARK Flexibility Score: inf
ROOT
ATOM      1  C   UNL     1      11.461  -5.523  -1.058  1.00  0.00     0.000 C 
ENDROOT
BRANCH   1   2
ATOM      2  C   UNL     1       9.998  -5.106  -0.866  1.00  0.00    -0.000 C 
BRANCH   2   3
ATOM      3  C   UNL     1       9.277  -4.995  -2.214  1.00  0.00    -0.003 C 
ATOM      4  C   UNL     1       9.120  -3.537  -2.636  1.00  0.00     0.004 C 
ENDBRANCH   2   3
ENDBRANCH   1   2
BRANCH   1   5
ATOM      5  C   UNL     1      12.403  -4.322  -0.888  1.00  0.00     0.008 C 
BRANCH   5   6
ATOM      6  C   UNL     1      13.485  -4.276  -1.976  1.00  0.00     0.072 C 
BRANCH   6   7
ATOM      7  C   UNL     1      12.896  -4.178  -3.354  1.00  0.00     0.224 C 
ATOM      8  O   UNL     1      12.984  -3.141  -3.993  1.00  0.00    -0.303 OA
ENDBRANCH   6   7
ENDBRANCH   5   6
ENDBRANCH   1   5
TORSDOF 5
ENDMDL
MODEL 3
REMARK VINA RESULT:    -2.670      2.139      4.165
REMARK INTER + INTRA:          -3.827
REMARK INTER:                  -3.559
REMARK INTRA:                  -0.268
REMARK UNBOUND:                -0.376
REMARK SMILES CCCCCCC=O
REMARK SMILES IDX 4 1 3 2 2 3 1 4 5 5 6 6 7 7 8 8
REMARK H PARENT
REMARK Flexibility Score: inf
ROOT
ATOM      1  C   UNL     1      13.577  -4.329  -0.245  1.00  0.00     0.000 C 
ENDROOT
BRANCH   1   2
ATOM      2  C   UNL     1      14.018  -5.795  -0.325  1.00  0.00    -0.000 C 
BRANCH   2   3
ATOM      3  C   UNL     1      15.536  -5.904  -0.504  1.00  0.00    -0.003 C 
ATOM      4  C   UNL     1      15.964  -5.419  -1.886  1.00  0.00     0.004 C 
ENDBRANCH   2   3
ENDBRANCH   1   2
BRANCH   1   5
ATOM      5  C   UNL     1      12.283  -4.099  -1.039  1.00  0.00     0.008 C 
BRANCH   5   6
ATOM      6  C   UNL     1      12.312  -4.792  -2.408  1.00  0.00     0.072 C 
BRANCH   6   7
ATOM      7  C   UNL     1      12.103  -3.823  -3.535  1.00  0.00     0.224 C 
ATOM      8  O   UNL     1      13.032  -3.148  -3.953  1.00  0.00    -0.303 OA
ENDBRANCH   6   7
ENDBRANCH   5   6
ENDBRANCH   1   5
TORSDOF 5
ENDMDL
MODEL 4
REMARK VINA RESULT:    -2.566      1.548      3.375
REMARK INTER + INTRA:          -3.692
REMARK INTER:                  -3.289
REMARK INTRA:                  -0.403
REMARK UNBOUND:                -0.376
REMARK SMILES CCCCCCC=O
REMARK SMILES IDX 4 1 3 2 2 3 1 4 5 5 6 6 7 7 8 8
REMARK H PARENT
REMARK Flexibility Score: inf
ROOT
ATOM      1  C   UNL     1      11.323  -4.759  -1.118  1.00  0.00     0.000 C 
ENDROOT
BRANCH   1   2
ATOM      2  C   UNL     1      12.541  -5.495  -0.547  1.00  0.00    -0.000 C 
BRANCH   2   3
ATOM      3  C   UNL     1      13.790  -4.609  -0.594  1.00  0.00    -0.003 C 
ATOM      4  C   UNL     1      14.821  -5.162  -1.573  1.00  0.00     0.004 C 
ENDBRANCH   2   3
ENDBRANCH   1   2
BRANCH   1   5
ATOM      5  C   UNL     1      10.772  -5.483  -2.355  1.00  0.00     0.008 C 
BRANCH   5   6
ATOM      6  C   UNL     1      11.490  -5.057  -3.643  1.00  0.00     0.072 C 
BRANCH   6   7
ATOM      7  C   UNL     1      11.870  -3.604  -3.623  1.00  0.00     0.224 C 
ATOM      8  O   UNL     1      12.984  -3.250  -3.975  1.00  0.00    -0.303 OA
ENDBRANCH   6   7
ENDBRANCH   5   6
ENDBRANCH   1   5
TORSDOF 5
ENDMDL
MODEL 5
REMARK VINA RESULT:    -2.464      2.176      2.987
REMARK INTER + INTRA:          -3.560
REMARK INTER:                  -3.161
REMARK INTRA:                  -0.400
REMARK UNBOUND:                -0.376
REMARK SMILES CCCCCCC=O
REMARK SMILES IDX 4 1 3 2 2 3 1 4 5 5 6 6 7 7 8 8
REMARK H PARENT
REMARK Flexibility Score: inf
ROOT
ATOM      1  C   UNL     1      12.722  -3.915  -2.861  1.00  0.00     0.000 C 
ENDROOT
BRANCH   1   2
ATOM      2  C   UNL     1      11.311  -4.512  -2.914  1.00  0.00    -0.000 C 
BRANCH   2   3
ATOM      3  C   UNL     1      10.506  -4.132  -1.666  1.00  0.00    -0.003 C 
ATOM      4  C   UNL     1      10.157  -5.365  -0.838  1.00  0.00     0.004 C 
ENDBRANCH   2   3
ENDBRANCH   1   2
BRANCH   1   5
ATOM      5  C   UNL     1      13.784  -5.020  -2.763  1.00  0.00     0.008 C 
BRANCH   5   6
ATOM      6  C   UNL     1      13.883  -5.604  -1.347  1.00  0.00     0.072 C 
BRANCH   6   7
ATOM      7  C   UNL     1      14.185  -4.549  -0.322  1.00  0.00     0.224 C 
ATOM      8  O   UNL     1      13.434  -4.370   0.624  1.00  0.00    -0.303 OA
ENDBRANCH   6   7
ENDBRANCH   5   6
ENDBRANCH   1   5
TORSDOF 5
ENDMDL
MODEL 6
REMARK VINA RESULT:    -2.442      2.002      2.281
REMARK INTER + INTRA:          -3.532
REMARK INTER:                  -3.284
REMARK INTRA:                  -0.247
REMARK UNBOUND:                -0.376
REMARK SMILES CCCCCCC=O
REMARK SMILES IDX 4 1 3 2 2 3 1 4 5 5 6 6 7 7 8 8
REMARK H PARENT
REMARK Flexibility Score: inf
ROOT
ATOM      1  C   UNL     1       9.522  -5.081  -2.025  1.00  0.00     0.000 C 
ENDROOT
BRANCH   1   2
ATOM      2  C   UNL     1      10.079  -4.539  -3.346  1.00  0.00    -0.000 C 
BRANCH   2   3
ATOM      3  C   UNL     1       9.240  -3.362  -3.854  1.00  0.00    -0.003 C 
ATOM      4  C   UNL     1       8.184  -2.955  -2.831  1.00  0.00     0.004 C 
ENDBRANCH   2   3
ENDBRANCH   1   2
BRANCH   1   5
ATOM      5  C   UNL     1      10.651  -5.343  -1.017  1.00  0.00     0.008 C 
BRANCH   5   6
ATOM      6  C   UNL     1      11.688  -4.212  -1.004  1.00  0.00     0.072 C 
BRANCH   6   7
ATOM      7  C   UNL     1      13.032  -4.683  -0.525  1.00  0.00     0.224 C 
ATOM      8  O   UNL     1      13.462  -4.328   0.561  1.00  0.00    -0.303 OA
ENDBRANCH   6   7
ENDBRANCH   5   6
ENDBRANCH   1   5
TORSDOF 5
ENDMDL
MODEL 7
REMARK VINA RESULT:    -2.417      9.999     11.606
REMARK INTER + INTRA:          -3.500
REMARK INTER:                  -3.338
REMARK INTRA:                  -0.162
REMARK UNBOUND:                -0.376
REMARK SMILES CCCCCCC=O
REMARK SMILES IDX 4 1 3 2 2 3 1 4 5 5 6 6 7 7 8 8
REMARK H PARENT
REMARK Flexibility Score: inf
ROOT
ATOM      1  C   UNL     1       9.499   5.347  -9.325  1.00  0.00     0.000 C 
ENDROOT
BRANCH   1   2
ATOM      2  C   UNL     1      10.237   6.690  -9.376  1.00  0.00    -0.000 C 
BRANCH   2   3
ATOM      3  C   UNL     1      10.101   7.442  -8.047  1.00  0.00    -0.003 C 
ATOM      4  C   UNL     1      10.806   8.794  -8.105  1.00  0.00     0.004 C 
ENDBRANCH   2   3
ENDBRANCH   1   2
BRANCH   1   5
ATOM      5  C   UNL     1       9.170   4.954  -7.878  1.00  0.00     0.008 C 
BRANCH   5   6
ATOM      6  C   UNL     1       9.627   3.526  -7.547  1.00  0.00     0.072 C 
BRANCH   6   7
ATOM      7  C   UNL     1       8.779   2.490  -8.228  1.00  0.00     0.224 C 
ATOM      8  O   UNL     1       9.147   1.328  -8.284  1.00  0.00    -0.303 OA
ENDBRANCH   6   7
ENDBRANCH   5   6
ENDBRANCH   1   5
TORSDOF 5
ENDMDL
MODEL 8
REMARK VINA RESULT:    -2.385      1.624      2.443
REMARK INTER + INTRA:          -3.458
REMARK INTER:                  -3.342
REMARK INTRA:                  -0.116
REMARK UNBOUND:                -0.376
REMARK SMILES CCCCCCC=O
REMARK SMILES IDX 4 1 3 2 2 3 1 4 5 5 6 6 7 7 8 8
REMARK H PARENT
REMARK Flexibility Score: inf
ROOT
ATOM      1  C   UNL     1       9.317  -4.173  -3.909  1.00  0.00     0.000 C 
ENDROOT
BRANCH   1   2
ATOM      2  C   UNL     1       8.440  -3.159  -3.166  1.00  0.00    -0.000 C 
BRANCH   2   3
ATOM      3  C   UNL     1       6.992  -3.652  -3.068  1.00  0.00    -0.003 C 
ATOM      4  C   UNL     1       6.381  -3.301  -1.715  1.00  0.00     0.004 C 
ENDBRANCH   2   3
ENDBRANCH   1   2
BRANCH   1   5
ATOM      5  C   UNL     1      10.399  -4.748  -2.983  1.00  0.00     0.008 C 
BRANCH   5   6
ATOM      6  C   UNL     1      11.701  -5.055  -3.736  1.00  0.00     0.072 C 
BRANCH   6   7
ATOM      7  C   UNL     1      12.798  -4.092  -3.383  1.00  0.00     0.224 C 
ATOM      8  O   UNL     1      12.958  -3.070  -4.032  1.00  0.00    -0.303 OA
ENDBRANCH   6   7
ENDBRANCH   5   6
ENDBRANCH   1   5
TORSDOF 5
ENDMDL
MODEL 9
REMARK VINA RESULT:    -2.370      9.976     11.531
REMARK INTER + INTRA:          -3.439
REMARK INTER:                  -3.216
REMARK INTRA:                  -0.223
REMARK UNBOUND:                -0.376
REMARK SMILES CCCCCCC=O
REMARK SMILES IDX 4 1 3 2 2 3 1 4 5 5 6 6 7 7 8 8
REMARK H PARENT
REMARK Flexibility Score: inf
ROOT
ATOM      1  C   UNL     1       8.899   4.881  -8.731  1.00  0.00     0.000 C 
ENDROOT
BRANCH   1   2
ATOM      2  C   UNL     1       8.896   3.366  -8.960  1.00  0.00    -0.000 C 
BRANCH   2   3
ATOM      3  C   UNL     1       9.556   2.631  -7.788  1.00  0.00    -0.003 C 
ATOM      4  C   UNL     1       9.833   3.583  -6.628  1.00  0.00     0.004 C 
ENDBRANCH   2   3
ENDBRANCH   1   2
BRANCH   1   5
ATOM      5  C   UNL     1       9.910   5.576  -9.657  1.00  0.00     0.008 C 
BRANCH   5   6
ATOM      6  C   UNL     1      10.302   6.968  -9.144  1.00  0.00     0.072 C 
BRANCH   6   7
ATOM      7  C   UNL     1       9.791   7.222  -7.755  1.00  0.00     0.224 C 
ATOM      8  O   UNL     1      10.299   8.085  -7.056  1.00  0.00    -0.303 OA
ENDBRANCH   6   7
ENDBRANCH   5   6
ENDBRANCH   1   5
TORSDOF 5
ENDMDL
