MODEL 1
REMARK VINA RESULT:     1.121      0.000      0.000
REMARK INTER + INTRA:           0.974
REMARK INTER:                   1.187
REMARK INTRA:                  -0.213
REMARK UNBOUND:                -0.213
REMARK SMILES CC1=C[C@H]2C(=C(C)CC[C@@H]2C(C)C)CC1
REMARK SMILES IDX 1 1 2 2 3 3 4 4 10 5 9 6 8 7 6 8 5 9 14 10 15 11 7 12 11 13
REMARK SMILES IDX 12 14 13 15
REMARK H PARENT
REMARK Flexibility Score: inf
ROOT
ATOM      1  C   UNL     1     -14.625  -2.248  21.411  1.00  0.00     0.039 C 
ATOM      2  C   UNL     1     -14.462  -2.042  19.931  1.00  0.00    -0.076 C 
ATOM      3  C   UNL     1     -15.499  -1.608  19.189  1.00  0.00    -0.020 C 
ATOM      4  C   UNL     1     -15.328  -1.442  17.690  1.00  0.00     0.041 C 
ATOM      5  C   UNL     1     -16.663  -1.040  16.977  1.00  0.00     0.003 C 
ATOM      6  C   UNL     1     -16.623  -1.504  15.505  1.00  0.00     0.009 C 
ATOM      7  C   UNL     1     -16.373  -3.002  15.413  1.00  0.00     0.031 C 
ATOM      8  C   UNL     1     -15.089  -3.397  16.094  1.00  0.00    -0.073 C 
ATOM      9  C   UNL     1     -14.643  -2.716  17.181  1.00  0.00    -0.064 C 
ATOM     10  C   UNL     1     -13.429  -3.213  17.969  1.00  0.00     0.036 C 
ATOM     11  C   UNL     1     -13.161  -2.374  19.232  1.00  0.00     0.035 C 
ATOM     12  C   UNL     1     -14.383  -4.638  15.597  1.00  0.00     0.039 C 
ENDROOT
BRANCH   5  13
ATOM     13  C   UNL     1     -16.934   0.510  17.041  1.00  0.00    -0.013 C 
ATOM     14  C   UNL     1     -18.117   0.853  17.969  1.00  0.00     0.007 C 
ATOM     15  C   UNL     1     -15.710   1.322  17.500  1.00  0.00     0.007 C 
ENDBRANCH   5  13
TORSDOF 1
ENDMDL
MODEL 2
REMARK VINA RESULT:     3.309      1.015      4.076
REMARK INTER + INTRA:           3.289
REMARK INTER:                   3.590
REMARK INTRA:                  -0.301
REMARK UNBOUND:                -0.213
REMARK SMILES CC1=C[C@H]2C(=C(C)CC[C@@H]2C(C)C)CC1
REMARK SMILES IDX 1 1 2 2 3 3 4 4 10 5 9 6 8 7 6 8 5 9 14 10 15 11 7 12 11 13
REMARK SMILES IDX 12 14 13 15
REMARK H PARENT
REMARK Flexibility Score: inf
ROOT
ATOM      1  C   UNL     1     -17.088   1.333  16.822  1.00  0.00     0.039 C 
ATOM      2  C   UNL     1     -16.646  -0.075  17.107  1.00  0.00    -0.076 C 
ATOM      3  C   UNL     1     -15.665  -0.310  17.999  1.00  0.00    -0.020 C 
ATOM      4  C   UNL     1     -15.204  -1.735  18.246  1.00  0.00     0.041 C 
ATOM      5  C   UNL     1     -13.985  -1.808  19.227  1.00  0.00     0.003 C 
ATOM      6  C   UNL     1     -13.176  -3.093  18.950  1.00  0.00     0.009 C 
ATOM      7  C   UNL     1     -12.725  -3.152  17.498  1.00  0.00     0.031 C 
ATOM      8  C   UNL     1     -13.892  -3.085  16.548  1.00  0.00    -0.073 C 
ATOM      9  C   UNL     1     -15.008  -2.380  16.868  1.00  0.00    -0.064 C 
ATOM     10  C   UNL     1     -16.125  -2.178  15.843  1.00  0.00     0.036 C 
ATOM     11  C   UNL     1     -17.240  -1.250  16.359  1.00  0.00     0.035 C 
ATOM     12  C   UNL     1     -13.732  -3.731  15.190  1.00  0.00     0.039 C 
ENDROOT
BRANCH   5  13
ATOM     13  C   UNL     1     -14.427  -1.769  20.738  1.00  0.00    -0.013 C 
ATOM     14  C   UNL     1     -15.478  -2.850  21.063  1.00  0.00     0.007 C 
ATOM     15  C   UNL     1     -13.251  -1.929  21.717  1.00  0.00     0.007 C 
ENDBRANCH   5  13
TORSDOF 1
ENDMDL
