MODEL 1
REMARK VINA RESULT:    -6.353      0.000      0.000
REMARK INTER + INTRA:          -7.729
REMARK INTER:                  -7.467
REMARK INTRA:                  -0.262
REMARK UNBOUND:                -0.262
REMARK SMILES O=c1cc(-c2ccc(O)c(O)c2)oc2cc(O)cc(O)c12
REMARK SMILES IDX 4 1 3 2 2 3 1 4 21 5 19 6 18 7 16 8 15 9 14 10 13 11 5 12
REMARK SMILES IDX 6 13 7 14 8 15 12 16 10 17 9 18 11 20 20 22 17 24
REMARK H PARENT 9 19 11 21 20 23 17 25
REMARK Flexibility Score: inf
ROOT
ATOM      1  C   UNL     1      -2.595  67.766 165.519  1.00  0.00     0.138 A 
ATOM      2  C   UNL     1      -2.040  68.243 166.715  1.00  0.00     0.100 A 
ATOM      3  C   UNL     1      -0.941  69.101 166.671  1.00  0.00     0.197 A 
ATOM      4  O   UNL     1      -0.426  69.462 167.761  1.00  0.00    -0.289 OA
ATOM      5  C   UNL     1      -0.414  69.509 165.422  1.00  0.00     0.107 A 
ATOM      6  C   UNL     1       0.678  70.412 165.256  1.00  0.00     0.134 A 
ATOM      7  C   UNL     1       1.186  70.652 163.974  1.00  0.00     0.093 A 
ATOM      8  C   UNL     1       0.606  70.068 162.848  1.00  0.00     0.123 A 
ATOM      9  C   UNL     1      -0.498  69.226 162.994  1.00  0.00     0.094 A 
ATOM     10  C   UNL     1      -1.007  68.940 164.262  1.00  0.00     0.146 A 
ATOM     11  O   UNL     1      -2.048  68.121 164.360  1.00  0.00    -0.456 OA
ENDROOT
BRANCH   1  12
ATOM     12  C   UNL     1      -3.766  66.853 165.506  1.00  0.00     0.021 A 
ATOM     13  C   UNL     1      -3.613  65.457 165.393  1.00  0.00     0.016 A 
ATOM     14  C   UNL     1      -4.733  64.621 165.394  1.00  0.00     0.051 A 
ATOM     15  C   UNL     1      -6.019  65.160 165.514  1.00  0.00     0.157 A 
ATOM     16  C   UNL     1      -5.061  67.385 165.639  1.00  0.00     0.062 A 
ATOM     17  C   UNL     1      -6.184  66.544 165.639  1.00  0.00     0.158 A 
BRANCH  15  18
ATOM     18  O   UNL     1      -7.137  64.328 165.513  1.00  0.00    -0.504 OA
ATOM     19  H   UNL     1      -7.070  63.349 165.766  1.00  0.00     0.293 HD
ENDBRANCH  15  18
BRANCH  17  20
ATOM     20  O   UNL     1      -7.465  67.078 165.761  1.00  0.00    -0.504 OA
ATOM     21  H   UNL     1      -7.966  67.058 166.642  1.00  0.00     0.293 HD
ENDBRANCH  17  20
ENDBRANCH   1  12
BRANCH   6  22
ATOM     22  O   UNL     1       1.278  71.113 166.305  1.00  0.00    -0.507 OA
ATOM     23  H   UNL     1       0.944  71.990 166.678  1.00  0.00     0.293 HD
ENDBRANCH   6  22
BRANCH   8  24
ATOM     24  O   UNL     1       1.128  70.341 161.586  1.00  0.00    -0.508 OA
ATOM     25  H   UNL     1       1.718  71.148 161.418  1.00  0.00     0.293 HD
ENDBRANCH   8  24
TORSDOF 5
ENDMDL
MODEL 2
REMARK VINA RESULT:    -5.723      1.516      2.743
REMARK INTER + INTRA:          -6.989
REMARK INTER:                  -6.715
REMARK INTRA:                  -0.273
REMARK UNBOUND:                -0.262
REMARK SMILES O=c1cc(-c2ccc(O)c(O)c2)oc2cc(O)cc(O)c12
REMARK SMILES IDX 4 1 3 2 2 3 1 4 21 5 19 6 18 7 16 8 15 9 14 10 13 11 5 12
REMARK SMILES IDX 6 13 7 14 8 15 12 16 10 17 9 18 11 20 20 22 17 24
REMARK H PARENT 9 19 11 21 20 23 17 25
REMARK Flexibility Score: inf
ROOT
ATOM      1  C   UNL     1      -2.002  68.063 165.422  1.00  0.00     0.138 A 
ATOM      2  C   UNL     1      -1.870  68.808 164.241  1.00  0.00     0.100 A 
ATOM      3  C   UNL     1      -0.751  69.622 164.060  1.00  0.00     0.197 A 
ATOM      4  O   UNL     1      -0.691  70.325 163.019  1.00  0.00    -0.289 OA
ATOM      5  C   UNL     1       0.256  69.665 165.053  1.00  0.00     0.107 A 
ATOM      6  C   UNL     1       1.459  70.427 164.957  1.00  0.00     0.134 A 
ATOM      7  C   UNL     1       2.329  70.483 166.054  1.00  0.00     0.093 A 
ATOM      8  C   UNL     1       2.070  69.759 167.217  1.00  0.00     0.123 A 
ATOM      9  C   UNL     1       0.923  68.967 167.301  1.00  0.00     0.094 A 
ATOM     10  C   UNL     1       0.020  68.918 166.238  1.00  0.00     0.146 A 
ATOM     11  O   UNL     1      -1.068  68.164 166.363  1.00  0.00    -0.456 OA
ENDROOT
BRANCH   1  12
ATOM     12  C   UNL     1      -3.170  67.180 165.666  1.00  0.00     0.021 A 
ATOM     13  C   UNL     1      -3.016  65.867 166.152  1.00  0.00     0.016 A 
ATOM     14  C   UNL     1      -4.134  65.062 166.383  1.00  0.00     0.051 A 
ATOM     15  C   UNL     1      -5.422  65.553 166.140  1.00  0.00     0.157 A 
ATOM     16  C   UNL     1      -4.468  67.670 165.437  1.00  0.00     0.062 A 
ATOM     17  C   UNL     1      -5.590  66.860 165.668  1.00  0.00     0.158 A 
BRANCH  15  18
ATOM     18  O   UNL     1      -6.539  64.751 166.367  1.00  0.00    -0.504 OA
ATOM     19  H   UNL     1      -6.763  64.404 167.293  1.00  0.00     0.293 HD
ENDBRANCH  15  18
BRANCH  17  20
ATOM     20  O   UNL     1      -6.873  67.348 165.430  1.00  0.00    -0.504 OA
ATOM     21  H   UNL     1      -7.699  66.814 165.677  1.00  0.00     0.293 HD
ENDBRANCH  17  20
ENDBRANCH   1  12
BRANCH   6  22
ATOM     22  O   UNL     1       1.856  71.121 163.811  1.00  0.00    -0.507 OA
ATOM     23  H   UNL     1       1.376  71.091 162.924  1.00  0.00     0.293 HD
ENDBRANCH   6  22
BRANCH   8  24
ATOM     24  O   UNL     1       2.965  69.826 168.282  1.00  0.00    -0.508 OA
ATOM     25  H   UNL     1       2.877  70.529 169.007  1.00  0.00     0.293 HD
ENDBRANCH   8  24
TORSDOF 5
ENDMDL
MODEL 3
REMARK VINA RESULT:    -5.588      2.856      7.647
REMARK INTER + INTRA:          -6.831
REMARK INTER:                  -6.557
REMARK INTRA:                  -0.273
REMARK UNBOUND:                -0.262
REMARK SMILES O=c1cc(-c2ccc(O)c(O)c2)oc2cc(O)cc(O)c12
REMARK SMILES IDX 4 1 3 2 2 3 1 4 21 5 19 6 18 7 16 8 15 9 14 10 13 11 5 12
REMARK SMILES IDX 6 13 7 14 8 15 12 16 10 17 9 18 11 20 20 22 17 24
REMARK H PARENT 9 19 11 21 20 23 17 25
REMARK Flexibility Score: inf
ROOT
ATOM      1  C   UNL     1       0.750  69.850 166.147  1.00  0.00     0.138 A 
ATOM      2  C   UNL     1       0.449  70.633 165.023  1.00  0.00     0.100 A 
ATOM      3  C   UNL     1      -0.758  70.441 164.351  1.00  0.00     0.197 A 
ATOM      4  O   UNL     1      -0.971  71.114 163.310  1.00  0.00    -0.289 OA
ATOM      5  C   UNL     1      -1.684  69.481 164.826  1.00  0.00     0.107 A 
ATOM      6  C   UNL     1      -2.962  69.229 164.245  1.00  0.00     0.134 A 
ATOM      7  C   UNL     1      -3.745  68.174 164.732  1.00  0.00     0.093 A 
ATOM      8  C   UNL     1      -3.322  67.402 165.814  1.00  0.00     0.123 A 
ATOM      9  C   UNL     1      -2.097  67.676 166.425  1.00  0.00     0.094 A 
ATOM     10  C   UNL     1      -1.279  68.699 165.941  1.00  0.00     0.146 A 
ATOM     11  O   UNL     1      -0.113  68.917 166.541  1.00  0.00    -0.456 OA
ENDROOT
BRANCH   1  12
ATOM     12  C   UNL     1       2.018  70.012 166.901  1.00  0.00     0.021 A 
ATOM     13  C   UNL     1       2.039  70.078 168.308  1.00  0.00     0.016 A 
ATOM     14  C   UNL     1       3.249  70.222 168.992  1.00  0.00     0.051 A 
ATOM     15  C   UNL     1       4.456  70.295 168.287  1.00  0.00     0.157 A 
ATOM     16  C   UNL     1       3.237  70.074 166.201  1.00  0.00     0.062 A 
ATOM     17  C   UNL     1       4.451  70.219 166.890  1.00  0.00     0.158 A 
BRANCH  15  18
ATOM     18  O   UNL     1       5.664  70.440 168.967  1.00  0.00    -0.504 OA
ATOM     19  H   UNL     1       5.733  70.993 169.814  1.00  0.00     0.293 HD
ENDBRANCH  15  18
BRANCH  17  20
ATOM     20  O   UNL     1       5.653  70.289 166.190  1.00  0.00    -0.504 OA
ATOM     21  H   UNL     1       6.464  70.762 166.573  1.00  0.00     0.293 HD
ENDBRANCH  17  20
ENDBRANCH   1  12
BRANCH   6  22
ATOM     22  O   UNL     1      -3.517  69.992 163.215  1.00  0.00    -0.507 OA
ATOM     23  H   UNL     1      -4.312  69.716 162.657  1.00  0.00     0.293 HD
ENDBRANCH   6  22
BRANCH   8  24
ATOM     24  O   UNL     1      -4.134  66.371 166.281  1.00  0.00    -0.508 OA
ATOM     25  H   UNL     1      -3.742  65.534 166.698  1.00  0.00     0.293 HD
ENDBRANCH   8  24
TORSDOF 5
ENDMDL
MODEL 4
REMARK VINA RESULT:    -5.354      4.108      6.799
REMARK INTER + INTRA:          -6.555
REMARK INTER:                  -6.243
REMARK INTRA:                  -0.312
REMARK UNBOUND:                -0.262
REMARK SMILES O=c1cc(-c2ccc(O)c(O)c2)oc2cc(O)cc(O)c12
REMARK SMILES IDX 4 1 3 2 2 3 1 4 21 5 19 6 18 7 16 8 15 9 14 10 13 11 5 12
REMARK SMILES IDX 6 13 7 14 8 15 12 16 10 17 9 18 11 20 20 22 17 24
REMARK H PARENT 9 19 11 21 20 23 17 25
REMARK Flexibility Score: inf
ROOT
ATOM      1  C   UNL     1       0.411  70.170 165.268  1.00  0.00     0.138 A 
ATOM      2  C   UNL     1      -0.931  70.369 165.620  1.00  0.00     0.100 A 
ATOM      3  C   UNL     1      -1.884  70.572 164.621  1.00  0.00     0.197 A 
ATOM      4  O   UNL     1      -3.069  70.810 164.970  1.00  0.00    -0.289 OA
ATOM      5  C   UNL     1      -1.494  70.545 163.260  1.00  0.00     0.107 A 
ATOM      6  C   UNL     1      -2.386  70.699 162.157  1.00  0.00     0.134 A 
ATOM      7  C   UNL     1      -1.869  70.769 160.857  1.00  0.00     0.093 A 
ATOM      8  C   UNL     1      -0.501  70.633 160.617  1.00  0.00     0.123 A 
ATOM      9  C   UNL     1       0.374  70.427 161.685  1.00  0.00     0.094 A 
ATOM     10  C   UNL     1      -0.107  70.385 162.995  1.00  0.00     0.146 A 
ATOM     11  O   UNL     1       0.760  70.203 163.985  1.00  0.00    -0.456 OA
ENDROOT
BRANCH   1  12
ATOM     12  C   UNL     1       1.466  69.948 166.290  1.00  0.00     0.021 A 
ATOM     13  C   UNL     1       1.158  69.468 167.577  1.00  0.00     0.016 A 
ATOM     14  C   UNL     1       2.172  69.259 168.516  1.00  0.00     0.051 A 
ATOM     15  C   UNL     1       3.508  69.517 168.183  1.00  0.00     0.157 A 
ATOM     16  C   UNL     1       2.811  70.193 165.960  1.00  0.00     0.062 A 
ATOM     17  C   UNL     1       3.828  69.982 166.904  1.00  0.00     0.158 A 
BRANCH  15  18
ATOM     18  O   UNL     1       4.521  69.310 169.118  1.00  0.00    -0.504 OA
ATOM     19  H   UNL     1       5.386  69.839 169.088  1.00  0.00     0.293 HD
ENDBRANCH  15  18
BRANCH  17  20
ATOM     20  O   UNL     1       5.158  70.235 166.574  1.00  0.00    -0.504 OA
ATOM     21  H   UNL     1       5.425  70.558 165.651  1.00  0.00     0.293 HD
ENDBRANCH  17  20
ENDBRANCH   1  12
BRANCH   6  22
ATOM     22  O   UNL     1      -3.776  70.762 162.278  1.00  0.00    -0.507 OA
ATOM     23  H   UNL     1      -4.422  70.772 161.503  1.00  0.00     0.293 HD
ENDBRANCH   6  22
BRANCH   8  24
ATOM     24  O   UNL     1      -0.024  70.692 159.310  1.00  0.00    -0.508 OA
ATOM     25  H   UNL     1       0.893  71.067 159.096  1.00  0.00     0.293 HD
ENDBRANCH   8  24
TORSDOF 5
ENDMDL
MODEL 5
REMARK VINA RESULT:    -5.329      1.581      2.678
REMARK INTER + INTRA:          -6.526
REMARK INTER:                  -6.251
REMARK INTRA:                  -0.275
REMARK UNBOUND:                -0.262
REMARK SMILES O=c1cc(-c2ccc(O)c(O)c2)oc2cc(O)cc(O)c12
REMARK SMILES IDX 4 1 3 2 2 3 1 4 21 5 19 6 18 7 16 8 15 9 14 10 13 11 5 12
REMARK SMILES IDX 6 13 7 14 8 15 12 16 10 17 9 18 11 20 20 22 17 24
REMARK H PARENT 9 19 11 21 20 23 17 25
REMARK Flexibility Score: inf
ROOT
ATOM      1  C   UNL     1      -3.256  67.379 165.318  1.00  0.00     0.138 A 
ATOM      2  C   UNL     1      -3.280  68.500 164.476  1.00  0.00     0.100 A 
ATOM      3  C   UNL     1      -2.230  69.418 164.519  1.00  0.00     0.197 A 
ATOM      4  O   UNL     1      -2.310  70.446 163.798  1.00  0.00    -0.289 OA
ATOM      5  C   UNL     1      -1.134  69.194 165.386  1.00  0.00     0.107 A 
ATOM      6  C   UNL     1       0.011  70.040 165.483  1.00  0.00     0.134 A 
ATOM      7  C   UNL     1       0.980  69.781 166.461  1.00  0.00     0.093 A 
ATOM      8  C   UNL     1       0.875  68.673 167.303  1.00  0.00     0.123 A 
ATOM      9  C   UNL     1      -0.214  67.808 167.180  1.00  0.00     0.094 A 
ATOM     10  C   UNL     1      -1.213  68.060 166.238  1.00  0.00     0.146 A 
ATOM     11  O   UNL     1      -2.241  67.220 166.162  1.00  0.00    -0.456 OA
ENDROOT
BRANCH   1  12
ATOM     12  C   UNL     1      -4.345  66.370 165.313  1.00  0.00     0.021 A 
ATOM     13  C   UNL     1      -4.073  64.989 165.333  1.00  0.00     0.016 A 
ATOM     14  C   UNL     1      -5.119  64.061 165.338  1.00  0.00     0.051 A 
ATOM     15  C   UNL     1      -6.450  64.496 165.330  1.00  0.00     0.157 A 
ATOM     16  C   UNL     1      -5.685  66.798 165.319  1.00  0.00     0.062 A 
ATOM     17  C   UNL     1      -6.734  65.866 165.323  1.00  0.00     0.158 A 
BRANCH  15  18
ATOM     18  O   UNL     1      -7.495  63.573 165.334  1.00  0.00    -0.504 OA
ATOM     19  H   UNL     1      -8.462  63.868 165.402  1.00  0.00     0.293 HD
ENDBRANCH  15  18
BRANCH  17  20
ATOM     20  O   UNL     1      -8.059  66.296 165.319  1.00  0.00    -0.504 OA
ATOM     21  H   UNL     1      -8.301  67.273 165.444  1.00  0.00     0.293 HD
ENDBRANCH  17  20
ENDBRANCH   1  12
BRANCH   6  22
ATOM     22  O   UNL     1       0.256  71.125 164.637  1.00  0.00    -0.507 OA
ATOM     23  H   UNL     1      -0.439  71.573 164.058  1.00  0.00     0.293 HD
ENDBRANCH   6  22
BRANCH   8  24
ATOM     24  O   UNL     1       1.865  68.437 168.253  1.00  0.00    -0.508 OA
ATOM     25  H   UNL     1       1.763  68.741 169.215  1.00  0.00     0.293 HD
ENDBRANCH   8  24
TORSDOF 5
ENDMDL
MODEL 6
REMARK VINA RESULT:    -5.186      1.712      3.200
REMARK INTER + INTRA:          -6.358
REMARK INTER:                  -6.083
REMARK INTRA:                  -0.275
REMARK UNBOUND:                -0.262
REMARK SMILES O=c1cc(-c2ccc(O)c(O)c2)oc2cc(O)cc(O)c12
REMARK SMILES IDX 4 1 3 2 2 3 1 4 21 5 19 6 18 7 16 8 15 9 14 10 13 11 5 12
REMARK SMILES IDX 6 13 7 14 8 15 12 16 10 17 9 18 11 20 20 22 17 24
REMARK H PARENT 9 19 11 21 20 23 17 25
REMARK Flexibility Score: inf
ROOT
ATOM      1  C   UNL     1      -2.041  68.394 165.359  1.00  0.00     0.138 A 
ATOM      2  C   UNL     1      -1.698  69.254 164.306  1.00  0.00     0.100 A 
ATOM      3  C   UNL     1      -0.470  69.917 164.328  1.00  0.00     0.197 A 
ATOM      4  O   UNL     1      -0.218  70.729 163.401  1.00  0.00    -0.289 OA
ATOM      5  C   UNL     1       0.432  69.692 165.395  1.00  0.00     0.107 A 
ATOM      6  C   UNL     1       1.728  70.281 165.501  1.00  0.00     0.134 A 
ATOM      7  C   UNL     1       2.486  70.076 166.661  1.00  0.00     0.093 A 
ATOM      8  C   UNL     1       2.022  69.256 167.690  1.00  0.00     0.123 A 
ATOM      9  C   UNL     1       0.779  68.631 167.572  1.00  0.00     0.094 A 
ATOM     10  C   UNL     1      -0.015  68.844 166.443  1.00  0.00     0.146 A 
ATOM     11  O   UNL     1      -1.198  68.243 166.377  1.00  0.00    -0.456 OA
ENDROOT
BRANCH   1  12
ATOM     12  C   UNL     1      -3.333  67.663 165.386  1.00  0.00     0.021 A 
ATOM     13  C   UNL     1      -4.566  68.342 165.416  1.00  0.00     0.016 A 
ATOM     14  C   UNL     1      -5.767  67.628 165.432  1.00  0.00     0.051 A 
ATOM     15  C   UNL     1      -5.758  66.228 165.410  1.00  0.00     0.157 A 
ATOM     16  C   UNL     1      -3.333  66.257 165.351  1.00  0.00     0.062 A 
ATOM     17  C   UNL     1      -4.540  65.541 165.367  1.00  0.00     0.158 A 
BRANCH  15  18
ATOM     18  O   UNL     1      -6.955  65.513 165.427  1.00  0.00    -0.504 OA
ATOM     19  H   UNL     1      -7.844  65.963 165.241  1.00  0.00     0.293 HD
ENDBRANCH  15  18
BRANCH  17  20
ATOM     20  O   UNL     1      -4.533  64.148 165.342  1.00  0.00    -0.504 OA
ATOM     21  H   UNL     1      -5.394  63.613 165.346  1.00  0.00     0.293 HD
ENDBRANCH  17  20
ENDBRANCH   1  12
BRANCH   6  22
ATOM     22  O   UNL     1       2.322  71.049 164.497  1.00  0.00    -0.507 OA
ATOM     23  H   UNL     1       2.488  72.043 164.553  1.00  0.00     0.293 HD
ENDBRANCH   6  22
BRANCH   8  24
ATOM     24  O   UNL     1       2.810  69.062 168.822  1.00  0.00    -0.508 OA
ATOM     25  H   UNL     1       2.401  68.829 169.720  1.00  0.00     0.293 HD
ENDBRANCH   8  24
TORSDOF 5
ENDMDL
MODEL 7
REMARK VINA RESULT:    -5.132      3.718      5.520
REMARK INTER + INTRA:          -6.294
REMARK INTER:                  -6.008
REMARK INTRA:                  -0.286
REMARK UNBOUND:                -0.262
REMARK SMILES O=c1cc(-c2ccc(O)c(O)c2)oc2cc(O)cc(O)c12
REMARK SMILES IDX 4 1 3 2 2 3 1 4 21 5 19 6 18 7 16 8 15 9 14 10 13 11 5 12
REMARK SMILES IDX 6 13 7 14 8 15 12 16 10 17 9 18 11 20 20 22 17 24
REMARK H PARENT 9 19 11 21 20 23 17 25
REMARK Flexibility Score: inf
ROOT
ATOM      1  C   UNL     1      -0.949  70.324 163.144  1.00  0.00     0.138 A 
ATOM      2  C   UNL     1      -1.682  69.746 164.189  1.00  0.00     0.100 A 
ATOM      3  C   UNL     1      -1.083  69.567 165.436  1.00  0.00     0.197 A 
ATOM      4  O   UNL     1      -1.745  68.988 166.335  1.00  0.00    -0.289 OA
ATOM      5  C   UNL     1       0.249  69.999 165.646  1.00  0.00     0.107 A 
ATOM      6  C   UNL     1       0.947  69.905 166.886  1.00  0.00     0.134 A 
ATOM      7  C   UNL     1       2.301  70.260 166.944  1.00  0.00     0.093 A 
ATOM      8  C   UNL     1       2.964  70.760 165.823  1.00  0.00     0.123 A 
ATOM      9  C   UNL     1       2.274  70.908 164.618  1.00  0.00     0.094 A 
ATOM     10  C   UNL     1       0.933  70.531 164.520  1.00  0.00     0.146 A 
ATOM     11  O   UNL     1       0.317  70.673 163.351  1.00  0.00    -0.456 OA
ENDROOT
BRANCH   1  12
ATOM     12  C   UNL     1      -1.538  70.540 161.797  1.00  0.00     0.021 A 
ATOM     13  C   UNL     1      -0.744  70.530 160.634  1.00  0.00     0.016 A 
ATOM     14  C   UNL     1      -1.326  70.726 159.378  1.00  0.00     0.051 A 
ATOM     15  C   UNL     1      -2.707  70.928 159.263  1.00  0.00     0.157 A 
ATOM     16  C   UNL     1      -2.925  70.730 161.671  1.00  0.00     0.062 A 
ATOM     17  C   UNL     1      -3.508  70.928 160.410  1.00  0.00     0.158 A 
BRANCH  15  18
ATOM     18  O   UNL     1      -3.290  71.125 158.012  1.00  0.00    -0.504 OA
ATOM     19  H   UNL     1      -3.266  72.028 157.552  1.00  0.00     0.293 HD
ENDBRANCH  15  18
BRANCH  17  20
ATOM     20  O   UNL     1      -4.882  71.125 160.292  1.00  0.00    -0.504 OA
ATOM     21  H   UNL     1      -5.513  70.947 161.065  1.00  0.00     0.293 HD
ENDBRANCH  17  20
ENDBRANCH   1  12
BRANCH   6  22
ATOM     22  O   UNL     1       0.359  69.497 168.086  1.00  0.00    -0.507 OA
ATOM     23  H   UNL     1      -0.271  70.059 168.639  1.00  0.00     0.293 HD
ENDBRANCH   6  22
BRANCH   8  24
ATOM     24  O   UNL     1       4.306  71.118 165.921  1.00  0.00    -0.508 OA
ATOM     25  H   UNL     1       4.656  71.660 166.703  1.00  0.00     0.293 HD
ENDBRANCH   8  24
TORSDOF 5
ENDMDL
MODEL 8
REMARK VINA RESULT:    -5.105      3.586      7.891
REMARK INTER + INTRA:          -6.263
REMARK INTER:                  -5.948
REMARK INTRA:                  -0.315
REMARK UNBOUND:                -0.262
REMARK SMILES O=c1cc(-c2ccc(O)c(O)c2)oc2cc(O)cc(O)c12
REMARK SMILES IDX 4 1 3 2 2 3 1 4 21 5 19 6 18 7 16 8 15 9 14 10 13 11 5 12
REMARK SMILES IDX 6 13 7 14 8 15 12 16 10 17 9 18 11 20 20 22 17 24
REMARK H PARENT 9 19 11 21 20 23 17 25
REMARK Flexibility Score: inf
ROOT
ATOM      1  C   UNL     1       2.037  70.038 166.200  1.00  0.00     0.138 A 
ATOM      2  C   UNL     1       0.872  69.548 166.805  1.00  0.00     0.100 A 
ATOM      3  C   UNL     1      -0.259  69.299 166.025  1.00  0.00     0.197 A 
ATOM      4  O   UNL     1      -1.308  68.919 166.606  1.00  0.00    -0.289 OA
ATOM      5  C   UNL     1      -0.210  69.513 164.627  1.00  0.00     0.107 A 
ATOM      6  C   UNL     1      -1.288  69.254 163.728  1.00  0.00     0.134 A 
ATOM      7  C   UNL     1      -1.163  69.614 162.380  1.00  0.00     0.093 A 
ATOM      8  C   UNL     1       0.019  70.166 161.888  1.00  0.00     0.123 A 
ATOM      9  C   UNL     1       1.099  70.372 162.748  1.00  0.00     0.094 A 
ATOM     10  C   UNL     1       0.994  70.056 164.104  1.00  0.00     0.146 A 
ATOM     11  O   UNL     1       2.039  70.282 164.892  1.00  0.00    -0.456 OA
ENDROOT
BRANCH   1  12
ATOM     12  C   UNL     1       3.269  70.319 166.980  1.00  0.00     0.021 A 
ATOM     13  C   UNL     1       3.254  70.381 168.387  1.00  0.00     0.016 A 
ATOM     14  C   UNL     1       4.430  70.638 169.097  1.00  0.00     0.051 A 
ATOM     15  C   UNL     1       5.639  70.829 168.417  1.00  0.00     0.157 A 
ATOM     16  C   UNL     1       4.490  70.500 166.306  1.00  0.00     0.062 A 
ATOM     17  C   UNL     1       5.670  70.758 167.020  1.00  0.00     0.158 A 
BRANCH  15  18
ATOM     18  O   UNL     1       6.814  71.086 169.123  1.00  0.00    -0.504 OA
ATOM     19  H   UNL     1       6.842  71.764 169.876  1.00  0.00     0.293 HD
ENDBRANCH  15  18
BRANCH  17  20
ATOM     20  O   UNL     1       6.875  70.945 166.346  1.00  0.00    -0.504 OA
ATOM     21  H   UNL     1       7.441  71.773 166.491  1.00  0.00     0.293 HD
ENDBRANCH  17  20
ENDBRANCH   1  12
BRANCH   6  22
ATOM     22  O   UNL     1      -2.482  68.630 164.098  1.00  0.00    -0.507 OA
ATOM     23  H   UNL     1      -2.626  68.126 164.961  1.00  0.00     0.293 HD
ENDBRANCH   6  22
BRANCH   8  24
ATOM     24  O   UNL     1       0.114  70.497 160.538  1.00  0.00    -0.508 OA
ATOM     25  H   UNL     1       0.951  70.303 160.001  1.00  0.00     0.293 HD
ENDBRANCH   8  24
TORSDOF 5
ENDMDL
MODEL 9
REMARK VINA RESULT:    -4.879      4.229      5.844
REMARK INTER + INTRA:          -5.997
REMARK INTER:                  -5.694
REMARK INTRA:                  -0.303
REMARK UNBOUND:                -0.262
REMARK SMILES O=c1cc(-c2ccc(O)c(O)c2)oc2cc(O)cc(O)c12
REMARK SMILES IDX 4 1 3 2 2 3 1 4 21 5 19 6 18 7 16 8 15 9 14 10 13 11 5 12
REMARK SMILES IDX 6 13 7 14 8 15 12 16 10 17 9 18 11 20 20 22 17 24
REMARK H PARENT 9 19 11 21 20 23 17 25
REMARK Flexibility Score: inf
ROOT
ATOM      1  C   UNL     1       0.053  70.179 164.289  1.00  0.00     0.138 A 
ATOM      2  C   UNL     1      -0.536  69.559 165.399  1.00  0.00     0.100 A 
ATOM      3  C   UNL     1       0.216  69.357 166.557  1.00  0.00     0.197 A 
ATOM      4  O   UNL     1      -0.321  68.742 167.514  1.00  0.00    -0.289 OA
ATOM      5  C   UNL     1       1.556  69.808 166.613  1.00  0.00     0.107 A 
ATOM      6  C   UNL     1       2.405  69.693 167.755  1.00  0.00     0.134 A 
ATOM      7  C   UNL     1       3.750  70.070 167.655  1.00  0.00     0.093 A 
ATOM      8  C   UNL     1       4.261  70.613 166.476  1.00  0.00     0.123 A 
ATOM      9  C   UNL     1       3.425  70.781 165.370  1.00  0.00     0.094 A 
ATOM     10  C   UNL     1       2.088  70.383 165.428  1.00  0.00     0.146 A 
ATOM     11  O   UNL     1       1.330  70.545 164.348  1.00  0.00    -0.456 OA
ENDROOT
BRANCH   1  12
ATOM     12  C   UNL     1      -0.701  70.421 163.032  1.00  0.00     0.021 A 
ATOM     13  C   UNL     1      -2.072  70.744 163.043  1.00  0.00     0.016 A 
ATOM     14  C   UNL     1      -2.754  70.976 161.846  1.00  0.00     0.051 A 
ATOM     15  C   UNL     1      -2.080  70.896 160.621  1.00  0.00     0.157 A 
ATOM     16  C   UNL     1      -0.029  70.355 161.799  1.00  0.00     0.062 A 
ATOM     17  C   UNL     1      -0.716  70.587 160.597  1.00  0.00     0.158 A 
BRANCH  15  18
ATOM     18  O   UNL     1      -2.759  71.125 159.425  1.00  0.00    -0.504 OA
ATOM     19  H   UNL     1      -3.158  70.364 158.888  1.00  0.00     0.293 HD
ENDBRANCH  15  18
BRANCH  17  20
ATOM     20  O   UNL     1      -0.047  70.512 159.377  1.00  0.00    -0.504 OA
ATOM     21  H   UNL     1       0.200  69.621 158.961  1.00  0.00     0.293 HD
ENDBRANCH  17  20
ENDBRANCH   1  12
BRANCH   6  22
ATOM     22  O   UNL     1       1.976  69.241 169.006  1.00  0.00    -0.507 OA
ATOM     23  H   UNL     1       1.315  69.724 169.597  1.00  0.00     0.293 HD
ENDBRANCH   6  22
BRANCH   8  24
ATOM     24  O   UNL     1       5.600  70.993 166.418  1.00  0.00    -0.508 OA
ATOM     25  H   UNL     1       6.289  70.605 167.052  1.00  0.00     0.293 HD
ENDBRANCH   8  24
TORSDOF 5
ENDMDL
