MODEL 1
REMARK VINA RESULT:    -4.315      0.000      0.000
REMARK INTER + INTRA:          -5.119
REMARK INTER:                  -4.946
REMARK INTRA:                  -0.173
REMARK UNBOUND:                -0.173
REMARK SMILES CC=Cc1ccc(O)c(OC)c1
REMARK SMILES IDX 4 1 12 2 9 3 7 4 6 5 5 6 3 7 1 8 2 9 10 10 11 11 8 12
REMARK H PARENT 8 13
REMARK Flexibility Score: inf
ROOT
ATOM      1  C   UNL     1     169.283 167.221 168.524  1.00  0.00    -0.022 A 
ATOM      2  C   UNL     1     169.388 165.846 168.256  1.00  0.00     0.058 A 
ATOM      3  C   UNL     1     168.238 165.038 168.152  1.00  0.00     0.161 A 
ATOM      4  C   UNL     1     166.971 165.620 168.332  1.00  0.00     0.157 A 
ATOM      5  C   UNL     1     166.864 166.985 168.614  1.00  0.00     0.051 A 
ATOM      6  C   UNL     1     168.005 167.781 168.715  1.00  0.00     0.012 A 
ENDROOT
BRANCH   1   7
ATOM      7  C   UNL     1     170.528 168.022 168.632  1.00  0.00     0.003 C 
ATOM      8  C   UNL     1     172.162 169.482 169.759  1.00  0.00     0.035 C 
ATOM      9  C   UNL     1     170.897 168.683 169.734  1.00  0.00    -0.030 C 
ENDBRANCH   1   7
BRANCH   3  10
ATOM     10  O   UNL     1     168.318 163.663 167.875  1.00  0.00    -0.493 OA
ATOM     11  C   UNL     1     168.727 162.671 168.811  1.00  0.00     0.278 C 
ENDBRANCH   3  10
BRANCH   4  12
ATOM     12  O   UNL     1     165.807 164.858 168.237  1.00  0.00    -0.504 OA
ATOM     13  H   UNL     1     165.113 164.839 168.974  1.00  0.00     0.293 HD
ENDBRANCH   4  12
TORSDOF 3
ENDMDL
MODEL 2
REMARK VINA RESULT:    -4.228      3.814      6.315
REMARK INTER + INTRA:          -5.019
REMARK INTER:                  -4.866
REMARK INTRA:                  -0.154
REMARK UNBOUND:                -0.173
REMARK SMILES CC=Cc1ccc(O)c(OC)c1
REMARK SMILES IDX 4 1 12 2 9 3 7 4 6 5 5 6 3 7 1 8 2 9 10 10 11 11 8 12
REMARK H PARENT 8 13
REMARK Flexibility Score: inf
ROOT
ATOM      1  C   UNL     1     166.023 168.079 168.524  1.00  0.00    -0.022 A 
ATOM      2  C   UNL     1     165.878 169.468 168.678  1.00  0.00     0.058 A 
ATOM      3  C   UNL     1     166.985 170.331 168.550  1.00  0.00     0.161 A 
ATOM      4  C   UNL     1     168.252 169.785 168.277  1.00  0.00     0.157 A 
ATOM      5  C   UNL     1     168.402 168.403 168.138  1.00  0.00     0.051 A 
ATOM      6  C   UNL     1     167.302 167.553 168.264  1.00  0.00     0.012 A 
ENDROOT
BRANCH   1   7
ATOM      7  C   UNL     1     164.823 167.219 168.679  1.00  0.00     0.003 C 
ATOM      8  C   UNL     1     163.231 165.795 169.908  1.00  0.00     0.035 C 
ATOM      9  C   UNL     1     164.446 166.665 169.837  1.00  0.00    -0.030 C 
ENDBRANCH   1   7
BRANCH   3  10
ATOM     10  O   UNL     1     166.864 171.723 168.690  1.00  0.00    -0.493 OA
ATOM     11  C   UNL     1     166.108 172.371 169.709  1.00  0.00     0.278 C 
ENDBRANCH   3  10
BRANCH   4  12
ATOM     12  O   UNL     1     169.375 170.602 168.141  1.00  0.00    -0.504 OA
ATOM     13  H   UNL     1     169.484 171.243 167.366  1.00  0.00     0.293 HD
ENDBRANCH   4  12
TORSDOF 3
ENDMDL
MODEL 3
REMARK VINA RESULT:    -4.211      2.813      4.307
REMARK INTER + INTRA:          -5.000
REMARK INTER:                  -4.848
REMARK INTRA:                  -0.152
REMARK UNBOUND:                -0.173
REMARK SMILES CC=Cc1ccc(O)c(OC)c1
REMARK SMILES IDX 4 1 12 2 9 3 7 4 6 5 5 6 3 7 1 8 2 9 10 10 11 11 8 12
REMARK H PARENT 8 13
REMARK Flexibility Score: inf
ROOT
ATOM      1  C   UNL     1     167.461 165.962 168.317  1.00  0.00    -0.022 A 
ATOM      2  C   UNL     1     166.089 165.840 168.594  1.00  0.00     0.058 A 
ATOM      3  C   UNL     1     165.231 166.954 168.503  1.00  0.00     0.161 A 
ATOM      4  C   UNL     1     165.763 168.203 168.141  1.00  0.00     0.157 A 
ATOM      5  C   UNL     1     167.130 168.331 167.879  1.00  0.00     0.051 A 
ATOM      6  C   UNL     1     167.976 167.225 167.970  1.00  0.00     0.012 A 
ENDROOT
BRANCH   1   7
ATOM      7  C   UNL     1     168.320 164.757 168.438  1.00  0.00     0.003 C 
ATOM      8  C   UNL     1     169.590 163.022 169.643  1.00  0.00     0.035 C 
ATOM      9  C   UNL     1     168.709 164.232 169.605  1.00  0.00    -0.030 C 
ENDBRANCH   1   7
BRANCH   3  10
ATOM     10  O   UNL     1     163.855 166.855 168.766  1.00  0.00    -0.493 OA
ATOM     11  C   UNL     1     163.283 166.060 169.800  1.00  0.00     0.278 C 
ENDBRANCH   3  10
BRANCH   4  12
ATOM     12  O   UNL     1     164.950 169.332 168.038  1.00  0.00    -0.504 OA
ATOM     13  H   UNL     1     164.846 169.845 167.171  1.00  0.00     0.293 HD
ENDBRANCH   4  12
TORSDOF 3
ENDMDL
MODEL 4
REMARK VINA RESULT:    -4.202      3.067      5.151
REMARK INTER + INTRA:          -4.990
REMARK INTER:                  -4.846
REMARK INTRA:                  -0.144
REMARK UNBOUND:                -0.173
REMARK SMILES CC=Cc1ccc(O)c(OC)c1
REMARK SMILES IDX 4 1 12 2 9 3 7 4 6 5 5 6 3 7 1 8 2 9 10 10 11 11 8 12
REMARK H PARENT 8 13
REMARK Flexibility Score: inf
ROOT
ATOM      1  C   UNL     1     165.906 168.116 168.589  1.00  0.00    -0.022 A 
ATOM      2  C   UNL     1     167.144 167.486 168.376  1.00  0.00     0.058 A 
ATOM      3  C   UNL     1     168.321 168.242 168.207  1.00  0.00     0.161 A 
ATOM      4  C   UNL     1     168.247 169.645 168.241  1.00  0.00     0.157 A 
ATOM      5  C   UNL     1     167.015 170.275 168.438  1.00  0.00     0.051 A 
ATOM      6  C   UNL     1     165.852 169.522 168.606  1.00  0.00     0.012 A 
ENDROOT
BRANCH   1   7
ATOM      7  C   UNL     1     164.697 167.269 168.751  1.00  0.00     0.003 C 
ATOM      8  C   UNL     1     163.168 165.752 169.949  1.00  0.00     0.035 C 
ATOM      9  C   UNL     1     164.400 166.598 169.870  1.00  0.00    -0.030 C 
ENDBRANCH   1   7
BRANCH   3  10
ATOM     10  O   UNL     1     169.571 167.635 168.002  1.00  0.00    -0.493 OA
ATOM     11  C   UNL     1     169.870 166.276 168.305  1.00  0.00     0.278 C 
ENDBRANCH   3  10
BRANCH   4  12
ATOM     12  O   UNL     1     169.387 170.432 168.080  1.00  0.00    -0.504 OA
ATOM     13  H   UNL     1     169.526 171.293 168.593  1.00  0.00     0.293 HD
ENDBRANCH   4  12
TORSDOF 3
ENDMDL
MODEL 5
REMARK VINA RESULT:    -4.180      2.745      4.487
REMARK INTER + INTRA:          -4.963
REMARK INTER:                  -4.817
REMARK INTRA:                  -0.146
REMARK UNBOUND:                -0.173
REMARK SMILES CC=Cc1ccc(O)c(OC)c1
REMARK SMILES IDX 4 1 12 2 9 3 7 4 6 5 5 6 3 7 1 8 2 9 10 10 11 11 8 12
REMARK H PARENT 8 13
REMARK Flexibility Score: inf
ROOT
ATOM      1  C   UNL     1     167.098 165.881 168.569  1.00  0.00    -0.022 A 
ATOM      2  C   UNL     1     167.790 167.077 168.313  1.00  0.00     0.058 A 
ATOM      3  C   UNL     1     167.099 168.298 168.179  1.00  0.00     0.161 A 
ATOM      4  C   UNL     1     165.697 168.311 168.292  1.00  0.00     0.157 A 
ATOM      5  C   UNL     1     165.006 167.120 168.532  1.00  0.00     0.051 A 
ATOM      6  C   UNL     1     165.694 165.913 168.665  1.00  0.00     0.012 A 
ENDROOT
BRANCH   1   7
ATOM      7  C   UNL     1     167.877 164.623 168.692  1.00  0.00     0.003 C 
ATOM      8  C   UNL     1     169.515 163.093 169.715  1.00  0.00     0.035 C 
ATOM      9  C   UNL     1     168.757 164.382 169.670  1.00  0.00    -0.030 C 
ENDBRANCH   1   7
BRANCH   3  10
ATOM     10  O   UNL     1     167.768 169.508 167.932  1.00  0.00    -0.493 OA
ATOM     11  C   UNL     1     169.052 169.843 168.449  1.00  0.00     0.278 C 
ENDBRANCH   3  10
BRANCH   4  12
ATOM     12  O   UNL     1     164.974 169.497 168.167  1.00  0.00    -0.504 OA
ATOM     13  H   UNL     1     165.101 170.126 167.384  1.00  0.00     0.293 HD
ENDBRANCH   4  12
TORSDOF 3
ENDMDL
MODEL 6
REMARK VINA RESULT:    -4.162      2.850      4.534
REMARK INTER + INTRA:          -4.943
REMARK INTER:                  -4.790
REMARK INTRA:                  -0.153
REMARK UNBOUND:                -0.173
REMARK SMILES CC=Cc1ccc(O)c(OC)c1
REMARK SMILES IDX 4 1 12 2 9 3 7 4 6 5 5 6 3 7 1 8 2 9 10 10 11 11 8 12
REMARK H PARENT 8 13
REMARK Flexibility Score: inf
ROOT
ATOM      1  C   UNL     1     167.888 169.120 168.382  1.00  0.00    -0.022 A 
ATOM      2  C   UNL     1     169.254 169.337 168.629  1.00  0.00     0.058 A 
ATOM      3  C   UNL     1     170.191 168.294 168.489  1.00  0.00     0.161 A 
ATOM      4  C   UNL     1     169.744 167.016 168.107  1.00  0.00     0.157 A 
ATOM      5  C   UNL     1     168.384 166.793 167.875  1.00  0.00     0.051 A 
ATOM      6  C   UNL     1     167.460 167.830 168.014  1.00  0.00     0.012 A 
ENDROOT
BRANCH   1   7
ATOM      7  C   UNL     1     166.946 170.253 168.555  1.00  0.00     0.003 C 
ATOM      8  C   UNL     1     165.864 172.102 169.774  1.00  0.00     0.035 C 
ATOM      9  C   UNL     1     166.853 170.983 169.672  1.00  0.00    -0.030 C 
ENDBRANCH   1   7
BRANCH   3  10
ATOM     10  O   UNL     1     171.562 168.489 168.721  1.00  0.00    -0.493 OA
ATOM     11  C   UNL     1     172.100 169.263 169.789  1.00  0.00     0.278 C 
ENDBRANCH   3  10
BRANCH   4  12
ATOM     12  O   UNL     1     170.636 165.955 167.955  1.00  0.00    -0.504 OA
ATOM     13  H   UNL     1     170.898 165.357 168.729  1.00  0.00     0.293 HD
ENDBRANCH   4  12
TORSDOF 3
ENDMDL
MODEL 7
REMARK VINA RESULT:    -4.162      1.063      2.815
REMARK INTER + INTRA:          -4.943
REMARK INTER:                  -4.798
REMARK INTRA:                  -0.145
REMARK UNBOUND:                -0.173
REMARK SMILES CC=Cc1ccc(O)c(OC)c1
REMARK SMILES IDX 4 1 12 2 9 3 7 4 6 5 5 6 3 7 1 8 2 9 10 10 11 11 8 12
REMARK H PARENT 8 13
REMARK Flexibility Score: inf
ROOT
ATOM      1  C   UNL     1     169.349 167.158 168.599  1.00  0.00    -0.022 A 
ATOM      2  C   UNL     1     168.083 167.740 168.417  1.00  0.00     0.058 A 
ATOM      3  C   UNL     1     166.931 166.940 168.285  1.00  0.00     0.161 A 
ATOM      4  C   UNL     1     167.059 165.540 168.325  1.00  0.00     0.157 A 
ATOM      5  C   UNL     1     168.319 164.958 168.490  1.00  0.00     0.051 A 
ATOM      6  C   UNL     1     169.457 165.755 168.621  1.00  0.00     0.012 A 
ENDROOT
BRANCH   1   7
ATOM      7  C   UNL     1     170.530 168.050 168.723  1.00  0.00     0.003 C 
ATOM      8  C   UNL     1     172.146 169.474 169.920  1.00  0.00     0.035 C 
ATOM      9  C   UNL     1     170.955 168.569 169.880  1.00  0.00    -0.030 C 
ENDBRANCH   1   7
BRANCH   3  10
ATOM     10  O   UNL     1     165.654 167.498 168.112  1.00  0.00    -0.493 OA
ATOM     11  C   UNL     1     165.316 168.850 168.403  1.00  0.00     0.278 C 
ENDBRANCH   3  10
BRANCH   4  12
ATOM     12  O   UNL     1     165.945 164.710 168.199  1.00  0.00    -0.504 OA
ATOM     13  H   UNL     1     165.186 164.919 167.562  1.00  0.00     0.293 HD
ENDBRANCH   4  12
TORSDOF 3
ENDMDL
MODEL 8
REMARK VINA RESULT:    -4.107      2.394      3.828
REMARK INTER + INTRA:          -4.880
REMARK INTER:                  -4.738
REMARK INTRA:                  -0.143
REMARK UNBOUND:                -0.173
REMARK SMILES CC=Cc1ccc(O)c(OC)c1
REMARK SMILES IDX 4 1 12 2 9 3 7 4 6 5 5 6 3 7 1 8 2 9 10 10 11 11 8 12
REMARK H PARENT 8 13
REMARK Flexibility Score: inf
ROOT
ATOM      1  C   UNL     1     168.168 169.393 168.543  1.00  0.00    -0.022 A 
ATOM      2  C   UNL     1     167.553 168.130 168.495  1.00  0.00     0.058 A 
ATOM      3  C   UNL     1     168.319 166.958 168.333  1.00  0.00     0.161 A 
ATOM      4  C   UNL     1     169.715 167.062 168.206  1.00  0.00     0.157 A 
ATOM      5  C   UNL     1     170.328 168.318 168.239  1.00  0.00     0.051 A 
ATOM      6  C   UNL     1     169.566 169.476 168.400  1.00  0.00     0.012 A 
ENDROOT
BRANCH   1   7
ATOM      7  C   UNL     1     167.311 170.594 168.706  1.00  0.00     0.003 C 
ATOM      8  C   UNL     1     165.810 172.128 169.918  1.00  0.00     0.035 C 
ATOM      9  C   UNL     1     166.668 170.905 169.838  1.00  0.00    -0.030 C 
ENDBRANCH   1   7
BRANCH   3  10
ATOM     10  O   UNL     1     167.728 165.685 168.292  1.00  0.00    -0.493 OA
ATOM     11  C   UNL     1     166.333 165.434 168.431  1.00  0.00     0.278 C 
ENDBRANCH   3  10
BRANCH   4  12
ATOM     12  O   UNL     1     170.511 165.928 168.045  1.00  0.00    -0.504 OA
ATOM     13  H   UNL     1     170.891 165.660 167.146  1.00  0.00     0.293 HD
ENDBRANCH   4  12
TORSDOF 3
ENDMDL
MODEL 9
REMARK VINA RESULT:    -4.053      2.625      4.820
REMARK INTER + INTRA:          -4.819
REMARK INTER:                  -4.666
REMARK INTRA:                  -0.153
REMARK UNBOUND:                -0.173
REMARK SMILES CC=Cc1ccc(O)c(OC)c1
REMARK SMILES IDX 4 1 12 2 9 3 7 4 6 5 5 6 3 7 1 8 2 9 10 10 11 11 8 12
REMARK H PARENT 8 13
REMARK Flexibility Score: inf
ROOT
ATOM      1  C   UNL     1     168.915 166.365 168.347  1.00  0.00    -0.022 A 
ATOM      2  C   UNL     1     167.771 167.178 168.406  1.00  0.00     0.058 A 
ATOM      3  C   UNL     1     167.876 168.582 168.336  1.00  0.00     0.161 A 
ATOM      4  C   UNL     1     169.147 169.170 168.217  1.00  0.00     0.157 A 
ATOM      5  C   UNL     1     170.288 168.365 168.174  1.00  0.00     0.051 A 
ATOM      6  C   UNL     1     170.180 166.975 168.243  1.00  0.00     0.012 A 
ENDROOT
BRANCH   1   7
ATOM      7  C   UNL     1     168.746 164.893 168.436  1.00  0.00     0.003 C 
ATOM      8  C   UNL     1     169.092 162.651 169.400  1.00  0.00     0.035 C 
ATOM      9  C   UNL     1     169.298 164.133 169.389  1.00  0.00    -0.030 C 
ENDBRANCH   1   7
BRANCH   3  10
ATOM     10  O   UNL     1     166.746 169.415 168.383  1.00  0.00    -0.493 OA
ATOM     11  C   UNL     1     165.402 168.965 168.242  1.00  0.00     0.278 C 
ENDBRANCH   3  10
BRANCH   4  12
ATOM     12  O   UNL     1     169.297 170.555 168.144  1.00  0.00    -0.504 OA
ATOM     13  H   UNL     1     169.023 171.168 168.901  1.00  0.00     0.293 HD
ENDBRANCH   4  12
TORSDOF 3
ENDMDL
