MODEL 1
REMARK VINA RESULT:    -6.356      0.000      0.000
REMARK INTER + INTRA:          -6.356
REMARK INTER:                  -6.356
REMARK INTRA:                   0.000
REMARK UNBOUND:                 0.000
REMARK SMILES CC1=CC[C@@H]2[C@@H](C1)C2(C)C
REMARK SMILES IDX 1 1 2 2 3 3 4 4 5 5 6 6 7 7 8 8 9 9 10 10
REMARK H PARENT
REMARK Flexibility Score: inf
ROOT
ATOM      1  C   UNL     1     135.462 139.814 124.092  1.00  0.00     0.039 C 
ATOM      2  C   UNL     1     136.124 138.506 123.766  1.00  0.00    -0.077 C 
ATOM      3  C   UNL     1     135.379 137.361 123.753  1.00  0.00    -0.028 C 
ATOM      4  C   UNL     1     135.999 135.997 123.454  1.00  0.00     0.031 C 
ATOM      5  C   UNL     1     137.496 136.082 123.769  1.00  0.00     0.003 C 
ATOM      6  C   UNL     1     137.961 137.184 122.745  1.00  0.00     0.003 C 
ATOM      7  C   UNL     1     137.636 138.467 123.518  1.00  0.00     0.034 C 
ATOM      8  C   UNL     1     138.785 135.940 122.991  1.00  0.00    -0.029 C 
ATOM      9  C   UNL     1     140.090 136.153 123.764  1.00  0.00     0.012 C 
ATOM     10  C   UNL     1     138.780 134.875 121.891  1.00  0.00     0.012 C 
ENDROOT
TORSDOF 0
ENDMDL
MODEL 2
REMARK VINA RESULT:    -6.082     13.627     16.394
REMARK INTER + INTRA:          -6.082
REMARK INTER:                  -6.082
REMARK INTRA:                   0.000
REMARK UNBOUND:                 0.000
REMARK SMILES CC1=CC[C@@H]2[C@@H](C1)C2(C)C
REMARK SMILES IDX 1 1 2 2 3 3 4 4 5 5 6 6 7 7 8 8 9 9 10 10
REMARK H PARENT
REMARK Flexibility Score: inf
ROOT
ATOM      1  C   UNL     1     139.746 155.015 124.427  1.00  0.00     0.039 C 
ATOM      2  C   UNL     1     138.450 154.378 124.014  1.00  0.00    -0.077 C 
ATOM      3  C   UNL     1     137.307 155.125 124.005  1.00  0.00    -0.028 C 
ATOM      4  C   UNL     1     135.954 154.529 123.620  1.00  0.00     0.031 C 
ATOM      5  C   UNL     1     136.027 153.015 123.846  1.00  0.00     0.003 C 
ATOM      6  C   UNL     1     137.165 152.611 122.835  1.00  0.00     0.003 C 
ATOM      7  C   UNL     1     138.419 152.884 123.672  1.00  0.00     0.034 C 
ATOM      8  C   UNL     1     135.912 151.776 122.985  1.00  0.00    -0.029 C 
ATOM      9  C   UNL     1     136.097 150.426 123.683  1.00  0.00     0.012 C 
ATOM     10  C   UNL     1     134.888 151.852 121.849  1.00  0.00     0.012 C 
ENDROOT
TORSDOF 0
ENDMDL
MODEL 3
REMARK VINA RESULT:    -5.878      1.044      4.112
REMARK INTER + INTRA:          -5.878
REMARK INTER:                  -5.878
REMARK INTRA:                   0.000
REMARK UNBOUND:                 0.000
REMARK SMILES CC1=CC[C@@H]2[C@@H](C1)C2(C)C
REMARK SMILES IDX 1 1 2 2 3 3 4 4 5 5 6 6 7 7 8 8 9 9 10 10
REMARK H PARENT
REMARK Flexibility Score: inf
ROOT
ATOM      1  C   UNL     1     138.996 135.244 121.884  1.00  0.00     0.039 C 
ATOM      2  C   UNL     1     138.136 136.094 122.777  1.00  0.00    -0.077 C 
ATOM      3  C   UNL     1     137.840 135.658 124.036  1.00  0.00    -0.028 C 
ATOM      4  C   UNL     1     136.951 136.464 124.982  1.00  0.00     0.031 C 
ATOM      5  C   UNL     1     136.074 137.388 124.130  1.00  0.00     0.003 C 
ATOM      6  C   UNL     1     137.164 138.283 123.431  1.00  0.00     0.003 C 
ATOM      7  C   UNL     1     137.552 137.404 122.236  1.00  0.00     0.034 C 
ATOM      8  C   UNL     1     135.887 138.881 123.977  1.00  0.00    -0.029 C 
ATOM      9  C   UNL     1     134.875 139.350 122.928  1.00  0.00     0.012 C 
ATOM     10  C   UNL     1     135.999 139.697 125.268  1.00  0.00     0.012 C 
ENDROOT
TORSDOF 0
ENDMDL
MODEL 4
REMARK VINA RESULT:    -5.760     13.615     16.155
REMARK INTER + INTRA:          -5.760
REMARK INTER:                  -5.760
REMARK INTRA:                   0.000
REMARK UNBOUND:                 0.000
REMARK SMILES CC1=CC[C@@H]2[C@@H](C1)C2(C)C
REMARK SMILES IDX 1 1 2 2 3 3 4 4 5 5 6 6 7 7 8 8 9 9 10 10
REMARK H PARENT
REMARK Flexibility Score: inf
ROOT
ATOM      1  C   UNL     1     150.627 135.130 124.499  1.00  0.00     0.039 C 
ATOM      2  C   UNL     1     151.862 135.844 124.027  1.00  0.00    -0.077 C 
ATOM      3  C   UNL     1     152.986 135.123 123.739  1.00  0.00    -0.028 C 
ATOM      4  C   UNL     1     154.280 135.792 123.280  1.00  0.00     0.031 C 
ATOM      5  C   UNL     1     154.255 137.246 123.764  1.00  0.00     0.003 C 
ATOM      6  C   UNL     1     152.994 137.800 122.998  1.00  0.00     0.003 C 
ATOM      7  C   UNL     1     151.862 137.375 123.940  1.00  0.00     0.034 C 
ATOM      8  C   UNL     1     154.265 138.613 123.116  1.00  0.00    -0.029 C 
ATOM      9  C   UNL     1     154.190 139.825 124.049  1.00  0.00     0.012 C 
ATOM     10  C   UNL     1     155.125 138.742 121.855  1.00  0.00     0.012 C 
ENDROOT
TORSDOF 0
ENDMDL
MODEL 5
REMARK VINA RESULT:    -5.663      1.180      4.109
REMARK INTER + INTRA:          -5.663
REMARK INTER:                  -5.663
REMARK INTRA:                   0.000
REMARK UNBOUND:                 0.000
REMARK SMILES CC1=CC[C@@H]2[C@@H](C1)C2(C)C
REMARK SMILES IDX 1 1 2 2 3 3 4 4 5 5 6 6 7 7 8 8 9 9 10 10
REMARK H PARENT
REMARK Flexibility Score: inf
ROOT
ATOM      1  C   UNL     1     139.188 134.877 125.099  1.00  0.00     0.039 C 
ATOM      2  C   UNL     1     138.376 135.960 124.447  1.00  0.00    -0.077 C 
ATOM      3  C   UNL     1     138.598 136.269 123.135  1.00  0.00    -0.028 C 
ATOM      4  C   UNL     1     137.823 137.376 122.424  1.00  0.00     0.031 C 
ATOM      5  C   UNL     1     137.301 138.345 123.490  1.00  0.00     0.003 C 
ATOM      6  C   UNL     1     136.356 137.399 124.324  1.00  0.00     0.003 C 
ATOM      7  C   UNL     1     137.358 136.746 125.283  1.00  0.00     0.034 C 
ATOM      8  C   UNL     1     135.945 138.812 123.971  1.00  0.00    -0.029 C 
ATOM      9  C   UNL     1     135.925 139.805 125.136  1.00  0.00     0.012 C 
ATOM     10  C   UNL     1     134.877 138.972 122.886  1.00  0.00     0.012 C 
ENDROOT
TORSDOF 0
ENDMDL
MODEL 6
REMARK VINA RESULT:    -5.426     13.929     16.100
REMARK INTER + INTRA:          -5.426
REMARK INTER:                  -5.426
REMARK INTRA:                   0.000
REMARK UNBOUND:                 0.000
REMARK SMILES CC1=CC[C@@H]2[C@@H](C1)C2(C)C
REMARK SMILES IDX 1 1 2 2 3 3 4 4 5 5 6 6 7 7 8 8 9 9 10 10
REMARK H PARENT
REMARK Flexibility Score: inf
ROOT
ATOM      1  C   UNL     1     155.125 139.670 122.746  1.00  0.00     0.039 C 
ATOM      2  C   UNL     1     154.347 138.595 123.450  1.00  0.00    -0.077 C 
ATOM      3  C   UNL     1     154.706 138.225 124.715  1.00  0.00    -0.028 C 
ATOM      4  C   UNL     1     153.971 137.122 125.474  1.00  0.00     0.031 C 
ATOM      5  C   UNL     1     153.285 136.219 124.443  1.00  0.00     0.003 C 
ATOM      6  C   UNL     1     152.293 137.234 123.760  1.00  0.00     0.003 C 
ATOM      7  C   UNL     1     153.205 137.885 122.714  1.00  0.00     0.034 C 
ATOM      8  C   UNL     1     151.863 135.826 124.109  1.00  0.00    -0.029 C 
ATOM      9  C   UNL     1     151.664 134.882 122.920  1.00  0.00     0.012 C 
ATOM     10  C   UNL     1     150.923 135.665 125.307  1.00  0.00     0.012 C 
ENDROOT
TORSDOF 0
ENDMDL
MODEL 7
REMARK VINA RESULT:    -5.009      1.385      2.115
REMARK INTER + INTRA:          -5.009
REMARK INTER:                  -5.009
REMARK INTRA:                   0.000
REMARK UNBOUND:                 0.000
REMARK SMILES CC1=CC[C@@H]2[C@@H](C1)C2(C)C
REMARK SMILES IDX 1 1 2 2 3 3 4 4 5 5 6 6 7 7 8 8 9 9 10 10
REMARK H PARENT
REMARK Flexibility Score: inf
ROOT
ATOM      1  C   UNL     1     134.912 140.033 123.717  1.00  0.00     0.039 C 
ATOM      2  C   UNL     1     135.891 138.894 123.666  1.00  0.00    -0.077 C 
ATOM      3  C   UNL     1     136.526 138.607 122.491  1.00  0.00    -0.028 C 
ATOM      4  C   UNL     1     137.512 137.447 122.369  1.00  0.00     0.031 C 
ATOM      5  C   UNL     1     137.192 136.439 123.478  1.00  0.00     0.003 C 
ATOM      6  C   UNL     1     137.454 137.308 124.764  1.00  0.00     0.003 C 
ATOM      7  C   UNL     1     136.111 138.032 124.914  1.00  0.00     0.034 C 
ATOM      8  C   UNL     1     137.915 135.870 124.678  1.00  0.00    -0.029 C 
ATOM      9  C   UNL     1     137.142 134.875 125.548  1.00  0.00     0.012 C 
ATOM     10  C   UNL     1     139.417 135.633 124.495  1.00  0.00     0.012 C 
ENDROOT
TORSDOF 0
ENDMDL
MODEL 8
REMARK VINA RESULT:    -4.835     14.907     15.957
REMARK INTER + INTRA:          -4.835
REMARK INTER:                  -4.835
REMARK INTRA:                   0.000
REMARK UNBOUND:                 0.000
REMARK SMILES CC1=CC[C@@H]2[C@@H](C1)C2(C)C
REMARK SMILES IDX 1 1 2 2 3 3 4 4 5 5 6 6 7 7 8 8 9 9 10 10
REMARK H PARENT
REMARK Flexibility Score: inf
ROOT
ATOM      1  C   UNL     1     137.911 152.977 120.495  1.00  0.00     0.039 C 
ATOM      2  C   UNL     1     136.974 152.664 121.627  1.00  0.00    -0.077 C 
ATOM      3  C   UNL     1     135.879 151.881 121.396  1.00  0.00    -0.028 C 
ATOM      4  C   UNL     1     134.876 151.548 122.499  1.00  0.00     0.031 C 
ATOM      5  C   UNL     1     134.982 152.634 123.574  1.00  0.00     0.003 C 
ATOM      6  C   UNL     1     136.472 152.448 124.049  1.00  0.00     0.003 C 
ATOM      7  C   UNL     1     137.225 153.283 123.007  1.00  0.00     0.034 C 
ATOM      8  C   UNL     1     135.354 152.688 125.039  1.00  0.00    -0.029 C 
ATOM      9  C   UNL     1     135.347 154.065 125.708  1.00  0.00     0.012 C 
ATOM     10  C   UNL     1     134.903 151.490 125.881  1.00  0.00     0.012 C 
ENDROOT
TORSDOF 0
ENDMDL
MODEL 9
REMARK VINA RESULT:    -4.578      1.831      3.291
REMARK INTER + INTRA:          -4.578
REMARK INTER:                  -4.578
REMARK INTRA:                   0.000
REMARK UNBOUND:                 0.000
REMARK SMILES CC1=CC[C@@H]2[C@@H](C1)C2(C)C
REMARK SMILES IDX 1 1 2 2 3 3 4 4 5 5 6 6 7 7 8 8 9 9 10 10
REMARK H PARENT
REMARK Flexibility Score: inf
ROOT
ATOM      1  C   UNL     1     137.847 137.958 120.477  1.00  0.00     0.039 C 
ATOM      2  C   UNL     1     138.139 137.015 121.610  1.00  0.00    -0.077 C 
ATOM      3  C   UNL     1     138.915 135.915 121.384  1.00  0.00    -0.028 C 
ATOM      4  C   UNL     1     139.227 134.906 122.487  1.00  0.00     0.031 C 
ATOM      5  C   UNL     1     138.130 135.019 123.552  1.00  0.00     0.003 C 
ATOM      6  C   UNL     1     138.325 136.506 124.033  1.00  0.00     0.003 C 
ATOM      7  C   UNL     1     137.508 137.269 122.984  1.00  0.00     0.034 C 
ATOM      8  C   UNL     1     138.064 135.387 125.017  1.00  0.00    -0.029 C 
ATOM      9  C   UNL     1     136.680 135.391 125.671  1.00  0.00     0.012 C 
ATOM     10  C   UNL     1     139.249 134.924 125.870  1.00  0.00     0.012 C 
ENDROOT
TORSDOF 0
ENDMDL
