MODEL 1
REMARK VINA RESULT:    -4.226      0.000      0.000
REMARK INTER + INTRA:          -6.555
REMARK INTER:                  -6.203
REMARK INTRA:                  -0.353
REMARK UNBOUND:                -0.353
REMARK SMILES O=C([O-])CCCCCCCC(=O)[O-]
REMARK SMILES IDX 7 1 6 2 5 3 4 4 2 5 1 6 3 7 8 8 9 9 10 10 11 11 12 12 13 13
REMARK H PARENT
REMARK Flexibility Score: inf
ROOT
ATOM      1  C   UNL     1      26.956   2.585   7.488  1.00  0.00     0.000 C 
ENDROOT
BRANCH   1   2
ATOM      2  C   UNL     1      26.737   1.124   7.910  1.00  0.00     0.000 C 
BRANCH   2   3
ATOM      3  C   UNL     1      27.991   0.494   8.538  1.00  0.00     0.006 C 
BRANCH   3   4
ATOM      4  C   UNL     1      28.243  -0.937   8.045  1.00  0.00     0.053 C 
BRANCH   4   5
ATOM      5  C   UNL     1      27.921  -1.925   9.121  1.00  0.00     0.041 C 
ATOM      6  O   UNL     1      27.952  -3.160   8.878  1.00  0.00    -0.550 OA
ATOM      7  O   UNL     1      27.635  -1.484  10.407  1.00  0.00    -0.550 OA
ENDBRANCH   4   5
ENDBRANCH   3   4
ENDBRANCH   2   3
ENDBRANCH   1   2
BRANCH   1   8
ATOM      8  C   UNL     1      28.013   3.259   8.375  1.00  0.00     0.000 C 
BRANCH   8   9
ATOM      9  C   UNL     1      27.392   4.117   9.489  1.00  0.00     0.006 C 
BRANCH   9  10
ATOM     10  C   UNL     1      28.376   5.146  10.061  1.00  0.00     0.053 C 
BRANCH  10  11
ATOM     11  C   UNL     1      28.801   4.752  11.440  1.00  0.00     0.041 C 
ATOM     12  O   UNL     1      29.009   5.633  12.315  1.00  0.00    -0.550 OA
ATOM     13  O   UNL     1      29.016   3.415  11.746  1.00  0.00    -0.550 OA
ENDBRANCH  10  11
ENDBRANCH   9  10
ENDBRANCH   8   9
ENDBRANCH   1   8
TORSDOF 8
ENDMDL
MODEL 2
REMARK VINA RESULT:    -4.168      4.005      5.997
REMARK INTER + INTRA:          -6.470
REMARK INTER:                  -5.810
REMARK INTRA:                  -0.660
REMARK UNBOUND:                -0.353
REMARK SMILES O=C([O-])CCCCCCCC(=O)[O-]
REMARK SMILES IDX 7 1 6 2 5 3 4 4 2 5 1 6 3 7 8 8 9 9 10 10 11 11 12 12 13 13
REMARK H PARENT
REMARK Flexibility Score: inf
ROOT
ATOM      1  C   UNL     1      26.731   7.089   8.972  1.00  0.00     0.000 C 
ENDROOT
BRANCH   1   2
ATOM      2  C   UNL     1      26.160   7.895   7.796  1.00  0.00     0.000 C 
BRANCH   2   3
ATOM      3  C   UNL     1      26.251   7.140   6.460  1.00  0.00     0.006 C 
BRANCH   3   4
ATOM      4  C   UNL     1      24.872   6.813   5.872  1.00  0.00     0.053 C 
BRANCH   4   5
ATOM      5  C   UNL     1      24.290   5.610   6.544  1.00  0.00     0.041 C 
ATOM      6  O   UNL     1      23.057   5.559   6.794  1.00  0.00    -0.550 OA
ATOM      7  O   UNL     1      25.099   4.523   6.849  1.00  0.00    -0.550 OA
ENDBRANCH   4   5
ENDBRANCH   3   4
ENDBRANCH   2   3
ENDBRANCH   1   2
BRANCH   1   8
ATOM      8  C   UNL     1      25.603   6.488   9.824  1.00  0.00     0.000 C 
BRANCH   8   9
ATOM      9  C   UNL     1      26.004   5.161  10.487  1.00  0.00     0.006 C 
BRANCH   9  10
ATOM     10  C   UNL     1      27.351   4.628   9.978  1.00  0.00     0.053 C 
BRANCH  10  11
ATOM     11  C   UNL     1      28.310   4.462  11.114  1.00  0.00     0.041 C 
ATOM     12  O   UNL     1      28.751   3.320  11.407  1.00  0.00    -0.550 OA
ATOM     13  O   UNL     1      28.679   5.560  11.880  1.00  0.00    -0.550 OA
ENDBRANCH  10  11
ENDBRANCH   9  10
ENDBRANCH   8   9
ENDBRANCH   1   8
TORSDOF 8
ENDMDL
MODEL 3
REMARK VINA RESULT:    -4.164      3.989      6.499
REMARK INTER + INTRA:          -6.464
REMARK INTER:                  -5.847
REMARK INTRA:                  -0.617
REMARK UNBOUND:                -0.353
REMARK SMILES O=C([O-])CCCCCCCC(=O)[O-]
REMARK SMILES IDX 7 1 6 2 5 3 4 4 2 5 1 6 3 7 8 8 9 9 10 10 11 11 12 12 13 13
REMARK H PARENT
REMARK Flexibility Score: inf
ROOT
ATOM      1  C   UNL     1      26.428   5.338  10.713  1.00  0.00     0.000 C 
ENDROOT
BRANCH   1   2
ATOM      2  C   UNL     1      25.616   6.377   9.925  1.00  0.00     0.000 C 
BRANCH   2   3
ATOM      3  C   UNL     1      26.473   7.159   8.917  1.00  0.00     0.006 C 
BRANCH   3   4
ATOM      4  C   UNL     1      25.636   7.812   7.810  1.00  0.00     0.053 C 
BRANCH   4   5
ATOM      5  C   UNL     1      25.666   6.976   6.570  1.00  0.00     0.041 C 
ATOM      6  O   UNL     1      26.685   6.977   5.829  1.00  0.00    -0.550 OA
ATOM      7  O   UNL     1      24.590   6.154   6.257  1.00  0.00    -0.550 OA
ENDBRANCH   4   5
ENDBRANCH   3   4
ENDBRANCH   2   3
ENDBRANCH   1   2
BRANCH   1   8
ATOM      8  C   UNL     1      27.931   5.648  10.642  1.00  0.00     0.000 C 
BRANCH   8   9
ATOM      9  C   UNL     1      28.750   4.481  10.068  1.00  0.00     0.006 C 
BRANCH   9  10
ATOM     10  C   UNL     1      27.898   3.232   9.807  1.00  0.00     0.053 C 
BRANCH  10  11
ATOM     11  C   UNL     1      27.745   3.002   8.337  1.00  0.00     0.041 C 
ATOM     12  O   UNL     1      27.316   3.922   7.593  1.00  0.00    -0.550 OA
ATOM     13  O   UNL     1      28.030   1.755   7.794  1.00  0.00    -0.550 OA
ENDBRANCH  10  11
ENDBRANCH   9  10
ENDBRANCH   8   9
ENDBRANCH   1   8
TORSDOF 8
ENDMDL
MODEL 4
REMARK VINA RESULT:    -4.148      3.376      5.739
REMARK INTER + INTRA:          -6.441
REMARK INTER:                  -5.641
REMARK INTRA:                  -0.800
REMARK UNBOUND:                -0.353
REMARK SMILES O=C([O-])CCCCCCCC(=O)[O-]
REMARK SMILES IDX 7 1 6 2 5 3 4 4 2 5 1 6 3 7 8 8 9 9 10 10 11 11 12 12 13 13
REMARK H PARENT
REMARK Flexibility Score: inf
ROOT
ATOM      1  C   UNL     1      24.724   5.969   9.428  1.00  0.00     0.000 C 
ENDROOT
BRANCH   1   2
ATOM      2  C   UNL     1      25.837   5.484  10.369  1.00  0.00     0.000 C 
BRANCH   2   3
ATOM      3  C   UNL     1      27.190   6.155  10.081  1.00  0.00     0.006 C 
BRANCH   3   4
ATOM      4  C   UNL     1      28.343   5.146   9.995  1.00  0.00     0.053 C 
BRANCH   4   5
ATOM      5  C   UNL     1      28.736   4.685  11.363  1.00  0.00     0.041 C 
ATOM      6  O   UNL     1      28.834   3.455  11.613  1.00  0.00    -0.550 OA
ATOM      7  O   UNL     1      29.045   5.614  12.349  1.00  0.00    -0.550 OA
ENDBRANCH   4   5
ENDBRANCH   3   4
ENDBRANCH   2   3
ENDBRANCH   1   2
BRANCH   1   8
ATOM      8  C   UNL     1      25.309   6.475   8.101  1.00  0.00     0.000 C 
BRANCH   8   9
ATOM      9  C   UNL     1      25.202   5.436   6.973  1.00  0.00     0.006 C 
BRANCH   9  10
ATOM     10  C   UNL     1      26.542   4.751   6.671  1.00  0.00     0.053 C 
BRANCH  10  11
ATOM     11  C   UNL     1      26.442   3.278   6.914  1.00  0.00     0.041 C 
ATOM     12  O   UNL     1      26.288   2.838   8.084  1.00  0.00    -0.550 OA
ATOM     13  O   UNL     1      26.566   2.388   5.855  1.00  0.00    -0.550 OA
ENDBRANCH  10  11
ENDBRANCH   9  10
ENDBRANCH   8   9
ENDBRANCH   1   8
TORSDOF 8
ENDMDL
MODEL 5
REMARK VINA RESULT:    -4.116      3.783      5.803
REMARK INTER + INTRA:          -6.394
REMARK INTER:                  -5.916
REMARK INTRA:                  -0.478
REMARK UNBOUND:                -0.353
REMARK SMILES O=C([O-])CCCCCCCC(=O)[O-]
REMARK SMILES IDX 7 1 6 2 5 3 4 4 2 5 1 6 3 7 8 8 9 9 10 10 11 11 12 12 13 13
REMARK H PARENT
REMARK Flexibility Score: inf
ROOT
ATOM      1  C   UNL     1      26.439   2.468   7.333  1.00  0.00     0.000 C 
ENDROOT
BRANCH   1   2
ATOM      2  C   UNL     1      26.445   3.872   6.712  1.00  0.00     0.000 C 
BRANCH   2   3
ATOM      3  C   UNL     1      25.073   4.561   6.789  1.00  0.00     0.006 C 
BRANCH   3   4
ATOM      4  C   UNL     1      25.168   6.016   7.266  1.00  0.00     0.053 C 
BRANCH   4   5
ATOM      5  C   UNL     1      25.588   6.908   6.140  1.00  0.00     0.041 C 
ATOM      6  O   UNL     1      26.768   7.344   6.084  1.00  0.00    -0.550 OA
ATOM      7  O   UNL     1      24.692   7.216   5.124  1.00  0.00    -0.550 OA
ENDBRANCH   4   5
ENDBRANCH   3   4
ENDBRANCH   2   3
ENDBRANCH   1   2
BRANCH   1   8
ATOM      8  C   UNL     1      27.450   2.373   8.485  1.00  0.00     0.000 C 
BRANCH   8   9
ATOM      9  C   UNL     1      28.012   3.743   8.894  1.00  0.00     0.006 C 
BRANCH   9  10
ATOM     10  C   UNL     1      28.285   3.845  10.401  1.00  0.00     0.053 C 
BRANCH  10  11
ATOM     11  C   UNL     1      28.211   5.270  10.850  1.00  0.00     0.041 C 
ATOM     12  O   UNL     1      28.658   5.602  11.979  1.00  0.00    -0.550 OA
ATOM     13  O   UNL     1      27.603   6.223  10.043  1.00  0.00    -0.550 OA
ENDBRANCH  10  11
ENDBRANCH   9  10
ENDBRANCH   8   9
ENDBRANCH   1   8
TORSDOF 8
ENDMDL
MODEL 6
REMARK VINA RESULT:    -4.105      4.012      5.299
REMARK INTER + INTRA:          -6.378
REMARK INTER:                  -5.782
REMARK INTRA:                  -0.596
REMARK UNBOUND:                -0.353
REMARK SMILES O=C([O-])CCCCCCCC(=O)[O-]
REMARK SMILES IDX 7 1 6 2 5 3 4 4 2 5 1 6 3 7 8 8 9 9 10 10 11 11 12 12 13 13
REMARK H PARENT
REMARK Flexibility Score: inf
ROOT
ATOM      1  C   UNL     1      27.304   6.252   9.776  1.00  0.00     0.000 C 
ENDROOT
BRANCH   1   2
ATOM      2  C   UNL     1      27.785   5.333  10.908  1.00  0.00     0.000 C 
BRANCH   2   3
ATOM      3  C   UNL     1      28.281   3.971  10.395  1.00  0.00     0.006 C 
BRANCH   3   4
ATOM      4  C   UNL     1      28.243   3.866   8.865  1.00  0.00     0.053 C 
BRANCH   4   5
ATOM      5  C   UNL     1      27.365   2.731   8.441  1.00  0.00     0.041 C 
ATOM      6  O   UNL     1      26.161   2.940   8.139  1.00  0.00    -0.550 OA
ATOM      7  O   UNL     1      27.890   1.450   8.329  1.00  0.00    -0.550 OA
ENDBRANCH   4   5
ENDBRANCH   3   4
ENDBRANCH   2   3
ENDBRANCH   1   2
BRANCH   1   8
ATOM      8  C   UNL     1      25.772   6.369   9.779  1.00  0.00     0.000 C 
BRANCH   8   9
ATOM      9  C   UNL     1      25.251   7.353   8.719  1.00  0.00     0.006 C 
BRANCH   9  10
ATOM     10  C   UNL     1      26.326   7.745   7.697  1.00  0.00     0.053 C 
BRANCH  10  11
ATOM     11  C   UNL     1      26.084   7.052   6.393  1.00  0.00     0.041 C 
ATOM     12  O   UNL     1      26.538   5.894   6.198  1.00  0.00    -0.550 OA
ATOM     13  O   UNL     1      25.399   7.704   5.375  1.00  0.00    -0.550 OA
ENDBRANCH  10  11
ENDBRANCH   9  10
ENDBRANCH   8   9
ENDBRANCH   1   8
TORSDOF 8
ENDMDL
MODEL 7
REMARK VINA RESULT:    -4.082      4.288      6.334
REMARK INTER + INTRA:          -6.343
REMARK INTER:                  -5.710
REMARK INTRA:                  -0.633
REMARK UNBOUND:                -0.353
REMARK SMILES O=C([O-])CCCCCCCC(=O)[O-]
REMARK SMILES IDX 7 1 6 2 5 3 4 4 2 5 1 6 3 7 8 8 9 9 10 10 11 11 12 12 13 13
REMARK H PARENT
REMARK Flexibility Score: inf
ROOT
ATOM      1  C   UNL     1      25.871   8.179   8.180  1.00  0.00     0.000 C 
ENDROOT
BRANCH   1   2
ATOM      2  C   UNL     1      26.018   7.434   9.515  1.00  0.00     0.000 C 
BRANCH   2   3
ATOM      3  C   UNL     1      27.129   6.371   9.481  1.00  0.00     0.006 C 
BRANCH   3   4
ATOM      4  C   UNL     1      26.834   5.178  10.400  1.00  0.00     0.053 C 
BRANCH   4   5
ATOM      5  C   UNL     1      28.066   4.777  11.147  1.00  0.00     0.041 C 
ATOM      6  O   UNL     1      28.700   5.626  11.827  1.00  0.00    -0.550 OA
ATOM      7  O   UNL     1      28.488   3.453  11.134  1.00  0.00    -0.550 OA
ENDBRANCH   4   5
ENDBRANCH   3   4
ENDBRANCH   2   3
ENDBRANCH   1   2
BRANCH   1   8
ATOM      8  C   UNL     1      26.700   7.502   7.079  1.00  0.00     0.000 C 
BRANCH   8   9
ATOM      9  C   UNL     1      25.842   7.037   5.892  1.00  0.00     0.006 C 
BRANCH   9  10
ATOM     10  C   UNL     1      24.483   6.474   6.329  1.00  0.00     0.053 C 
BRANCH  10  11
ATOM     11  C   UNL     1      24.654   5.134   6.971  1.00  0.00     0.041 C 
ATOM     12  O   UNL     1      25.414   4.275   6.451  1.00  0.00    -0.550 OA
ATOM     13  O   UNL     1      23.939   4.814   8.118  1.00  0.00    -0.550 OA
ENDBRANCH  10  11
ENDBRANCH   9  10
ENDBRANCH   8   9
ENDBRANCH   1   8
TORSDOF 8
ENDMDL
MODEL 8
REMARK VINA RESULT:    -4.031      4.087      5.145
REMARK INTER + INTRA:          -6.268
REMARK INTER:                  -5.473
REMARK INTRA:                  -0.795
REMARK UNBOUND:                -0.353
REMARK SMILES O=C([O-])CCCCCCCC(=O)[O-]
REMARK SMILES IDX 7 1 6 2 5 3 4 4 2 5 1 6 3 7 8 8 9 9 10 10 11 11 12 12 13 13
REMARK H PARENT
REMARK Flexibility Score: inf
ROOT
ATOM      1  C   UNL     1      28.231   3.981  10.658  1.00  0.00     0.000 C 
ENDROOT
BRANCH   1   2
ATOM      2  C   UNL     1      28.379   3.827   9.137  1.00  0.00     0.000 C 
BRANCH   2   3
ATOM      3  C   UNL     1      27.611   2.615   8.587  1.00  0.00     0.006 C 
BRANCH   3   4
ATOM      4  C   UNL     1      27.177   2.803   7.127  1.00  0.00     0.053 C 
BRANCH   4   5
ATOM      5  C   UNL     1      26.215   3.943   7.011  1.00  0.00     0.041 C 
ATOM      6  O   UNL     1      26.570   5.018   6.459  1.00  0.00    -0.550 OA
ATOM      7  O   UNL     1      24.910   3.803   7.468  1.00  0.00    -0.550 OA
ENDBRANCH   4   5
ENDBRANCH   3   4
ENDBRANCH   2   3
ENDBRANCH   1   2
BRANCH   1   8
ATOM      8  C   UNL     1      27.796   5.408  11.024  1.00  0.00     0.000 C 
BRANCH   8   9
ATOM      9  C   UNL     1      27.224   6.180   9.825  1.00  0.00     0.006 C 
BRANCH   9  10
ATOM     10  C   UNL     1      25.696   6.305   9.876  1.00  0.00     0.053 C 
BRANCH  10  11
ATOM     11  C   UNL     1      25.224   7.348   8.913  1.00  0.00     0.041 C 
ATOM     12  O   UNL     1      24.367   7.060   8.037  1.00  0.00    -0.550 OA
ATOM     13  O   UNL     1      25.767   8.626   8.950  1.00  0.00    -0.550 OA
ENDBRANCH  10  11
ENDBRANCH   9  10
ENDBRANCH   8   9
ENDBRANCH   1   8
TORSDOF 8
ENDMDL
MODEL 9
REMARK VINA RESULT:    -3.833      1.053      5.979
REMARK INTER + INTRA:          -5.978
REMARK INTER:                  -5.668
REMARK INTRA:                  -0.310
REMARK UNBOUND:                -0.353
REMARK SMILES O=C([O-])CCCCCCCC(=O)[O-]
REMARK SMILES IDX 7 1 6 2 5 3 4 4 2 5 1 6 3 7 8 8 9 9 10 10 11 11 12 12 13 13
REMARK H PARENT
REMARK Flexibility Score: inf
ROOT
ATOM      1  C   UNL     1      27.937   3.341   8.456  1.00  0.00     0.000 C 
ENDROOT
BRANCH   1   2
ATOM      2  C   UNL     1      26.681   4.153   8.804  1.00  0.00     0.000 C 
BRANCH   2   3
ATOM      3  C   UNL     1      26.871   5.035  10.049  1.00  0.00     0.006 C 
BRANCH   3   4
ATOM      4  C   UNL     1      28.337   5.424  10.279  1.00  0.00     0.053 C 
BRANCH   4   5
ATOM      5  C   UNL     1      28.831   4.856  11.572  1.00  0.00     0.041 C 
ATOM      6  O   UNL     1      29.125   5.621  12.529  1.00  0.00    -0.550 OA
ATOM      7  O   UNL     1      28.917   3.480  11.741  1.00  0.00    -0.550 OA
ENDBRANCH   4   5
ENDBRANCH   3   4
ENDBRANCH   2   3
ENDBRANCH   1   2
BRANCH   1   8
ATOM      8  C   UNL     1      27.570   1.899   8.076  1.00  0.00     0.000 C 
BRANCH   8   9
ATOM      9  C   UNL     1      28.392   0.856   8.849  1.00  0.00     0.006 C 
BRANCH   9  10
ATOM     10  C   UNL     1      28.330  -0.538   8.210  1.00  0.00     0.053 C 
BRANCH  10  11
ATOM     11  C   UNL     1      27.175  -1.314   8.759  1.00  0.00     0.041 C 
ATOM     12  O   UNL     1      27.365  -2.198   9.635  1.00  0.00    -0.550 OA
ATOM     13  O   UNL     1      25.894  -1.095   8.269  1.00  0.00    -0.550 OA
ENDBRANCH  10  11
ENDBRANCH   9  10
ENDBRANCH   8   9
ENDBRANCH   1   8
TORSDOF 8
ENDMDL
