MODEL 1
REMARK VINA RESULT:    -3.505      0.000      0.000
REMARK INTER + INTRA:          -5.572
REMARK INTER:                  -5.349
REMARK INTRA:                  -0.222
REMARK UNBOUND:                -0.222
REMARK SMILES CC1=CCC[C@H](C)C(=O)C[C@@H](C(C)C)C(=O)C1
REMARK SMILES IDX 8 1 9 2 6 3 7 4 5 5 4 6 3 7 2 8 1 9 10 11 11 12 15 13 16 14
REMARK SMILES IDX 17 15 12 17 13 18 14 19
REMARK H PARENT
REMARK Flexibility Score: 70.00
ROOT
ATOM      1  C   UNL     1      14.081  18.563  17.386  1.00  0.00     0.136 C 
ATOM      2  O   UNL     1      15.206  18.560  17.859  1.00  0.00    -0.299 OA
ENDROOT
BRANCH   1   3
ATOM      3  C   UNL     1      13.241  19.822  17.538  1.00  0.00     0.053 C 
ATOM      4  C   UNL     1      13.411  20.777  16.348  1.00  0.00     0.016 C 
BRANCH   3   5
ATOM      5  C   UNL     1      11.756  19.478  17.773  1.00  0.00     0.015 C 
BRANCH   5   6
ATOM      6  C   UNL     1      10.869  19.935  16.597  1.00  0.00     0.028 C 
BRANCH   6   7
ATOM      7  C   UNL     1       9.973  18.831  16.098  1.00  0.00    -0.028 C 
ATOM      8  C   UNL     1      10.228  18.067  15.011  1.00  0.00    -0.070 CG0
ATOM      9  C   UNL     1       9.239  16.987  14.651  1.00  0.00     0.039 C 
ATOM     10  G   UNL     1      11.442  18.270  14.117  1.00  0.00     0.000 G0
ENDBRANCH   6   7
ENDBRANCH   5   6
ENDBRANCH   3   5
ENDBRANCH   1   3
BRANCH   1  11
ATOM     11  C   UNL     1      13.597  17.349  16.612  1.00  0.00     0.087 C 
BRANCH  11  12
ATOM     12  C   UNL     1      13.760  17.377  15.065  1.00  0.00     0.066 C 
BRANCH  12  13
ATOM     13  C   UNL     1      12.464  17.174  14.286  1.00  0.00     0.140 C 
ATOM     14  O   UNL     1      12.230  16.059  13.839  1.00  0.00    -0.299 OA
BRANCH  13  15
ATOM     15  C   UNL     1      11.426  18.259  14.105  1.00  0.00     0.106 CG0
ATOM     16  G   UNL     1      10.233  18.068  15.029  1.00  0.00     0.000 G0
ENDBRANCH  13  15
ENDBRANCH  12  13
BRANCH  12  17
ATOM     17  C   UNL     1      15.027  16.648  14.503  1.00  0.00    -0.006 C 
ATOM     18  C   UNL     1      15.385  15.408  15.340  1.00  0.00     0.008 C 
ATOM     19  C   UNL     1      16.266  17.527  14.294  1.00  0.00     0.008 C 
ENDBRANCH  12  17
ENDBRANCH  11  12
ENDBRANCH   1  11
TORSDOF 1
ENDMDL
MODEL 2
REMARK VINA RESULT:    -3.228      1.989      3.885
REMARK INTER + INTRA:          -5.148
REMARK INTER:                  -4.967
REMARK INTRA:                  -0.181
REMARK UNBOUND:                -0.222
REMARK SMILES CC1=CCC[C@H](C)C(=O)C[C@@H](C(C)C)C(=O)C1
REMARK SMILES IDX 8 1 9 2 6 3 7 4 5 5 4 6 3 7 2 8 1 9 10 11 11 12 15 13 16 14
REMARK SMILES IDX 17 15 12 17 13 18 14 19
REMARK H PARENT
REMARK Flexibility Score: 70.00
ROOT
ATOM      1  C   UNL     1      10.330  17.999  14.852  1.00  0.00     0.136 C 
ATOM      2  O   UNL     1       9.525  17.082  14.857  1.00  0.00    -0.299 OA
ENDROOT
BRANCH   1   3
ATOM      3  C   UNL     1      10.092  19.169  15.794  1.00  0.00     0.053 C 
ATOM      4  C   UNL     1       8.612  19.576  15.848  1.00  0.00     0.016 C 
BRANCH   3   5
ATOM      5  C   UNL     1      10.643  18.872  17.203  1.00  0.00     0.015 C 
BRANCH   5   6
ATOM      6  C   UNL     1      11.611  19.973  17.684  1.00  0.00     0.028 C 
BRANCH   6   7
ATOM      7  C   UNL     1      12.972  19.425  18.024  1.00  0.00    -0.028 C 
ATOM      8  C   UNL     1      13.992  19.303  17.144  1.00  0.00    -0.070 CG0
ATOM      9  C   UNL     1      15.303  18.752  17.645  1.00  0.00     0.039 C 
ATOM     10  G   UNL     1      13.868  19.660  15.671  1.00  0.00     0.000 G0
ENDBRANCH   6   7
ENDBRANCH   5   6
ENDBRANCH   3   5
ENDBRANCH   1   3
BRANCH   1  11
ATOM     11  C   UNL     1      11.561  17.903  13.967  1.00  0.00     0.087 C 
BRANCH  11  12
ATOM     12  C   UNL     1      12.874  17.386  14.622  1.00  0.00     0.066 C 
BRANCH  12  13
ATOM     13  C   UNL     1      13.972  18.437  14.756  1.00  0.00     0.140 C 
ATOM     14  O   UNL     1      14.971  18.317  14.059  1.00  0.00    -0.299 OA
BRANCH  13  15
ATOM     15  C   UNL     1      13.855  19.651  15.650  1.00  0.00     0.106 CG0
ATOM     16  G   UNL     1      13.993  19.291  17.122  1.00  0.00     0.000 G0
ENDBRANCH  13  15
ENDBRANCH  12  13
BRANCH  12  17
ATOM     17  C   UNL     1      13.333  15.955  14.185  1.00  0.00    -0.006 C 
ATOM     18  C   UNL     1      12.187  15.168  13.527  1.00  0.00     0.008 C 
ATOM     19  C   UNL     1      14.008  15.108  15.271  1.00  0.00     0.008 C 
ENDBRANCH  12  17
ENDBRANCH  11  12
ENDBRANCH   1  11
TORSDOF 1
ENDMDL
MODEL 3
REMARK VINA RESULT:    -3.102      1.913      4.046
REMARK INTER + INTRA:          -4.957
REMARK INTER:                  -4.989
REMARK INTRA:                   0.032
REMARK UNBOUND:                -0.222
REMARK SMILES CC1=CCC[C@H](C)C(=O)C[C@@H](C(C)C)C(=O)C1
REMARK SMILES IDX 8 1 9 2 6 3 7 4 5 5 4 6 3 7 2 8 1 9 10 11 11 12 15 13 16 14
REMARK SMILES IDX 17 15 12 17 13 18 14 19
REMARK H PARENT
REMARK Flexibility Score: 70.00
ROOT
ATOM      1  C   UNL     1      14.148  19.474  16.139  1.00  0.00     0.136 C 
ATOM      2  O   UNL     1      13.963  20.562  16.658  1.00  0.00    -0.299 OA
ENDROOT
BRANCH   1   3
ATOM      3  C   UNL     1      14.971  18.445  16.900  1.00  0.00     0.053 C 
ATOM      4  C   UNL     1      15.180  18.844  18.368  1.00  0.00     0.016 C 
BRANCH   3   5
ATOM      5  C   UNL     1      14.353  17.038  16.784  1.00  0.00     0.015 C 
BRANCH   5   6
ATOM      6  C   UNL     1      15.117  16.157  15.774  1.00  0.00     0.028 C 
BRANCH   6   7
ATOM      7  C   UNL     1      14.259  15.050  15.220  1.00  0.00    -0.028 C 
ATOM      8  C   UNL     1      13.437  15.175  14.153  1.00  0.00    -0.070 CG0
ATOM      9  C   UNL     1      12.656  13.965  13.710  1.00  0.00     0.039 C 
ATOM     10  G   UNL     1      13.239  16.485  13.405  1.00  0.00     0.000 G0
ENDBRANCH   6   7
ENDBRANCH   5   6
ENDBRANCH   3   5
ENDBRANCH   1   3
BRANCH   1  11
ATOM     11  C   UNL     1      13.496  19.168  14.802  1.00  0.00     0.087 C 
BRANCH  11  12
ATOM     12  C   UNL     1      12.114  18.453  14.827  1.00  0.00     0.066 C 
BRANCH  12  13
ATOM     13  C   UNL     1      12.014  17.235  13.913  1.00  0.00     0.140 C 
ATOM     14  O   UNL     1      10.901  16.887  13.539  1.00  0.00    -0.299 OA
BRANCH  13  15
ATOM     15  C   UNL     1      13.220  16.486  13.391  1.00  0.00     0.106 CG0
ATOM     16  G   UNL     1      13.456  15.188  14.147  1.00  0.00     0.000 G0
ENDBRANCH  13  15
ENDBRANCH  12  13
BRANCH  12  17
ATOM     17  C   UNL     1      10.865  19.394  14.868  1.00  0.00    -0.006 C 
ATOM     18  C   UNL     1      11.178  20.779  14.277  1.00  0.00     0.008 C 
ATOM     19  C   UNL     1      10.181  19.539  16.233  1.00  0.00     0.008 C 
ENDBRANCH  12  17
ENDBRANCH  11  12
ENDBRANCH   1  11
TORSDOF 1
ENDMDL
MODEL 4
REMARK VINA RESULT:    -3.092      1.615      3.956
REMARK INTER + INTRA:          -4.941
REMARK INTER:                  -4.804
REMARK INTRA:                  -0.138
REMARK UNBOUND:                -0.222
REMARK SMILES CC1=CCC[C@H](C)C(=O)C[C@@H](C(C)C)C(=O)C1
REMARK SMILES IDX 8 1 9 2 6 3 7 4 5 5 4 6 3 7 2 8 1 9 10 11 11 12 15 13 16 14
REMARK SMILES IDX 17 15 12 17 13 18 14 19
REMARK H PARENT
REMARK Flexibility Score: 70.00
ROOT
ATOM      1  C   UNL     1      14.727  18.098  16.426  1.00  0.00     0.136 C 
ATOM      2  O   UNL     1      14.893  17.758  17.586  1.00  0.00    -0.299 OA
ENDROOT
BRANCH   1   3
ATOM      3  C   UNL     1      15.381  17.266  15.333  1.00  0.00     0.053 C 
ATOM      4  C   UNL     1      16.913  17.285  15.431  1.00  0.00     0.016 C 
BRANCH   3   5
ATOM      5  C   UNL     1      14.837  15.823  15.329  1.00  0.00     0.015 C 
BRANCH   5   6
ATOM      6  C   UNL     1      14.192  15.457  13.976  1.00  0.00     0.028 C 
BRANCH   6   7
ATOM      7  C   UNL     1      12.688  15.497  14.034  1.00  0.00    -0.028 C 
ATOM      8  C   UNL     1      11.933  16.561  13.676  1.00  0.00    -0.070 CG0
ATOM      9  C   UNL     1      10.434  16.437  13.774  1.00  0.00     0.039 C 
ATOM     10  G   UNL     1      12.525  17.884  13.215  1.00  0.00     0.000 G0
ENDBRANCH   6   7
ENDBRANCH   5   6
ENDBRANCH   3   5
ENDBRANCH   1   3
BRANCH   1  11
ATOM     11  C   UNL     1      13.826  19.282  16.119  1.00  0.00     0.087 C 
BRANCH  11  12
ATOM     12  C   UNL     1      12.374  18.973  15.654  1.00  0.00     0.066 C 
BRANCH  12  13
ATOM     13  C   UNL     1      12.164  19.040  14.144  1.00  0.00     0.140 C 
ATOM     14  O   UNL     1      11.755  20.089  13.666  1.00  0.00    -0.299 OA
BRANCH  13  15
ATOM     15  C   UNL     1      12.504  17.902  13.208  1.00  0.00     0.106 CG0
ATOM     16  G   UNL     1      11.926  16.578  13.685  1.00  0.00     0.000 G0
ENDBRANCH  13  15
ENDBRANCH  12  13
BRANCH  12  17
ATOM     17  C   UNL     1      11.235  19.580  16.540  1.00  0.00    -0.006 C 
ATOM     18  C   UNL     1      11.748  19.967  17.937  1.00  0.00     0.008 C 
ATOM     19  C   UNL     1       9.958  18.738  16.655  1.00  0.00     0.008 C 
ENDBRANCH  12  17
ENDBRANCH  11  12
ENDBRANCH   1  11
TORSDOF 1
ENDMDL
MODEL 5
REMARK VINA RESULT:    -3.084      1.842      4.312
REMARK INTER + INTRA:          -4.928
REMARK INTER:                  -4.729
REMARK INTRA:                  -0.199
REMARK UNBOUND:                -0.222
REMARK SMILES CC1=CCC[C@H](C)C(=O)C[C@@H](C(C)C)C(=O)C1
REMARK SMILES IDX 8 1 9 2 6 3 7 4 5 5 4 6 3 7 2 8 1 9 10 11 11 12 15 13 16 14
REMARK SMILES IDX 17 15 12 17 13 18 14 19
REMARK H PARENT
REMARK Flexibility Score: 70.00
ROOT
ATOM      1  C   UNL     1      12.322  19.241  17.247  1.00  0.00     0.136 C 
ATOM      2  O   UNL     1      11.835  19.066  18.352  1.00  0.00    -0.299 OA
ENDROOT
BRANCH   1   3
ATOM      3  C   UNL     1      13.773  18.840  17.031  1.00  0.00     0.053 C 
ATOM      4  C   UNL     1      14.708  19.467  18.075  1.00  0.00     0.016 C 
BRANCH   3   5
ATOM      5  C   UNL     1      13.928  17.306  16.988  1.00  0.00     0.015 C 
BRANCH   5   6
ATOM      6  C   UNL     1      14.224  16.799  15.562  1.00  0.00     0.028 C 
BRANCH   6   7
ATOM      7  C   UNL     1      14.906  17.842  14.717  1.00  0.00    -0.028 C 
ATOM      8  C   UNL     1      14.343  18.458  13.652  1.00  0.00    -0.070 CG0
ATOM      9  C   UNL     1      15.152  19.497  12.918  1.00  0.00     0.039 C 
ATOM     10  G   UNL     1      12.949  18.126  13.140  1.00  0.00     0.000 G0
ENDBRANCH   6   7
ENDBRANCH   5   6
ENDBRANCH   3   5
ENDBRANCH   1   3
BRANCH   1  11
ATOM     11  C   UNL     1      11.449  19.780  16.127  1.00  0.00     0.087 C 
BRANCH  11  12
ATOM     12  C   UNL     1      11.112  18.812  14.956  1.00  0.00     0.066 C 
BRANCH  12  13
ATOM     13  C   UNL     1      11.891  19.077  13.670  1.00  0.00     0.140 C 
ATOM     14  O   UNL     1      11.689  20.132  13.083  1.00  0.00    -0.299 OA
BRANCH  13  15
ATOM     15  C   UNL     1      12.946  18.138  13.130  1.00  0.00     0.106 CG0
ATOM     16  G   UNL     1      14.331  18.468  13.665  1.00  0.00     0.000 G0
ENDBRANCH  13  15
ENDBRANCH  12  13
BRANCH  12  17
ATOM     17  C   UNL     1       9.599  18.452  14.788  1.00  0.00    -0.006 C 
ATOM     18  C   UNL     1       8.736  19.107  15.880  1.00  0.00     0.008 C 
ATOM     19  C   UNL     1       9.275  16.957  14.677  1.00  0.00     0.008 C 
ENDBRANCH  12  17
ENDBRANCH  11  12
ENDBRANCH   1  11
TORSDOF 1
ENDMDL
MODEL 6
REMARK VINA RESULT:    -3.052      2.145      3.990
REMARK INTER + INTRA:          -4.880
REMARK INTER:                  -4.694
REMARK INTRA:                  -0.186
REMARK UNBOUND:                -0.222
REMARK SMILES CC1=CCC[C@H](C)C(=O)C[C@@H](C(C)C)C(=O)C1
REMARK SMILES IDX 8 1 9 2 6 3 7 4 5 5 4 6 3 7 2 8 1 9 10 11 11 12 15 13 16 14
REMARK SMILES IDX 17 15 12 17 13 18 14 19
REMARK H PARENT
REMARK Flexibility Score: 70.00
ROOT
ATOM      1  C   UNL     1      11.976  20.229  14.328  1.00  0.00     0.136 C 
ATOM      2  O   UNL     1      11.010  20.658  13.720  1.00  0.00    -0.299 OA
ENDROOT
BRANCH   1   3
ATOM      3  C   UNL     1      12.301  20.838  15.684  1.00  0.00     0.053 C 
ATOM      4  C   UNL     1      12.304  22.373  15.641  1.00  0.00     0.016 C 
BRANCH   3   5
ATOM      5  C   UNL     1      11.349  20.310  16.776  1.00  0.00     0.015 C 
BRANCH   5   6
ATOM      6  C   UNL     1      11.965  19.127  17.551  1.00  0.00     0.028 C 
BRANCH   6   7
ATOM      7  C   UNL     1      13.460  19.252  17.685  1.00  0.00    -0.028 C 
ATOM      8  C   UNL     1      14.351  18.332  17.248  1.00  0.00    -0.070 CG0
ATOM      9  C   UNL     1      15.819  18.614  17.441  1.00  0.00     0.039 C 
ATOM     10  G   UNL     1      13.940  17.016  16.606  1.00  0.00     0.000 G0
ENDBRANCH   6   7
ENDBRANCH   5   6
ENDBRANCH   3   5
ENDBRANCH   1   3
BRANCH   1  11
ATOM     11  C   UNL     1      12.765  19.068  13.747  1.00  0.00     0.087 C 
BRANCH  11  12
ATOM     12  C   UNL     1      12.572  17.672  14.408  1.00  0.00     0.066 C 
BRANCH  12  13
ATOM     13  C   UNL     1      13.817  17.120  15.098  1.00  0.00     0.140 C 
ATOM     14  O   UNL     1      14.772  16.809  14.398  1.00  0.00    -0.299 OA
BRANCH  13  15
ATOM     15  C   UNL     1      13.953  17.008  16.600  1.00  0.00     0.106 CG0
ATOM     16  G   UNL     1      14.344  18.332  17.237  1.00  0.00     0.000 G0
ENDBRANCH  13  15
ENDBRANCH  12  13
BRANCH  12  17
ATOM     17  C   UNL     1      11.721  16.645  13.589  1.00  0.00    -0.006 C 
ATOM     18  C   UNL     1      10.223  16.994  13.625  1.00  0.00     0.008 C 
ATOM     19  C   UNL     1      11.934  15.168  13.942  1.00  0.00     0.008 C 
ENDBRANCH  12  17
ENDBRANCH  11  12
ENDBRANCH   1  11
TORSDOF 1
ENDMDL
MODEL 7
REMARK VINA RESULT:    -3.001      1.711      4.244
REMARK INTER + INTRA:          -4.803
REMARK INTER:                  -4.985
REMARK INTRA:                   0.182
REMARK UNBOUND:                -0.222
REMARK SMILES CC1=CCC[C@H](C)C(=O)C[C@@H](C(C)C)C(=O)C1
REMARK SMILES IDX 8 1 9 2 6 3 7 4 5 5 4 6 3 7 2 8 1 9 10 11 11 12 15 13 16 14
REMARK SMILES IDX 17 15 12 17 13 18 14 19
REMARK H PARENT
REMARK Flexibility Score: 70.00
ROOT
ATOM      1  C   UNL     1      12.711  20.743  16.172  1.00  0.00     0.136 C 
ATOM      2  O   UNL     1      13.494  21.536  15.676  1.00  0.00    -0.299 OA
ENDROOT
BRANCH   1   3
ATOM      3  C   UNL     1      12.989  20.243  17.581  1.00  0.00     0.053 C 
ATOM      4  C   UNL     1      11.784  19.504  18.181  1.00  0.00     0.016 C 
BRANCH   3   5
ATOM      5  C   UNL     1      14.260  19.371  17.623  1.00  0.00     0.015 C 
BRANCH   5   6
ATOM      6  C   UNL     1      13.981  17.928  17.153  1.00  0.00     0.028 C 
BRANCH   6   7
ATOM      7  C   UNL     1      14.880  17.516  16.017  1.00  0.00    -0.028 C 
ATOM      8  C   UNL     1      14.446  17.088  14.809  1.00  0.00    -0.070 CG0
ATOM      9  C   UNL     1      15.475  16.729  13.768  1.00  0.00     0.039 C 
ATOM     10  G   UNL     1      12.973  16.918  14.467  1.00  0.00     0.000 G0
ENDBRANCH   6   7
ENDBRANCH   5   6
ENDBRANCH   3   5
ENDBRANCH   1   3
BRANCH   1  11
ATOM     11  C   UNL     1      11.465  20.346  15.398  1.00  0.00     0.087 C 
BRANCH  11  12
ATOM     12  C   UNL     1      11.252  18.831  15.116  1.00  0.00     0.066 C 
BRANCH  12  13
ATOM     13  C   UNL     1      12.285  18.209  14.181  1.00  0.00     0.140 C 
ATOM     14  O   UNL     1      12.609  18.837  13.181  1.00  0.00    -0.299 OA
BRANCH  13  15
ATOM     15  C   UNL     1      12.978  16.895  14.466  1.00  0.00     0.106 CG0
ATOM     16  G   UNL     1      14.449  17.087  14.802  1.00  0.00     0.000 G0
ENDBRANCH  13  15
ENDBRANCH  12  13
BRANCH  12  17
ATOM     17  C   UNL     1       9.767  18.382  14.904  1.00  0.00    -0.006 C 
ATOM     18  C   UNL     1       9.184  18.950  13.599  1.00  0.00     0.008 C 
ATOM     19  C   UNL     1       8.815  18.650  16.075  1.00  0.00     0.008 C 
ENDBRANCH  12  17
ENDBRANCH  11  12
ENDBRANCH   1  11
TORSDOF 1
ENDMDL
MODEL 8
REMARK VINA RESULT:    -2.697      6.742      8.941
REMARK INTER + INTRA:          -4.338
REMARK INTER:                  -4.404
REMARK INTRA:                   0.066
REMARK UNBOUND:                -0.222
REMARK SMILES CC1=CCC[C@H](C)C(=O)C[C@@H](C(C)C)C(=O)C1
REMARK SMILES IDX 8 1 9 2 6 3 7 4 5 5 4 6 3 7 2 8 1 9 10 11 11 12 15 13 16 14
REMARK SMILES IDX 17 15 12 17 13 18 14 19
REMARK H PARENT
REMARK Flexibility Score: 70.00
ROOT
ATOM      1  C   UNL     1      12.115  25.407  15.830  1.00  0.00     0.136 C 
ATOM      2  O   UNL     1      11.341  24.747  16.504  1.00  0.00    -0.299 OA
ENDROOT
BRANCH   1   3
ATOM      3  C   UNL     1      11.538  26.313  14.752  1.00  0.00     0.053 C 
ATOM      4  C   UNL     1      10.018  26.146  14.611  1.00  0.00     0.016 C 
BRANCH   3   5
ATOM      5  C   UNL     1      11.920  27.786  14.999  1.00  0.00     0.015 C 
BRANCH   5   6
ATOM      6  C   UNL     1      12.934  28.298  13.955  1.00  0.00     0.028 C 
BRANCH   6   7
ATOM      7  C   UNL     1      14.263  28.642  14.574  1.00  0.00    -0.028 C 
ATOM      8  C   UNL     1      15.389  27.905  14.436  1.00  0.00    -0.070 CG0
ATOM      9  C   UNL     1      16.648  28.394  15.105  1.00  0.00     0.039 C 
ATOM     10  G   UNL     1      15.435  26.591  13.670  1.00  0.00     0.000 G0
ENDBRANCH   6   7
ENDBRANCH   5   6
ENDBRANCH   3   5
ENDBRANCH   1   3
BRANCH   1  11
ATOM     11  C   UNL     1      13.602  25.351  16.137  1.00  0.00     0.087 C 
BRANCH  11  12
ATOM     12  C   UNL     1      14.508  24.568  15.144  1.00  0.00     0.066 C 
BRANCH  12  13
ATOM     13  C   UNL     1      15.655  25.384  14.554  1.00  0.00     0.140 C 
ATOM     14  O   UNL     1      16.800  25.008  14.771  1.00  0.00    -0.299 OA
BRANCH  13  15
ATOM     15  C   UNL     1      15.445  26.585  13.659  1.00  0.00     0.106 CG0
ATOM     16  G   UNL     1      15.385  27.882  14.451  1.00  0.00     0.000 G0
ENDBRANCH  13  15
ENDBRANCH  12  13
BRANCH  12  17
ATOM     17  C   UNL     1      13.763  23.607  14.160  1.00  0.00    -0.006 C 
ATOM     18  C   UNL     1      13.066  22.458  14.908  1.00  0.00     0.008 C 
ATOM     19  C   UNL     1      14.602  23.057  13.000  1.00  0.00     0.008 C 
ENDBRANCH  12  17
ENDBRANCH  11  12
ENDBRANCH   1  11
TORSDOF 1
ENDMDL
MODEL 9
REMARK VINA RESULT:    -2.642      6.835      8.813
REMARK INTER + INTRA:          -4.254
REMARK INTER:                  -4.162
REMARK INTRA:                  -0.092
REMARK UNBOUND:                -0.222
REMARK SMILES CC1=CCC[C@H](C)C(=O)C[C@@H](C(C)C)C(=O)C1
REMARK SMILES IDX 8 1 9 2 6 3 7 4 5 5 4 6 3 7 2 8 1 9 10 11 11 12 15 13 16 14
REMARK SMILES IDX 17 15 12 17 13 18 14 19
REMARK H PARENT
REMARK Flexibility Score: 70.00
ROOT
ATOM      1  C   UNL     1      14.438  24.366  14.242  1.00  0.00     0.136 C 
ATOM      2  O   UNL     1      15.375  24.025  14.945  1.00  0.00    -0.299 OA
ENDROOT
BRANCH   1   3
ATOM      3  C   UNL     1      13.182  23.508  14.252  1.00  0.00     0.053 C 
ATOM      4  C   UNL     1      13.415  22.136  13.603  1.00  0.00     0.016 C 
BRANCH   3   5
ATOM      5  C   UNL     1      12.616  23.364  15.679  1.00  0.00     0.015 C 
BRANCH   5   6
ATOM      6  C   UNL     1      12.017  24.689  16.194  1.00  0.00     0.028 C 
BRANCH   6   7
ATOM      7  C   UNL     1      11.191  25.386  15.145  1.00  0.00    -0.028 C 
ATOM      8  C   UNL     1      11.375  26.666  14.748  1.00  0.00    -0.070 CG0
ATOM      9  C   UNL     1      10.475  27.214  13.670  1.00  0.00     0.039 C 
ATOM     10  G   UNL     1      12.420  27.586  15.362  1.00  0.00     0.000 G0
ENDBRANCH   6   7
ENDBRANCH   5   6
ENDBRANCH   3   5
ENDBRANCH   1   3
BRANCH   1  11
ATOM     11  C   UNL     1      14.536  25.659  13.450  1.00  0.00     0.087 C 
BRANCH  11  12
ATOM     12  C   UNL     1      14.788  26.969  14.249  1.00  0.00     0.066 C 
BRANCH  12  13
ATOM     13  C   UNL     1      13.564  27.870  14.393  1.00  0.00     0.140 C 
ATOM     14  O   UNL     1      13.475  28.841  13.654  1.00  0.00    -0.299 OA
BRANCH  13  15
ATOM     15  C   UNL     1      12.429  27.581  15.350  1.00  0.00     0.106 CG0
ATOM     16  G   UNL     1      11.389  26.656  14.737  1.00  0.00     0.000 G0
ENDBRANCH  13  15
ENDBRANCH  12  13
BRANCH  12  17
ATOM     17  C   UNL     1      16.148  27.689  13.961  1.00  0.00    -0.006 C 
ATOM     18  C   UNL     1      17.198  26.713  13.402  1.00  0.00     0.008 C 
ATOM     19  C   UNL     1      16.736  28.497  15.124  1.00  0.00     0.008 C 
ENDBRANCH  12  17
ENDBRANCH  11  12
ENDBRANCH   1  11
TORSDOF 1
ENDMDL
