MODEL 1
REMARK VINA RESULT:    -5.079      0.000      0.000
REMARK INTER + INTRA:          -5.584
REMARK INTER:                  -5.524
REMARK INTRA:                  -0.059
REMARK UNBOUND:                -0.059
REMARK SMILES COc1cc2ccc(=O)oc2cc1O
REMARK SMILES IDX 3 1 13 2 12 3 11 4 5 5 4 6 6 7 7 8 8 9 9 10 10 11 2 12 1 13
REMARK SMILES IDX 14 14
REMARK H PARENT 14 15
REMARK Flexibility Score: inf
ROOT
ATOM      1  C   UNL     1       8.641  -5.981  -5.543  1.00  0.00     0.161 A 
ATOM      2  C   UNL     1       9.867  -5.586  -6.113  1.00  0.00     0.161 A 
ATOM      3  C   UNL     1      10.369  -6.250  -7.239  1.00  0.00     0.098 A 
ATOM      4  C   UNL     1       9.660  -7.311  -7.808  1.00  0.00     0.142 A 
ATOM      5  C   UNL     1       8.433  -7.715  -7.245  1.00  0.00     0.022 A 
ATOM      6  C   UNL     1       7.926  -7.053  -6.118  1.00  0.00     0.062 A 
ATOM      7  C   UNL     1       7.746  -8.780  -7.838  1.00  0.00     0.019 A 
ATOM      8  C   UNL     1       8.291  -9.407  -8.958  1.00  0.00     0.094 A 
ATOM      9  C   UNL     1       9.514  -8.951  -9.461  1.00  0.00     0.336 A 
ATOM     10  O   UNL     1      10.023  -9.503 -10.472  1.00  0.00    -0.246 OA
ATOM     11  O   UNL     1      10.146  -7.936  -8.878  1.00  0.00    -0.423 OA
ENDROOT
BRANCH   1  12
ATOM     12  O   UNL     1       8.167  -5.294  -4.415  1.00  0.00    -0.493 OA
ATOM     13  C   UNL     1       8.412  -5.685  -3.068  1.00  0.00     0.278 C 
ENDBRANCH   1  12
BRANCH   2  14
ATOM     14  O   UNL     1      10.603  -4.531  -5.573  1.00  0.00    -0.504 OA
ATOM     15  H   UNL     1      11.511  -4.265  -5.934  1.00  0.00     0.293 HD
ENDBRANCH   2  14
TORSDOF 2
ENDMDL
MODEL 2
REMARK VINA RESULT:    -5.030      1.944      2.829
REMARK INTER + INTRA:          -5.531
REMARK INTER:                  -5.486
REMARK INTRA:                  -0.044
REMARK UNBOUND:                -0.059
REMARK SMILES COc1cc2ccc(=O)oc2cc1O
REMARK SMILES IDX 3 1 13 2 12 3 11 4 5 5 4 6 6 7 7 8 8 9 9 10 10 11 2 12 1 13
REMARK SMILES IDX 14 14
REMARK H PARENT 14 15
REMARK Flexibility Score: inf
ROOT
ATOM      1  C   UNL     1       8.044  -7.633  -6.112  1.00  0.00     0.161 A 
ATOM      2  C   UNL     1       8.347  -6.261  -6.014  1.00  0.00     0.161 A 
ATOM      3  C   UNL     1       9.342  -5.697  -6.820  1.00  0.00     0.098 A 
ATOM      4  C   UNL     1      10.047  -6.489  -7.730  1.00  0.00     0.142 A 
ATOM      5  C   UNL     1       9.753  -7.864  -7.837  1.00  0.00     0.022 A 
ATOM      6  C   UNL     1       8.757  -8.433  -7.031  1.00  0.00     0.062 A 
ATOM      7  C   UNL     1      10.476  -8.630  -8.757  1.00  0.00     0.019 A 
ATOM      8  C   UNL     1      11.458  -8.019  -9.536  1.00  0.00     0.094 A 
ATOM      9  C   UNL     1      11.694  -6.650  -9.376  1.00  0.00     0.336 A 
ATOM     10  O   UNL     1      12.576  -6.079 -10.070  1.00  0.00    -0.246 OA
ATOM     11  O   UNL     1      10.992  -5.944  -8.492  1.00  0.00    -0.423 OA
ENDROOT
BRANCH   1  12
ATOM     12  O   UNL     1       7.040  -8.166  -5.288  1.00  0.00    -0.493 OA
ATOM     13  C   UNL     1       6.320  -9.364  -5.562  1.00  0.00     0.278 C 
ENDBRANCH   1  12
BRANCH   2  14
ATOM     14  O   UNL     1       7.665  -5.438  -5.117  1.00  0.00    -0.504 OA
ATOM     15  H   UNL     1       7.697  -5.586  -4.115  1.00  0.00     0.293 HD
ENDBRANCH   2  14
TORSDOF 2
ENDMDL
MODEL 3
REMARK VINA RESULT:    -4.958      2.629      3.219
REMARK INTER + INTRA:          -5.452
REMARK INTER:                  -5.406
REMARK INTRA:                  -0.045
REMARK UNBOUND:                -0.059
REMARK SMILES COc1cc2ccc(=O)oc2cc1O
REMARK SMILES IDX 3 1 13 2 12 3 11 4 5 5 4 6 6 7 7 8 8 9 9 10 10 11 2 12 1 13
REMARK SMILES IDX 14 14
REMARK H PARENT 14 15
REMARK Flexibility Score: inf
ROOT
ATOM      1  C   UNL     1       8.110  -6.801  -6.712  1.00  0.00     0.161 A 
ATOM      2  C   UNL     1       8.338  -8.108  -7.185  1.00  0.00     0.161 A 
ATOM      3  C   UNL     1       8.429  -8.356  -8.559  1.00  0.00     0.098 A 
ATOM      4  C   UNL     1       8.295  -7.310  -9.476  1.00  0.00     0.142 A 
ATOM      5  C   UNL     1       8.066  -5.998  -9.014  1.00  0.00     0.022 A 
ATOM      6  C   UNL     1       7.975  -5.745  -7.638  1.00  0.00     0.062 A 
ATOM      7  C   UNL     1       7.937  -4.973  -9.956  1.00  0.00     0.019 A 
ATOM      8  C   UNL     1       8.036  -5.274 -11.315  1.00  0.00     0.094 A 
ATOM      9  C   UNL     1       8.264  -6.600 -11.699  1.00  0.00     0.336 A 
ATOM     10  O   UNL     1       8.357  -6.893 -12.920  1.00  0.00    -0.246 OA
ATOM     11  O   UNL     1       8.383  -7.556 -10.781  1.00  0.00    -0.423 OA
ENDROOT
BRANCH   1  12
ATOM     12  O   UNL     1       8.024  -6.588  -5.327  1.00  0.00    -0.493 OA
ATOM     13  C   UNL     1       8.385  -5.377  -4.671  1.00  0.00     0.278 C 
ENDBRANCH   1  12
BRANCH   2  14
ATOM     14  O   UNL     1       8.477  -9.178  -6.300  1.00  0.00    -0.504 OA
ATOM     15  H   UNL     1       8.330 -10.138  -6.586  1.00  0.00     0.293 HD
ENDBRANCH   2  14
TORSDOF 2
ENDMDL
MODEL 4
REMARK VINA RESULT:    -4.943      3.343      3.858
REMARK INTER + INTRA:          -5.435
REMARK INTER:                  -5.382
REMARK INTRA:                  -0.054
REMARK UNBOUND:                -0.059
REMARK SMILES COc1cc2ccc(=O)oc2cc1O
REMARK SMILES IDX 3 1 13 2 12 3 11 4 5 5 4 6 6 7 7 8 8 9 9 10 10 11 2 12 1 13
REMARK SMILES IDX 14 14
REMARK H PARENT 14 15
REMARK Flexibility Score: inf
ROOT
ATOM      1  C   UNL     1       8.085  -7.163  -7.503  1.00  0.00     0.161 A 
ATOM      2  C   UNL     1       7.782  -5.803  -7.298  1.00  0.00     0.161 A 
ATOM      3  C   UNL     1       7.645  -4.938  -8.389  1.00  0.00     0.098 A 
ATOM      4  C   UNL     1       7.808  -5.413  -9.693  1.00  0.00     0.142 A 
ATOM      5  C   UNL     1       8.112  -6.773  -9.909  1.00  0.00     0.022 A 
ATOM      6  C   UNL     1       8.249  -7.643  -8.819  1.00  0.00     0.062 A 
ATOM      7  C   UNL     1       8.269  -7.219 -11.226  1.00  0.00     0.019 A 
ATOM      8  C   UNL     1       8.121  -6.315 -12.277  1.00  0.00     0.094 A 
ATOM      9  C   UNL     1       7.819  -4.980 -11.986  1.00  0.00     0.336 A 
ATOM     10  O   UNL     1       7.682  -4.148 -12.921  1.00  0.00    -0.246 OA
ATOM     11  O   UNL     1       7.676  -4.583 -10.724  1.00  0.00    -0.423 OA
ENDROOT
BRANCH   1  12
ATOM     12  O   UNL     1       8.215  -8.003  -6.385  1.00  0.00    -0.493 OA
ATOM     13  C   UNL     1       7.150  -8.749  -5.805  1.00  0.00     0.278 C 
ENDBRANCH   1  12
BRANCH   2  14
ATOM     14  O   UNL     1       7.612  -5.291  -6.011  1.00  0.00    -0.504 OA
ATOM     15  H   UNL     1       6.957  -4.546  -5.807  1.00  0.00     0.293 HD
ENDBRANCH   2  14
TORSDOF 2
ENDMDL
MODEL 5
REMARK VINA RESULT:    -4.925      1.653      1.862
REMARK INTER + INTRA:          -5.416
REMARK INTER:                  -5.362
REMARK INTRA:                  -0.054
REMARK UNBOUND:                -0.059
REMARK SMILES COc1cc2ccc(=O)oc2cc1O
REMARK SMILES IDX 3 1 13 2 12 3 11 4 5 5 4 6 6 7 7 8 8 9 9 10 10 11 2 12 1 13
REMARK SMILES IDX 14 14
REMARK H PARENT 14 15
REMARK Flexibility Score: inf
ROOT
ATOM      1  C   UNL     1       8.541  -6.660  -6.696  1.00  0.00     0.161 A 
ATOM      2  C   UNL     1       9.747  -6.019  -7.042  1.00  0.00     0.161 A 
ATOM      3  C   UNL     1      10.269  -6.148  -8.334  1.00  0.00     0.098 A 
ATOM      4  C   UNL     1       9.602  -6.915  -9.293  1.00  0.00     0.142 A 
ATOM      5  C   UNL     1       8.396  -7.561  -8.957  1.00  0.00     0.022 A 
ATOM      6  C   UNL     1       7.868  -7.434  -7.665  1.00  0.00     0.062 A 
ATOM      7  C   UNL     1       7.751  -8.321  -9.939  1.00  0.00     0.019 A 
ATOM      8  C   UNL     1       8.315  -8.417 -11.211  1.00  0.00     0.094 A 
ATOM      9  C   UNL     1       9.515  -7.748 -11.471  1.00  0.00     0.336 A 
ATOM     10  O   UNL     1      10.041  -7.821 -12.613  1.00  0.00    -0.246 OA
ATOM     11  O   UNL     1      10.107  -7.032 -10.518  1.00  0.00    -0.423 OA
ENDROOT
BRANCH   1  12
ATOM     12  O   UNL     1       8.045  -6.509  -5.391  1.00  0.00    -0.493 OA
ATOM     13  C   UNL     1       7.706  -7.588  -4.526  1.00  0.00     0.278 C 
ENDBRANCH   1  12
BRANCH   2  14
ATOM     14  O   UNL     1      10.441  -5.245  -6.112  1.00  0.00    -0.504 OA
ATOM     15  H   UNL     1      11.189  -4.617  -6.382  1.00  0.00     0.293 HD
ENDBRANCH   2  14
TORSDOF 2
ENDMDL
MODEL 6
REMARK VINA RESULT:    -4.806      2.248      2.788
REMARK INTER + INTRA:          -5.287
REMARK INTER:                  -5.239
REMARK INTRA:                  -0.049
REMARK UNBOUND:                -0.059
REMARK SMILES COc1cc2ccc(=O)oc2cc1O
REMARK SMILES IDX 3 1 13 2 12 3 11 4 5 5 4 6 6 7 7 8 8 9 9 10 10 11 2 12 1 13
REMARK SMILES IDX 14 14
REMARK H PARENT 14 15
REMARK Flexibility Score: inf
ROOT
ATOM      1  C   UNL     1       8.169  -5.949  -7.061  1.00  0.00     0.161 A 
ATOM      2  C   UNL     1       7.518  -5.439  -8.201  1.00  0.00     0.161 A 
ATOM      3  C   UNL     1       8.017  -5.709  -9.480  1.00  0.00     0.098 A 
ATOM      4  C   UNL     1       9.167  -6.486  -9.640  1.00  0.00     0.142 A 
ATOM      5  C   UNL     1       9.828  -7.001  -8.507  1.00  0.00     0.022 A 
ATOM      6  C   UNL     1       9.331  -6.734  -7.223  1.00  0.00     0.062 A 
ATOM      7  C   UNL     1      10.977  -7.775  -8.699  1.00  0.00     0.019 A 
ATOM      8  C   UNL     1      11.432  -8.014  -9.996  1.00  0.00     0.094 A 
ATOM      9  C   UNL     1      10.724  -7.470 -11.073  1.00  0.00     0.336 A 
ATOM     10  O   UNL     1      11.119  -7.674 -12.251  1.00  0.00    -0.246 OA
ATOM     11  O   UNL     1       9.635  -6.736 -10.861  1.00  0.00    -0.423 OA
ENDROOT
BRANCH   1  12
ATOM     12  O   UNL     1       7.642  -5.659  -5.793  1.00  0.00    -0.493 OA
ATOM     13  C   UNL     1       8.420  -5.299  -4.656  1.00  0.00     0.278 C 
ENDBRANCH   1  12
BRANCH   2  14
ATOM     14  O   UNL     1       6.367  -4.659  -8.081  1.00  0.00    -0.504 OA
ATOM     15  H   UNL     1       6.299  -3.892  -7.423  1.00  0.00     0.293 HD
ENDBRANCH   2  14
TORSDOF 2
ENDMDL
MODEL 7
REMARK VINA RESULT:    -4.795      2.842      5.160
REMARK INTER + INTRA:          -5.275
REMARK INTER:                  -5.212
REMARK INTRA:                  -0.064
REMARK UNBOUND:                -0.059
REMARK SMILES COc1cc2ccc(=O)oc2cc1O
REMARK SMILES IDX 3 1 13 2 12 3 11 4 5 5 4 6 6 7 7 8 8 9 9 10 10 11 2 12 1 13
REMARK SMILES IDX 14 14
REMARK H PARENT 14 15
REMARK Flexibility Score: inf
ROOT
ATOM      1  C   UNL     1       8.382  -5.866 -10.450  1.00  0.00     0.161 A 
ATOM      2  C   UNL     1       8.156  -7.249 -10.594  1.00  0.00     0.161 A 
ATOM      3  C   UNL     1       7.936  -8.050  -9.468  1.00  0.00     0.098 A 
ATOM      4  C   UNL     1       7.939  -7.488  -8.189  1.00  0.00     0.142 A 
ATOM      5  C   UNL     1       8.164  -6.105  -8.033  1.00  0.00     0.022 A 
ATOM      6  C   UNL     1       8.384  -5.298  -9.158  1.00  0.00     0.062 A 
ATOM      7  C   UNL     1       8.160  -5.571  -6.740  1.00  0.00     0.019 A 
ATOM      8  C   UNL     1       7.936  -6.414  -5.651  1.00  0.00     0.094 A 
ATOM      9  C   UNL     1       7.720  -7.777  -5.884  1.00  0.00     0.336 A 
ATOM     10  O   UNL     1       7.515  -8.555  -4.916  1.00  0.00    -0.246 OA
ATOM     11  O   UNL     1       7.729  -8.258  -7.125  1.00  0.00    -0.423 OA
ENDROOT
BRANCH   1  12
ATOM     12  O   UNL     1       8.599  -5.092 -11.600  1.00  0.00    -0.493 OA
ATOM     13  C   UNL     1       7.657  -4.175 -12.148  1.00  0.00     0.278 C 
ENDBRANCH   1  12
BRANCH   2  14
ATOM     14  O   UNL     1       8.147  -7.847 -11.855  1.00  0.00    -0.504 OA
ATOM     15  H   UNL     1       8.060  -7.308 -12.708  1.00  0.00     0.293 HD
ENDBRANCH   2  14
TORSDOF 2
ENDMDL
MODEL 8
REMARK VINA RESULT:    -4.717      2.637      5.352
REMARK INTER + INTRA:          -5.190
REMARK INTER:                  -5.126
REMARK INTRA:                  -0.064
REMARK UNBOUND:                -0.059
REMARK SMILES COc1cc2ccc(=O)oc2cc1O
REMARK SMILES IDX 3 1 13 2 12 3 11 4 5 5 4 6 6 7 7 8 8 9 9 10 10 11 2 12 1 13
REMARK SMILES IDX 14 14
REMARK H PARENT 14 15
REMARK Flexibility Score: inf
ROOT
ATOM      1  C   UNL     1       8.056  -7.087 -11.017  1.00  0.00     0.161 A 
ATOM      2  C   UNL     1       8.167  -5.697 -10.820  1.00  0.00     0.161 A 
ATOM      3  C   UNL     1       8.202  -5.168  -9.525  1.00  0.00     0.098 A 
ATOM      4  C   UNL     1       8.127  -6.012  -8.414  1.00  0.00     0.142 A 
ATOM      5  C   UNL     1       8.015  -7.405  -8.599  1.00  0.00     0.022 A 
ATOM      6  C   UNL     1       7.980  -7.939  -9.895  1.00  0.00     0.062 A 
ATOM      7  C   UNL     1       7.942  -8.224  -7.468  1.00  0.00     0.019 A 
ATOM      8  C   UNL     1       7.982  -7.645  -6.200  1.00  0.00     0.094 A 
ATOM      9  C   UNL     1       8.094  -6.254  -6.093  1.00  0.00     0.336 A 
ATOM     10  O   UNL     1       8.131  -5.712  -4.958  1.00  0.00    -0.246 OA
ATOM     11  O   UNL     1       8.161  -5.499  -7.187  1.00  0.00    -0.423 OA
ENDROOT
BRANCH   1  12
ATOM     12  O   UNL     1       8.023  -7.584 -12.329  1.00  0.00    -0.493 OA
ATOM     13  C   UNL     1       9.100  -8.270 -12.962  1.00  0.00     0.278 C 
ENDBRANCH   1  12
BRANCH   2  14
ATOM     14  O   UNL     1       8.244  -4.822 -11.904  1.00  0.00    -0.504 OA
ATOM     15  H   UNL     1       9.127  -4.560 -12.325  1.00  0.00     0.293 HD
ENDBRANCH   2  14
TORSDOF 2
ENDMDL
MODEL 9
REMARK VINA RESULT:    -4.685      1.821      2.845
REMARK INTER + INTRA:          -5.156
REMARK INTER:                  -5.091
REMARK INTRA:                  -0.065
REMARK UNBOUND:                -0.059
REMARK SMILES COc1cc2ccc(=O)oc2cc1O
REMARK SMILES IDX 3 1 13 2 12 3 11 4 5 5 4 6 6 7 7 8 8 9 9 10 10 11 2 12 1 13
REMARK SMILES IDX 14 14
REMARK H PARENT 14 15
REMARK Flexibility Score: inf
ROOT
ATOM      1  C   UNL     1       8.575  -6.427  -6.590  1.00  0.00     0.161 A 
ATOM      2  C   UNL     1       8.095  -7.713  -6.908  1.00  0.00     0.161 A 
ATOM      3  C   UNL     1       8.728  -8.480  -7.892  1.00  0.00     0.098 A 
ATOM      4  C   UNL     1       9.841  -7.979  -8.572  1.00  0.00     0.142 A 
ATOM      5  C   UNL     1      10.330  -6.693  -8.263  1.00  0.00     0.022 A 
ATOM      6  C   UNL     1       9.699  -5.922  -7.277  1.00  0.00     0.062 A 
ATOM      7  C   UNL     1      11.446  -6.219  -8.960  1.00  0.00     0.019 A 
ATOM      8  C   UNL     1      12.039  -7.025  -9.932  1.00  0.00     0.094 A 
ATOM      9  C   UNL     1      11.499  -8.290 -10.184  1.00  0.00     0.336 A 
ATOM     10  O   UNL     1      12.020  -9.032 -11.058  1.00  0.00    -0.246 OA
ATOM     11  O   UNL     1      10.436  -8.716  -9.507  1.00  0.00    -0.423 OA
ENDROOT
BRANCH   1  12
ATOM     12  O   UNL     1       7.916  -5.685  -5.598  1.00  0.00    -0.493 OA
ATOM     13  C   UNL     1       8.369  -5.550  -4.254  1.00  0.00     0.278 C 
ENDBRANCH   1  12
BRANCH   2  14
ATOM     14  O   UNL     1       6.986  -8.248  -6.251  1.00  0.00    -0.504 OA
ATOM     15  H   UNL     1       6.976  -9.193  -5.887  1.00  0.00     0.293 HD
ENDBRANCH   2  14
TORSDOF 2
ENDMDL
