MODEL 1
REMARK VINA RESULT:    25.585      0.000      0.000
REMARK INTER + INTRA:          29.749
REMARK INTER:                  30.072
REMARK INTRA:                  -0.323
REMARK UNBOUND:                -0.323
REMARK SMILES O=c1c(O)c(-c2ccc(O)c(O)c2)oc2cc(O)ccc12
REMARK SMILES IDX 5 1 3 2 2 3 1 4 21 5 15 6 14 7 16 8 17 9 19 10 20 11 6 12
REMARK SMILES IDX 7 13 8 14 9 15 13 16 11 17 10 18 12 20 4 22 18 24
REMARK H PARENT 10 19 12 21 4 23 18 25
REMARK Flexibility Score: inf
ROOT
ATOM      1  C   UNL     1      17.663  95.762   9.088  1.00  0.00     0.180 A 
ATOM      2  C   UNL     1      16.268  95.796   9.296  1.00  0.00     0.208 A 
ATOM      3  C   UNL     1      15.630  97.041   9.397  1.00  0.00     0.235 A 
ATOM      4  O   UNL     1      14.385  97.098   9.595  1.00  0.00    -0.285 OA
ATOM      5  C   UNL     1      16.385  98.217   9.269  1.00  0.00     0.069 A 
ATOM      6  C   UNL     1      17.774  98.098   9.039  1.00  0.00     0.142 A 
ATOM      7  O   UNL     1      18.341  96.901   8.958  1.00  0.00    -0.452 OA
ATOM      8  C   UNL     1      18.560  99.247   8.896  1.00  0.00     0.094 A 
ATOM      9  C   UNL     1      17.978 100.516   8.982  1.00  0.00     0.119 A 
ATOM     10  C   UNL     1      16.601 100.638   9.213  1.00  0.00     0.047 A 
ATOM     11  C   UNL     1      15.806  99.496   9.357  1.00  0.00     0.020 A 
ENDROOT
BRANCH   1  12
ATOM     12  C   UNL     1      18.413  94.489   8.989  1.00  0.00     0.025 A 
ATOM     13  C   UNL     1      18.984  93.885  10.125  1.00  0.00     0.016 A 
ATOM     14  C   UNL     1      19.707  92.697  10.004  1.00  0.00     0.051 A 
ATOM     15  C   UNL     1      19.882  92.101   8.748  1.00  0.00     0.157 A 
ATOM     16  C   UNL     1      18.609  93.898   7.730  1.00  0.00     0.062 A 
ATOM     17  C   UNL     1      19.335  92.704   7.608  1.00  0.00     0.158 A 
BRANCH  15  18
ATOM     18  O   UNL     1      20.601  90.914   8.623  1.00  0.00    -0.504 OA
ATOM     19  H   UNL     1      21.203  90.578   9.366  1.00  0.00     0.293 HD
ENDBRANCH  15  18
BRANCH  17  20
ATOM     20  O   UNL     1      19.516  92.114   6.359  1.00  0.00    -0.504 OA
ATOM     21  H   UNL     1      20.273  91.463   6.186  1.00  0.00     0.293 HD
ENDBRANCH  17  20
ENDBRANCH   1  12
BRANCH   2  22
ATOM     22  O   UNL     1      15.535  94.609   9.371  1.00  0.00    -0.502 OA
ATOM     23  H   UNL     1      14.815  94.461  10.067  1.00  0.00     0.293 HD
ENDBRANCH   2  22
BRANCH   9  24
ATOM     24  O   UNL     1      18.776 101.649   8.838  1.00  0.00    -0.508 OA
ATOM     25  H   UNL     1      18.830 102.150   7.958  1.00  0.00     0.293 HD
ENDBRANCH   9  24
TORSDOF 5
ENDMDL
MODEL 2
REMARK VINA RESULT:    25.937      0.664      1.456
REMARK INTER + INTRA:          30.163
REMARK INTER:                  30.481
REMARK INTRA:                  -0.318
REMARK UNBOUND:                -0.323
REMARK SMILES O=c1c(O)c(-c2ccc(O)c(O)c2)oc2cc(O)ccc12
REMARK SMILES IDX 5 1 3 2 2 3 1 4 21 5 15 6 14 7 16 8 17 9 19 10 20 11 6 12
REMARK SMILES IDX 7 13 8 14 9 15 13 16 11 17 10 18 12 20 4 22 18 24
REMARK H PARENT 10 19 12 21 4 23 18 25
REMARK Flexibility Score: inf
ROOT
ATOM      1  C   UNL     1      17.723  95.763   8.636  1.00  0.00     0.180 A 
ATOM      2  C   UNL     1      16.357  95.749   8.988  1.00  0.00     0.208 A 
ATOM      3  C   UNL     1      15.723  96.964   9.287  1.00  0.00     0.235 A 
ATOM      4  O   UNL     1      14.505  96.976   9.615  1.00  0.00    -0.285 OA
ATOM      5  C   UNL     1      16.453  98.161   9.210  1.00  0.00     0.069 A 
ATOM      6  C   UNL     1      17.810  98.093   8.828  1.00  0.00     0.142 A 
ATOM      7  O   UNL     1      18.376  96.922   8.561  1.00  0.00    -0.452 OA
ATOM      8  C   UNL     1      18.569  99.265   8.730  1.00  0.00     0.094 A 
ATOM      9  C   UNL     1      17.990 100.507   9.011  1.00  0.00     0.119 A 
ATOM     10  C   UNL     1      16.643 100.578   9.393  1.00  0.00     0.047 A 
ATOM     11  C   UNL     1      15.876  99.412   9.493  1.00  0.00     0.020 A 
ENDROOT
BRANCH   1  12
ATOM     12  C   UNL     1      18.468  94.522   8.325  1.00  0.00     0.025 A 
ATOM     13  C   UNL     1      18.510  94.001   7.018  1.00  0.00     0.016 A 
ATOM     14  C   UNL     1      19.200  92.816   6.753  1.00  0.00     0.051 A 
ATOM     15  C   UNL     1      19.846  92.128   7.788  1.00  0.00     0.157 A 
ATOM     16  C   UNL     1      19.100  93.817   9.362  1.00  0.00     0.062 A 
ATOM     17  C   UNL     1      19.794  92.627   9.096  1.00  0.00     0.158 A 
BRANCH  15  18
ATOM     18  O   UNL     1      20.537  90.946   7.527  1.00  0.00    -0.504 OA
ATOM     19  H   UNL     1      21.201  90.562   8.189  1.00  0.00     0.293 HD
ENDBRANCH  15  18
BRANCH  17  20
ATOM     20  O   UNL     1      20.431  91.937  10.125  1.00  0.00    -0.504 OA
ATOM     21  H   UNL     1      20.353  92.234  11.090  1.00  0.00     0.293 HD
ENDBRANCH  17  20
ENDBRANCH   1  12
BRANCH   2  22
ATOM     22  O   UNL     1      15.644  94.548   9.008  1.00  0.00    -0.502 OA
ATOM     23  H   UNL     1      16.104  93.646   8.980  1.00  0.00     0.293 HD
ENDBRANCH   2  22
BRANCH   9  24
ATOM     24  O   UNL     1      18.760 101.663   8.909  1.00  0.00    -0.508 OA
ATOM     25  H   UNL     1      18.364 102.580   9.081  1.00  0.00     0.293 HD
ENDBRANCH   9  24
TORSDOF 5
ENDMDL
MODEL 3
REMARK VINA RESULT:    27.984      2.516      6.154
REMARK INTER + INTRA:          32.569
REMARK INTER:                  32.399
REMARK INTRA:                   0.170
REMARK UNBOUND:                -0.323
REMARK SMILES O=c1c(O)c(-c2ccc(O)c(O)c2)oc2cc(O)ccc12
REMARK SMILES IDX 5 1 3 2 2 3 1 4 21 5 15 6 14 7 16 8 17 9 19 10 20 11 6 12
REMARK SMILES IDX 7 13 8 14 9 15 13 16 11 17 10 18 12 20 4 22 18 24
REMARK H PARENT 10 19 12 21 4 23 18 25
REMARK Flexibility Score: inf
ROOT
ATOM      1  C   UNL     1      17.700  97.693   8.981  1.00  0.00     0.180 A 
ATOM      2  C   UNL     1      18.142  96.538   8.302  1.00  0.00     0.208 A 
ATOM      3  C   UNL     1      17.250  95.469   8.135  1.00  0.00     0.235 A 
ATOM      4  O   UNL     1      17.625  94.420   7.541  1.00  0.00    -0.285 OA
ATOM      5  C   UNL     1      15.939  95.579   8.626  1.00  0.00     0.069 A 
ATOM      6  C   UNL     1      15.567  96.778   9.273  1.00  0.00     0.142 A 
ATOM      7  O   UNL     1      16.444  97.763   9.419  1.00  0.00    -0.452 OA
ATOM      8  C   UNL     1      14.266  96.931   9.767  1.00  0.00     0.094 A 
ATOM      9  C   UNL     1      13.331  95.901   9.626  1.00  0.00     0.119 A 
ATOM     10  C   UNL     1      13.698  94.709   8.986  1.00  0.00     0.047 A 
ATOM     11  C   UNL     1      14.995  94.546   8.487  1.00  0.00     0.020 A 
ENDROOT
BRANCH   1  12
ATOM     12  C   UNL     1      18.586  98.856   9.215  1.00  0.00     0.025 A 
ATOM     13  C   UNL     1      18.126 100.174   9.042  1.00  0.00     0.016 A 
ATOM     14  C   UNL     1      18.987 101.255   9.245  1.00  0.00     0.051 A 
ATOM     15  C   UNL     1      20.322 101.036   9.611  1.00  0.00     0.157 A 
ATOM     16  C   UNL     1      19.931  98.642   9.562  1.00  0.00     0.062 A 
ATOM     17  C   UNL     1      20.795  99.727   9.767  1.00  0.00     0.158 A 
BRANCH  15  18
ATOM     18  O   UNL     1      21.183 102.111   9.817  1.00  0.00    -0.504 OA
ATOM     19  H   UNL     1      22.188 102.010   9.735  1.00  0.00     0.293 HD
ENDBRANCH  15  18
BRANCH  17  20
ATOM     20  O   UNL     1      22.125  99.511  10.124  1.00  0.00    -0.504 OA
ATOM     21  H   UNL     1      22.867  99.522   9.434  1.00  0.00     0.293 HD
ENDBRANCH  17  20
ENDBRANCH   1  12
BRANCH   2  22
ATOM     22  O   UNL     1      19.437  96.475   7.782  1.00  0.00    -0.502 OA
ATOM     23  H   UNL     1      19.778  95.668   7.273  1.00  0.00     0.293 HD
ENDBRANCH   2  22
BRANCH   9  24
ATOM     24  O   UNL     1      12.042  96.070  10.124  1.00  0.00    -0.508 OA
ATOM     25  H   UNL     1      11.419  95.282  10.261  1.00  0.00     0.293 HD
ENDBRANCH   9  24
TORSDOF 5
ENDMDL
