MODEL 1
REMARK VINA RESULT:    -3.815      0.000      0.000
REMARK INTER + INTRA:          -7.270
REMARK INTER:                  -5.822
REMARK INTRA:                  -1.448
REMARK UNBOUND:                -1.448
REMARK SMILES OC[C@@H]1O[C@@](CO)(O[C@H]2O[C@H](CO)[C@H](O)[C@@H](O)[C@@H]2O)[C@H](O)[C@H]1O
REMARK SMILES IDX 8 1 9 2 11 3 14 4 10 5 16 6 18 7 12 8 13 9 15 11 17 13 19 15
REMARK SMILES IDX 5 17 20 18 4 19 22 20 3 21 6 22 7 23 21 25 23 27 2 29 1 30
REMARK H PARENT 13 10 15 12 17 14 19 16 7 24 21 26 23 28 1 31
REMARK Flexibility Score: inf
ROOT
ATOM      1  O   UNL     1     171.247 163.740 157.948  1.00  0.00    -0.313 OA
ENDROOT
BRANCH   1   2
ATOM      2  C   UNL     1     170.336 164.838 157.957  1.00  0.00     0.285 C 
ATOM      3  C   UNL     1     170.446 167.100 157.169  1.00  0.00     0.178 C 
ATOM      4  C   UNL     1     168.912 167.179 157.325  1.00  0.00     0.177 C 
ATOM      5  O   UNL     1     171.005 166.102 158.009  1.00  0.00    -0.341 OA
ATOM      6  C   UNL     1     168.262 165.842 156.878  1.00  0.00     0.179 C 
ATOM      7  C   UNL     1     169.272 164.671 156.839  1.00  0.00     0.202 C 
BRANCH   3   8
ATOM      8  C   UNL     1     171.117 168.440 157.498  1.00  0.00     0.191 C 
BRANCH   8   9
ATOM      9  O   UNL     1     170.195 169.488 157.375  1.00  0.00    -0.394 OA
ATOM     10  H   UNL     1     169.378 169.193 157.852  1.00  0.00     0.210 HD
ENDBRANCH   8   9
ENDBRANCH   3   8
BRANCH   4  11
ATOM     11  O   UNL     1     168.595 167.441 158.670  1.00  0.00    -0.387 OA
ATOM     12  H   UNL     1     167.810 166.878 158.896  1.00  0.00     0.211 HD
ENDBRANCH   4  11
BRANCH   6  13
ATOM     13  O   UNL     1     167.634 165.983 155.627  1.00  0.00    -0.387 OA
ATOM     14  H   UNL     1     167.111 166.827 155.647  1.00  0.00     0.211 HD
ENDBRANCH   6  13
BRANCH   7  15
ATOM     15  O   UNL     1     168.570 163.466 157.013  1.00  0.00    -0.385 OA
ATOM     16  H   UNL     1     167.607 163.694 157.082  1.00  0.00     0.211 HD
ENDBRANCH   7  15
ENDBRANCH   1   2
BRANCH   1  17
ATOM     17  C   UNL     1     171.186 162.835 159.055  1.00  0.00     0.224 C 
ATOM     18  C   UNL     1     170.715 163.651 160.291  1.00  0.00     0.208 C 
ATOM     19  O   UNL     1     170.252 161.789 158.827  1.00  0.00    -0.337 OA
ATOM     20  C   UNL     1     169.346 163.090 160.614  1.00  0.00     0.180 C 
ATOM     21  C   UNL     1     169.313 161.755 159.874  1.00  0.00     0.179 C 
BRANCH  17  22
ATOM     22  C   UNL     1     172.590 162.208 159.268  1.00  0.00     0.225 C 
BRANCH  22  23
ATOM     23  O   UNL     1     173.582 163.200 159.314  1.00  0.00    -0.391 OA
ATOM     24  H   UNL     1     174.215 163.007 158.573  1.00  0.00     0.210 HD
ENDBRANCH  22  23
ENDBRANCH  17  22
BRANCH  18  25
ATOM     25  O   UNL     1     171.569 163.487 161.400  1.00  0.00    -0.385 OA
ATOM     26  H   UNL     1     172.424 163.118 161.051  1.00  0.00     0.211 HD
ENDBRANCH  18  25
BRANCH  20  27
ATOM     27  O   UNL     1     168.323 163.950 160.171  1.00  0.00    -0.387 OA
ATOM     28  H   UNL     1     168.614 164.884 160.332  1.00  0.00     0.211 HD
ENDBRANCH  20  27
BRANCH  21  29
ATOM     29  C   UNL     1     169.623 160.563 160.797  1.00  0.00     0.191 C 
BRANCH  29  30
ATOM     30  O   UNL     1     169.832 160.995 162.115  1.00  0.00    -0.394 OA
ATOM     31  H   UNL     1     168.944 160.997 162.558  1.00  0.00     0.210 HD
ENDBRANCH  29  30
ENDBRANCH  21  29
ENDBRANCH   1  17
TORSDOF 13
ENDMDL
MODEL 2
REMARK VINA RESULT:    -3.769      7.471     10.311
REMARK INTER + INTRA:          -7.200
REMARK INTER:                  -5.476
REMARK INTRA:                  -1.724
REMARK UNBOUND:                -1.448
REMARK SMILES OC[C@@H]1O[C@@](CO)(O[C@H]2O[C@H](CO)[C@H](O)[C@@H](O)[C@@H]2O)[C@H](O)[C@H]1O
REMARK SMILES IDX 8 1 9 2 11 3 14 4 10 5 16 6 18 7 12 8 13 9 15 11 17 13 19 15
REMARK SMILES IDX 5 17 20 18 4 19 22 20 3 21 6 22 7 23 21 25 23 27 2 29 1 30
REMARK H PARENT 13 10 15 12 17 14 19 16 7 24 21 26 23 28 1 31
REMARK Flexibility Score: inf
ROOT
ATOM      1  O   UNL     1     167.878 171.807 161.082  1.00  0.00    -0.313 OA
ENDROOT
BRANCH   1   2
ATOM      2  C   UNL     1     169.229 172.241 160.928  1.00  0.00     0.285 C 
ATOM      3  C   UNL     1     171.215 172.011 162.253  1.00  0.00     0.178 C 
ATOM      4  C   UNL     1     172.032 172.451 161.018  1.00  0.00     0.177 C 
ATOM      5  O   UNL     1     169.874 172.475 162.183  1.00  0.00    -0.341 OA
ATOM      6  C   UNL     1     171.436 171.819 159.732  1.00  0.00     0.179 C 
ATOM      7  C   UNL     1     169.984 171.322 159.929  1.00  0.00     0.202 C 
BRANCH   3   8
ATOM      8  C   UNL     1     171.837 172.527 163.556  1.00  0.00     0.191 C 
BRANCH   8   9
ATOM      9  O   UNL     1     171.257 173.751 163.920  1.00  0.00    -0.394 OA
ATOM     10  H   UNL     1     170.738 173.574 164.746  1.00  0.00     0.210 HD
ENDBRANCH   8   9
ENDBRANCH   3   8
BRANCH   4  11
ATOM     11  O   UNL     1     172.007 173.854 160.921  1.00  0.00    -0.387 OA
ATOM     12  H   UNL     1     171.839 174.073 159.968  1.00  0.00     0.211 HD
ENDBRANCH   4  11
BRANCH   6  13
ATOM     13  O   UNL     1     172.248 170.769 159.265  1.00  0.00    -0.387 OA
ATOM     14  H   UNL     1     172.472 170.194 160.043  1.00  0.00     0.211 HD
ENDBRANCH   6  13
BRANCH   7  15
ATOM     15  O   UNL     1     169.335 171.324 158.682  1.00  0.00    -0.385 OA
ATOM     16  H   UNL     1     168.858 170.458 158.597  1.00  0.00     0.211 HD
ENDBRANCH   7  15
ENDBRANCH   1   2
BRANCH   1  17
ATOM     17  C   UNL     1     166.896 172.817 161.336  1.00  0.00     0.224 C 
ATOM     18  C   UNL     1     166.527 172.731 162.843  1.00  0.00     0.208 C 
ATOM     19  O   UNL     1     167.401 174.118 161.071  1.00  0.00    -0.337 OA
ATOM     20  C   UNL     1     167.045 174.027 163.432  1.00  0.00     0.180 C 
ATOM     21  C   UNL     1     167.255 174.924 162.215  1.00  0.00     0.179 C 
BRANCH  17  22
ATOM     22  C   UNL     1     165.670 172.565 160.418  1.00  0.00     0.225 C 
BRANCH  22  23
ATOM     23  O   UNL     1     165.265 171.221 160.476  1.00  0.00    -0.391 OA
ATOM     24  H   UNL     1     165.527 170.807 159.613  1.00  0.00     0.210 HD
ENDBRANCH  22  23
ENDBRANCH  17  22
BRANCH  18  25
ATOM     25  O   UNL     1     165.137 172.638 163.051  1.00  0.00    -0.385 OA
ATOM     26  H   UNL     1     165.006 172.374 164.001  1.00  0.00     0.211 HD
ENDBRANCH  18  25
BRANCH  20  27
ATOM     27  O   UNL     1     168.248 173.824 164.136  1.00  0.00    -0.387 OA
ATOM     28  H   UNL     1     168.967 174.318 163.665  1.00  0.00     0.211 HD
ENDBRANCH  20  27
BRANCH  21  29
ATOM     29  C   UNL     1     166.091 175.906 162.001  1.00  0.00     0.191 C 
BRANCH  29  30
ATOM     30  O   UNL     1     164.990 175.556 162.796  1.00  0.00    -0.394 OA
ATOM     31  H   UNL     1     164.224 176.101 162.477  1.00  0.00     0.210 HD
ENDBRANCH  29  30
ENDBRANCH  21  29
ENDBRANCH   1  17
TORSDOF 13
ENDMDL
MODEL 3
REMARK VINA RESULT:    -3.754      7.780     10.153
REMARK INTER + INTRA:          -7.177
REMARK INTER:                  -5.594
REMARK INTRA:                  -1.583
REMARK UNBOUND:                -1.448
REMARK SMILES OC[C@@H]1O[C@@](CO)(O[C@H]2O[C@H](CO)[C@H](O)[C@@H](O)[C@@H]2O)[C@H](O)[C@H]1O
REMARK SMILES IDX 8 1 9 2 11 3 14 4 10 5 16 6 18 7 12 8 13 9 15 11 17 13 19 15
REMARK SMILES IDX 5 17 20 18 4 19 22 20 3 21 6 22 7 23 21 25 23 27 2 29 1 30
REMARK H PARENT 13 10 15 12 17 14 19 16 7 24 21 26 23 28 1 31
REMARK Flexibility Score: inf
ROOT
ATOM      1  O   UNL     1     170.132 172.151 161.991  1.00  0.00    -0.313 OA
ENDROOT
BRANCH   1   2
ATOM      2  C   UNL     1     171.231 172.491 161.147  1.00  0.00     0.285 C 
ATOM      3  C   UNL     1     173.595 172.103 161.251  1.00  0.00     0.178 C 
ATOM      4  C   UNL     1     173.678 172.503 159.762  1.00  0.00     0.177 C 
ATOM      5  O   UNL     1     172.449 172.660 161.878  1.00  0.00    -0.341 OA
ATOM      6  C   UNL     1     172.459 171.933 158.989  1.00  0.00     0.179 C 
ATOM      7  C   UNL     1     171.292 171.537 159.923  1.00  0.00     0.202 C 
BRANCH   3   8
ATOM      8  C   UNL     1     174.838 172.555 162.029  1.00  0.00     0.191 C 
BRANCH   8   9
ATOM      9  O   UNL     1     175.928 172.699 161.159  1.00  0.00    -0.394 OA
ATOM     10  H   UNL     1     176.383 171.819 161.141  1.00  0.00     0.210 HD
ENDBRANCH   8   9
ENDBRANCH   3   8
BRANCH   4  11
ATOM     11  O   UNL     1     173.701 173.905 159.658  1.00  0.00    -0.387 OA
ATOM     12  H   UNL     1     173.479 174.127 158.717  1.00  0.00     0.211 HD
ENDBRANCH   4  11
BRANCH   6  13
ATOM     13  O   UNL     1     172.837 170.836 158.192  1.00  0.00    -0.387 OA
ATOM     14  H   UNL     1     173.777 170.982 157.909  1.00  0.00     0.211 HD
ENDBRANCH   6  13
BRANCH   7  15
ATOM     15  O   UNL     1     170.091 171.602 159.196  1.00  0.00    -0.385 OA
ATOM     16  H   UNL     1     169.370 171.265 159.787  1.00  0.00     0.211 HD
ENDBRANCH   7  15
ENDBRANCH   1   2
BRANCH   1  17
ATOM     17  C   UNL     1     169.257 173.215 162.379  1.00  0.00     0.224 C 
ATOM     18  C   UNL     1     169.482 174.384 161.382  1.00  0.00     0.208 C 
ATOM     19  O   UNL     1     167.893 172.823 162.311  1.00  0.00    -0.337 OA
ATOM     20  C   UNL     1     168.178 174.484 160.617  1.00  0.00     0.180 C 
ATOM     21  C   UNL     1     167.185 173.716 161.485  1.00  0.00     0.179 C 
BRANCH  17  22
ATOM     22  C   UNL     1     169.583 173.623 163.841  1.00  0.00     0.225 C 
BRANCH  22  23
ATOM     23  O   UNL     1     170.912 174.060 163.958  1.00  0.00    -0.391 OA
ATOM     24  H   UNL     1     170.881 175.047 164.054  1.00  0.00     0.210 HD
ENDBRANCH  22  23
ENDBRANCH  17  22
BRANCH  18  25
ATOM     25  O   UNL     1     169.743 175.605 162.034  1.00  0.00    -0.385 OA
ATOM     26  H   UNL     1     170.657 175.534 162.419  1.00  0.00     0.211 HD
ENDBRANCH  18  25
BRANCH  20  27
ATOM     27  O   UNL     1     168.292 173.910 159.335  1.00  0.00    -0.387 OA
ATOM     28  H   UNL     1     168.278 174.644 158.668  1.00  0.00     0.211 HD
ENDBRANCH  20  27
BRANCH  21  29
ATOM     29  C   UNL     1     166.327 174.647 162.360  1.00  0.00     0.191 C 
BRANCH  29  30
ATOM     30  O   UNL     1     165.680 173.923 163.372  1.00  0.00    -0.394 OA
ATOM     31  H   UNL     1     166.203 173.089 163.504  1.00  0.00     0.210 HD
ENDBRANCH  29  30
ENDBRANCH  21  29
ENDBRANCH   1  17
TORSDOF 13
ENDMDL
MODEL 4
REMARK VINA RESULT:    -3.642      7.770      9.762
REMARK INTER + INTRA:          -7.006
REMARK INTER:                  -5.239
REMARK INTRA:                  -1.767
REMARK UNBOUND:                -1.448
REMARK SMILES OC[C@@H]1O[C@@](CO)(O[C@H]2O[C@H](CO)[C@H](O)[C@@H](O)[C@@H]2O)[C@H](O)[C@H]1O
REMARK SMILES IDX 8 1 9 2 11 3 14 4 10 5 16 6 18 7 12 8 13 9 15 11 17 13 19 15
REMARK SMILES IDX 5 17 20 18 4 19 22 20 3 21 6 22 7 23 21 25 23 27 2 29 1 30
REMARK H PARENT 13 10 15 12 17 14 19 16 7 24 21 26 23 28 1 31
REMARK Flexibility Score: inf
ROOT
ATOM      1  O   UNL     1     172.106 171.876 161.942  1.00  0.00    -0.313 OA
ENDROOT
BRANCH   1   2
ATOM      2  C   UNL     1     170.928 172.680 161.973  1.00  0.00     0.285 C 
ATOM      3  C   UNL     1     168.592 172.224 161.682  1.00  0.00     0.178 C 
ATOM      4  C   UNL     1     168.294 173.611 162.293  1.00  0.00     0.177 C 
ATOM      5  O   UNL     1     169.896 172.170 161.124  1.00  0.00    -0.341 OA
ATOM      6  C   UNL     1     169.266 173.894 163.470  1.00  0.00     0.179 C 
ATOM      7  C   UNL     1     170.520 172.989 163.439  1.00  0.00     0.202 C 
BRANCH   3   8
ATOM      8  C   UNL     1     167.581 171.860 160.587  1.00  0.00     0.191 C 
BRANCH   8   9
ATOM      9  O   UNL     1     168.047 172.287 159.336  1.00  0.00    -0.394 OA
ATOM     10  H   UNL     1     167.278 172.209 158.715  1.00  0.00     0.210 HD
ENDBRANCH   8   9
ENDBRANCH   3   8
BRANCH   4  11
ATOM     11  O   UNL     1     168.439 174.596 161.301  1.00  0.00    -0.387 OA
ATOM     12  H   UNL     1     169.074 175.271 161.657  1.00  0.00     0.211 HD
ENDBRANCH   4  11
BRANCH   6  13
ATOM     13  O   UNL     1     168.608 173.770 164.707  1.00  0.00    -0.387 OA
ATOM     14  H   UNL     1     167.826 173.173 164.571  1.00  0.00     0.211 HD
ENDBRANCH   6  13
BRANCH   7  15
ATOM     15  O   UNL     1     171.567 173.648 164.106  1.00  0.00    -0.385 OA
ATOM     16  H   UNL     1     171.605 173.282 165.027  1.00  0.00     0.211 HD
ENDBRANCH   7  15
ENDBRANCH   1   2
BRANCH   1  17
ATOM     17  C   UNL     1     173.064 172.166 160.918  1.00  0.00     0.224 C 
ATOM     18  C   UNL     1     172.859 171.123 159.785  1.00  0.00     0.208 C 
ATOM     19  O   UNL     1     172.873 173.464 160.374  1.00  0.00    -0.337 OA
ATOM     20  C   UNL     1     172.350 171.936 158.613  1.00  0.00     0.180 C 
ATOM     21  C   UNL     1     172.713 173.373 158.978  1.00  0.00     0.179 C 
BRANCH  17  22
ATOM     22  C   UNL     1     174.489 172.092 161.530  1.00  0.00     0.225 C 
BRANCH  22  23
ATOM     23  O   UNL     1     174.740 170.819 162.067  1.00  0.00    -0.391 OA
ATOM     24  H   UNL     1     175.641 170.547 161.750  1.00  0.00     0.210 HD
ENDBRANCH  22  23
ENDBRANCH  17  22
BRANCH  18  25
ATOM     25  O   UNL     1     174.056 170.474 159.429  1.00  0.00    -0.385 OA
ATOM     26  H   UNL     1     174.784 170.907 159.950  1.00  0.00     0.211 HD
ENDBRANCH  18  25
BRANCH  20  27
ATOM     27  O   UNL     1     170.960 171.782 158.447  1.00  0.00    -0.387 OA
ATOM     28  H   UNL     1     170.671 172.377 157.708  1.00  0.00     0.211 HD
ENDBRANCH  20  27
BRANCH  21  29
ATOM     29  C   UNL     1     174.002 173.848 158.286  1.00  0.00     0.191 C 
BRANCH  29  30
ATOM     30  O   UNL     1     174.549 172.828 157.496  1.00  0.00    -0.394 OA
ATOM     31  H   UNL     1     175.043 172.225 158.111  1.00  0.00     0.210 HD
ENDBRANCH  29  30
ENDBRANCH  21  29
ENDBRANCH   1  17
TORSDOF 13
ENDMDL
MODEL 5
REMARK VINA RESULT:    -3.641      1.411      5.770
REMARK INTER + INTRA:          -7.004
REMARK INTER:                  -5.861
REMARK INTRA:                  -1.143
REMARK UNBOUND:                -1.448
REMARK SMILES OC[C@@H]1O[C@@](CO)(O[C@H]2O[C@H](CO)[C@H](O)[C@@H](O)[C@@H]2O)[C@H](O)[C@H]1O
REMARK SMILES IDX 8 1 9 2 11 3 14 4 10 5 16 6 18 7 12 8 13 9 15 11 17 13 19 15
REMARK SMILES IDX 5 17 20 18 4 19 22 20 3 21 6 22 7 23 21 25 23 27 2 29 1 30
REMARK H PARENT 13 10 15 12 17 14 19 16 7 24 21 26 23 28 1 31
REMARK Flexibility Score: inf
ROOT
ATOM      1  O   UNL     1     171.101 164.935 159.419  1.00  0.00    -0.313 OA
ENDROOT
BRANCH   1   2
ATOM      2  C   UNL     1     170.900 163.527 159.530  1.00  0.00     0.285 C 
ATOM      3  C   UNL     1     172.171 161.732 160.486  1.00  0.00     0.178 C 
ATOM      4  C   UNL     1     170.905 160.852 160.397  1.00  0.00     0.177 C 
ATOM      5  O   UNL     1     172.131 162.799 159.550  1.00  0.00    -0.341 OA
ATOM      6  C   UNL     1     169.650 161.686 160.766  1.00  0.00     0.179 C 
ATOM      7  C   UNL     1     169.898 163.210 160.674  1.00  0.00     0.202 C 
BRANCH   3   8
ATOM      8  C   UNL     1     173.446 160.916 160.235  1.00  0.00     0.191 C 
BRANCH   8   9
ATOM      9  O   UNL     1     174.321 161.036 161.323  1.00  0.00    -0.394 OA
ATOM     10  H   UNL     1     175.208 160.736 160.996  1.00  0.00     0.210 HD
ENDBRANCH   8   9
ENDBRANCH   3   8
BRANCH   4  11
ATOM     11  O   UNL     1     170.781 160.347 159.090  1.00  0.00    -0.387 OA
ATOM     12  H   UNL     1     171.638 159.894 158.875  1.00  0.00     0.211 HD
ENDBRANCH   4  11
BRANCH   6  13
ATOM     13  O   UNL     1     169.180 161.348 162.048  1.00  0.00    -0.387 OA
ATOM     14  H   UNL     1     168.206 161.167 161.972  1.00  0.00     0.211 HD
ENDBRANCH   6  13
BRANCH   7  15
ATOM     15  O   UNL     1     168.670 163.852 160.435  1.00  0.00    -0.385 OA
ATOM     16  H   UNL     1     168.621 164.629 161.050  1.00  0.00     0.211 HD
ENDBRANCH   7  15
ENDBRANCH   1   2
BRANCH   1  17
ATOM     17  C   UNL     1     170.631 165.566 158.224  1.00  0.00     0.224 C 
ATOM     18  C   UNL     1     170.452 164.453 157.154  1.00  0.00     0.208 C 
ATOM     19  O   UNL     1     169.377 166.201 158.425  1.00  0.00    -0.337 OA
ATOM     20  C   UNL     1     168.957 164.395 156.918  1.00  0.00     0.180 C 
ATOM     21  C   UNL     1     168.444 165.715 157.490  1.00  0.00     0.179 C 
BRANCH  17  22
ATOM     22  C   UNL     1     171.664 166.638 157.784  1.00  0.00     0.225 C 
BRANCH  22  23
ATOM     23  O   UNL     1     172.906 166.051 157.492  1.00  0.00    -0.391 OA
ATOM     24  H   UNL     1     172.864 165.115 157.818  1.00  0.00     0.210 HD
ENDBRANCH  22  23
ENDBRANCH  17  22
BRANCH  18  25
ATOM     25  O   UNL     1     171.112 164.756 155.948  1.00  0.00    -0.385 OA
ATOM     26  H   UNL     1     170.477 164.546 155.212  1.00  0.00     0.211 HD
ENDBRANCH  18  25
BRANCH  20  27
ATOM     27  O   UNL     1     168.377 163.290 157.572  1.00  0.00    -0.387 OA
ATOM     28  H   UNL     1     167.609 163.618 158.106  1.00  0.00     0.211 HD
ENDBRANCH  20  27
BRANCH  21  29
ATOM     29  C   UNL     1     168.212 166.777 156.402  1.00  0.00     0.191 C 
BRANCH  29  30
ATOM     30  O   UNL     1     167.485 166.241 155.329  1.00  0.00    -0.394 OA
ATOM     31  H   UNL     1     167.471 165.257 155.458  1.00  0.00     0.210 HD
ENDBRANCH  29  30
ENDBRANCH  21  29
ENDBRANCH   1  17
TORSDOF 13
ENDMDL
MODEL 6
REMARK VINA RESULT:    -3.637      8.756     10.382
REMARK INTER + INTRA:          -6.998
REMARK INTER:                  -5.317
REMARK INTRA:                  -1.681
REMARK UNBOUND:                -1.448
REMARK SMILES OC[C@@H]1O[C@@](CO)(O[C@H]2O[C@H](CO)[C@H](O)[C@@H](O)[C@@H]2O)[C@H](O)[C@H]1O
REMARK SMILES IDX 8 1 9 2 11 3 14 4 10 5 16 6 18 7 12 8 13 9 15 11 17 13 19 15
REMARK SMILES IDX 5 17 20 18 4 19 22 20 3 21 6 22 7 23 21 25 23 27 2 29 1 30
REMARK H PARENT 13 10 15 12 17 14 19 16 7 24 21 26 23 28 1 31
REMARK Flexibility Score: inf
ROOT
ATOM      1  O   UNL     1     168.460 172.927 160.503  1.00  0.00    -0.313 OA
ENDROOT
BRANCH   1   2
ATOM      2  C   UNL     1     167.222 173.353 161.071  1.00  0.00     0.285 C 
ATOM      3  C   UNL     1     165.386 174.671 160.270  1.00  0.00     0.178 C 
ATOM      4  C   UNL     1     164.552 174.146 161.459  1.00  0.00     0.177 C 
ATOM      5  O   UNL     1     166.778 174.605 160.540  1.00  0.00    -0.341 OA
ATOM      6  C   UNL     1     164.861 172.644 161.704  1.00  0.00     0.179 C 
ATOM      7  C   UNL     1     166.188 172.194 161.050  1.00  0.00     0.202 C 
BRANCH   3   8
ATOM      8  C   UNL     1     165.029 176.122 159.926  1.00  0.00     0.191 C 
BRANCH   8   9
ATOM      9  O   UNL     1     165.714 177.004 160.773  1.00  0.00    -0.394 OA
ATOM     10  H   UNL     1     165.190 177.847 160.774  1.00  0.00     0.210 HD
ENDBRANCH   8   9
ENDBRANCH   3   8
BRANCH   4  11
ATOM     11  O   UNL     1     164.860 174.894 162.608  1.00  0.00    -0.387 OA
ATOM     12  H   UNL     1     165.841 174.824 162.742  1.00  0.00     0.211 HD
ENDBRANCH   4  11
BRANCH   6  13
ATOM     13  O   UNL     1     163.800 171.834 161.258  1.00  0.00    -0.387 OA
ATOM     14  H   UNL     1     163.500 172.190 160.381  1.00  0.00     0.211 HD
ENDBRANCH   6  13
BRANCH   7  15
ATOM     15  O   UNL     1     166.685 171.087 161.759  1.00  0.00    -0.385 OA
ATOM     16  H   UNL     1     167.223 171.439 162.515  1.00  0.00     0.211 HD
ENDBRANCH   7  15
ENDBRANCH   1   2
BRANCH   1  17
ATOM     17  C   UNL     1     169.651 173.239 161.232  1.00  0.00     0.224 C 
ATOM     18  C   UNL     1     169.213 173.891 162.573  1.00  0.00     0.208 C 
ATOM     19  O   UNL     1     170.406 172.073 161.526  1.00  0.00    -0.337 OA
ATOM     20  C   UNL     1     169.624 172.889 163.631  1.00  0.00     0.180 C 
ATOM     21  C   UNL     1     170.627 171.989 162.914  1.00  0.00     0.179 C 
BRANCH  17  22
ATOM     22  C   UNL     1     170.526 174.194 160.377  1.00  0.00     0.225 C 
BRANCH  22  23
ATOM     23  O   UNL     1     169.774 175.283 159.909  1.00  0.00    -0.391 OA
ATOM     24  H   UNL     1     169.192 175.572 160.659  1.00  0.00     0.210 HD
ENDBRANCH  22  23
ENDBRANCH  17  22
BRANCH  18  25
ATOM     25  O   UNL     1     169.858 175.121 162.809  1.00  0.00    -0.385 OA
ATOM     26  H   UNL     1     170.408 175.316 162.003  1.00  0.00     0.211 HD
ENDBRANCH  18  25
BRANCH  20  27
ATOM     27  O   UNL     1     168.517 172.155 164.100  1.00  0.00    -0.387 OA
ATOM     28  H   UNL     1     168.441 171.330 163.554  1.00  0.00     0.211 HD
ENDBRANCH  20  27
BRANCH  21  29
ATOM     29  C   UNL     1     172.085 172.371 163.221  1.00  0.00     0.191 C 
BRANCH  29  30
ATOM     30  O   UNL     1     172.141 173.411 164.159  1.00  0.00    -0.394 OA
ATOM     31  H   UNL     1     171.767 173.051 165.006  1.00  0.00     0.210 HD
ENDBRANCH  29  30
ENDBRANCH  21  29
ENDBRANCH   1  17
TORSDOF 13
ENDMDL
MODEL 7
REMARK VINA RESULT:    -3.569      1.416      5.857
REMARK INTER + INTRA:          -6.894
REMARK INTER:                  -5.186
REMARK INTRA:                  -1.708
REMARK UNBOUND:                -1.448
REMARK SMILES OC[C@@H]1O[C@@](CO)(O[C@H]2O[C@H](CO)[C@H](O)[C@@H](O)[C@@H]2O)[C@H](O)[C@H]1O
REMARK SMILES IDX 8 1 9 2 11 3 14 4 10 5 16 6 18 7 12 8 13 9 15 11 17 13 19 15
REMARK SMILES IDX 5 17 20 18 4 19 22 20 3 21 6 22 7 23 21 25 23 27 2 29 1 30
REMARK H PARENT 13 10 15 12 17 14 19 16 7 24 21 26 23 28 1 31
REMARK Flexibility Score: inf
ROOT
ATOM      1  O   UNL     1     170.538 165.538 159.083  1.00  0.00    -0.313 OA
ENDROOT
BRANCH   1   2
ATOM      2  C   UNL     1     170.433 164.119 159.186  1.00  0.00     0.285 C 
ATOM      3  C   UNL     1     172.009 162.354 159.575  1.00  0.00     0.178 C 
ATOM      4  C   UNL     1     170.817 161.418 159.870  1.00  0.00     0.177 C 
ATOM      5  O   UNL     1     171.623 163.450 158.759  1.00  0.00    -0.341 OA
ATOM      6  C   UNL     1     169.730 162.179 160.676  1.00  0.00     0.179 C 
ATOM      7  C   UNL     1     169.882 163.715 160.581  1.00  0.00     0.202 C 
BRANCH   3   8
ATOM      8  C   UNL     1     173.153 161.610 158.874  1.00  0.00     0.191 C 
BRANCH   8   9
ATOM      9  O   UNL     1     173.061 161.775 157.486  1.00  0.00    -0.394 OA
ATOM     10  H   UNL     1     173.143 160.867 157.095  1.00  0.00     0.210 HD
ENDBRANCH   8   9
ENDBRANCH   3   8
BRANCH   4  11
ATOM     11  O   UNL     1     170.279 160.955 158.656  1.00  0.00    -0.387 OA
ATOM     12  H   UNL     1     169.701 160.179 158.875  1.00  0.00     0.211 HD
ENDBRANCH   4  11
BRANCH   6  13
ATOM     13  O   UNL     1     169.727 161.773 162.023  1.00  0.00    -0.387 OA
ATOM     14  H   UNL     1     170.153 162.496 162.554  1.00  0.00     0.211 HD
ENDBRANCH   6  13
BRANCH   7  15
ATOM     15  O   UNL     1     168.625 164.306 160.797  1.00  0.00    -0.385 OA
ATOM     16  H   UNL     1     168.084 163.663 161.324  1.00  0.00     0.211 HD
ENDBRANCH   7  15
ENDBRANCH   1   2
BRANCH   1  17
ATOM     17  C   UNL     1     170.077 166.138 157.869  1.00  0.00     0.224 C 
ATOM     18  C   UNL     1     171.322 166.383 156.973  1.00  0.00     0.208 C 
ATOM     19  O   UNL     1     169.182 165.284 157.169  1.00  0.00    -0.337 OA
ATOM     20  C   UNL     1     171.134 165.444 155.800  1.00  0.00     0.180 C 
ATOM     21  C   UNL     1     169.653 165.076 155.860  1.00  0.00     0.179 C 
BRANCH  17  22
ATOM     22  C   UNL     1     169.335 167.457 158.212  1.00  0.00     0.225 C 
BRANCH  22  23
ATOM     23  O   UNL     1     167.947 167.308 158.062  1.00  0.00    -0.391 OA
ATOM     24  H   UNL     1     167.528 167.694 158.875  1.00  0.00     0.210 HD
ENDBRANCH  22  23
ENDBRANCH  17  22
BRANCH  18  25
ATOM     25  O   UNL     1     171.398 167.711 156.510  1.00  0.00    -0.385 OA
ATOM     26  H   UNL     1     171.023 167.716 155.590  1.00  0.00     0.211 HD
ENDBRANCH  18  25
BRANCH  20  27
ATOM     27  O   UNL     1     171.953 164.304 155.919  1.00  0.00    -0.387 OA
ATOM     28  H   UNL     1     171.487 163.544 155.486  1.00  0.00     0.211 HD
ENDBRANCH  20  27
BRANCH  21  29
ATOM     29  C   UNL     1     168.803 165.898 154.876  1.00  0.00     0.191 C 
BRANCH  29  30
ATOM     30  O   UNL     1     167.506 166.085 155.374  1.00  0.00    -0.394 OA
ATOM     31  H   UNL     1     166.918 165.451 154.885  1.00  0.00     0.210 HD
ENDBRANCH  29  30
ENDBRANCH  21  29
ENDBRANCH   1  17
TORSDOF 13
ENDMDL
MODEL 8
REMARK VINA RESULT:    -3.564      1.682      3.180
REMARK INTER + INTRA:          -6.887
REMARK INTER:                  -5.255
REMARK INTRA:                  -1.632
REMARK UNBOUND:                -1.448
REMARK SMILES OC[C@@H]1O[C@@](CO)(O[C@H]2O[C@H](CO)[C@H](O)[C@@H](O)[C@@H]2O)[C@H](O)[C@H]1O
REMARK SMILES IDX 8 1 9 2 11 3 14 4 10 5 16 6 18 7 12 8 13 9 15 11 17 13 19 15
REMARK SMILES IDX 5 17 20 18 4 19 22 20 3 21 6 22 7 23 21 25 23 27 2 29 1 30
REMARK H PARENT 13 10 15 12 17 14 19 16 7 24 21 26 23 28 1 31
REMARK Flexibility Score: inf
ROOT
ATOM      1  O   UNL     1     170.852 165.445 159.224  1.00  0.00    -0.313 OA
ENDROOT
BRANCH   1   2
ATOM      2  C   UNL     1     170.154 165.737 158.013  1.00  0.00     0.285 C 
ATOM      3  C   UNL     1     168.703 167.513 157.312  1.00  0.00     0.178 C 
ATOM      4  C   UNL     1     168.901 167.035 155.857  1.00  0.00     0.177 C 
ATOM      5  O   UNL     1     168.945 166.466 158.241  1.00  0.00    -0.341 OA
ATOM      6  C   UNL     1     170.376 166.608 155.632  1.00  0.00     0.179 C 
ATOM      7  C   UNL     1     171.125 166.331 156.957  1.00  0.00     0.202 C 
BRANCH   3   8
ATOM      8  C   UNL     1     167.284 168.046 157.545  1.00  0.00     0.191 C 
BRANCH   8   9
ATOM      9  O   UNL     1     166.358 166.994 157.509  1.00  0.00    -0.394 OA
ATOM     10  H   UNL     1     166.333 166.682 156.568  1.00  0.00     0.210 HD
ENDBRANCH   8   9
ENDBRANCH   3   8
BRANCH   4  11
ATOM     11  O   UNL     1     168.042 165.951 155.603  1.00  0.00    -0.387 OA
ATOM     12  H   UNL     1     168.594 165.129 155.657  1.00  0.00     0.211 HD
ENDBRANCH   4  11
BRANCH   6  13
ATOM     13  O   UNL     1     171.068 167.571 154.875  1.00  0.00    -0.387 OA
ATOM     14  H   UNL     1     170.395 168.092 154.365  1.00  0.00     0.211 HD
ENDBRANCH   6  13
BRANCH   7  15
ATOM     15  O   UNL     1     172.174 165.431 156.701  1.00  0.00    -0.385 OA
ATOM     16  H   UNL     1     172.482 165.595 155.772  1.00  0.00     0.211 HD
ENDBRANCH   7  15
ENDBRANCH   1   2
BRANCH   1  17
ATOM     17  C   UNL     1     170.746 164.111 159.729  1.00  0.00     0.224 C 
ATOM     18  C   UNL     1     170.062 163.253 158.629  1.00  0.00     0.208 C 
ATOM     19  O   UNL     1     172.022 163.552 160.005  1.00  0.00    -0.337 OA
ATOM     20  C   UNL     1     171.138 162.287 158.180  1.00  0.00     0.180 C 
ATOM     21  C   UNL     1     172.169 162.339 159.305  1.00  0.00     0.179 C 
BRANCH  17  22
ATOM     22  C   UNL     1     169.922 164.138 161.045  1.00  0.00     0.225 C 
BRANCH  22  23
ATOM     23  O   UNL     1     168.675 164.751 160.846  1.00  0.00    -0.391 OA
ATOM     24  H   UNL     1     168.677 165.110 159.921  1.00  0.00     0.210 HD
ENDBRANCH  22  23
ENDBRANCH  17  22
BRANCH  18  25
ATOM     25  O   UNL     1     168.953 162.535 159.118  1.00  0.00    -0.385 OA
ATOM     26  H   UNL     1     169.013 162.556 160.110  1.00  0.00     0.211 HD
ENDBRANCH  18  25
BRANCH  20  27
ATOM     27  O   UNL     1     171.699 162.680 156.949  1.00  0.00    -0.387 OA
ATOM     28  H   UNL     1     172.533 162.162 156.812  1.00  0.00     0.211 HD
ENDBRANCH  20  27
BRANCH  21  29
ATOM     29  C   UNL     1     172.027 161.164 160.288  1.00  0.00     0.191 C 
BRANCH  29  30
ATOM     30  O   UNL     1     172.429 161.541 161.577  1.00  0.00    -0.394 OA
ATOM     31  H   UNL     1     171.915 162.358 161.808  1.00  0.00     0.210 HD
ENDBRANCH  29  30
ENDBRANCH  21  29
ENDBRANCH   1  17
TORSDOF 13
ENDMDL
MODEL 9
REMARK VINA RESULT:    -3.546      8.423     10.085
REMARK INTER + INTRA:          -6.860
REMARK INTER:                  -5.210
REMARK INTRA:                  -1.650
REMARK UNBOUND:                -1.448
REMARK SMILES OC[C@@H]1O[C@@](CO)(O[C@H]2O[C@H](CO)[C@H](O)[C@@H](O)[C@@H]2O)[C@H](O)[C@H]1O
REMARK SMILES IDX 8 1 9 2 11 3 14 4 10 5 16 6 18 7 12 8 13 9 15 11 17 13 19 15
REMARK SMILES IDX 5 17 20 18 4 19 22 20 3 21 6 22 7 23 21 25 23 27 2 29 1 30
REMARK H PARENT 13 10 15 12 17 14 19 16 7 24 21 26 23 28 1 31
REMARK Flexibility Score: inf
ROOT
ATOM      1  O   UNL     1     168.214 173.741 159.670  1.00  0.00    -0.313 OA
ENDROOT
BRANCH   1   2
ATOM      2  C   UNL     1     167.107 172.871 159.899  1.00  0.00     0.285 C 
ATOM      3  C   UNL     1     164.750 173.210 160.182  1.00  0.00     0.178 C 
ATOM      4  C   UNL     1     164.553 171.696 159.952  1.00  0.00     0.177 C 
ATOM      5  O   UNL     1     166.061 173.501 160.644  1.00  0.00    -0.341 OA
ATOM      6  C   UNL     1     165.511 171.197 158.837  1.00  0.00     0.179 C 
ATOM      7  C   UNL     1     166.684 172.171 158.578  1.00  0.00     0.202 C 
BRANCH   3   8
ATOM      8  C   UNL     1     163.745 173.763 161.200  1.00  0.00     0.191 C 
BRANCH   8   9
ATOM      9  O   UNL     1     164.258 173.650 162.499  1.00  0.00    -0.394 OA
ATOM     10  H   UNL     1     165.231 173.831 162.427  1.00  0.00     0.210 HD
ENDBRANCH   8   9
ENDBRANCH   3   8
BRANCH   4  11
ATOM     11  O   UNL     1     164.810 171.007 161.151  1.00  0.00    -0.387 OA
ATOM     12  H   UNL     1     164.984 170.061 160.907  1.00  0.00     0.211 HD
ENDBRANCH   4  11
BRANCH   6  13
ATOM     13  O   UNL     1     164.808 170.955 157.642  1.00  0.00    -0.387 OA
ATOM     14  H   UNL     1     165.240 171.492 156.927  1.00  0.00     0.211 HD
ENDBRANCH   6  13
BRANCH   7  15
ATOM     15  O   UNL     1     167.763 171.445 158.046  1.00  0.00    -0.385 OA
ATOM     16  H   UNL     1     167.416 170.554 157.782  1.00  0.00     0.211 HD
ENDBRANCH   7  15
ENDBRANCH   1   2
BRANCH   1  17
ATOM     17  C   UNL     1     169.227 173.784 160.680  1.00  0.00     0.224 C 
ATOM     18  C   UNL     1     168.912 174.996 161.599  1.00  0.00     0.208 C 
ATOM     19  O   UNL     1     169.225 172.606 161.474  1.00  0.00    -0.337 OA
ATOM     20  C   UNL     1     168.548 174.374 162.931  1.00  0.00     0.180 C 
ATOM     21  C   UNL     1     169.090 172.951 162.832  1.00  0.00     0.179 C 
BRANCH  17  22
ATOM     22  C   UNL     1     170.613 173.915 159.993  1.00  0.00     0.225 C 
BRANCH  22  23
ATOM     23  O   UNL     1     171.651 173.844 160.936  1.00  0.00    -0.391 OA
ATOM     24  H   UNL     1     172.019 174.761 161.026  1.00  0.00     0.210 HD
ENDBRANCH  22  23
ENDBRANCH  17  22
BRANCH  18  25
ATOM     25  O   UNL     1     170.021 175.850 161.761  1.00  0.00    -0.385 OA
ATOM     26  H   UNL     1     169.909 176.302 162.640  1.00  0.00     0.211 HD
ENDBRANCH  18  25
BRANCH  20  27
ATOM     27  O   UNL     1     167.154 174.381 163.135  1.00  0.00    -0.387 OA
ATOM     28  H   UNL     1     166.959 174.966 163.911  1.00  0.00     0.211 HD
ENDBRANCH  20  27
BRANCH  21  29
ATOM     29  C   UNL     1     170.449 172.789 163.536  1.00  0.00     0.191 C 
BRANCH  29  30
ATOM     30  O   UNL     1     170.958 174.035 163.927  1.00  0.00    -0.394 OA
ATOM     31  H   UNL     1     171.009 174.593 163.107  1.00  0.00     0.210 HD
ENDBRANCH  29  30
ENDBRANCH  21  29
ENDBRANCH   1  17
TORSDOF 13
ENDMDL
