MODEL 1
REMARK VINA RESULT:    -5.442      0.000      0.000
REMARK INTER + INTRA:          -7.542
REMARK INTER:                  -6.874
REMARK INTRA:                  -0.668
REMARK UNBOUND:                -0.668
REMARK SMILES O=C(C=Cc1ccc(O)cc1)c1ccc(O)cc1O
REMARK SMILES IDX 4 1 3 2 5 3 6 4 7 5 8 6 11 7 10 8 9 9 2 11 1 12 12 13 18 14
REMARK SMILES IDX 13 15 17 16 14 17 15 18 19 19 16 21
REMARK H PARENT 9 10 19 20 16 22
REMARK Flexibility Score: inf
ROOT
ATOM      1  C   UNL     1      -7.391 -13.251  32.063  1.00  0.00     0.012 C 
ATOM      2  C   UNL     1      -6.995 -12.231  32.840  1.00  0.00     0.053 C 
ENDROOT
BRANCH   1   3
ATOM      3  C   UNL     1      -7.009 -13.399  30.636  1.00  0.00    -0.025 A 
ATOM      4  C   UNL     1      -6.214 -14.465  30.168  1.00  0.00     0.012 A 
ATOM      5  C   UNL     1      -5.875 -14.552  28.814  1.00  0.00     0.047 A 
ATOM      6  C   UNL     1      -6.314 -13.578  27.913  1.00  0.00     0.115 A 
ATOM      7  C   UNL     1      -7.432 -12.417  29.725  1.00  0.00     0.012 A 
ATOM      8  C   UNL     1      -7.092 -12.508  28.372  1.00  0.00     0.047 A 
BRANCH   6   9
ATOM      9  O   UNL     1      -5.968 -13.679  26.567  1.00  0.00    -0.508 OA
ATOM     10  H   UNL     1      -5.507 -12.920  26.081  1.00  0.00     0.293 HD
ENDBRANCH   6   9
ENDBRANCH   1   3
BRANCH   2  11
ATOM     11  C   UNL     1      -7.390 -12.107  34.259  1.00  0.00     0.189 C 
ATOM     12  O   UNL     1      -7.639 -10.957  34.710  1.00  0.00    -0.289 OA
BRANCH  11  13
ATOM     13  C   UNL     1      -7.512 -13.271  35.168  1.00  0.00     0.064 A 
ATOM     14  C   UNL     1      -8.693 -13.513  35.899  1.00  0.00     0.130 A 
ATOM     15  C   UNL     1      -6.442 -14.175  35.269  1.00  0.00     0.020 A 
ATOM     16  C   UNL     1      -8.771 -14.626  36.750  1.00  0.00     0.093 A 
ATOM     17  C   UNL     1      -6.530 -15.283  36.116  1.00  0.00     0.047 A 
ATOM     18  C   UNL     1      -7.693 -15.509  36.862  1.00  0.00     0.119 A 
BRANCH  14  19
ATOM     19  O   UNL     1      -9.792 -12.665  35.766  1.00  0.00    -0.507 OA
ATOM     20  H   UNL     1     -10.700 -12.906  36.146  1.00  0.00     0.293 HD
ENDBRANCH  14  19
BRANCH  18  21
ATOM     21  O   UNL     1      -7.789 -16.609  37.711  1.00  0.00    -0.508 OA
ATOM     22  H   UNL     1      -7.219 -16.685  38.545  1.00  0.00     0.293 HD
ENDBRANCH  18  21
ENDBRANCH  11  13
ENDBRANCH   2  11
TORSDOF 6
ENDMDL
MODEL 2
REMARK VINA RESULT:    -4.977      2.526      8.147
REMARK INTER + INTRA:          -6.955
REMARK INTER:                  -6.444
REMARK INTRA:                  -0.511
REMARK UNBOUND:                -0.668
REMARK SMILES O=C(C=Cc1ccc(O)cc1)c1ccc(O)cc1O
REMARK SMILES IDX 4 1 3 2 5 3 6 4 7 5 8 6 11 7 10 8 9 9 2 11 1 12 12 13 18 14
REMARK SMILES IDX 13 15 17 16 14 17 15 18 19 19 16 21
REMARK H PARENT 9 10 19 20 16 22
REMARK Flexibility Score: inf
ROOT
ATOM      1  C   UNL     1      -6.554 -13.802  31.557  1.00  0.00     0.012 C 
ATOM      2  C   UNL     1      -6.189 -13.428  30.321  1.00  0.00     0.053 C 
ENDROOT
BRANCH   1   3
ATOM      3  C   UNL     1      -6.689 -12.864  32.698  1.00  0.00    -0.025 A 
ATOM      4  C   UNL     1      -6.925 -13.301  34.017  1.00  0.00     0.012 A 
ATOM      5  C   UNL     1      -7.055 -12.373  35.056  1.00  0.00     0.047 A 
ATOM      6  C   UNL     1      -6.960 -11.003  34.795  1.00  0.00     0.115 A 
ATOM      7  C   UNL     1      -6.612 -11.484  32.443  1.00  0.00     0.012 A 
ATOM      8  C   UNL     1      -6.741 -10.560  33.485  1.00  0.00     0.047 A 
BRANCH   6   9
ATOM      9  O   UNL     1      -7.092 -10.092  35.841  1.00  0.00    -0.508 OA
ATOM     10  H   UNL     1      -7.168 -10.399  36.803  1.00  0.00     0.293 HD
ENDBRANCH   6   9
ENDBRANCH   1   3
BRANCH   2  11
ATOM     11  C   UNL     1      -6.061 -14.384  29.200  1.00  0.00     0.189 C 
ATOM     12  O   UNL     1      -5.876 -15.600  29.473  1.00  0.00    -0.289 OA
BRANCH  11  13
ATOM     13  C   UNL     1      -6.148 -13.978  27.779  1.00  0.00     0.064 A 
ATOM     14  C   UNL     1      -6.541 -14.889  26.776  1.00  0.00     0.130 A 
ATOM     15  C   UNL     1      -5.876 -12.645  27.429  1.00  0.00     0.020 A 
ATOM     16  C   UNL     1      -6.611 -14.467  25.439  1.00  0.00     0.093 A 
ATOM     17  C   UNL     1      -5.953 -12.233  26.097  1.00  0.00     0.047 A 
ATOM     18  C   UNL     1      -6.317 -13.144  25.097  1.00  0.00     0.119 A 
BRANCH  14  19
ATOM     19  O   UNL     1      -6.877 -16.201  27.107  1.00  0.00    -0.507 OA
ATOM     20  H   UNL     1      -6.826 -16.951  26.427  1.00  0.00     0.293 HD
ENDBRANCH  14  19
BRANCH  18  21
ATOM     21  O   UNL     1      -6.393 -12.743  23.765  1.00  0.00    -0.508 OA
ATOM     22  H   UNL     1      -7.019 -12.004  23.470  1.00  0.00     0.293 HD
ENDBRANCH  18  21
ENDBRANCH  11  13
ENDBRANCH   2  11
TORSDOF 6
ENDMDL
MODEL 3
REMARK VINA RESULT:    -4.931      2.710      4.205
REMARK INTER + INTRA:          -6.896
REMARK INTER:                  -6.283
REMARK INTRA:                  -0.614
REMARK UNBOUND:                -0.668
REMARK SMILES O=C(C=Cc1ccc(O)cc1)c1ccc(O)cc1O
REMARK SMILES IDX 4 1 3 2 5 3 6 4 7 5 8 6 11 7 10 8 9 9 2 11 1 12 12 13 18 14
REMARK SMILES IDX 13 15 17 16 14 17 15 18 19 19 16 21
REMARK H PARENT 9 10 19 20 16 22
REMARK Flexibility Score: inf
ROOT
ATOM      1  C   UNL     1      -6.079 -13.611  29.805  1.00  0.00     0.012 C 
ATOM      2  C   UNL     1      -6.716 -12.701  30.558  1.00  0.00     0.053 C 
ENDROOT
BRANCH   1   3
ATOM      3  C   UNL     1      -6.180 -13.676  28.326  1.00  0.00    -0.025 A 
ATOM      4  C   UNL     1      -6.185 -14.895  27.617  1.00  0.00     0.012 A 
ATOM      5  C   UNL     1      -6.273 -14.900  26.221  1.00  0.00     0.047 A 
ATOM      6  C   UNL     1      -6.347 -13.697  25.514  1.00  0.00     0.115 A 
ATOM      7  C   UNL     1      -6.239 -12.471  27.605  1.00  0.00     0.012 A 
ATOM      8  C   UNL     1      -6.328 -12.481  26.209  1.00  0.00     0.047 A 
BRANCH   6   9
ATOM      9  O   UNL     1      -6.435 -13.719  24.124  1.00  0.00    -0.508 OA
ATOM     10  H   UNL     1      -7.281 -14.013  23.652  1.00  0.00     0.293 HD
ENDBRANCH   6   9
ENDBRANCH   1   3
BRANCH   2  11
ATOM     11  C   UNL     1      -6.598 -12.659  32.031  1.00  0.00     0.189 C 
ATOM     12  O   UNL     1      -6.444 -13.747  32.648  1.00  0.00    -0.289 OA
BRANCH  11  13
ATOM     13  C   UNL     1      -6.646 -11.399  32.808  1.00  0.00     0.064 A 
ATOM     14  C   UNL     1      -7.282 -11.333  34.065  1.00  0.00     0.130 A 
ATOM     15  C   UNL     1      -6.006 -10.257  32.301  1.00  0.00     0.020 A 
ATOM     16  C   UNL     1      -7.307 -10.121  34.772  1.00  0.00     0.093 A 
ATOM     17  C   UNL     1      -6.031  -9.055  33.013  1.00  0.00     0.047 A 
ATOM     18  C   UNL     1      -6.686  -8.983  34.249  1.00  0.00     0.119 A 
BRANCH  14  19
ATOM     19  O   UNL     1      -7.870 -12.470  34.619  1.00  0.00    -0.507 OA
ATOM     20  H   UNL     1      -8.674 -12.915  34.192  1.00  0.00     0.293 HD
ENDBRANCH  14  19
BRANCH  18  21
ATOM     21  O   UNL     1      -6.721  -7.789  34.966  1.00  0.00    -0.508 OA
ATOM     22  H   UNL     1      -5.875  -7.360  35.321  1.00  0.00     0.293 HD
ENDBRANCH  18  21
ENDBRANCH  11  13
ENDBRANCH   2  11
TORSDOF 6
ENDMDL
MODEL 4
REMARK VINA RESULT:    -4.802      3.507      5.203
REMARK INTER + INTRA:          -6.733
REMARK INTER:                  -6.330
REMARK INTRA:                  -0.402
REMARK UNBOUND:                -0.668
REMARK SMILES O=C(C=Cc1ccc(O)cc1)c1ccc(O)cc1O
REMARK SMILES IDX 4 1 3 2 5 3 6 4 7 5 8 6 11 7 10 8 9 9 2 11 1 12 12 13 18 14
REMARK SMILES IDX 13 15 17 16 14 17 15 18 19 19 16 21
REMARK H PARENT 9 10 19 20 16 22
REMARK Flexibility Score: inf
ROOT
ATOM      1  C   UNL     1      -7.037 -13.299  34.983  1.00  0.00     0.012 C 
ATOM      2  C   UNL     1      -6.130 -14.285  34.910  1.00  0.00     0.053 C 
ENDROOT
BRANCH   1   3
ATOM      3  C   UNL     1      -6.890 -11.990  34.299  1.00  0.00    -0.025 A 
ATOM      4  C   UNL     1      -6.329 -11.863  33.012  1.00  0.00     0.012 A 
ATOM      5  C   UNL     1      -6.205 -10.603  32.416  1.00  0.00     0.047 A 
ATOM      6  C   UNL     1      -6.628  -9.457  33.095  1.00  0.00     0.115 A 
ATOM      7  C   UNL     1      -7.297 -10.830  34.979  1.00  0.00     0.012 A 
ATOM      8  C   UNL     1      -7.172  -9.573  34.380  1.00  0.00     0.047 A 
BRANCH   6   9
ATOM      9  O   UNL     1      -6.497  -8.210  32.487  1.00  0.00    -0.508 OA
ATOM     10  H   UNL     1      -6.045  -7.437  32.960  1.00  0.00     0.293 HD
ENDBRANCH   6   9
ENDBRANCH   1   3
BRANCH   2  11
ATOM     11  C   UNL     1      -6.300 -15.581  35.602  1.00  0.00     0.189 C 
ATOM     12  O   UNL     1      -6.516 -15.569  36.844  1.00  0.00    -0.289 OA
BRANCH  11  13
ATOM     13  C   UNL     1      -6.236 -16.884  34.902  1.00  0.00     0.064 A 
ATOM     14  C   UNL     1      -6.506 -18.095  35.574  1.00  0.00     0.130 A 
ATOM     15  C   UNL     1      -5.940 -16.911  33.530  1.00  0.00     0.020 A 
ATOM     16  C   UNL     1      -6.434 -19.310  34.877  1.00  0.00     0.093 A 
ATOM     17  C   UNL     1      -5.875 -18.125  32.842  1.00  0.00     0.047 A 
ATOM     18  C   UNL     1      -6.117 -19.329  33.516  1.00  0.00     0.119 A 
BRANCH  14  19
ATOM     19  O   UNL     1      -6.864 -18.089  36.922  1.00  0.00    -0.507 OA
ATOM     20  H   UNL     1      -6.439 -18.724  37.588  1.00  0.00     0.293 HD
ENDBRANCH  14  19
BRANCH  18  21
ATOM     21  O   UNL     1      -6.052 -20.546  32.841  1.00  0.00    -0.508 OA
ATOM     22  H   UNL     1      -5.991 -20.588  31.830  1.00  0.00     0.293 HD
ENDBRANCH  18  21
ENDBRANCH  11  13
ENDBRANCH   2  11
TORSDOF 6
ENDMDL
MODEL 5
REMARK VINA RESULT:    -4.574      2.337      8.003
REMARK INTER + INTRA:          -6.445
REMARK INTER:                  -5.938
REMARK INTRA:                  -0.507
REMARK UNBOUND:                -0.668
REMARK SMILES O=C(C=Cc1ccc(O)cc1)c1ccc(O)cc1O
REMARK SMILES IDX 4 1 3 2 5 3 6 4 7 5 8 6 11 7 10 8 9 9 2 11 1 12 12 13 18 14
REMARK SMILES IDX 13 15 17 16 14 17 15 18 19 19 16 21
REMARK H PARENT 9 10 19 20 16 22
REMARK Flexibility Score: inf
ROOT
ATOM      1  C   UNL     1      -6.544 -12.170  30.095  1.00  0.00     0.012 C 
ATOM      2  C   UNL     1      -6.312 -13.299  29.409  1.00  0.00     0.053 C 
ENDROOT
BRANCH   1   3
ATOM      3  C   UNL     1      -6.729 -12.121  31.567  1.00  0.00    -0.025 A 
ATOM      4  C   UNL     1      -7.251 -13.203  32.304  1.00  0.00     0.012 A 
ATOM      5  C   UNL     1      -7.414 -13.101  33.689  1.00  0.00     0.047 A 
ATOM      6  C   UNL     1      -7.070 -11.922  34.356  1.00  0.00     0.115 A 
ATOM      7  C   UNL     1      -6.401 -10.934  32.244  1.00  0.00     0.012 A 
ATOM      8  C   UNL     1      -6.565 -10.837  33.629  1.00  0.00     0.047 A 
BRANCH   6   9
ATOM      9  O   UNL     1      -7.239 -11.837  35.736  1.00  0.00    -0.508 OA
ATOM     10  H   UNL     1      -6.858 -12.538  36.360  1.00  0.00     0.293 HD
ENDBRANCH   6   9
ENDBRANCH   1   3
BRANCH   2  11
ATOM     11  C   UNL     1      -6.132 -13.319  27.941  1.00  0.00     0.189 C 
ATOM     12  O   UNL     1      -5.879 -12.232  27.357  1.00  0.00    -0.289 OA
BRANCH  11  13
ATOM     13  C   UNL     1      -6.228 -14.557  27.133  1.00  0.00     0.064 A 
ATOM     14  C   UNL     1      -6.622 -14.524  25.779  1.00  0.00     0.130 A 
ATOM     15  C   UNL     1      -5.878 -15.785  27.718  1.00  0.00     0.020 A 
ATOM     16  C   UNL     1      -6.703 -15.718  25.047  1.00  0.00     0.093 A 
ATOM     17  C   UNL     1      -5.957 -16.968  26.980  1.00  0.00     0.047 A 
ATOM     18  C   UNL     1      -6.373 -16.939  25.643  1.00  0.00     0.119 A 
BRANCH  14  19
ATOM     19  O   UNL     1      -6.914 -13.309  25.159  1.00  0.00    -0.507 OA
ATOM     20  H   UNL     1      -6.190 -12.742  24.733  1.00  0.00     0.293 HD
ENDBRANCH  14  19
BRANCH  18  21
ATOM     21  O   UNL     1      -6.458 -18.113  24.899  1.00  0.00    -0.508 OA
ATOM     22  H   UNL     1      -6.572 -18.095  23.893  1.00  0.00     0.293 HD
ENDBRANCH  18  21
ENDBRANCH  11  13
ENDBRANCH   2  11
TORSDOF 6
ENDMDL
MODEL 6
REMARK VINA RESULT:    -4.425      3.505      4.688
REMARK INTER + INTRA:          -6.257
REMARK INTER:                  -5.613
REMARK INTRA:                  -0.645
REMARK UNBOUND:                -0.668
REMARK SMILES O=C(C=Cc1ccc(O)cc1)c1ccc(O)cc1O
REMARK SMILES IDX 4 1 3 2 5 3 6 4 7 5 8 6 11 7 10 8 9 9 2 11 1 12 12 13 18 14
REMARK SMILES IDX 13 15 17 16 14 17 15 18 19 19 16 21
REMARK H PARENT 9 10 19 20 16 22
REMARK Flexibility Score: inf
ROOT
ATOM      1  C   UNL     1      -6.985 -12.201  35.362  1.00  0.00     0.012 C 
ATOM      2  C   UNL     1      -6.977 -13.491  34.994  1.00  0.00     0.053 C 
ENDROOT
BRANCH   1   3
ATOM      3  C   UNL     1      -6.733 -11.074  34.429  1.00  0.00    -0.025 A 
ATOM      4  C   UNL     1      -6.871  -9.724  34.813  1.00  0.00     0.012 A 
ATOM      5  C   UNL     1      -6.631  -8.700  33.890  1.00  0.00     0.047 A 
ATOM      6  C   UNL     1      -6.261  -9.005  32.578  1.00  0.00     0.115 A 
ATOM      7  C   UNL     1      -6.377 -11.370  33.103  1.00  0.00     0.012 A 
ATOM      8  C   UNL     1      -6.137 -10.343  32.184  1.00  0.00     0.047 A 
BRANCH   6   9
ATOM      9  O   UNL     1      -6.025  -7.973  31.672  1.00  0.00    -0.508 OA
ATOM     10  H   UNL     1      -5.559  -8.141  30.789  1.00  0.00     0.293 HD
ENDBRANCH   6   9
ENDBRANCH   1   3
BRANCH   2  11
ATOM     11  C   UNL     1      -7.230 -14.595  35.944  1.00  0.00     0.189 C 
ATOM     12  O   UNL     1      -6.286 -15.390  36.199  1.00  0.00    -0.289 OA
BRANCH  11  13
ATOM     13  C   UNL     1      -8.536 -14.803  36.610  1.00  0.00     0.064 A 
ATOM     14  C   UNL     1      -8.621 -15.315  37.922  1.00  0.00     0.130 A 
ATOM     15  C   UNL     1      -9.714 -14.440  35.937  1.00  0.00     0.020 A 
ATOM     16  C   UNL     1      -9.877 -15.498  38.520  1.00  0.00     0.093 A 
ATOM     17  C   UNL     1     -10.960 -14.621  36.541  1.00  0.00     0.047 A 
ATOM     18  C   UNL     1     -11.046 -15.155  37.833  1.00  0.00     0.119 A 
BRANCH  14  19
ATOM     19  O   UNL     1      -7.463 -15.623  38.635  1.00  0.00    -0.507 OA
ATOM     20  H   UNL     1      -7.357 -15.373  39.612  1.00  0.00     0.293 HD
ENDBRANCH  14  19
BRANCH  18  21
ATOM     21  O   UNL     1     -12.283 -15.343  38.444  1.00  0.00    -0.508 OA
ATOM     22  H   UNL     1     -12.422 -15.152  39.429  1.00  0.00     0.293 HD
ENDBRANCH  18  21
ENDBRANCH  11  13
ENDBRANCH   2  11
TORSDOF 6
ENDMDL
MODEL 7
REMARK VINA RESULT:    -4.094      2.523      4.603
REMARK INTER + INTRA:          -5.839
REMARK INTER:                  -5.412
REMARK INTRA:                  -0.427
REMARK UNBOUND:                -0.668
REMARK SMILES O=C(C=Cc1ccc(O)cc1)c1ccc(O)cc1O
REMARK SMILES IDX 4 1 3 2 5 3 6 4 7 5 8 6 11 7 10 8 9 9 2 11 1 12 12 13 18 14
REMARK SMILES IDX 13 15 17 16 14 17 15 18 19 19 16 21
REMARK H PARENT 9 10 19 20 16 22
REMARK Flexibility Score: inf
ROOT
ATOM      1  C   UNL     1      -6.391 -13.332  27.785  1.00  0.00     0.012 C 
ATOM      2  C   UNL     1      -5.876 -13.259  29.021  1.00  0.00     0.053 C 
ENDROOT
BRANCH   1   3
ATOM      3  C   UNL     1      -6.252 -14.516  26.901  1.00  0.00    -0.025 A 
ATOM      4  C   UNL     1      -6.165 -14.411  25.498  1.00  0.00     0.012 A 
ATOM      5  C   UNL     1      -6.045 -15.560  24.709  1.00  0.00     0.047 A 
ATOM      6  C   UNL     1      -6.019 -16.824  25.304  1.00  0.00     0.115 A 
ATOM      7  C   UNL     1      -6.242 -15.792  27.488  1.00  0.00     0.012 A 
ATOM      8  C   UNL     1      -6.121 -16.939  26.696  1.00  0.00     0.047 A 
BRANCH   6   9
ATOM      9  O   UNL     1      -5.899 -17.959  24.505  1.00  0.00    -0.508 OA
ATOM     10  H   UNL     1      -5.979 -18.891  24.894  1.00  0.00     0.293 HD
ENDBRANCH   6   9
ENDBRANCH   1   3
BRANCH   2  11
ATOM     11  C   UNL     1      -6.028 -12.066  29.882  1.00  0.00     0.189 C 
ATOM     12  O   UNL     1      -5.875 -10.930  29.359  1.00  0.00    -0.289 OA
BRANCH  11  13
ATOM     13  C   UNL     1      -6.359 -12.148  31.323  1.00  0.00     0.064 A 
ATOM     14  C   UNL     1      -6.271 -11.019  32.164  1.00  0.00     0.130 A 
ATOM     15  C   UNL     1      -6.811 -13.367  31.854  1.00  0.00     0.020 A 
ATOM     16  C   UNL     1      -6.592 -11.136  33.525  1.00  0.00     0.093 A 
ATOM     17  C   UNL     1      -7.133 -13.474  33.209  1.00  0.00     0.047 A 
ATOM     18  C   UNL     1      -7.020 -12.359  34.050  1.00  0.00     0.119 A 
BRANCH  14  19
ATOM     19  O   UNL     1      -5.886  -9.783  31.647  1.00  0.00    -0.507 OA
ATOM     20  H   UNL     1      -5.731  -8.980  32.246  1.00  0.00     0.293 HD
ENDBRANCH  14  19
BRANCH  18  21
ATOM     21  O   UNL     1      -7.335 -12.455  35.403  1.00  0.00    -0.508 OA
ATOM     22  H   UNL     1      -8.276 -12.665  35.714  1.00  0.00     0.293 HD
ENDBRANCH  18  21
ENDBRANCH  11  13
ENDBRANCH   2  11
TORSDOF 6
ENDMDL
