MODEL 1
REMARK VINA RESULT:    -3.282      0.000      0.000
REMARK INTER + INTRA:         -11.744
REMARK INTER:                  -8.271
REMARK INTRA:                  -3.472
REMARK UNBOUND:                -3.472
REMARK SMILES CCCCCCCCCCCCCCCCCCCCCCCCCCCC(=O)[O-]
REMARK SMILES IDX 15 1 16 2 17 3 18 4 19 5 20 6 21 7 22 8 23 9 24 10 25 11
REMARK SMILES IDX 26 12 27 13 28 14 29 15 30 16 14 17 13 18 12 19 11 20 10 21
REMARK SMILES IDX 9 22 8 23 7 24 6 25 5 26 4 27 3 28 2 29 1 30
REMARK H PARENT
REMARK Flexibility Score: inf
ROOT
ATOM      1  C   UNL     1     -12.812  10.299   6.165  1.00  0.00     0.000 C 
ENDROOT
BRANCH   1   2
ATOM      2  C   UNL     1     -13.127  10.332   4.661  1.00  0.00     0.000 C 
BRANCH   2   3
ATOM      3  C   UNL     1     -14.174   9.287   4.215  1.00  0.00     0.000 C 
BRANCH   3   4
ATOM      4  C   UNL     1     -15.594   9.837   3.971  1.00  0.00     0.000 C 
BRANCH   4   5
ATOM      5  C   UNL     1     -15.786  11.260   4.519  1.00  0.00     0.000 C 
BRANCH   5   6
ATOM      6  C   UNL     1     -17.155  11.833   4.115  1.00  0.00     0.000 C 
BRANCH   6   7
ATOM      7  C   UNL     1     -18.015  10.791   3.378  1.00  0.00     0.000 C 
BRANCH   7   8
ATOM      8  C   UNL     1     -19.341  11.389   2.868  1.00  0.00     0.000 C 
BRANCH   8   9
ATOM      9  C   UNL     1     -19.633  11.032   1.396  1.00  0.00     0.000 C 
BRANCH   9  10
ATOM     10  C   UNL     1     -18.380  10.891   0.515  1.00  0.00     0.000 C 
BRANCH  10  11
ATOM     11  C   UNL     1     -18.669  11.055  -0.983  1.00  0.00     0.000 C 
BRANCH  11  12
ATOM     12  C   UNL     1     -19.412  12.366  -1.260  1.00  0.00     0.006 C 
BRANCH  12  13
ATOM     13  C   UNL     1     -18.440  13.548  -1.343  1.00  0.00     0.053 C 
BRANCH  13  14
ATOM     14  C   UNL     1     -18.835  14.623  -0.375  1.00  0.00     0.041 C 
ATOM     15  O   UNL     1     -19.069  15.789  -0.789  1.00  0.00    -0.550 OA
ATOM     16  O   UNL     1     -18.861  14.361   0.990  1.00  0.00    -0.550 OA
ENDBRANCH  13  14
ENDBRANCH  12  13
ENDBRANCH  11  12
ENDBRANCH  10  11
ENDBRANCH   9  10
ENDBRANCH   8   9
ENDBRANCH   7   8
ENDBRANCH   6   7
ENDBRANCH   5   6
ENDBRANCH   4   5
ENDBRANCH   3   4
ENDBRANCH   2   3
ENDBRANCH   1   2
BRANCH   1  17
ATOM     17  C   UNL     1     -13.335   9.021   6.847  1.00  0.00     0.000 C 
BRANCH  17  18
ATOM     18  C   UNL     1     -14.146   9.332   8.116  1.00  0.00     0.000 C 
BRANCH  18  19
ATOM     19  C   UNL     1     -15.525   9.949   7.814  1.00  0.00     0.000 C 
BRANCH  19  20
ATOM     20  C   UNL     1     -16.607   8.875   7.631  1.00  0.00     0.000 C 
BRANCH  20  21
ATOM     21  C   UNL     1     -17.875   9.457   6.988  1.00  0.00     0.000 C 
BRANCH  21  22
ATOM     22  C   UNL     1     -19.149   9.187   7.815  1.00  0.00    -0.000 C 
BRANCH  22  23
ATOM     23  C   UNL     1     -19.702  10.407   8.579  1.00  0.00    -0.000 C 
BRANCH  23  24
ATOM     24  C   UNL     1     -19.423  10.347  10.091  1.00  0.00    -0.000 C 
BRANCH  24  25
ATOM     25  C   UNL     1     -17.995  10.775  10.465  1.00  0.00    -0.000 C 
BRANCH  25  26
ATOM     26  C   UNL     1     -17.805  11.116  11.958  1.00  0.00    -0.000 C 
BRANCH  26  27
ATOM     27  C   UNL     1     -16.635  10.338  12.592  1.00  0.00    -0.000 C 
BRANCH  27  28
ATOM     28  C   UNL     1     -15.570   9.917  11.566  1.00  0.00    -0.000 C 
BRANCH  28  29
ATOM     29  C   UNL     1     -14.136  10.054  12.109  1.00  0.00    -0.003 C 
ATOM     30  C   UNL     1     -14.062  11.128  13.193  1.00  0.00     0.004 C 
ENDBRANCH  28  29
ENDBRANCH  27  28
ENDBRANCH  26  27
ENDBRANCH  25  26
ENDBRANCH  24  25
ENDBRANCH  23  24
ENDBRANCH  22  23
ENDBRANCH  21  22
ENDBRANCH  20  21
ENDBRANCH  19  20
ENDBRANCH  18  19
ENDBRANCH  17  18
ENDBRANCH   1  17
TORSDOF 26
ENDMDL
MODEL 2
REMARK VINA RESULT:    -3.072      1.890      2.140
REMARK INTER + INTRA:         -11.213
REMARK INTER:                  -7.960
REMARK INTRA:                  -3.254
REMARK UNBOUND:                -3.472
REMARK SMILES CCCCCCCCCCCCCCCCCCCCCCCCCCCC(=O)[O-]
REMARK SMILES IDX 15 1 16 2 17 3 18 4 19 5 20 6 21 7 22 8 23 9 24 10 25 11
REMARK SMILES IDX 26 12 27 13 28 14 29 15 30 16 14 17 13 18 12 19 11 20 10 21
REMARK SMILES IDX 9 22 8 23 7 24 6 25 5 26 4 27 3 28 2 29 1 30
REMARK H PARENT
REMARK Flexibility Score: inf
ROOT
ATOM      1  C   UNL     1     -12.953  10.350   6.208  1.00  0.00     0.000 C 
ENDROOT
BRANCH   1   2
ATOM      2  C   UNL     1     -13.289  10.404   4.710  1.00  0.00     0.000 C 
BRANCH   2   3
ATOM      3  C   UNL     1     -14.287   9.319   4.249  1.00  0.00     0.000 C 
BRANCH   3   4
ATOM      4  C   UNL     1     -15.730   9.807   4.008  1.00  0.00     0.000 C 
BRANCH   4   5
ATOM      5  C   UNL     1     -15.955  11.257   4.465  1.00  0.00     0.000 C 
BRANCH   5   6
ATOM      6  C   UNL     1     -17.278  11.816   3.916  1.00  0.00     0.000 C 
BRANCH   6   7
ATOM      7  C   UNL     1     -18.112  10.727   3.217  1.00  0.00     0.000 C 
BRANCH   7   8
ATOM      8  C   UNL     1     -19.263  11.323   2.383  1.00  0.00     0.000 C 
BRANCH   8   9
ATOM      9  C   UNL     1     -19.291  10.791   0.935  1.00  0.00     0.000 C 
BRANCH   9  10
ATOM     10  C   UNL     1     -17.903  10.500   0.337  1.00  0.00     0.000 C 
BRANCH  10  11
ATOM     11  C   UNL     1     -17.661  11.205  -1.005  1.00  0.00     0.000 C 
BRANCH  11  12
ATOM     12  C   UNL     1     -16.533  10.524  -1.788  1.00  0.00     0.006 C 
BRANCH  12  13
ATOM     13  C   UNL     1     -15.726  11.543  -2.600  1.00  0.00     0.053 C 
BRANCH  13  14
ATOM     14  C   UNL     1     -16.373  11.785  -3.931  1.00  0.00     0.041 C 
ATOM     15  O   UNL     1     -17.161  10.930  -4.413  1.00  0.00    -0.550 OA
ATOM     16  O   UNL     1     -16.039  12.909  -4.678  1.00  0.00    -0.550 OA
ENDBRANCH  13  14
ENDBRANCH  12  13
ENDBRANCH  11  12
ENDBRANCH  10  11
ENDBRANCH   9  10
ENDBRANCH   8   9
ENDBRANCH   7   8
ENDBRANCH   6   7
ENDBRANCH   5   6
ENDBRANCH   4   5
ENDBRANCH   3   4
ENDBRANCH   2   3
ENDBRANCH   1   2
BRANCH   1  17
ATOM     17  C   UNL     1     -13.385   9.023   6.859  1.00  0.00     0.000 C 
BRANCH  17  18
ATOM     18  C   UNL     1     -14.191   9.246   8.150  1.00  0.00     0.000 C 
BRANCH  18  19
ATOM     19  C   UNL     1     -15.533   9.962   7.907  1.00  0.00     0.000 C 
BRANCH  19  20
ATOM     20  C   UNL     1     -16.659   8.973   7.570  1.00  0.00     0.000 C 
BRANCH  20  21
ATOM     21  C   UNL     1     -17.907   9.698   7.045  1.00  0.00     0.000 C 
BRANCH  21  22
ATOM     22  C   UNL     1     -19.191   9.323   7.814  1.00  0.00    -0.000 C 
BRANCH  22  23
ATOM     23  C   UNL     1     -19.699  10.397   8.797  1.00  0.00    -0.000 C 
BRANCH  23  24
ATOM     24  C   UNL     1     -19.269  10.134  10.250  1.00  0.00    -0.000 C 
BRANCH  24  25
ATOM     25  C   UNL     1     -17.907  10.752  10.604  1.00  0.00    -0.000 C 
BRANCH  25  26
ATOM     26  C   UNL     1     -17.814  11.300  12.044  1.00  0.00    -0.000 C 
BRANCH  26  27
ATOM     27  C   UNL     1     -16.689  10.628  12.856  1.00  0.00    -0.000 C 
BRANCH  27  28
ATOM     28  C   UNL     1     -15.807   9.702  12.003  1.00  0.00    -0.000 C 
BRANCH  28  29
ATOM     29  C   UNL     1     -14.323  10.110  12.024  1.00  0.00    -0.003 C 
ATOM     30  C   UNL     1     -14.041  11.083  13.166  1.00  0.00     0.004 C 
ENDBRANCH  28  29
ENDBRANCH  27  28
ENDBRANCH  26  27
ENDBRANCH  25  26
ENDBRANCH  24  25
ENDBRANCH  23  24
ENDBRANCH  22  23
ENDBRANCH  21  22
ENDBRANCH  20  21
ENDBRANCH  19  20
ENDBRANCH  18  19
ENDBRANCH  17  18
ENDBRANCH   1  17
TORSDOF 26
ENDMDL
MODEL 3
REMARK VINA RESULT:    -2.837      3.936     10.219
REMARK INTER + INTRA:         -10.622
REMARK INTER:                  -7.411
REMARK INTRA:                  -3.210
REMARK UNBOUND:                -3.472
REMARK SMILES CCCCCCCCCCCCCCCCCCCCCCCCCCCC(=O)[O-]
REMARK SMILES IDX 15 1 16 2 17 3 18 4 19 5 20 6 21 7 22 8 23 9 24 10 25 11
REMARK SMILES IDX 26 12 27 13 28 14 29 15 30 16 14 17 13 18 12 19 11 20 10 21
REMARK SMILES IDX 9 22 8 23 7 24 6 25 5 26 4 27 3 28 2 29 1 30
REMARK H PARENT
REMARK Flexibility Score: inf
ROOT
ATOM      1  C   UNL     1     -13.416   9.633   4.185  1.00  0.00     0.000 C 
ENDROOT
BRANCH   1   2
ATOM      2  C   UNL     1     -12.731  10.634   5.127  1.00  0.00     0.000 C 
BRANCH   2   3
ATOM      3  C   UNL     1     -12.697  10.185   6.605  1.00  0.00     0.000 C 
BRANCH   3   4
ATOM      4  C   UNL     1     -13.694   9.070   6.981  1.00  0.00     0.000 C 
BRANCH   4   5
ATOM      5  C   UNL     1     -14.724   9.519   8.029  1.00  0.00     0.000 C 
BRANCH   5   6
ATOM      6  C   UNL     1     -15.845  10.354   7.387  1.00  0.00     0.000 C 
BRANCH   6   7
ATOM      7  C   UNL     1     -17.211   9.652   7.493  1.00  0.00     0.000 C 
BRANCH   7   8
ATOM      8  C   UNL     1     -17.473   9.099   8.907  1.00  0.00     0.000 C 
BRANCH   8   9
ATOM      9  C   UNL     1     -17.740  10.209   9.945  1.00  0.00     0.000 C 
BRANCH   9  10
ATOM     10  C   UNL     1     -16.747  10.232  11.120  1.00  0.00     0.000 C 
BRANCH  10  11
ATOM     11  C   UNL     1     -17.255  11.032  12.328  1.00  0.00     0.000 C 
BRANCH  11  12
ATOM     12  C   UNL     1     -16.540  10.601  13.613  1.00  0.00     0.006 C 
BRANCH  12  13
ATOM     13  C   UNL     1     -15.558   9.455  13.344  1.00  0.00     0.053 C 
BRANCH  13  14
ATOM     14  C   UNL     1     -14.143   9.928  13.496  1.00  0.00     0.041 C 
ATOM     15  O   UNL     1     -13.262   9.148  13.944  1.00  0.00    -0.550 OA
ATOM     16  O   UNL     1     -13.816  11.253  13.229  1.00  0.00    -0.550 OA
ENDBRANCH  13  14
ENDBRANCH  12  13
ENDBRANCH  11  12
ENDBRANCH  10  11
ENDBRANCH   9  10
ENDBRANCH   8   9
ENDBRANCH   7   8
ENDBRANCH   6   7
ENDBRANCH   5   6
ENDBRANCH   4   5
ENDBRANCH   3   4
ENDBRANCH   2   3
ENDBRANCH   1   2
BRANCH   1  17
ATOM     17  C   UNL     1     -14.817  10.101   3.748  1.00  0.00     0.000 C 
BRANCH  17  18
ATOM     18  C   UNL     1     -15.883   9.012   3.956  1.00  0.00     0.000 C 
BRANCH  18  19
ATOM     19  C   UNL     1     -17.323   9.547   3.842  1.00  0.00     0.000 C 
BRANCH  19  20
ATOM     20  C   UNL     1     -17.384  11.071   4.012  1.00  0.00     0.000 C 
BRANCH  20  21
ATOM     21  C   UNL     1     -18.275  11.722   2.943  1.00  0.00     0.000 C 
BRANCH  21  22
ATOM     22  C   UNL     1     -19.297  10.741   2.330  1.00  0.00    -0.000 C 
BRANCH  22  23
ATOM     23  C   UNL     1     -19.264  10.642   0.792  1.00  0.00    -0.000 C 
BRANCH  23  24
ATOM     24  C   UNL     1     -17.965  10.014   0.257  1.00  0.00    -0.000 C 
BRANCH  24  25
ATOM     25  C   UNL     1     -17.570  10.522  -1.138  1.00  0.00    -0.000 C 
BRANCH  25  26
ATOM     26  C   UNL     1     -18.559  11.541  -1.745  1.00  0.00    -0.000 C 
BRANCH  26  27
ATOM     27  C   UNL     1     -18.010  12.981  -1.711  1.00  0.00    -0.000 C 
BRANCH  27  28
ATOM     28  C   UNL     1     -19.090  14.041  -1.985  1.00  0.00    -0.000 C 
BRANCH  28  29
ATOM     29  C   UNL     1     -19.933  14.365  -0.739  1.00  0.00    -0.003 C 
ATOM     30  C   UNL     1     -19.058  14.427   0.512  1.00  0.00     0.004 C 
ENDBRANCH  28  29
ENDBRANCH  27  28
ENDBRANCH  26  27
ENDBRANCH  25  26
ENDBRANCH  24  25
ENDBRANCH  23  24
ENDBRANCH  22  23
ENDBRANCH  21  22
ENDBRANCH  20  21
ENDBRANCH  19  20
ENDBRANCH  18  19
ENDBRANCH  17  18
ENDBRANCH   1  17
TORSDOF 26
ENDMDL
MODEL 4
REMARK VINA RESULT:    -2.811      3.843     10.621
REMARK INTER + INTRA:         -10.556
REMARK INTER:                  -7.678
REMARK INTRA:                  -2.878
REMARK UNBOUND:                -3.472
REMARK SMILES CCCCCCCCCCCCCCCCCCCCCCCCCCCC(=O)[O-]
REMARK SMILES IDX 15 1 16 2 17 3 18 4 19 5 20 6 21 7 22 8 23 9 24 10 25 11
REMARK SMILES IDX 26 12 27 13 28 14 29 15 30 16 14 17 13 18 12 19 11 20 10 21
REMARK SMILES IDX 9 22 8 23 7 24 6 25 5 26 4 27 3 28 2 29 1 30
REMARK H PARENT
REMARK Flexibility Score: inf
ROOT
ATOM      1  C   UNL     1     -18.208  11.897   3.109  1.00  0.00     0.000 C 
ENDROOT
BRANCH   1   2
ATOM      2  C   UNL     1     -17.433  10.779   3.824  1.00  0.00     0.000 C 
BRANCH   2   3
ATOM      3  C   UNL     1     -16.942   9.654   2.886  1.00  0.00     0.000 C 
BRANCH   3   4
ATOM      4  C   UNL     1     -15.609   8.992   3.289  1.00  0.00     0.000 C 
BRANCH   4   5
ATOM      5  C   UNL     1     -14.555  10.008   3.755  1.00  0.00     0.000 C 
BRANCH   5   6
ATOM      6  C   UNL     1     -13.535   9.356   4.704  1.00  0.00     0.000 C 
BRANCH   6   7
ATOM      7  C   UNL     1     -13.850   9.662   6.179  1.00  0.00     0.000 C 
BRANCH   7   8
ATOM      8  C   UNL     1     -14.457  11.066   6.365  1.00  0.00     0.000 C 
BRANCH   8   9
ATOM      9  C   UNL     1     -15.877  11.032   6.968  1.00  0.00     0.000 C 
BRANCH   9  10
ATOM     10  C   UNL     1     -16.406   9.618   7.267  1.00  0.00     0.000 C 
BRANCH  10  11
ATOM     11  C   UNL     1     -17.526   9.599   8.316  1.00  0.00     0.000 C 
BRANCH  11  12
ATOM     12  C   UNL     1     -17.156  10.457   9.531  1.00  0.00     0.006 C 
BRANCH  12  13
ATOM     13  C   UNL     1     -17.947  10.031  10.773  1.00  0.00     0.053 C 
BRANCH  13  14
ATOM     14  C   UNL     1     -18.238  11.218  11.643  1.00  0.00     0.041 C 
ATOM     15  O   UNL     1     -17.438  11.536  12.561  1.00  0.00    -0.550 OA
ATOM     16  O   UNL     1     -19.431  11.917  11.497  1.00  0.00    -0.550 OA
ENDBRANCH  13  14
ENDBRANCH  12  13
ENDBRANCH  11  12
ENDBRANCH  10  11
ENDBRANCH   9  10
ENDBRANCH   8   9
ENDBRANCH   7   8
ENDBRANCH   6   7
ENDBRANCH   5   6
ENDBRANCH   4   5
ENDBRANCH   3   4
ENDBRANCH   2   3
ENDBRANCH   1   2
BRANCH   1  17
ATOM     17  C   UNL     1     -18.750  11.452   1.738  1.00  0.00     0.000 C 
BRANCH  17  18
ATOM     18  C   UNL     1     -19.662  12.514   1.102  1.00  0.00     0.000 C 
BRANCH  18  19
ATOM     19  C   UNL     1     -19.116  13.947   1.252  1.00  0.00     0.000 C 
BRANCH  19  20
ATOM     20  C   UNL     1     -18.550  14.486  -0.070  1.00  0.00     0.000 C 
BRANCH  20  21
ATOM     21  C   UNL     1     -19.515  14.237  -1.239  1.00  0.00     0.000 C 
BRANCH  21  22
ATOM     22  C   UNL     1     -18.838  13.554  -2.446  1.00  0.00    -0.000 C 
BRANCH  22  23
ATOM     23  C   UNL     1     -18.680  12.025  -2.326  1.00  0.00    -0.000 C 
BRANCH  23  24
ATOM     24  C   UNL     1     -17.209  11.573  -2.302  1.00  0.00    -0.000 C 
BRANCH  24  25
ATOM     25  C   UNL     1     -16.368  12.175  -3.439  1.00  0.00    -0.000 C 
BRANCH  25  26
ATOM     26  C   UNL     1     -16.144  11.224  -4.635  1.00  0.00    -0.000 C 
BRANCH  26  27
ATOM     27  C   UNL     1     -15.073  10.156  -4.342  1.00  0.00    -0.000 C 
BRANCH  27  28
ATOM     28  C   UNL     1     -13.679  10.758  -4.095  1.00  0.00    -0.000 C 
BRANCH  28  29
ATOM     29  C   UNL     1     -13.119  10.410  -2.705  1.00  0.00    -0.003 C 
ATOM     30  C   UNL     1     -14.106   9.550  -1.918  1.00  0.00     0.004 C 
ENDBRANCH  28  29
ENDBRANCH  27  28
ENDBRANCH  26  27
ENDBRANCH  25  26
ENDBRANCH  24  25
ENDBRANCH  23  24
ENDBRANCH  22  23
ENDBRANCH  21  22
ENDBRANCH  20  21
ENDBRANCH  19  20
ENDBRANCH  18  19
ENDBRANCH  17  18
ENDBRANCH   1  17
TORSDOF 26
ENDMDL
MODEL 5
REMARK VINA RESULT:    -2.777      3.815     11.326
REMARK INTER + INTRA:         -10.470
REMARK INTER:                  -7.554
REMARK INTRA:                  -2.917
REMARK UNBOUND:                -3.472
REMARK SMILES CCCCCCCCCCCCCCCCCCCCCCCCCCCC(=O)[O-]
REMARK SMILES IDX 15 1 16 2 17 3 18 4 19 5 20 6 21 7 22 8 23 9 24 10 25 11
REMARK SMILES IDX 26 12 27 13 28 14 29 15 30 16 14 17 13 18 12 19 11 20 10 21
REMARK SMILES IDX 9 22 8 23 7 24 6 25 5 26 4 27 3 28 2 29 1 30
REMARK H PARENT
REMARK Flexibility Score: inf
ROOT
ATOM      1  C   UNL     1     -19.252  12.301   0.637  1.00  0.00     0.000 C 
ENDROOT
BRANCH   1   2
ATOM      2  C   UNL     1     -19.741  11.494   1.849  1.00  0.00     0.000 C 
BRANCH   2   3
ATOM      3  C   UNL     1     -18.688  11.338   2.968  1.00  0.00     0.000 C 
BRANCH   3   4
ATOM      4  C   UNL     1     -17.531  10.367   2.658  1.00  0.00     0.000 C 
BRANCH   4   5
ATOM      5  C   UNL     1     -16.520  10.255   3.810  1.00  0.00     0.000 C 
BRANCH   5   6
ATOM      6  C   UNL     1     -16.417  11.575   4.591  1.00  0.00     0.000 C 
BRANCH   6   7
ATOM      7  C   UNL     1     -15.627  11.404   5.901  1.00  0.00     0.000 C 
BRANCH   7   8
ATOM      8  C   UNL     1     -16.534  10.989   7.076  1.00  0.00     0.000 C 
BRANCH   8   9
ATOM      9  C   UNL     1     -15.949   9.827   7.904  1.00  0.00     0.000 C 
BRANCH   9  10
ATOM     10  C   UNL     1     -16.356   9.835   9.388  1.00  0.00     0.000 C 
BRANCH  10  11
ATOM     11  C   UNL     1     -17.874   9.752   9.601  1.00  0.00     0.000 C 
BRANCH  11  12
ATOM     12  C   UNL     1     -18.337  10.760  10.658  1.00  0.00     0.006 C 
BRANCH  12  13
ATOM     13  C   UNL     1     -17.826  10.376  12.052  1.00  0.00     0.053 C 
BRANCH  13  14
ATOM     14  C   UNL     1     -17.238  11.570  12.743  1.00  0.00     0.041 C 
ATOM     15  O   UNL     1     -17.839  12.676  12.711  1.00  0.00    -0.550 OA
ATOM     16  O   UNL     1     -15.988  11.484  13.347  1.00  0.00    -0.550 OA
ENDBRANCH  13  14
ENDBRANCH  12  13
ENDBRANCH  11  12
ENDBRANCH  10  11
ENDBRANCH   9  10
ENDBRANCH   8   9
ENDBRANCH   7   8
ENDBRANCH   6   7
ENDBRANCH   5   6
ENDBRANCH   4   5
ENDBRANCH   3   4
ENDBRANCH   2   3
ENDBRANCH   1   2
BRANCH   1  17
ATOM     17  C   UNL     1     -19.305  13.820   0.883  1.00  0.00     0.000 C 
BRANCH  17  18
ATOM     18  C   UNL     1     -18.638  14.615  -0.251  1.00  0.00     0.000 C 
BRANCH  18  19
ATOM     19  C   UNL     1     -19.597  15.602  -0.943  1.00  0.00     0.000 C 
BRANCH  19  20
ATOM     20  C   UNL     1     -19.728  15.316  -2.446  1.00  0.00     0.000 C 
BRANCH  20  21
ATOM     21  C   UNL     1     -19.023  14.007  -2.835  1.00  0.00     0.000 C 
BRANCH  21  22
ATOM     22  C   UNL     1     -19.893  13.094  -3.724  1.00  0.00    -0.000 C 
BRANCH  22  23
ATOM     23  C   UNL     1     -20.019  11.637  -3.235  1.00  0.00    -0.000 C 
BRANCH  23  24
ATOM     24  C   UNL     1     -19.471  10.615  -4.245  1.00  0.00    -0.000 C 
BRANCH  24  25
ATOM     25  C   UNL     1     -18.306  11.156  -5.090  1.00  0.00    -0.000 C 
BRANCH  25  26
ATOM     26  C   UNL     1     -16.909  10.736  -4.587  1.00  0.00    -0.000 C 
BRANCH  26  27
ATOM     27  C   UNL     1     -16.131  11.913  -3.966  1.00  0.00    -0.000 C 
BRANCH  27  28
ATOM     28  C   UNL     1     -15.695  11.645  -2.516  1.00  0.00    -0.000 C 
BRANCH  28  29
ATOM     29  C   UNL     1     -16.811  11.011  -1.668  1.00  0.00    -0.003 C 
ATOM     30  C   UNL     1     -16.358   9.678  -1.076  1.00  0.00     0.004 C 
ENDBRANCH  28  29
ENDBRANCH  27  28
ENDBRANCH  26  27
ENDBRANCH  25  26
ENDBRANCH  24  25
ENDBRANCH  23  24
ENDBRANCH  22  23
ENDBRANCH  21  22
ENDBRANCH  20  21
ENDBRANCH  19  20
ENDBRANCH  18  19
ENDBRANCH  17  18
ENDBRANCH   1  17
TORSDOF 26
ENDMDL
MODEL 6
REMARK VINA RESULT:    -2.709      2.163      3.774
REMARK INTER + INTRA:         -10.299
REMARK INTER:                  -7.814
REMARK INTRA:                  -2.485
REMARK UNBOUND:                -3.472
REMARK SMILES CCCCCCCCCCCCCCCCCCCCCCCCCCCC(=O)[O-]
REMARK SMILES IDX 15 1 16 2 17 3 18 4 19 5 20 6 21 7 22 8 23 9 24 10 25 11
REMARK SMILES IDX 26 12 27 13 28 14 29 15 30 16 14 17 13 18 12 19 11 20 10 21
REMARK SMILES IDX 9 22 8 23 7 24 6 25 5 26 4 27 3 28 2 29 1 30
REMARK H PARENT
REMARK Flexibility Score: inf
ROOT
ATOM      1  C   UNL     1     -12.602   9.968   5.641  1.00  0.00     0.000 C 
ENDROOT
BRANCH   1   2
ATOM      2  C   UNL     1     -13.494  10.378   4.459  1.00  0.00     0.000 C 
BRANCH   2   3
ATOM      3  C   UNL     1     -13.931   9.198   3.563  1.00  0.00     0.000 C 
BRANCH   3   4
ATOM      4  C   UNL     1     -15.447   9.092   3.302  1.00  0.00     0.000 C 
BRANCH   4   5
ATOM      5  C   UNL     1     -16.231  10.301   3.834  1.00  0.00     0.000 C 
BRANCH   5   6
ATOM      6  C   UNL     1     -17.691  10.275   3.353  1.00  0.00     0.000 C 
BRANCH   6   7
ATOM      7  C   UNL     1     -18.248  11.694   3.138  1.00  0.00     0.000 C 
BRANCH   7   8
ATOM      8  C   UNL     1     -18.905  11.857   1.753  1.00  0.00     0.000 C 
BRANCH   8   9
ATOM      9  C   UNL     1     -19.032  10.523   0.989  1.00  0.00     0.000 C 
BRANCH   9  10
ATOM     10  C   UNL     1     -18.530  10.572  -0.464  1.00  0.00     0.000 C 
BRANCH  10  11
ATOM     11  C   UNL     1     -18.554  11.984  -1.066  1.00  0.00     0.000 C 
BRANCH  11  12
ATOM     12  C   UNL     1     -17.415  12.171  -2.075  1.00  0.00     0.006 C 
BRANCH  12  13
ATOM     13  C   UNL     1     -16.362  11.065  -1.934  1.00  0.00     0.053 C 
BRANCH  13  14
ATOM     14  C   UNL     1     -15.193  11.336  -2.833  1.00  0.00     0.041 C 
ATOM     15  O   UNL     1     -14.088  10.771  -2.618  1.00  0.00    -0.550 OA
ATOM     16  O   UNL     1     -15.296  12.277  -3.852  1.00  0.00    -0.550 OA
ENDBRANCH  13  14
ENDBRANCH  12  13
ENDBRANCH  11  12
ENDBRANCH  10  11
ENDBRANCH   9  10
ENDBRANCH   8   9
ENDBRANCH   7   8
ENDBRANCH   6   7
ENDBRANCH   5   6
ENDBRANCH   4   5
ENDBRANCH   3   4
ENDBRANCH   2   3
ENDBRANCH   1   2
BRANCH   1  17
ATOM     17  C   UNL     1     -13.388   9.237   6.745  1.00  0.00     0.000 C 
BRANCH  17  18
ATOM     18  C   UNL     1     -14.647  10.011   7.170  1.00  0.00     0.000 C 
BRANCH  18  19
ATOM     19  C   UNL     1     -15.219   9.537   8.520  1.00  0.00     0.000 C 
BRANCH  19  20
ATOM     20  C   UNL     1     -14.110   9.168   9.515  1.00  0.00     0.000 C 
BRANCH  20  21
ATOM     21  C   UNL     1     -14.668   8.973  10.934  1.00  0.00     0.000 C 
BRANCH  21  22
ATOM     22  C   UNL     1     -14.092   9.978  11.952  1.00  0.00    -0.000 C 
BRANCH  22  23
ATOM     23  C   UNL     1     -13.745   9.382  13.332  1.00  0.00    -0.000 C 
BRANCH  23  24
ATOM     24  C   UNL     1     -14.566  10.000  14.477  1.00  0.00    -0.000 C 
BRANCH  24  25
ATOM     25  C   UNL     1     -15.851  10.695  14.000  1.00  0.00    -0.000 C 
BRANCH  25  26
ATOM     26  C   UNL     1     -17.152   9.965  14.395  1.00  0.00    -0.000 C 
BRANCH  26  27
ATOM     27  C   UNL     1     -18.233  10.061  13.300  1.00  0.00    -0.000 C 
BRANCH  27  28
ATOM     28  C   UNL     1     -17.691  10.609  11.969  1.00  0.00    -0.000 C 
BRANCH  28  29
ATOM     29  C   UNL     1     -18.810  11.044  11.007  1.00  0.00    -0.003 C 
ATOM     30  C   UNL     1     -18.694  10.315   9.669  1.00  0.00     0.004 C 
ENDBRANCH  28  29
ENDBRANCH  27  28
ENDBRANCH  26  27
ENDBRANCH  25  26
ENDBRANCH  24  25
ENDBRANCH  23  24
ENDBRANCH  22  23
ENDBRANCH  21  22
ENDBRANCH  20  21
ENDBRANCH  19  20
ENDBRANCH  18  19
ENDBRANCH  17  18
ENDBRANCH   1  17
TORSDOF 26
ENDMDL
MODEL 7
REMARK VINA RESULT:    -2.661      3.877     10.638
REMARK INTER + INTRA:         -10.178
REMARK INTER:                  -7.007
REMARK INTRA:                  -3.171
REMARK UNBOUND:                -3.472
REMARK SMILES CCCCCCCCCCCCCCCCCCCCCCCCCCCC(=O)[O-]
REMARK SMILES IDX 15 1 16 2 17 3 18 4 19 5 20 6 21 7 22 8 23 9 24 10 25 11
REMARK SMILES IDX 26 12 27 13 28 14 29 15 30 16 14 17 13 18 12 19 11 20 10 21
REMARK SMILES IDX 9 22 8 23 7 24 6 25 5 26 4 27 3 28 2 29 1 30
REMARK H PARENT
REMARK Flexibility Score: inf
ROOT
ATOM      1  C   UNL     1     -15.307  11.539   6.029  1.00  0.00     0.000 C 
ENDROOT
BRANCH   1   2
ATOM      2  C   UNL     1     -15.480  10.528   7.173  1.00  0.00     0.000 C 
BRANCH   2   3
ATOM      3  C   UNL     1     -16.949  10.288   7.585  1.00  0.00     0.000 C 
BRANCH   3   4
ATOM      4  C   UNL     1     -17.185  10.060   9.092  1.00  0.00     0.000 C 
BRANCH   4   5
ATOM      5  C   UNL     1     -18.342   9.089   9.375  1.00  0.00     0.000 C 
BRANCH   5   6
ATOM      6  C   UNL     1     -19.429   9.752  10.236  1.00  0.00     0.000 C 
BRANCH   6   7
ATOM      7  C   UNL     1     -19.027  11.173  10.669  1.00  0.00     0.000 C 
BRANCH   7   8
ATOM      8  C   UNL     1     -19.751  11.615  11.956  1.00  0.00     0.000 C 
BRANCH   8   9
ATOM      9  C   UNL     1     -19.720  10.540  13.062  1.00  0.00     0.000 C 
BRANCH   9  10
ATOM     10  C   UNL     1     -18.378  10.434  13.807  1.00  0.00     0.000 C 
BRANCH  10  11
ATOM     11  C   UNL     1     -17.689   9.074  13.624  1.00  0.00     0.000 C 
BRANCH  11  12
ATOM     12  C   UNL     1     -16.529   9.177  12.628  1.00  0.00     0.006 C 
BRANCH  12  13
ATOM     13  C   UNL     1     -15.940  10.592  12.605  1.00  0.00     0.053 C 
BRANCH  13  14
ATOM     14  C   UNL     1     -14.444  10.537  12.522  1.00  0.00     0.041 C 
ATOM     15  O   UNL     1     -13.746  11.359  13.173  1.00  0.00    -0.550 OA
ATOM     16  O   UNL     1     -13.822   9.639  11.662  1.00  0.00    -0.550 OA
ENDBRANCH  13  14
ENDBRANCH  12  13
ENDBRANCH  11  12
ENDBRANCH  10  11
ENDBRANCH   9  10
ENDBRANCH   8   9
ENDBRANCH   7   8
ENDBRANCH   6   7
ENDBRANCH   5   6
ENDBRANCH   4   5
ENDBRANCH   3   4
ENDBRANCH   2   3
ENDBRANCH   1   2
BRANCH   1  17
ATOM     17  C   UNL     1     -15.730  10.961   4.666  1.00  0.00     0.000 C 
BRANCH  17  18
ATOM     18  C   UNL     1     -17.006  11.626   4.125  1.00  0.00     0.000 C 
BRANCH  18  19
ATOM     19  C   UNL     1     -18.022  10.615   3.561  1.00  0.00     0.000 C 
BRANCH  19  20
ATOM     20  C   UNL     1     -17.332   9.464   2.814  1.00  0.00     0.000 C 
BRANCH  20  21
ATOM     21  C   UNL     1     -17.852   9.336   1.374  1.00  0.00     0.000 C 
BRANCH  21  22
ATOM     22  C   UNL     1     -16.720   9.243   0.329  1.00  0.00    -0.000 C 
BRANCH  22  23
ATOM     23  C   UNL     1     -17.189   9.216  -1.139  1.00  0.00    -0.000 C 
BRANCH  23  24
ATOM     24  C   UNL     1     -16.559  10.331  -1.992  1.00  0.00    -0.000 C 
BRANCH  24  25
ATOM     25  C   UNL     1     -17.596  11.208  -2.711  1.00  0.00    -0.000 C 
BRANCH  25  26
ATOM     26  C   UNL     1     -17.780  12.610  -2.093  1.00  0.00    -0.000 C 
BRANCH  26  27
ATOM     27  C   UNL     1     -19.241  12.884  -1.686  1.00  0.00    -0.000 C 
BRANCH  27  28
ATOM     28  C   UNL     1     -19.665  12.114  -0.424  1.00  0.00    -0.000 C 
BRANCH  28  29
ATOM     29  C   UNL     1     -19.169  12.779   0.872  1.00  0.00    -0.003 C 
ATOM     30  C   UNL     1     -19.429  14.284   0.849  1.00  0.00     0.004 C 
ENDBRANCH  28  29
ENDBRANCH  27  28
ENDBRANCH  26  27
ENDBRANCH  25  26
ENDBRANCH  24  25
ENDBRANCH  23  24
ENDBRANCH  22  23
ENDBRANCH  21  22
ENDBRANCH  20  21
ENDBRANCH  19  20
ENDBRANCH  18  19
ENDBRANCH  17  18
ENDBRANCH   1  17
TORSDOF 26
ENDMDL
MODEL 8
REMARK VINA RESULT:    -2.628      3.631      9.542
REMARK INTER + INTRA:         -10.095
REMARK INTER:                  -6.673
REMARK INTRA:                  -3.422
REMARK UNBOUND:                -3.472
REMARK SMILES CCCCCCCCCCCCCCCCCCCCCCCCCCCC(=O)[O-]
REMARK SMILES IDX 15 1 16 2 17 3 18 4 19 5 20 6 21 7 22 8 23 9 24 10 25 11
REMARK SMILES IDX 26 12 27 13 28 14 29 15 30 16 14 17 13 18 12 19 11 20 10 21
REMARK SMILES IDX 9 22 8 23 7 24 6 25 5 26 4 27 3 28 2 29 1 30
REMARK H PARENT
REMARK Flexibility Score: inf
ROOT
ATOM      1  C   UNL     1     -13.776   9.942   4.196  1.00  0.00     0.000 C 
ENDROOT
BRANCH   1   2
ATOM      2  C   UNL     1     -13.175  10.667   5.410  1.00  0.00     0.000 C 
BRANCH   2   3
ATOM      3  C   UNL     1     -13.036   9.781   6.667  1.00  0.00     0.000 C 
BRANCH   3   4
ATOM      4  C   UNL     1     -14.254   8.889   6.986  1.00  0.00     0.000 C 
BRANCH   4   5
ATOM      5  C   UNL     1     -14.978   9.305   8.276  1.00  0.00     0.000 C 
BRANCH   5   6
ATOM      6  C   UNL     1     -15.898  10.513   8.034  1.00  0.00     0.000 C 
BRANCH   6   7
ATOM      7  C   UNL     1     -16.863  10.271   6.861  1.00  0.00     0.000 C 
BRANCH   7   8
ATOM      8  C   UNL     1     -17.873   9.146   7.162  1.00  0.00     0.000 C 
BRANCH   8   9
ATOM      9  C   UNL     1     -19.298   9.675   7.430  1.00  0.00     0.000 C 
BRANCH   9  10
ATOM     10  C   UNL     1     -19.484  10.326   8.812  1.00  0.00     0.000 C 
BRANCH  10  11
ATOM     11  C   UNL     1     -19.284   9.346   9.976  1.00  0.00     0.000 C 
BRANCH  11  12
ATOM     12  C   UNL     1     -18.310   9.915  11.013  1.00  0.00     0.006 C 
BRANCH  12  13
ATOM     13  C   UNL     1     -18.827  11.237  11.593  1.00  0.00     0.053 C 
BRANCH  13  14
ATOM     14  C   UNL     1     -17.796  11.856  12.489  1.00  0.00     0.041 C 
ATOM     15  O   UNL     1     -16.929  11.133  13.046  1.00  0.00    -0.550 OA
ATOM     16  O   UNL     1     -17.847  13.215  12.780  1.00  0.00    -0.550 OA
ENDBRANCH  13  14
ENDBRANCH  12  13
ENDBRANCH  11  12
ENDBRANCH  10  11
ENDBRANCH   9  10
ENDBRANCH   8   9
ENDBRANCH   7   8
ENDBRANCH   6   7
ENDBRANCH   5   6
ENDBRANCH   4   5
ENDBRANCH   3   4
ENDBRANCH   2   3
ENDBRANCH   1   2
BRANCH   1  17
ATOM     17  C   UNL     1     -15.210  10.409   3.883  1.00  0.00     0.000 C 
BRANCH  17  18
ATOM     18  C   UNL     1     -16.075   9.276   3.306  1.00  0.00     0.000 C 
BRANCH  18  19
ATOM     19  C   UNL     1     -17.585   9.568   3.392  1.00  0.00     0.000 C 
BRANCH  19  20
ATOM     20  C   UNL     1     -17.882  11.074   3.369  1.00  0.00     0.000 C 
BRANCH  20  21
ATOM     21  C   UNL     1     -18.757  11.457   2.165  1.00  0.00     0.000 C 
BRANCH  21  22
ATOM     22  C   UNL     1     -19.449  10.243   1.511  1.00  0.00    -0.000 C 
BRANCH  22  23
ATOM     23  C   UNL     1     -19.133  10.040   0.016  1.00  0.00    -0.000 C 
BRANCH  23  24
ATOM     24  C   UNL     1     -17.632  10.152  -0.302  1.00  0.00    -0.000 C 
BRANCH  24  25
ATOM     25  C   UNL     1     -17.288  11.340  -1.215  1.00  0.00    -0.000 C 
BRANCH  25  26
ATOM     26  C   UNL     1     -18.251  11.523  -2.408  1.00  0.00    -0.000 C 
BRANCH  26  27
ATOM     27  C   UNL     1     -19.316  12.604  -2.141  1.00  0.00    -0.000 C 
BRANCH  27  28
ATOM     28  C   UNL     1     -18.707  13.989  -1.864  1.00  0.00    -0.000 C 
BRANCH  28  29
ATOM     29  C   UNL     1     -18.725  14.358  -0.370  1.00  0.00    -0.003 C 
ATOM     30  C   UNL     1     -20.125  14.188   0.218  1.00  0.00     0.004 C 
ENDBRANCH  28  29
ENDBRANCH  27  28
ENDBRANCH  26  27
ENDBRANCH  25  26
ENDBRANCH  24  25
ENDBRANCH  23  24
ENDBRANCH  22  23
ENDBRANCH  21  22
ENDBRANCH  20  21
ENDBRANCH  19  20
ENDBRANCH  18  19
ENDBRANCH  17  18
ENDBRANCH   1  17
TORSDOF 26
ENDMDL
MODEL 9
REMARK VINA RESULT:    -2.545      3.791     11.105
REMARK INTER + INTRA:          -9.886
REMARK INTER:                  -7.214
REMARK INTRA:                  -2.672
REMARK UNBOUND:                -3.472
REMARK SMILES CCCCCCCCCCCCCCCCCCCCCCCCCCCC(=O)[O-]
REMARK SMILES IDX 15 1 16 2 17 3 18 4 19 5 20 6 21 7 22 8 23 9 24 10 25 11
REMARK SMILES IDX 26 12 27 13 28 14 29 15 30 16 14 17 13 18 12 19 11 20 10 21
REMARK SMILES IDX 9 22 8 23 7 24 6 25 5 26 4 27 3 28 2 29 1 30
REMARK H PARENT
REMARK Flexibility Score: inf
ROOT
ATOM      1  C   UNL     1     -15.324  11.499   5.815  1.00  0.00     0.000 C 
ENDROOT
BRANCH   1   2
ATOM      2  C   UNL     1     -15.492  10.559   7.018  1.00  0.00     0.000 C 
BRANCH   2   3
ATOM      3  C   UNL     1     -16.950  10.417   7.508  1.00  0.00     0.000 C 
BRANCH   3   4
ATOM      4  C   UNL     1     -17.117  10.119   9.012  1.00  0.00     0.000 C 
BRANCH   4   5
ATOM      5  C   UNL     1     -18.349   9.252   9.316  1.00  0.00     0.000 C 
BRANCH   5   6
ATOM      6  C   UNL     1     -19.240   9.906  10.385  1.00  0.00     0.000 C 
BRANCH   6   7
ATOM      7  C   UNL     1     -18.717  11.295  10.794  1.00  0.00     0.000 C 
BRANCH   7   8
ATOM      8  C   UNL     1     -19.439  11.844  12.040  1.00  0.00     0.000 C 
BRANCH   8   9
ATOM      9  C   UNL     1     -19.859  10.735  13.027  1.00  0.00     0.000 C 
BRANCH   9  10
ATOM     10  C   UNL     1     -18.828  10.444  14.132  1.00  0.00     0.000 C 
BRANCH  10  11
ATOM     11  C   UNL     1     -17.912   9.256  13.808  1.00  0.00     0.000 C 
BRANCH  11  12
ATOM     12  C   UNL     1     -16.441   9.617  14.041  1.00  0.00     0.006 C 
BRANCH  12  13
ATOM     13  C   UNL     1     -16.043  10.866  13.244  1.00  0.00     0.053 C 
BRANCH  13  14
ATOM     14  C   UNL     1     -14.632  10.746  12.751  1.00  0.00     0.041 C 
ATOM     15  O   UNL     1     -13.720  11.433  13.280  1.00  0.00    -0.550 OA
ATOM     16  O   UNL     1     -14.340   9.946  11.652  1.00  0.00    -0.550 OA
ENDBRANCH  13  14
ENDBRANCH  12  13
ENDBRANCH  11  12
ENDBRANCH  10  11
ENDBRANCH   9  10
ENDBRANCH   8   9
ENDBRANCH   7   8
ENDBRANCH   6   7
ENDBRANCH   5   6
ENDBRANCH   4   5
ENDBRANCH   3   4
ENDBRANCH   2   3
ENDBRANCH   1   2
BRANCH   1  17
ATOM     17  C   UNL     1     -15.974  10.938   4.536  1.00  0.00     0.000 C 
BRANCH  17  18
ATOM     18  C   UNL     1     -17.108  11.838   4.018  1.00  0.00     0.000 C 
BRANCH  18  19
ATOM     19  C   UNL     1     -18.211  11.056   3.282  1.00  0.00     0.000 C 
BRANCH  19  20
ATOM     20  C   UNL     1     -17.636   9.917   2.429  1.00  0.00     0.000 C 
BRANCH  20  21
ATOM     21  C   UNL     1     -18.490   9.663   1.177  1.00  0.00     0.000 C 
BRANCH  21  22
ATOM     22  C   UNL     1     -17.781  10.073  -0.131  1.00  0.00    -0.000 C 
BRANCH  22  23
ATOM     23  C   UNL     1     -18.157  11.470  -0.666  1.00  0.00    -0.000 C 
BRANCH  23  24
ATOM     24  C   UNL     1     -19.331  12.109   0.095  1.00  0.00    -0.000 C 
BRANCH  24  25
ATOM     25  C   UNL     1     -19.157  13.618   0.328  1.00  0.00    -0.000 C 
BRANCH  25  26
ATOM     26  C   UNL     1     -18.854  14.427  -0.951  1.00  0.00    -0.000 C 
BRANCH  26  27
ATOM     27  C   UNL     1     -20.125  14.725  -1.771  1.00  0.00    -0.000 C 
BRANCH  27  28
ATOM     28  C   UNL     1     -20.039  14.211  -3.217  1.00  0.00    -0.000 C 
BRANCH  28  29
ATOM     29  C   UNL     1     -18.623  13.745  -3.599  1.00  0.00    -0.003 C 
ATOM     30  C   UNL     1     -18.647  12.322  -4.156  1.00  0.00     0.004 C 
ENDBRANCH  28  29
ENDBRANCH  27  28
ENDBRANCH  26  27
ENDBRANCH  25  26
ENDBRANCH  24  25
ENDBRANCH  23  24
ENDBRANCH  22  23
ENDBRANCH  21  22
ENDBRANCH  20  21
ENDBRANCH  19  20
ENDBRANCH  18  19
ENDBRANCH  17  18
ENDBRANCH   1  17
TORSDOF 26
ENDMDL
