MODEL 1
REMARK VINA RESULT:    -1.121      0.000      0.000
REMARK INTER + INTRA:          -2.477
REMARK INTER:                  -2.824
REMARK INTRA:                   0.347
REMARK UNBOUND:                 0.347
REMARK SMILES CCCCCCCCCCCCCCCCCCCCCCCCCCCC(=O)[O-]
REMARK SMILES IDX 15 1 16 2 17 3 18 4 19 5 20 6 21 7 22 8 23 9 24 10 25 11
REMARK SMILES IDX 26 12 27 13 28 14 29 15 30 16 14 17 13 18 12 19 11 20 10 21
REMARK SMILES IDX 9 22 8 23 7 24 6 25 5 26 4 27 3 28 2 29 1 30
REMARK H PARENT
REMARK Flexibility Score: inf
ROOT
ATOM      1  C   UNL     1     121.199  70.370   0.733  1.00  0.00     0.000 C 
ENDROOT
BRANCH   1   2
ATOM      2  C   UNL     1     120.210  69.611  -0.166  1.00  0.00     0.000 C 
BRANCH   2   3
ATOM      3  C   UNL     1     120.073  68.132   0.211  1.00  0.00     0.000 C 
BRANCH   3   4
ATOM      4  C   UNL     1     121.273  67.318  -0.296  1.00  0.00     0.000 C 
BRANCH   4   5
ATOM      5  C   UNL     1     120.879  66.205  -1.284  1.00  0.00     0.000 C 
BRANCH   5   6
ATOM      6  C   UNL     1     119.875  66.617  -2.375  1.00  0.00     0.000 C 
BRANCH   6   7
ATOM      7  C   UNL     1     119.897  68.124  -2.679  1.00  0.00     0.000 C 
BRANCH   7   8
ATOM      8  C   UNL     1     120.634  68.455  -3.989  1.00  0.00     0.000 C 
BRANCH   8   9
ATOM      9  C   UNL     1     119.956  69.570  -4.813  1.00  0.00     0.000 C 
BRANCH   9  10
ATOM     10  C   UNL     1     120.482  69.628  -6.258  1.00  0.00     0.000 C 
BRANCH  10  11
ATOM     11  C   UNL     1     120.711  68.233  -6.860  1.00  0.00     0.000 C 
BRANCH  11  12
ATOM     12  C   UNL     1     119.955  68.029  -8.183  1.00  0.00     0.006 C 
BRANCH  12  13
ATOM     13  C   UNL     1     120.057  66.586  -8.692  1.00  0.00     0.053 C 
BRANCH  13  14
ATOM     14  C   UNL     1     120.840  65.717  -7.755  1.00  0.00     0.041 C 
ATOM     15  O   UNL     1     120.251  64.857  -7.046  1.00  0.00    -0.550 OA
ATOM     16  O   UNL     1     122.221  65.846  -7.676  1.00  0.00    -0.550 OA
ENDBRANCH  13  14
ENDBRANCH  12  13
ENDBRANCH  11  12
ENDBRANCH  10  11
ENDBRANCH   9  10
ENDBRANCH   8   9
ENDBRANCH   7   8
ENDBRANCH   6   7
ENDBRANCH   5   6
ENDBRANCH   4   5
ENDBRANCH   3   4
ENDBRANCH   2   3
ENDBRANCH   1   2
BRANCH   1  17
ATOM     17  C   UNL     1     121.487  71.812   0.264  1.00  0.00     0.000 C 
BRANCH  17  18
ATOM     18  C   UNL     1     120.516  72.830   0.883  1.00  0.00     0.000 C 
BRANCH  18  19
ATOM     19  C   UNL     1     120.032  72.408   2.280  1.00  0.00     0.000 C 
BRANCH  19  20
ATOM     20  C   UNL     1     120.397  73.435   3.364  1.00  0.00     0.000 C 
BRANCH  20  21
ATOM     21  C   UNL     1     120.488  72.768   4.745  1.00  0.00     0.000 C 
BRANCH  21  22
ATOM     22  C   UNL     1     120.094  71.282   4.706  1.00  0.00    -0.000 C 
BRANCH  22  23
ATOM     23  C   UNL     1     120.893  70.437   5.712  1.00  0.00    -0.000 C 
BRANCH  23  24
ATOM     24  C   UNL     1     120.992  71.089   7.103  1.00  0.00    -0.000 C 
BRANCH  24  25
ATOM     25  C   UNL     1     120.638  70.166   8.284  1.00  0.00    -0.000 C 
BRANCH  25  26
ATOM     26  C   UNL     1     119.913  70.899   9.421  1.00  0.00    -0.000 C 
BRANCH  26  27
ATOM     27  C   UNL     1     120.728  72.109   9.902  1.00  0.00    -0.000 C 
BRANCH  27  28
ATOM     28  C   UNL     1     120.652  73.307   8.937  1.00  0.00    -0.000 C 
BRANCH  28  29
ATOM     29  C   UNL     1     120.059  74.589   9.545  1.00  0.00    -0.003 C 
ATOM     30  C   UNL     1     120.303  74.705  11.049  1.00  0.00     0.004 C 
ENDBRANCH  28  29
ENDBRANCH  27  28
ENDBRANCH  26  27
ENDBRANCH  25  26
ENDBRANCH  24  25
ENDBRANCH  23  24
ENDBRANCH  22  23
ENDBRANCH  21  22
ENDBRANCH  20  21
ENDBRANCH  19  20
ENDBRANCH  18  19
ENDBRANCH  17  18
ENDBRANCH   1  17
TORSDOF 26
ENDMDL
