MODEL 1
REMARK VINA RESULT:    -3.154      0.000      0.000
REMARK INTER + INTRA:          -3.465
REMARK INTER:                  -3.430
REMARK INTRA:                  -0.035
REMARK UNBOUND:                -0.035
REMARK SMILES O=C([O-])c1ccc(O)cc1
REMARK SMILES IDX 7 1 6 2 9 3 5 4 10 5 4 6 8 7 2 9 1 10 3 11
REMARK H PARENT 8 8
REMARK Flexibility Score: inf
ROOT
ATOM      1  C   UNL     1     140.588 128.274 131.056  1.00  0.00     0.115 A 
ATOM      2  C   UNL     1     139.604 128.066 132.031  1.00  0.00     0.047 A 
ATOM      3  C   UNL     1     140.247 128.202 129.703  1.00  0.00     0.047 A 
ATOM      4  C   UNL     1     138.287 127.789 131.654  1.00  0.00     0.014 A 
ATOM      5  C   UNL     1     138.931 127.924 129.321  1.00  0.00     0.014 A 
ATOM      6  C   UNL     1     137.936 127.715 130.294  1.00  0.00    -0.003 A 
ENDROOT
BRANCH   1   7
ATOM      7  O   UNL     1     141.904 128.552 131.421  1.00  0.00    -0.508 OA
ATOM      8  H   UNL     1     142.410 129.334 131.022  1.00  0.00     0.293 HD
ENDBRANCH   1   7
BRANCH   6   9
ATOM      9  C   UNL     1     136.542 127.422 129.896  1.00  0.00     0.071 C 
ATOM     10  O   UNL     1     135.591 127.626 130.696  1.00  0.00    -0.545 OA
ATOM     11  O   UNL     1     136.262 126.917 128.632  1.00  0.00    -0.545 OA
ENDBRANCH   6   9
TORSDOF 2
ENDMDL
MODEL 2
REMARK VINA RESULT:    -3.142      0.073      1.533
REMARK INTER + INTRA:          -3.453
REMARK INTER:                  -3.418
REMARK INTRA:                  -0.035
REMARK UNBOUND:                -0.035
REMARK SMILES O=C([O-])c1ccc(O)cc1
REMARK SMILES IDX 7 1 6 2 9 3 5 4 10 5 4 6 8 7 2 9 1 10 3 11
REMARK H PARENT 8 8
REMARK Flexibility Score: inf
ROOT
ATOM      1  C   UNL     1     140.598 128.258 131.037  1.00  0.00     0.115 A 
ATOM      2  C   UNL     1     140.225 128.210 129.688  1.00  0.00     0.047 A 
ATOM      3  C   UNL     1     139.641 128.029 132.028  1.00  0.00     0.047 A 
ATOM      4  C   UNL     1     138.901 127.932 129.333  1.00  0.00     0.014 A 
ATOM      5  C   UNL     1     138.316 127.752 131.679  1.00  0.00     0.014 A 
ATOM      6  C   UNL     1     137.932 127.700 130.326  1.00  0.00    -0.003 A 
ENDROOT
BRANCH   1   7
ATOM      7  O   UNL     1     141.915 128.533 131.400  1.00  0.00    -0.508 OA
ATOM      8  H   UNL     1     142.204 128.547 132.372  1.00  0.00     0.293 HD
ENDBRANCH   1   7
BRANCH   6   9
ATOM      9  C   UNL     1     136.532 127.407 129.950  1.00  0.00     0.071 C 
ATOM     10  O   UNL     1     135.606 127.503 130.799  1.00  0.00    -0.545 OA
ATOM     11  O   UNL     1     136.218 127.021 128.652  1.00  0.00    -0.545 OA
ENDBRANCH   6   9
TORSDOF 2
ENDMDL
MODEL 3
REMARK VINA RESULT:    -2.256      1.197      4.108
REMARK INTER + INTRA:          -2.488
REMARK INTER:                  -2.455
REMARK INTRA:                  -0.033
REMARK UNBOUND:                -0.035
REMARK SMILES O=C([O-])c1ccc(O)cc1
REMARK SMILES IDX 7 1 6 2 9 3 5 4 10 5 4 6 8 7 2 9 1 10 3 11
REMARK H PARENT 8 8
REMARK Flexibility Score: inf
ROOT
ATOM      1  C   UNL     1     136.412 127.179 129.161  1.00  0.00     0.115 A 
ATOM      2  C   UNL     1     136.357 127.111 130.560  1.00  0.00     0.047 A 
ATOM      3  C   UNL     1     137.580 127.622 128.535  1.00  0.00     0.047 A 
ATOM      4  C   UNL     1     137.465 127.485 131.326  1.00  0.00     0.014 A 
ATOM      5  C   UNL     1     138.689 127.998 129.297  1.00  0.00     0.014 A 
ATOM      6  C   UNL     1     138.644 127.932 130.703  1.00  0.00    -0.003 A 
ENDROOT
BRANCH   1   7
ATOM      7  O   UNL     1     135.314 126.808 128.389  1.00  0.00    -0.508 OA
ATOM      8  H   UNL     1     135.429 126.371 127.481  1.00  0.00     0.293 HD
ENDBRANCH   1   7
BRANCH   6   9
ATOM      9  C   UNL     1     139.815 128.328 131.515  1.00  0.00     0.071 C 
ATOM     10  O   UNL     1     139.661 128.883 132.635  1.00  0.00    -0.545 OA
ATOM     11  O   UNL     1     141.105 128.090 131.053  1.00  0.00    -0.545 OA
ENDBRANCH   6   9
TORSDOF 2
ENDMDL
MODEL 4
REMARK VINA RESULT:    -2.227      1.012      4.088
REMARK INTER + INTRA:          -2.457
REMARK INTER:                  -2.423
REMARK INTRA:                  -0.034
REMARK UNBOUND:                -0.035
REMARK SMILES O=C([O-])c1ccc(O)cc1
REMARK SMILES IDX 7 1 6 2 9 3 5 4 10 5 4 6 8 7 2 9 1 10 3 11
REMARK H PARENT 8 8
REMARK Flexibility Score: inf
ROOT
ATOM      1  C   UNL     1     136.835 127.530 130.633  1.00  0.00     0.115 A 
ATOM      2  C   UNL     1     137.573 127.864 131.776  1.00  0.00     0.047 A 
ATOM      3  C   UNL     1     137.483 127.416 129.400  1.00  0.00     0.047 A 
ATOM      4  C   UNL     1     138.951 128.082 131.685  1.00  0.00     0.014 A 
ATOM      5  C   UNL     1     138.860 127.634 129.304  1.00  0.00     0.014 A 
ATOM      6  C   UNL     1     139.610 127.969 130.448  1.00  0.00    -0.003 A 
ENDROOT
BRANCH   1   7
ATOM      7  O   UNL     1     135.462 127.310 130.713  1.00  0.00    -0.508 OA
ATOM      8  H   UNL     1     134.960 127.410 131.587  1.00  0.00     0.293 HD
ENDBRANCH   1   7
BRANCH   6   9
ATOM      9  C   UNL     1     141.068 128.199 130.353  1.00  0.00     0.071 C 
ATOM     10  O   UNL     1     141.811 128.027 131.355  1.00  0.00    -0.545 OA
ATOM     11  O   UNL     1     141.640 128.610 129.154  1.00  0.00    -0.545 OA
ENDBRANCH   6   9
TORSDOF 2
ENDMDL
MODEL 5
REMARK VINA RESULT:    -2.190      1.169      4.356
REMARK INTER + INTRA:          -2.417
REMARK INTER:                  -2.385
REMARK INTRA:                  -0.033
REMARK UNBOUND:                -0.035
REMARK SMILES O=C([O-])c1ccc(O)cc1
REMARK SMILES IDX 7 1 6 2 9 3 5 4 10 5 4 6 8 7 2 9 1 10 3 11
REMARK H PARENT 8 8
REMARK Flexibility Score: inf
ROOT
ATOM      1  C   UNL     1     136.525 127.210 129.078  1.00  0.00     0.115 A 
ATOM      2  C   UNL     1     137.689 127.717 128.485  1.00  0.00     0.047 A 
ATOM      3  C   UNL     1     136.459 127.073 130.466  1.00  0.00     0.047 A 
ATOM      4  C   UNL     1     138.780 128.083 129.279  1.00  0.00     0.014 A 
ATOM      5  C   UNL     1     137.547 127.437 131.263  1.00  0.00     0.014 A 
ATOM      6  C   UNL     1     138.721 127.947 130.677  1.00  0.00    -0.003 A 
ENDROOT
BRANCH   1   7
ATOM      7  O   UNL     1     135.431 126.843 128.296  1.00  0.00    -0.508 OA
ATOM      8  H   UNL     1     135.441 125.998 127.736  1.00  0.00     0.293 HD
ENDBRANCH   1   7
BRANCH   6   9
ATOM      9  C   UNL     1     139.876 128.335 131.515  1.00  0.00     0.071 C 
ATOM     10  O   UNL     1     139.700 128.861 132.646  1.00  0.00    -0.545 OA
ATOM     11  O   UNL     1     141.174 128.124 131.066  1.00  0.00    -0.545 OA
ENDBRANCH   6   9
TORSDOF 2
ENDMDL
