MODEL 1
REMARK VINA RESULT:    -4.647      0.000      0.000
REMARK INTER + INTRA:         -14.122
REMARK INTER:                 -10.624
REMARK INTRA:                  -3.498
REMARK UNBOUND:                -3.498
REMARK SMILES CCCCCCCCCCCCCCCCCCCCCCCC(=O)[O-]
REMARK SMILES IDX 13 1 14 2 15 3 16 4 17 5 18 6 19 7 20 8 21 9 22 10 23 11
REMARK SMILES IDX 24 12 25 13 26 14 12 15 11 16 10 17 9 18 8 19 7 20 6 21 5 22
REMARK SMILES IDX 4 23 3 24 2 25 1 26
REMARK H PARENT
REMARK Flexibility Score: inf
ROOT
ATOM      1  C   UNL     1       7.664  53.439  -1.208  1.00  0.00     0.000 C 
ENDROOT
BRANCH   1   2
ATOM      2  C   UNL     1       8.040  52.046  -1.739  1.00  0.00     0.000 C 
BRANCH   2   3
ATOM      3  C   UNL     1       9.370  51.494  -1.181  1.00  0.00     0.000 C 
BRANCH   3   4
ATOM      4  C   UNL     1      10.587  52.301  -1.666  1.00  0.00     0.000 C 
BRANCH   4   5
ATOM      5  C   UNL     1      11.642  52.505  -0.561  1.00  0.00     0.000 C 
BRANCH   5   6
ATOM      6  C   UNL     1      11.251  51.919   0.809  1.00  0.00     0.000 C 
BRANCH   6   7
ATOM      7  C   UNL     1      11.593  52.865   1.976  1.00  0.00     0.000 C 
BRANCH   7   8
ATOM      8  C   UNL     1      10.334  53.463   2.640  1.00  0.00     0.000 C 
BRANCH   8   9
ATOM      9  C   UNL     1       9.021  52.876   2.098  1.00  0.00     0.000 C 
BRANCH   9  10
ATOM     10  C   UNL     1       7.853  53.015   3.087  1.00  0.00     0.006 C 
BRANCH  10  11
ATOM     11  C   UNL     1       7.652  54.467   3.542  1.00  0.00     0.053 C 
BRANCH  11  12
ATOM     12  C   UNL     1       6.945  55.276   2.499  1.00  0.00     0.041 C 
ATOM     13  O   UNL     1       5.687  55.285   2.446  1.00  0.00    -0.550 OA
ATOM     14  O   UNL     1       7.676  55.998   1.563  1.00  0.00    -0.550 OA
ENDBRANCH  11  12
ENDBRANCH  10  11
ENDBRANCH   9  10
ENDBRANCH   8   9
ENDBRANCH   7   8
ENDBRANCH   6   7
ENDBRANCH   5   6
ENDBRANCH   4   5
ENDBRANCH   3   4
ENDBRANCH   2   3
ENDBRANCH   1   2
BRANCH   1  15
ATOM     15  C   UNL     1       6.244  53.499  -0.620  1.00  0.00     0.000 C 
BRANCH  15  16
ATOM     16  C   UNL     1       5.846  52.204   0.122  1.00  0.00     0.000 C 
BRANCH  16  17
ATOM     17  C   UNL     1       4.587  52.347   0.996  1.00  0.00     0.000 C 
BRANCH  17  18
ATOM     18  C   UNL     1       4.107  51.047   1.669  1.00  0.00    -0.000 C 
BRANCH  18  19
ATOM     19  C   UNL     1       2.738  50.528   1.189  1.00  0.00    -0.000 C 
BRANCH  19  20
ATOM     20  C   UNL     1       2.094  51.436   0.127  1.00  0.00    -0.000 C 
BRANCH  20  21
ATOM     21  C   UNL     1       2.071  50.797  -1.274  1.00  0.00    -0.000 C 
BRANCH  21  22
ATOM     22  C   UNL     1       3.146  51.317  -2.250  1.00  0.00    -0.000 C 
BRANCH  22  23
ATOM     23  C   UNL     1       2.811  51.163  -3.748  1.00  0.00    -0.000 C 
BRANCH  23  24
ATOM     24  C   UNL     1       3.960  51.520  -4.709  1.00  0.00    -0.000 C 
BRANCH  24  25
ATOM     25  C   UNL     1       5.202  52.048  -3.979  1.00  0.00    -0.003 C 
ATOM     26  C   UNL     1       5.406  53.536  -4.249  1.00  0.00     0.004 C 
ENDBRANCH  24  25
ENDBRANCH  23  24
ENDBRANCH  22  23
ENDBRANCH  21  22
ENDBRANCH  20  21
ENDBRANCH  19  20
ENDBRANCH  18  19
ENDBRANCH  17  18
ENDBRANCH  16  17
ENDBRANCH  15  16
ENDBRANCH   1  15
TORSDOF 22
ENDMDL
MODEL 2
REMARK VINA RESULT:    -4.620      1.933      6.908
REMARK INTER + INTRA:         -14.061
REMARK INTER:                  -9.981
REMARK INTRA:                  -4.080
REMARK UNBOUND:                -3.498
REMARK SMILES CCCCCCCCCCCCCCCCCCCCCCCC(=O)[O-]
REMARK SMILES IDX 13 1 14 2 15 3 16 4 17 5 18 6 19 7 20 8 21 9 22 10 23 11
REMARK SMILES IDX 24 12 25 13 26 14 12 15 11 16 10 17 9 18 8 19 7 20 6 21 5 22
REMARK SMILES IDX 4 23 3 24 2 25 1 26
REMARK H PARENT
REMARK Flexibility Score: inf
ROOT
ATOM      1  C   UNL     1       4.938  51.774   0.729  1.00  0.00     0.000 C 
ENDROOT
BRANCH   1   2
ATOM      2  C   UNL     1       3.808  51.138   1.556  1.00  0.00     0.000 C 
BRANCH   2   3
ATOM      3  C   UNL     1       2.572  50.725   0.726  1.00  0.00     0.000 C 
BRANCH   3   4
ATOM      4  C   UNL     1       1.980  51.904  -0.065  1.00  0.00     0.000 C 
BRANCH   4   5
ATOM      5  C   UNL     1       2.164  51.749  -1.587  1.00  0.00     0.000 C 
BRANCH   5   6
ATOM      6  C   UNL     1       2.278  53.080  -2.354  1.00  0.00     0.000 C 
BRANCH   6   7
ATOM      7  C   UNL     1       3.506  53.906  -1.927  1.00  0.00     0.000 C 
BRANCH   7   8
ATOM      8  C   UNL     1       3.133  55.343  -1.503  1.00  0.00     0.000 C 
BRANCH   8   9
ATOM      9  C   UNL     1       2.868  55.486   0.004  1.00  0.00     0.000 C 
BRANCH   9  10
ATOM     10  C   UNL     1       4.134  55.293   0.853  1.00  0.00     0.006 C 
BRANCH  10  11
ATOM     11  C   UNL     1       5.281  56.202   0.393  1.00  0.00     0.053 C 
BRANCH  11  12
ATOM     12  C   UNL     1       6.336  56.332   1.448  1.00  0.00     0.041 C 
ATOM     13  O   UNL     1       7.339  57.068   1.256  1.00  0.00    -0.550 OA
ATOM     14  O   UNL     1       6.228  55.615   2.634  1.00  0.00    -0.550 OA
ENDBRANCH  11  12
ENDBRANCH  10  11
ENDBRANCH   9  10
ENDBRANCH   8   9
ENDBRANCH   7   8
ENDBRANCH   6   7
ENDBRANCH   5   6
ENDBRANCH   4   5
ENDBRANCH   3   4
ENDBRANCH   2   3
ENDBRANCH   1   2
BRANCH   1  15
ATOM     15  C   UNL     1       6.131  52.231   1.586  1.00  0.00     0.000 C 
BRANCH  15  16
ATOM     16  C   UNL     1       7.266  52.859   0.749  1.00  0.00     0.000 C 
BRANCH  16  17
ATOM     17  C   UNL     1       6.927  53.022  -0.743  1.00  0.00     0.000 C 
BRANCH  17  18
ATOM     18  C   UNL     1       8.088  52.732  -1.714  1.00  0.00    -0.000 C 
BRANCH  18  19
ATOM     19  C   UNL     1       9.193  51.815  -1.158  1.00  0.00    -0.000 C 
BRANCH  19  20
ATOM     20  C   UNL     1      10.603  52.241  -1.601  1.00  0.00    -0.000 C 
BRANCH  20  21
ATOM     21  C   UNL     1      11.618  52.255  -0.443  1.00  0.00    -0.000 C 
BRANCH  21  22
ATOM     22  C   UNL     1      11.012  52.481   0.958  1.00  0.00    -0.000 C 
BRANCH  22  23
ATOM     23  C   UNL     1      11.250  53.879   1.564  1.00  0.00    -0.000 C 
BRANCH  23  24
ATOM     24  C   UNL     1      10.223  54.948   1.149  1.00  0.00    -0.000 C 
BRANCH  24  25
ATOM     25  C   UNL     1      10.723  55.841   0.005  1.00  0.00    -0.003 C 
ATOM     26  C   UNL     1       9.696  55.918  -1.121  1.00  0.00     0.004 C 
ENDBRANCH  24  25
ENDBRANCH  23  24
ENDBRANCH  22  23
ENDBRANCH  21  22
ENDBRANCH  20  21
ENDBRANCH  19  20
ENDBRANCH  18  19
ENDBRANCH  17  18
ENDBRANCH  16  17
ENDBRANCH  15  16
ENDBRANCH   1  15
TORSDOF 22
ENDMDL
MODEL 3
REMARK VINA RESULT:    -4.599      2.193      5.493
REMARK INTER + INTRA:         -14.012
REMARK INTER:                  -9.910
REMARK INTRA:                  -4.102
REMARK UNBOUND:                -3.498
REMARK SMILES CCCCCCCCCCCCCCCCCCCCCCCC(=O)[O-]
REMARK SMILES IDX 13 1 14 2 15 3 16 4 17 5 18 6 19 7 20 8 21 9 22 10 23 11
REMARK SMILES IDX 24 12 25 13 26 14 12 15 11 16 10 17 9 18 8 19 7 20 6 21 5 22
REMARK SMILES IDX 4 23 3 24 2 25 1 26
REMARK H PARENT
REMARK Flexibility Score: inf
ROOT
ATOM      1  C   UNL     1       2.251  50.770  -0.800  1.00  0.00     0.000 C 
ENDROOT
BRANCH   1   2
ATOM      2  C   UNL     1       1.952  52.277  -0.862  1.00  0.00     0.000 C 
BRANCH   2   3
ATOM      3  C   UNL     1       2.675  53.019  -2.008  1.00  0.00     0.000 C 
BRANCH   3   4
ATOM      4  C   UNL     1       4.101  52.489  -2.238  1.00  0.00     0.000 C 
BRANCH   4   5
ATOM      5  C   UNL     1       4.952  53.436  -3.105  1.00  0.00     0.000 C 
BRANCH   5   6
ATOM      6  C   UNL     1       6.469  53.175  -3.033  1.00  0.00     0.000 C 
BRANCH   6   7
ATOM      7  C   UNL     1       6.823  51.989  -2.115  1.00  0.00     0.000 C 
BRANCH   7   8
ATOM      8  C   UNL     1       7.921  52.343  -1.090  1.00  0.00     0.000 C 
BRANCH   8   9
ATOM      9  C   UNL     1       9.227  51.561  -1.300  1.00  0.00     0.000 C 
BRANCH   9  10
ATOM     10  C   UNL     1      10.436  52.476  -1.550  1.00  0.00     0.006 C 
BRANCH  10  11
ATOM     11  C   UNL     1      11.331  52.601  -0.309  1.00  0.00     0.053 C 
BRANCH  11  12
ATOM     12  C   UNL     1      10.925  53.760   0.548  1.00  0.00     0.041 C 
ATOM     13  O   UNL     1      10.139  53.589   1.517  1.00  0.00    -0.550 OA
ATOM     14  O   UNL     1      11.390  55.037   0.258  1.00  0.00    -0.550 OA
ENDBRANCH  11  12
ENDBRANCH  10  11
ENDBRANCH   9  10
ENDBRANCH   8   9
ENDBRANCH   7   8
ENDBRANCH   6   7
ENDBRANCH   5   6
ENDBRANCH   4   5
ENDBRANCH   3   4
ENDBRANCH   2   3
ENDBRANCH   1   2
BRANCH   1  15
ATOM     15  C   UNL     1       2.453  50.252   0.634  1.00  0.00     0.000 C 
BRANCH  15  16
ATOM     16  C   UNL     1       3.178  51.268   1.543  1.00  0.00     0.000 C 
BRANCH  16  17
ATOM     17  C   UNL     1       4.683  51.405   1.252  1.00  0.00     0.000 C 
BRANCH  17  18
ATOM     18  C   UNL     1       5.233  52.844   1.311  1.00  0.00    -0.000 C 
BRANCH  18  19
ATOM     19  C   UNL     1       4.166  53.949   1.423  1.00  0.00    -0.000 C 
BRANCH  19  20
ATOM     20  C   UNL     1       4.671  55.318   0.938  1.00  0.00    -0.000 C 
BRANCH  20  21
ATOM     21  C   UNL     1       5.888  55.212  -0.000  1.00  0.00    -0.000 C 
BRANCH  21  22
ATOM     22  C   UNL     1       6.652  56.531  -0.236  1.00  0.00    -0.000 C 
BRANCH  22  23
ATOM     23  C   UNL     1       8.178  56.389  -0.413  1.00  0.00    -0.000 C 
BRANCH  23  24
ATOM     24  C   UNL     1       8.621  55.816  -1.771  1.00  0.00    -0.000 C 
BRANCH  24  25
ATOM     25  C   UNL     1       7.937  56.506  -2.959  1.00  0.00    -0.003 C 
ATOM     26  C   UNL     1       8.449  57.934  -3.133  1.00  0.00     0.004 C 
ENDBRANCH  24  25
ENDBRANCH  23  24
ENDBRANCH  22  23
ENDBRANCH  21  22
ENDBRANCH  20  21
ENDBRANCH  19  20
ENDBRANCH  18  19
ENDBRANCH  17  18
ENDBRANCH  16  17
ENDBRANCH  15  16
ENDBRANCH   1  15
TORSDOF 22
ENDMDL
MODEL 4
REMARK VINA RESULT:    -4.588      2.120      6.587
REMARK INTER + INTRA:         -13.987
REMARK INTER:                 -10.015
REMARK INTRA:                  -3.972
REMARK UNBOUND:                -3.498
REMARK SMILES CCCCCCCCCCCCCCCCCCCCCCCC(=O)[O-]
REMARK SMILES IDX 13 1 14 2 15 3 16 4 17 5 18 6 19 7 20 8 21 9 22 10 23 11
REMARK SMILES IDX 24 12 25 13 26 14 12 15 11 16 10 17 9 18 8 19 7 20 6 21 5 22
REMARK SMILES IDX 4 23 3 24 2 25 1 26
REMARK H PARENT
REMARK Flexibility Score: inf
ROOT
ATOM      1  C   UNL     1       5.440  52.116   1.284  1.00  0.00     0.000 C 
ENDROOT
BRANCH   1   2
ATOM      2  C   UNL     1       3.905  52.132   1.378  1.00  0.00     0.000 C 
BRANCH   2   3
ATOM      3  C   UNL     1       3.268  50.736   1.552  1.00  0.00     0.000 C 
BRANCH   3   4
ATOM      4  C   UNL     1       2.225  50.429   0.464  1.00  0.00     0.000 C 
BRANCH   4   5
ATOM      5  C   UNL     1       2.059  51.586  -0.541  1.00  0.00     0.000 C 
BRANCH   5   6
ATOM      6  C   UNL     1       1.875  51.138  -2.003  1.00  0.00     0.000 C 
BRANCH   6   7
ATOM      7  C   UNL     1       3.128  51.390  -2.862  1.00  0.00     0.000 C 
BRANCH   7   8
ATOM      8  C   UNL     1       4.130  52.346  -2.180  1.00  0.00     0.000 C 
BRANCH   8   9
ATOM      9  C   UNL     1       4.212  53.726  -2.852  1.00  0.00     0.000 C 
BRANCH   9  10
ATOM     10  C   UNL     1       4.275  54.880  -1.839  1.00  0.00     0.006 C 
BRANCH  10  11
ATOM     11  C   UNL     1       3.024  54.937  -0.952  1.00  0.00     0.053 C 
BRANCH  11  12
ATOM     12  C   UNL     1       3.003  56.176  -0.111  1.00  0.00     0.041 C 
ATOM     13  O   UNL     1       3.885  56.362   0.768  1.00  0.00    -0.550 OA
ATOM     14  O   UNL     1       1.990  57.114  -0.276  1.00  0.00    -0.550 OA
ENDBRANCH  11  12
ENDBRANCH  10  11
ENDBRANCH   9  10
ENDBRANCH   8   9
ENDBRANCH   7   8
ENDBRANCH   6   7
ENDBRANCH   5   6
ENDBRANCH   4   5
ENDBRANCH   3   4
ENDBRANCH   2   3
ENDBRANCH   1   2
BRANCH   1  15
ATOM     15  C   UNL     1       6.064  53.519   1.367  1.00  0.00     0.000 C 
BRANCH  15  16
ATOM     16  C   UNL     1       7.330  53.562   2.250  1.00  0.00     0.000 C 
BRANCH  16  17
ATOM     17  C   UNL     1       8.133  52.249   2.257  1.00  0.00     0.000 C 
BRANCH  17  18
ATOM     18  C   UNL     1       9.663  52.418   2.339  1.00  0.00    -0.000 C 
BRANCH  18  19
ATOM     19  C   UNL     1      10.388  52.491   0.982  1.00  0.00    -0.000 C 
BRANCH  19  20
ATOM     20  C   UNL     1       9.982  51.356   0.026  1.00  0.00    -0.000 C 
BRANCH  20  21
ATOM     21  C   UNL     1       9.555  51.865  -1.363  1.00  0.00    -0.000 C 
BRANCH  21  22
ATOM     22  C   UNL     1       8.064  52.239  -1.495  1.00  0.00    -0.000 C 
BRANCH  22  23
ATOM     23  C   UNL     1       7.783  53.683  -1.961  1.00  0.00    -0.000 C 
BRANCH  23  24
ATOM     24  C   UNL     1       8.419  54.780  -1.088  1.00  0.00    -0.000 C 
BRANCH  24  25
ATOM     25  C   UNL     1       8.651  56.089  -1.855  1.00  0.00    -0.003 C 
ATOM     26  C   UNL     1       9.681  56.965  -1.147  1.00  0.00     0.004 C 
ENDBRANCH  24  25
ENDBRANCH  23  24
ENDBRANCH  22  23
ENDBRANCH  21  22
ENDBRANCH  20  21
ENDBRANCH  19  20
ENDBRANCH  18  19
ENDBRANCH  17  18
ENDBRANCH  16  17
ENDBRANCH  15  16
ENDBRANCH   1  15
TORSDOF 22
ENDMDL
MODEL 5
REMARK VINA RESULT:    -4.584      1.703      6.138
REMARK INTER + INTRA:         -13.978
REMARK INTER:                  -9.905
REMARK INTRA:                  -4.073
REMARK UNBOUND:                -3.498
REMARK SMILES CCCCCCCCCCCCCCCCCCCCCCCC(=O)[O-]
REMARK SMILES IDX 13 1 14 2 15 3 16 4 17 5 18 6 19 7 20 8 21 9 22 10 23 11
REMARK SMILES IDX 24 12 25 13 26 14 12 15 11 16 10 17 9 18 8 19 7 20 6 21 5 22
REMARK SMILES IDX 4 23 3 24 2 25 1 26
REMARK H PARENT
REMARK Flexibility Score: inf
ROOT
ATOM      1  C   UNL     1       1.994  51.080  -0.403  1.00  0.00     0.000 C 
ENDROOT
BRANCH   1   2
ATOM      2  C   UNL     1       2.025  50.755  -1.906  1.00  0.00     0.000 C 
BRANCH   2   3
ATOM      3  C   UNL     1       2.555  51.904  -2.791  1.00  0.00     0.000 C 
BRANCH   3   4
ATOM      4  C   UNL     1       2.874  51.440  -4.222  1.00  0.00     0.000 C 
BRANCH   4   5
ATOM      5  C   UNL     1       4.356  51.638  -4.593  1.00  0.00     0.000 C 
BRANCH   5   6
ATOM      6  C   UNL     1       5.332  51.512  -3.408  1.00  0.00     0.000 C 
BRANCH   6   7
ATOM      7  C   UNL     1       6.119  52.810  -3.149  1.00  0.00     0.000 C 
BRANCH   7   8
ATOM      8  C   UNL     1       5.659  53.971  -4.056  1.00  0.00     0.000 C 
BRANCH   8   9
ATOM      9  C   UNL     1       5.297  55.247  -3.278  1.00  0.00     0.000 C 
BRANCH   9  10
ATOM     10  C   UNL     1       4.822  54.957  -1.846  1.00  0.00     0.006 C 
BRANCH  10  11
ATOM     11  C   UNL     1       5.014  56.166  -0.919  1.00  0.00     0.053 C 
BRANCH  11  12
ATOM     12  C   UNL     1       4.104  56.098   0.269  1.00  0.00     0.041 C 
ATOM     13  O   UNL     1       4.509  55.599   1.351  1.00  0.00    -0.550 OA
ATOM     14  O   UNL     1       2.796  56.558   0.171  1.00  0.00    -0.550 OA
ENDBRANCH  11  12
ENDBRANCH  10  11
ENDBRANCH   9  10
ENDBRANCH   8   9
ENDBRANCH   7   8
ENDBRANCH   6   7
ENDBRANCH   5   6
ENDBRANCH   4   5
ENDBRANCH   3   4
ENDBRANCH   2   3
ENDBRANCH   1   2
BRANCH   1  15
ATOM     15  C   UNL     1       2.559  52.472  -0.074  1.00  0.00     0.000 C 
BRANCH  15  16
ATOM     16  C   UNL     1       3.585  52.448   1.079  1.00  0.00     0.000 C 
BRANCH  16  17
ATOM     17  C   UNL     1       4.880  51.686   0.748  1.00  0.00     0.000 C 
BRANCH  17  18
ATOM     18  C   UNL     1       6.145  52.559   0.642  1.00  0.00    -0.000 C 
BRANCH  18  19
ATOM     19  C   UNL     1       7.038  52.574   1.897  1.00  0.00    -0.000 C 
BRANCH  19  20
ATOM     20  C   UNL     1       7.947  53.813   1.969  1.00  0.00    -0.000 C 
BRANCH  20  21
ATOM     21  C   UNL     1       7.904  54.665   0.687  1.00  0.00    -0.000 C 
BRANCH  21  22
ATOM     22  C   UNL     1       9.182  54.617  -0.176  1.00  0.00    -0.000 C 
BRANCH  22  23
ATOM     23  C   UNL     1       9.085  53.763  -1.456  1.00  0.00    -0.000 C 
BRANCH  23  24
ATOM     24  C   UNL     1       9.267  52.249  -1.239  1.00  0.00    -0.000 C 
BRANCH  24  25
ATOM     25  C   UNL     1      10.590  51.904  -0.542  1.00  0.00    -0.003 C 
ATOM     26  C   UNL     1      11.785  52.349  -1.382  1.00  0.00     0.004 C 
ENDBRANCH  24  25
ENDBRANCH  23  24
ENDBRANCH  22  23
ENDBRANCH  21  22
ENDBRANCH  20  21
ENDBRANCH  19  20
ENDBRANCH  18  19
ENDBRANCH  17  18
ENDBRANCH  16  17
ENDBRANCH  15  16
ENDBRANCH   1  15
TORSDOF 22
ENDMDL
MODEL 6
REMARK VINA RESULT:    -4.578      1.970      6.199
REMARK INTER + INTRA:         -13.964
REMARK INTER:                  -9.784
REMARK INTRA:                  -4.180
REMARK UNBOUND:                -3.498
REMARK SMILES CCCCCCCCCCCCCCCCCCCCCCCC(=O)[O-]
REMARK SMILES IDX 13 1 14 2 15 3 16 4 17 5 18 6 19 7 20 8 21 9 22 10 23 11
REMARK SMILES IDX 24 12 25 13 26 14 12 15 11 16 10 17 9 18 8 19 7 20 6 21 5 22
REMARK SMILES IDX 4 23 3 24 2 25 1 26
REMARK H PARENT
REMARK Flexibility Score: inf
ROOT
ATOM      1  C   UNL     1       3.010  50.806   1.182  1.00  0.00     0.000 C 
ENDROOT
BRANCH   1   2
ATOM      2  C   UNL     1       2.251  50.312  -0.061  1.00  0.00     0.000 C 
BRANCH   2   3
ATOM      3  C   UNL     1       2.006  51.403  -1.126  1.00  0.00     0.000 C 
BRANCH   3   4
ATOM      4  C   UNL     1       2.610  51.033  -2.492  1.00  0.00     0.000 C 
BRANCH   4   5
ATOM      5  C   UNL     1       3.422  52.186  -3.113  1.00  0.00     0.000 C 
BRANCH   5   6
ATOM      6  C   UNL     1       4.741  51.749  -3.778  1.00  0.00     0.000 C 
BRANCH   6   7
ATOM      7  C   UNL     1       5.930  51.760  -2.798  1.00  0.00     0.000 C 
BRANCH   7   8
ATOM      8  C   UNL     1       6.192  53.160  -2.202  1.00  0.00     0.000 C 
BRANCH   8   9
ATOM      9  C   UNL     1       6.639  54.194  -3.248  1.00  0.00     0.000 C 
BRANCH   9  10
ATOM     10  C   UNL     1       7.845  55.026  -2.785  1.00  0.00     0.006 C 
BRANCH  10  11
ATOM     11  C   UNL     1       7.711  56.504  -3.180  1.00  0.00     0.053 C 
BRANCH  11  12
ATOM     12  C   UNL     1       7.528  57.379  -1.978  1.00  0.00     0.041 C 
ATOM     13  O   UNL     1       6.371  57.681  -1.583  1.00  0.00    -0.550 OA
ATOM     14  O   UNL     1       8.636  57.887  -1.311  1.00  0.00    -0.550 OA
ENDBRANCH  11  12
ENDBRANCH  10  11
ENDBRANCH   9  10
ENDBRANCH   8   9
ENDBRANCH   7   8
ENDBRANCH   6   7
ENDBRANCH   5   6
ENDBRANCH   4   5
ENDBRANCH   3   4
ENDBRANCH   2   3
ENDBRANCH   1   2
BRANCH   1  15
ATOM     15  C   UNL     1       4.247  51.652   0.839  1.00  0.00     0.000 C 
BRANCH  15  16
ATOM     16  C   UNL     1       4.204  53.062   1.466  1.00  0.00     0.000 C 
BRANCH  16  17
ATOM     17  C   UNL     1       3.788  54.171   0.484  1.00  0.00     0.000 C 
BRANCH  17  18
ATOM     18  C   UNL     1       4.736  55.385   0.427  1.00  0.00    -0.000 C 
BRANCH  18  19
ATOM     19  C   UNL     1       5.899  55.356   1.435  1.00  0.00    -0.000 C 
BRANCH  19  20
ATOM     20  C   UNL     1       7.248  55.012   0.781  1.00  0.00    -0.000 C 
BRANCH  20  21
ATOM     21  C   UNL     1       8.021  53.917   1.541  1.00  0.00    -0.000 C 
BRANCH  21  22
ATOM     22  C   UNL     1       7.919  52.501   0.936  1.00  0.00    -0.000 C 
BRANCH  22  23
ATOM     23  C   UNL     1       9.254  51.879   0.479  1.00  0.00    -0.000 C 
BRANCH  23  24
ATOM     24  C   UNL     1       9.451  51.817  -1.046  1.00  0.00    -0.000 C 
BRANCH  24  25
ATOM     25  C   UNL     1      10.455  52.858  -1.558  1.00  0.00    -0.003 C 
ATOM     26  C   UNL     1      11.278  53.437  -0.411  1.00  0.00     0.004 C 
ENDBRANCH  24  25
ENDBRANCH  23  24
ENDBRANCH  22  23
ENDBRANCH  21  22
ENDBRANCH  20  21
ENDBRANCH  19  20
ENDBRANCH  18  19
ENDBRANCH  17  18
ENDBRANCH  16  17
ENDBRANCH  15  16
ENDBRANCH   1  15
TORSDOF 22
ENDMDL
MODEL 7
REMARK VINA RESULT:    -4.563      1.650      6.656
REMARK INTER + INTRA:         -13.931
REMARK INTER:                  -9.343
REMARK INTRA:                  -4.588
REMARK UNBOUND:                -3.498
REMARK SMILES CCCCCCCCCCCCCCCCCCCCCCCC(=O)[O-]
REMARK SMILES IDX 13 1 14 2 15 3 16 4 17 5 18 6 19 7 20 8 21 9 22 10 23 11
REMARK SMILES IDX 24 12 25 13 26 14 12 15 11 16 10 17 9 18 8 19 7 20 6 21 5 22
REMARK SMILES IDX 4 23 3 24 2 25 1 26
REMARK H PARENT
REMARK Flexibility Score: inf
ROOT
ATOM      1  C   UNL     1       4.347  52.297   1.462  1.00  0.00     0.000 C 
ENDROOT
BRANCH   1   2
ATOM      2  C   UNL     1       3.403  51.103   1.242  1.00  0.00     0.000 C 
BRANCH   2   3
ATOM      3  C   UNL     1       2.463  51.255   0.027  1.00  0.00     0.000 C 
BRANCH   3   4
ATOM      4  C   UNL     1       2.385  52.708  -0.474  1.00  0.00     0.000 C 
BRANCH   4   5
ATOM      5  C   UNL     1       2.728  52.839  -1.970  1.00  0.00     0.000 C 
BRANCH   5   6
ATOM      6  C   UNL     1       3.487  51.634  -2.558  1.00  0.00     0.000 C 
BRANCH   6   7
ATOM      7  C   UNL     1       4.872  52.020  -3.112  1.00  0.00     0.000 C 
BRANCH   7   8
ATOM      8  C   UNL     1       5.905  52.277  -1.994  1.00  0.00     0.000 C 
BRANCH   8   9
ATOM      9  C   UNL     1       6.990  53.292  -2.388  1.00  0.00     0.000 C 
BRANCH   9  10
ATOM     10  C   UNL     1       6.942  54.575  -1.543  1.00  0.00     0.006 C 
BRANCH  10  11
ATOM     11  C   UNL     1       5.504  54.976  -1.184  1.00  0.00     0.053 C 
BRANCH  11  12
ATOM     12  C   UNL     1       5.454  55.759   0.091  1.00  0.00     0.041 C 
ATOM     13  O   UNL     1       4.363  55.913   0.699  1.00  0.00    -0.550 OA
ATOM     14  O   UNL     1       6.609  56.347   0.593  1.00  0.00    -0.550 OA
ENDBRANCH  11  12
ENDBRANCH  10  11
ENDBRANCH   9  10
ENDBRANCH   8   9
ENDBRANCH   7   8
ENDBRANCH   6   7
ENDBRANCH   5   6
ENDBRANCH   4   5
ENDBRANCH   3   4
ENDBRANCH   2   3
ENDBRANCH   1   2
BRANCH   1  15
ATOM     15  C   UNL     1       5.819  51.882   1.626  1.00  0.00     0.000 C 
BRANCH  15  16
ATOM     16  C   UNL     1       6.738  53.063   2.003  1.00  0.00     0.000 C 
BRANCH  16  17
ATOM     17  C   UNL     1       8.141  52.989   1.375  1.00  0.00     0.000 C 
BRANCH  17  18
ATOM     18  C   UNL     1       9.090  51.956   2.012  1.00  0.00    -0.000 C 
BRANCH  18  19
ATOM     19  C   UNL     1      10.087  51.296   1.041  1.00  0.00    -0.000 C 
BRANCH  19  20
ATOM     20  C   UNL     1       9.698  51.484  -0.435  1.00  0.00    -0.000 C 
BRANCH  20  21
ATOM     21  C   UNL     1      10.795  52.182  -1.261  1.00  0.00    -0.000 C 
BRANCH  21  22
ATOM     22  C   UNL     1      10.566  53.685  -1.519  1.00  0.00    -0.000 C 
BRANCH  22  23
ATOM     23  C   UNL     1      11.134  54.635  -0.445  1.00  0.00    -0.000 C 
BRANCH  23  24
ATOM     24  C   UNL     1      10.180  55.762  -0.008  1.00  0.00    -0.000 C 
BRANCH  24  25
ATOM     25  C   UNL     1      10.228  56.028   1.503  1.00  0.00    -0.003 C 
ATOM     26  C   UNL     1      11.200  55.078   2.197  1.00  0.00     0.004 C 
ENDBRANCH  24  25
ENDBRANCH  23  24
ENDBRANCH  22  23
ENDBRANCH  21  22
ENDBRANCH  20  21
ENDBRANCH  19  20
ENDBRANCH  18  19
ENDBRANCH  17  18
ENDBRANCH  16  17
ENDBRANCH  15  16
ENDBRANCH   1  15
TORSDOF 22
ENDMDL
MODEL 8
REMARK VINA RESULT:    -4.552      2.287      5.357
REMARK INTER + INTRA:         -13.905
REMARK INTER:                  -9.621
REMARK INTRA:                  -4.284
REMARK UNBOUND:                -3.498
REMARK SMILES CCCCCCCCCCCCCCCCCCCCCCCC(=O)[O-]
REMARK SMILES IDX 13 1 14 2 15 3 16 4 17 5 18 6 19 7 20 8 21 9 22 10 23 11
REMARK SMILES IDX 24 12 25 13 26 14 12 15 11 16 10 17 9 18 8 19 7 20 6 21 5 22
REMARK SMILES IDX 4 23 3 24 2 25 1 26
REMARK H PARENT
REMARK Flexibility Score: inf
ROOT
ATOM      1  C   UNL     1       1.875  52.379  -1.735  1.00  0.00     0.000 C 
ENDROOT
BRANCH   1   2
ATOM      2  C   UNL     1       2.224  51.039  -2.404  1.00  0.00     0.000 C 
BRANCH   2   3
ATOM      3  C   UNL     1       2.357  51.115  -3.940  1.00  0.00     0.000 C 
BRANCH   3   4
ATOM      4  C   UNL     1       3.445  52.109  -4.383  1.00  0.00     0.000 C 
BRANCH   4   5
ATOM      5  C   UNL     1       4.868  51.613  -4.065  1.00  0.00     0.000 C 
BRANCH   5   6
ATOM      6  C   UNL     1       5.535  52.315  -2.868  1.00  0.00     0.000 C 
BRANCH   6   7
ATOM      7  C   UNL     1       6.389  53.525  -3.292  1.00  0.00     0.000 C 
BRANCH   7   8
ATOM      8  C   UNL     1       7.541  53.810  -2.304  1.00  0.00     0.000 C 
BRANCH   8   9
ATOM      9  C   UNL     1       8.024  52.560  -1.553  1.00  0.00     0.000 C 
BRANCH   9  10
ATOM     10  C   UNL     1       9.503  52.645  -1.141  1.00  0.00     0.006 C 
BRANCH  10  11
ATOM     11  C   UNL     1       9.669  53.076   0.323  1.00  0.00     0.053 C 
BRANCH  11  12
ATOM     12  C   UNL     1       9.749  51.893   1.238  1.00  0.00     0.041 C 
ATOM     13  O   UNL     1      10.170  50.786   0.810  1.00  0.00    -0.550 OA
ATOM     14  O   UNL     1       9.328  52.003   2.558  1.00  0.00    -0.550 OA
ENDBRANCH  11  12
ENDBRANCH  10  11
ENDBRANCH   9  10
ENDBRANCH   8   9
ENDBRANCH   7   8
ENDBRANCH   6   7
ENDBRANCH   5   6
ENDBRANCH   4   5
ENDBRANCH   3   4
ENDBRANCH   2   3
ENDBRANCH   1   2
BRANCH   1  15
ATOM     15  C   UNL     1       1.876  52.305  -0.198  1.00  0.00     0.000 C 
BRANCH  15  16
ATOM     16  C   UNL     1       2.468  50.985   0.340  1.00  0.00     0.000 C 
BRANCH  16  17
ATOM     17  C   UNL     1       3.704  51.175   1.238  1.00  0.00     0.000 C 
BRANCH  17  18
ATOM     18  C   UNL     1       4.923  51.815   0.546  1.00  0.00    -0.000 C 
BRANCH  18  19
ATOM     19  C   UNL     1       5.930  52.496   1.492  1.00  0.00    -0.000 C 
BRANCH  19  20
ATOM     20  C   UNL     1       6.051  54.010   1.247  1.00  0.00    -0.000 C 
BRANCH  20  21
ATOM     21  C   UNL     1       4.852  54.804   1.798  1.00  0.00    -0.000 C 
BRANCH  21  22
ATOM     22  C   UNL     1       3.862  55.320   0.733  1.00  0.00    -0.000 C 
BRANCH  22  23
ATOM     23  C   UNL     1       4.293  55.102  -0.732  1.00  0.00    -0.000 C 
BRANCH  23  24
ATOM     24  C   UNL     1       4.831  56.358  -1.442  1.00  0.00    -0.000 C 
BRANCH  24  25
ATOM     25  C   UNL     1       3.942  56.808  -2.608  1.00  0.00    -0.003 C 
ATOM     26  C   UNL     1       3.254  55.615  -3.266  1.00  0.00     0.004 C 
ENDBRANCH  24  25
ENDBRANCH  23  24
ENDBRANCH  22  23
ENDBRANCH  21  22
ENDBRANCH  20  21
ENDBRANCH  19  20
ENDBRANCH  18  19
ENDBRANCH  17  18
ENDBRANCH  16  17
ENDBRANCH  15  16
ENDBRANCH   1  15
TORSDOF 22
ENDMDL
MODEL 9
REMARK VINA RESULT:    -4.548      1.762      6.562
REMARK INTER + INTRA:         -13.895
REMARK INTER:                  -9.797
REMARK INTRA:                  -4.098
REMARK UNBOUND:                -3.498
REMARK SMILES CCCCCCCCCCCCCCCCCCCCCCCC(=O)[O-]
REMARK SMILES IDX 13 1 14 2 15 3 16 4 17 5 18 6 19 7 20 8 21 9 22 10 23 11
REMARK SMILES IDX 24 12 25 13 26 14 12 15 11 16 10 17 9 18 8 19 7 20 6 21 5 22
REMARK SMILES IDX 4 23 3 24 2 25 1 26
REMARK H PARENT
REMARK Flexibility Score: inf
ROOT
ATOM      1  C   UNL     1       3.550  52.919  -3.085  1.00  0.00     0.000 C 
ENDROOT
BRANCH   1   2
ATOM      2  C   UNL     1       2.124  52.663  -2.571  1.00  0.00     0.000 C 
BRANCH   2   3
ATOM      3  C   UNL     1       1.974  51.374  -1.734  1.00  0.00     0.000 C 
BRANCH   3   4
ATOM      4  C   UNL     1       1.890  51.664  -0.226  1.00  0.00     0.000 C 
BRANCH   4   5
ATOM      5  C   UNL     1       2.593  50.589   0.625  1.00  0.00     0.000 C 
BRANCH   5   6
ATOM      6  C   UNL     1       3.751  51.119   1.492  1.00  0.00     0.000 C 
BRANCH   6   7
ATOM      7  C   UNL     1       4.810  51.875   0.666  1.00  0.00     0.000 C 
BRANCH   7   8
ATOM      8  C   UNL     1       5.072  53.298   1.204  1.00  0.00     0.000 C 
BRANCH   8   9
ATOM      9  C   UNL     1       3.932  54.284   0.903  1.00  0.00     0.000 C 
BRANCH   9  10
ATOM     10  C   UNL     1       4.213  55.164  -0.326  1.00  0.00     0.006 C 
BRANCH  10  11
ATOM     11  C   UNL     1       5.377  56.136  -0.085  1.00  0.00     0.053 C 
BRANCH  11  12
ATOM     12  C   UNL     1       4.887  57.483   0.348  1.00  0.00     0.041 C 
ATOM     13  O   UNL     1       3.751  57.891  -0.010  1.00  0.00    -0.550 OA
ATOM     14  O   UNL     1       5.698  58.303   1.124  1.00  0.00    -0.550 OA
ENDBRANCH  11  12
ENDBRANCH  10  11
ENDBRANCH   9  10
ENDBRANCH   8   9
ENDBRANCH   7   8
ENDBRANCH   6   7
ENDBRANCH   5   6
ENDBRANCH   4   5
ENDBRANCH   3   4
ENDBRANCH   2   3
ENDBRANCH   1   2
BRANCH   1  15
ATOM     15  C   UNL     1       4.402  51.640  -3.165  1.00  0.00     0.000 C 
BRANCH  15  16
ATOM     16  C   UNL     1       5.901  51.929  -3.392  1.00  0.00     0.000 C 
BRANCH  16  17
ATOM     17  C   UNL     1       6.344  53.330  -2.935  1.00  0.00     0.000 C 
BRANCH  17  18
ATOM     18  C   UNL     1       7.329  53.352  -1.750  1.00  0.00    -0.000 C 
BRANCH  18  19
ATOM     19  C   UNL     1       7.883  51.976  -1.334  1.00  0.00    -0.000 C 
BRANCH  19  20
ATOM     20  C   UNL     1       9.411  51.876  -1.487  1.00  0.00    -0.000 C 
BRANCH  20  21
ATOM     21  C   UNL     1      10.130  51.594  -0.155  1.00  0.00    -0.000 C 
BRANCH  21  22
ATOM     22  C   UNL     1      11.077  52.711   0.328  1.00  0.00    -0.000 C 
BRANCH  22  23
ATOM     23  C   UNL     1      10.570  53.535   1.529  1.00  0.00    -0.000 C 
BRANCH  23  24
ATOM     24  C   UNL     1       9.048  53.765   1.559  1.00  0.00    -0.000 C 
BRANCH  24  25
ATOM     25  C   UNL     1       8.414  53.367   2.899  1.00  0.00    -0.003 C 
ATOM     26  C   UNL     1       8.098  51.874   2.934  1.00  0.00     0.004 C 
ENDBRANCH  24  25
ENDBRANCH  23  24
ENDBRANCH  22  23
ENDBRANCH  21  22
ENDBRANCH  20  21
ENDBRANCH  19  20
ENDBRANCH  18  19
ENDBRANCH  17  18
ENDBRANCH  16  17
ENDBRANCH  15  16
ENDBRANCH   1  15
TORSDOF 22
ENDMDL
