MODEL 1
REMARK VINA RESULT:    -4.481      0.000      0.000
REMARK INTER + INTRA:          -7.861
REMARK INTER:                  -6.839
REMARK INTRA:                  -1.021
REMARK UNBOUND:                -1.021
REMARK SMILES CCCCCCCCCCC(=O)[O-]
REMARK SMILES IDX 7 1 8 2 9 3 10 4 11 5 12 6 13 7 6 8 5 9 4 10 3 11 2 12 1 13
REMARK H PARENT
REMARK Flexibility Score: inf
ROOT
ATOM      1  C   UNL     1      -6.951  -7.996 -12.566  1.00  0.00     0.000 C 
ENDROOT
BRANCH   1   2
ATOM      2  C   UNL     1      -7.718  -7.178 -13.616  1.00  0.00     0.000 C 
BRANCH   2   3
ATOM      3  C   UNL     1      -6.854  -6.030 -14.157  1.00  0.00     0.006 C 
BRANCH   3   4
ATOM      4  C   UNL     1      -7.528  -4.663 -13.984  1.00  0.00     0.053 C 
BRANCH   4   5
ATOM      5  C   UNL     1      -6.648  -3.698 -13.251  1.00  0.00     0.041 C 
ATOM      6  O   UNL     1      -5.454  -4.001 -12.988  1.00  0.00    -0.550 OA
ATOM      7  O   UNL     1      -7.156  -2.476 -12.829  1.00  0.00    -0.550 OA
ENDBRANCH   4   5
ENDBRANCH   3   4
ENDBRANCH   2   3
ENDBRANCH   1   2
BRANCH   1   8
ATOM      8  C   UNL     1      -7.467  -7.759 -11.137  1.00  0.00     0.000 C 
BRANCH   8   9
ATOM      9  C   UNL     1      -8.703  -6.850 -11.097  1.00  0.00    -0.000 C 
BRANCH   9  10
ATOM     10  C   UNL     1      -8.384  -5.521 -10.402  1.00  0.00    -0.000 C 
BRANCH  10  11
ATOM     11  C   UNL     1      -6.884  -5.396 -10.110  1.00  0.00    -0.000 C 
BRANCH  11  12
ATOM     12  C   UNL     1      -6.545  -4.009  -9.553  1.00  0.00    -0.003 C 
ATOM     13  C   UNL     1      -5.502  -4.101  -8.443  1.00  0.00     0.004 C 
ENDBRANCH  11  12
ENDBRANCH  10  11
ENDBRANCH   9  10
ENDBRANCH   8   9
ENDBRANCH   1   8
TORSDOF 9
ENDMDL
MODEL 2
REMARK VINA RESULT:    -4.395      1.813      2.895
REMARK INTER + INTRA:          -7.728
REMARK INTER:                  -6.665
REMARK INTRA:                  -1.063
REMARK UNBOUND:                -1.021
REMARK SMILES CCCCCCCCCCC(=O)[O-]
REMARK SMILES IDX 7 1 8 2 9 3 10 4 11 5 12 6 13 7 6 8 5 9 4 10 3 11 2 12 1 13
REMARK H PARENT
REMARK Flexibility Score: inf
ROOT
ATOM      1  C   UNL     1      -8.488  -5.569 -14.391  1.00  0.00     0.000 C 
ENDROOT
BRANCH   1   2
ATOM      2  C   UNL     1      -7.074  -6.169 -14.374  1.00  0.00     0.000 C 
BRANCH   2   3
ATOM      3  C   UNL     1      -6.206  -5.497 -13.300  1.00  0.00     0.006 C 
BRANCH   3   4
ATOM      4  C   UNL     1      -6.196  -3.969 -13.432  1.00  0.00     0.053 C 
BRANCH   4   5
ATOM      5  C   UNL     1      -6.584  -3.299 -12.149  1.00  0.00     0.041 C 
ATOM      6  O   UNL     1      -7.010  -2.115 -12.155  1.00  0.00    -0.550 OA
ATOM      7  O   UNL     1      -6.442  -3.973 -10.942  1.00  0.00    -0.550 OA
ENDBRANCH   4   5
ENDBRANCH   3   4
ENDBRANCH   2   3
ENDBRANCH   1   2
BRANCH   1   8
ATOM      8  C   UNL     1      -9.586  -6.634 -14.239  1.00  0.00     0.000 C 
BRANCH   8   9
ATOM      9  C   UNL     1      -9.052  -7.959 -13.676  1.00  0.00    -0.000 C 
BRANCH   9  10
ATOM     10  C   UNL     1      -9.326  -8.067 -12.171  1.00  0.00    -0.000 C 
BRANCH  10  11
ATOM     11  C   UNL     1      -8.018  -8.125 -11.374  1.00  0.00    -0.000 C 
BRANCH  11  12
ATOM     12  C   UNL     1      -8.115  -7.285 -10.096  1.00  0.00    -0.003 C 
ATOM     13  C   UNL     1      -8.969  -6.041 -10.317  1.00  0.00     0.004 C 
ENDBRANCH  11  12
ENDBRANCH  10  11
ENDBRANCH   9  10
ENDBRANCH   8   9
ENDBRANCH   1   8
TORSDOF 9
ENDMDL
MODEL 3
REMARK VINA RESULT:    -4.329      1.670      3.708
REMARK INTER + INTRA:          -7.629
REMARK INTER:                  -6.443
REMARK INTRA:                  -1.185
REMARK UNBOUND:                -1.021
REMARK SMILES CCCCCCCCCCC(=O)[O-]
REMARK SMILES IDX 7 1 8 2 9 3 10 4 11 5 12 6 13 7 6 8 5 9 4 10 3 11 2 12 1 13
REMARK H PARENT
REMARK Flexibility Score: inf
ROOT
ATOM      1  C   UNL     1      -7.285  -7.529 -11.731  1.00  0.00     0.000 C 
ENDROOT
BRANCH   1   2
ATOM      2  C   UNL     1      -8.535  -6.948 -11.054  1.00  0.00     0.000 C 
BRANCH   2   3
ATOM      3  C   UNL     1      -8.216  -5.613 -10.365  1.00  0.00     0.006 C 
BRANCH   3   4
ATOM      4  C   UNL     1      -6.724  -5.470 -10.036  1.00  0.00     0.053 C 
BRANCH   4   5
ATOM      5  C   UNL     1      -6.429  -4.172  -9.349  1.00  0.00     0.041 C 
ATOM      6  O   UNL     1      -7.164  -3.169  -9.544  1.00  0.00    -0.550 OA
ATOM      7  O   UNL     1      -5.321  -4.062  -8.517  1.00  0.00    -0.550 OA
ENDBRANCH   4   5
ENDBRANCH   3   4
ENDBRANCH   2   3
ENDBRANCH   1   2
BRANCH   1   8
ATOM      8  C   UNL     1      -7.322  -7.393 -13.262  1.00  0.00     0.000 C 
BRANCH   8   9
ATOM      9  C   UNL     1      -8.519  -6.569 -13.754  1.00  0.00    -0.000 C 
BRANCH   9  10
ATOM     10  C   UNL     1      -8.092  -5.139 -14.110  1.00  0.00    -0.000 C 
BRANCH  10  11
ATOM     11  C   UNL     1      -6.569  -5.037 -14.247  1.00  0.00    -0.000 C 
BRANCH  11  12
ATOM     12  C   UNL     1      -5.999  -3.987 -13.287  1.00  0.00    -0.003 C 
ATOM     13  C   UNL     1      -7.035  -2.914 -12.965  1.00  0.00     0.004 C 
ENDBRANCH  11  12
ENDBRANCH  10  11
ENDBRANCH   9  10
ENDBRANCH   8   9
ENDBRANCH   1   8
TORSDOF 9
ENDMDL
MODEL 4
REMARK VINA RESULT:    -4.288      1.795      3.833
REMARK INTER + INTRA:          -7.565
REMARK INTER:                  -6.616
REMARK INTRA:                  -0.949
REMARK UNBOUND:                -1.021
REMARK SMILES CCCCCCCCCCC(=O)[O-]
REMARK SMILES IDX 7 1 8 2 9 3 10 4 11 5 12 6 13 7 6 8 5 9 4 10 3 11 2 12 1 13
REMARK H PARENT
REMARK Flexibility Score: inf
ROOT
ATOM      1  C   UNL     1      -6.175  -5.215 -13.471  1.00  0.00     0.000 C 
ENDROOT
BRANCH   1   2
ATOM      2  C   UNL     1      -6.356  -3.691 -13.521  1.00  0.00     0.000 C 
BRANCH   2   3
ATOM      3  C   UNL     1      -6.662  -3.128 -12.125  1.00  0.00     0.006 C 
BRANCH   3   4
ATOM      4  C   UNL     1      -6.926  -4.235 -11.097  1.00  0.00     0.053 C 
BRANCH   4   5
ATOM      5  C   UNL     1      -6.679  -3.763  -9.697  1.00  0.00     0.041 C 
ATOM      6  O   UNL     1      -7.407  -2.870  -9.190  1.00  0.00    -0.550 OA
ATOM      7  O   UNL     1      -5.622  -4.287  -8.963  1.00  0.00    -0.550 OA
ENDBRANCH   4   5
ENDBRANCH   3   4
ENDBRANCH   2   3
ENDBRANCH   1   2
BRANCH   1   8
ATOM      8  C   UNL     1      -7.074  -5.952 -14.476  1.00  0.00     0.000 C 
BRANCH   8   9
ATOM      9  C   UNL     1      -7.465  -7.359 -14.002  1.00  0.00    -0.000 C 
BRANCH   9  10
ATOM     10  C   UNL     1      -6.930  -7.630 -12.590  1.00  0.00    -0.000 C 
BRANCH  10  11
ATOM     11  C   UNL     1      -8.057  -8.072 -11.649  1.00  0.00    -0.000 C 
BRANCH  11  12
ATOM     12  C   UNL     1      -9.207  -7.058 -11.653  1.00  0.00    -0.003 C 
ATOM     13  C   UNL     1      -9.537  -6.594 -10.238  1.00  0.00     0.004 C 
ENDBRANCH  11  12
ENDBRANCH  10  11
ENDBRANCH   9  10
ENDBRANCH   8   9
ENDBRANCH   1   8
TORSDOF 9
ENDMDL
MODEL 5
REMARK VINA RESULT:    -4.269      2.453      3.810
REMARK INTER + INTRA:          -7.536
REMARK INTER:                  -6.403
REMARK INTRA:                  -1.134
REMARK UNBOUND:                -1.021
REMARK SMILES CCCCCCCCCCC(=O)[O-]
REMARK SMILES IDX 7 1 8 2 9 3 10 4 11 5 12 6 13 7 6 8 5 9 4 10 3 11 2 12 1 13
REMARK H PARENT
REMARK Flexibility Score: inf
ROOT
ATOM      1  C   UNL     1      -6.691  -3.468 -12.976  1.00  0.00     0.000 C 
ENDROOT
BRANCH   1   2
ATOM      2  C   UNL     1      -5.998  -4.804 -13.283  1.00  0.00     0.000 C 
BRANCH   2   3
ATOM      3  C   UNL     1      -6.834  -5.643 -14.261  1.00  0.00     0.006 C 
BRANCH   3   4
ATOM      4  C   UNL     1      -8.335  -5.353 -14.140  1.00  0.00     0.053 C 
BRANCH   4   5
ATOM      5  C   UNL     1      -9.158  -6.582 -14.374  1.00  0.00     0.041 C 
ATOM      6  O   UNL     1      -8.658  -7.724 -14.197  1.00  0.00    -0.550 OA
ATOM      7  O   UNL     1     -10.469  -6.467 -14.820  1.00  0.00    -0.550 OA
ENDBRANCH   4   5
ENDBRANCH   3   4
ENDBRANCH   2   3
ENDBRANCH   1   2
BRANCH   1   8
ATOM      8  C   UNL     1      -6.824  -3.202 -11.468  1.00  0.00     0.000 C 
BRANCH   8   9
ATOM      9  C   UNL     1      -6.522  -4.445 -10.619  1.00  0.00    -0.000 C 
BRANCH   9  10
ATOM     10  C   UNL     1      -7.799  -5.250 -10.350  1.00  0.00    -0.000 C 
BRANCH  10  11
ATOM     11  C   UNL     1      -7.523  -6.757 -10.407  1.00  0.00    -0.000 C 
BRANCH  11  12
ATOM     12  C   UNL     1      -8.813  -7.543 -10.673  1.00  0.00    -0.003 C 
ATOM     13  C   UNL     1     -10.023  -6.616 -10.717  1.00  0.00     0.004 C 
ENDBRANCH  11  12
ENDBRANCH  10  11
ENDBRANCH   9  10
ENDBRANCH   8   9
ENDBRANCH   1   8
TORSDOF 9
ENDMDL
MODEL 6
REMARK VINA RESULT:    -4.149      1.732      3.815
REMARK INTER + INTRA:          -7.354
REMARK INTER:                  -6.173
REMARK INTRA:                  -1.181
REMARK UNBOUND:                -1.021
REMARK SMILES CCCCCCCCCCC(=O)[O-]
REMARK SMILES IDX 7 1 8 2 9 3 10 4 11 5 12 6 13 7 6 8 5 9 4 10 3 11 2 12 1 13
REMARK H PARENT
REMARK Flexibility Score: inf
ROOT
ATOM      1  C   UNL     1      -9.737  -7.322 -10.987  1.00  0.00     0.000 C 
ENDROOT
BRANCH   1   2
ATOM      2  C   UNL     1      -8.525  -7.816 -10.183  1.00  0.00     0.000 C 
BRANCH   2   3
ATOM      3  C   UNL     1      -7.380  -6.794 -10.232  1.00  0.00     0.006 C 
BRANCH   3   4
ATOM      4  C   UNL     1      -7.889  -5.358 -10.410  1.00  0.00     0.053 C 
BRANCH   4   5
ATOM      5  C   UNL     1      -6.767  -4.366 -10.395  1.00  0.00     0.041 C 
ATOM      6  O   UNL     1      -6.057  -4.225  -9.364  1.00  0.00    -0.550 OA
ATOM      7  O   UNL     1      -6.525  -3.572 -11.509  1.00  0.00    -0.550 OA
ENDBRANCH   4   5
ENDBRANCH   3   4
ENDBRANCH   2   3
ENDBRANCH   1   2
BRANCH   1   8
ATOM      8  C   UNL     1      -9.956  -8.121 -12.281  1.00  0.00     0.000 C 
BRANCH   8   9
ATOM      9  C   UNL     1     -10.226  -7.221 -13.495  1.00  0.00    -0.000 C 
BRANCH   9  10
ATOM     10  C   UNL     1      -8.951  -7.021 -14.324  1.00  0.00    -0.000 C 
BRANCH  10  11
ATOM     11  C   UNL     1      -8.418  -5.591 -14.178  1.00  0.00    -0.000 C 
BRANCH  11  12
ATOM     12  C   UNL     1      -6.893  -5.554 -14.332  1.00  0.00    -0.003 C 
ATOM     13  C   UNL     1      -6.227  -6.635 -13.487  1.00  0.00     0.004 C 
ENDBRANCH  11  12
ENDBRANCH  10  11
ENDBRANCH   9  10
ENDBRANCH   8   9
ENDBRANCH   1   8
TORSDOF 9
ENDMDL
MODEL 7
REMARK VINA RESULT:    -4.107      1.234      3.546
REMARK INTER + INTRA:          -7.289
REMARK INTER:                  -6.171
REMARK INTRA:                  -1.118
REMARK UNBOUND:                -1.021
REMARK SMILES CCCCCCCCCCC(=O)[O-]
REMARK SMILES IDX 7 1 8 2 9 3 10 4 11 5 12 6 13 7 6 8 5 9 4 10 3 11 2 12 1 13
REMARK H PARENT
REMARK Flexibility Score: inf
ROOT
ATOM      1  C   UNL     1      -8.205  -7.186 -10.194  1.00  0.00     0.000 C 
ENDROOT
BRANCH   1   2
ATOM      2  C   UNL     1      -8.255  -5.651 -10.239  1.00  0.00     0.000 C 
BRANCH   2   3
ATOM      3  C   UNL     1      -6.866  -5.066 -10.536  1.00  0.00     0.006 C 
BRANCH   3   4
ATOM      4  C   UNL     1      -6.922  -3.564 -10.843  1.00  0.00     0.053 C 
BRANCH   4   5
ATOM      5  C   UNL     1      -6.575  -3.276 -12.271  1.00  0.00     0.041 C 
ATOM      6  O   UNL     1      -7.257  -2.453 -12.937  1.00  0.00    -0.550 OA
ATOM      7  O   UNL     1      -5.518  -3.943 -12.878  1.00  0.00    -0.550 OA
ENDBRANCH   4   5
ENDBRANCH   3   4
ENDBRANCH   2   3
ENDBRANCH   1   2
BRANCH   1   8
ATOM      8  C   UNL     1      -9.564  -7.833 -10.504  1.00  0.00     0.000 C 
BRANCH   8   9
ATOM      9  C   UNL     1     -10.117  -7.421 -11.875  1.00  0.00    -0.000 C 
BRANCH   9  10
ATOM     10  C   UNL     1      -9.131  -7.779 -12.995  1.00  0.00    -0.000 C 
BRANCH  10  11
ATOM     11  C   UNL     1      -8.826  -6.560 -13.872  1.00  0.00    -0.000 C 
BRANCH  11  12
ATOM     12  C   UNL     1      -7.343  -6.514 -14.254  1.00  0.00    -0.003 C 
ATOM     13  C   UNL     1      -6.512  -7.416 -13.347  1.00  0.00     0.004 C 
ENDBRANCH  11  12
ENDBRANCH  10  11
ENDBRANCH   9  10
ENDBRANCH   8   9
ENDBRANCH   1   8
TORSDOF 9
ENDMDL
MODEL 8
REMARK VINA RESULT:    -4.106      2.447      3.867
REMARK INTER + INTRA:          -7.287
REMARK INTER:                  -6.282
REMARK INTRA:                  -1.006
REMARK UNBOUND:                -1.021
REMARK SMILES CCCCCCCCCCC(=O)[O-]
REMARK SMILES IDX 7 1 8 2 9 3 10 4 11 5 12 6 13 7 6 8 5 9 4 10 3 11 2 12 1 13
REMARK H PARENT
REMARK Flexibility Score: inf
ROOT
ATOM      1  C   UNL     1      -8.462  -5.510 -14.418  1.00  0.00     0.000 C 
ENDROOT
BRANCH   1   2
ATOM      2  C   UNL     1      -9.492  -6.650 -14.398  1.00  0.00     0.000 C 
BRANCH   2   3
ATOM      3  C   UNL     1      -9.197  -7.637 -13.259  1.00  0.00     0.006 C 
BRANCH   3   4
ATOM      4  C   UNL     1      -9.570  -7.067 -11.884  1.00  0.00     0.053 C 
BRANCH   4   5
ATOM      5  C   UNL     1      -8.693  -7.613 -10.800  1.00  0.00     0.041 C 
ATOM      6  O   UNL     1      -9.160  -7.826  -9.651  1.00  0.00    -0.550 OA
ATOM      7  O   UNL     1      -7.347  -7.857 -11.051  1.00  0.00    -0.550 OA
ENDBRANCH   4   5
ENDBRANCH   3   4
ENDBRANCH   2   3
ENDBRANCH   1   2
BRANCH   1   8
ATOM      8  C   UNL     1      -7.012  -6.021 -14.413  1.00  0.00     0.000 C 
BRANCH   8   9
ATOM      9  C   UNL     1      -6.165  -5.388 -13.300  1.00  0.00    -0.000 C 
BRANCH   9  10
ATOM     10  C   UNL     1      -6.184  -3.858 -13.399  1.00  0.00    -0.000 C 
BRANCH  10  11
ATOM     11  C   UNL     1      -6.681  -3.227 -12.092  1.00  0.00    -0.000 C 
BRANCH  11  12
ATOM     12  C   UNL     1      -7.065  -4.304 -11.072  1.00  0.00    -0.003 C 
ATOM     13  C   UNL     1      -6.591  -3.931  -9.671  1.00  0.00     0.004 C 
ENDBRANCH  11  12
ENDBRANCH  10  11
ENDBRANCH   9  10
ENDBRANCH   8   9
ENDBRANCH   1   8
TORSDOF 9
ENDMDL
MODEL 9
REMARK VINA RESULT:    -3.975      3.216      4.687
REMARK INTER + INTRA:          -7.088
REMARK INTER:                  -6.030
REMARK INTRA:                  -1.058
REMARK UNBOUND:                -1.021
REMARK SMILES CCCCCCCCCCC(=O)[O-]
REMARK SMILES IDX 7 1 8 2 9 3 10 4 11 5 12 6 13 7 6 8 5 9 4 10 3 11 2 12 1 13
REMARK H PARENT
REMARK Flexibility Score: inf
ROOT
ATOM      1  C   UNL     1      -7.978  -8.035 -11.529  1.00  0.00     0.000 C 
ENDROOT
BRANCH   1   2
ATOM      2  C   UNL     1      -7.735  -7.196 -10.265  1.00  0.00     0.000 C 
BRANCH   2   3
ATOM      3  C   UNL     1      -8.631  -5.949 -10.252  1.00  0.00     0.006 C 
BRANCH   3   4
ATOM      4  C   UNL     1     -10.113  -6.297 -10.442  1.00  0.00     0.053 C 
BRANCH   4   5
ATOM      5  C   UNL     1     -10.760  -6.691  -9.150  1.00  0.00     0.041 C 
ATOM      6  O   UNL     1     -11.105  -5.812  -8.317  1.00  0.00    -0.550 OA
ATOM      7  O   UNL     1     -10.952  -8.035  -8.851  1.00  0.00    -0.550 OA
ENDBRANCH   4   5
ENDBRANCH   3   4
ENDBRANCH   2   3
ENDBRANCH   1   2
BRANCH   1   8
ATOM      8  C   UNL     1      -7.107  -7.588 -12.715  1.00  0.00     0.000 C 
BRANCH   8   9
ATOM      9  C   UNL     1      -7.939  -7.141 -13.925  1.00  0.00    -0.000 C 
BRANCH   9  10
ATOM     10  C   UNL     1      -7.940  -5.612 -14.056  1.00  0.00    -0.000 C 
BRANCH  10  11
ATOM     11  C   UNL     1      -6.525  -5.044 -13.901  1.00  0.00    -0.000 C 
BRANCH  11  12
ATOM     12  C   UNL     1      -6.565  -3.549 -13.568  1.00  0.00    -0.003 C 
ATOM     13  C   UNL     1      -6.710  -3.322 -12.067  1.00  0.00     0.004 C 
ENDBRANCH  11  12
ENDBRANCH  10  11
ENDBRANCH   9  10
ENDBRANCH   8   9
ENDBRANCH   1   8
TORSDOF 9
ENDMDL
