MODEL 1
REMARK VINA RESULT:    -5.983      0.000      0.000
REMARK INTER + INTRA:          -5.983
REMARK INTER:                  -5.983
REMARK INTRA:                   0.000
REMARK UNBOUND:                 0.000
REMARK SMILES C=C1CCC[C@]2(C)C=C3OC(=O)C(C)=C3C[C@@H]12
REMARK SMILES IDX 14 1 13 2 15 3 16 4 17 5 2 6 1 7 3 8 4 9 5 10 6 11 8 12 9 13
REMARK SMILES IDX 10 14 11 15 12 16 7 17
REMARK H PARENT
REMARK Flexibility Score: inf
ROOT
ATOM      1  C   UNL     1     -39.762  76.388 -24.078  1.00  0.00     0.053 C 
ATOM      2  C   UNL     1     -39.535  75.902 -25.474  1.00  0.00     0.041 C 
ATOM      3  C   UNL     1     -38.360  75.764 -26.082  1.00  0.00     0.005 C 
ATOM      4  C   UNL     1     -36.977  75.977 -25.539  1.00  0.00     0.049 C 
ATOM      5  C   UNL     1     -36.004  76.195 -26.732  1.00  0.00     0.029 C 
ATOM      6  C   UNL     1     -34.532  76.348 -26.375  1.00  0.00    -0.073 C 
ATOM      7  C   UNL     1     -34.058  76.303 -25.117  1.00  0.00     0.008 C 
ATOM      8  C   UNL     1     -33.597  76.644 -27.526  1.00  0.00     0.031 C 
ATOM      9  C   UNL     1     -33.792  75.634 -28.664  1.00  0.00     0.005 C 
ATOM     10  C   UNL     1     -35.272  75.477 -29.061  1.00  0.00     0.012 C 
ATOM     11  C   UNL     1     -36.181  75.108 -27.856  1.00  0.00    -0.004 C 
ATOM     12  C   UNL     1     -37.632  75.076 -28.322  1.00  0.00     0.027 C 
ATOM     13  C   UNL     1     -38.607  75.335 -27.450  1.00  0.00     0.131 C 
ATOM     14  O   UNL     1     -39.970  75.253 -27.688  1.00  0.00    -0.423 OA
ATOM     15  C   UNL     1     -40.559  75.604 -26.479  1.00  0.00     0.339 C 
ATOM     16  O   UNL     1     -41.804  75.658 -26.294  1.00  0.00    -0.246 OA
ATOM     17  C   UNL     1     -35.829  73.691 -27.336  1.00  0.00     0.016 C 
ENDROOT
TORSDOF 0
ENDMDL
MODEL 2
REMARK VINA RESULT:    -5.768     14.781     16.427
REMARK INTER + INTRA:          -5.768
REMARK INTER:                  -5.768
REMARK INTRA:                   0.000
REMARK UNBOUND:                 0.000
REMARK SMILES C=C1CCC[C@]2(C)C=C3OC(=O)C(C)=C3C[C@@H]12
REMARK SMILES IDX 14 1 13 2 15 3 16 4 17 5 2 6 1 7 3 8 4 9 5 10 6 11 8 12 9 13
REMARK SMILES IDX 10 14 11 15 12 16 7 17
REMARK H PARENT
REMARK Flexibility Score: inf
ROOT
ATOM      1  C   UNL     1     -41.422  77.125 -12.960  1.00  0.00     0.053 C 
ATOM      2  C   UNL     1     -42.054  75.809 -12.634  1.00  0.00     0.041 C 
ATOM      3  C   UNL     1     -41.514  74.828 -11.916  1.00  0.00     0.005 C 
ATOM      4  C   UNL     1     -40.198  74.790 -11.195  1.00  0.00     0.049 C 
ATOM      5  C   UNL     1     -39.803  73.305 -10.961  1.00  0.00     0.029 C 
ATOM      6  C   UNL     1     -38.526  73.070 -10.165  1.00  0.00    -0.073 C 
ATOM      7  C   UNL     1     -37.758  74.059  -9.674  1.00  0.00     0.008 C 
ATOM      8  C   UNL     1     -38.097  71.628 -10.010  1.00  0.00     0.031 C 
ATOM      9  C   UNL     1     -39.250  70.767  -9.480  1.00  0.00     0.005 C 
ATOM     10  C   UNL     1     -40.549  70.969 -10.284  1.00  0.00     0.012 C 
ATOM     11  C   UNL     1     -40.984  72.459 -10.357  1.00  0.00    -0.004 C 
ATOM     12  C   UNL     1     -42.213  72.572 -11.253  1.00  0.00     0.027 C 
ATOM     13  C   UNL     1     -42.442  73.708 -11.912  1.00  0.00     0.131 C 
ATOM     14  O   UNL     1     -43.555  74.004 -12.683  1.00  0.00    -0.423 OA
ATOM     15  C   UNL     1     -43.330  75.297 -13.141  1.00  0.00     0.339 C 
ATOM     16  O   UNL     1     -44.123  75.924 -13.892  1.00  0.00    -0.246 OA
ATOM     17  C   UNL     1     -41.387  72.968  -8.950  1.00  0.00     0.016 C 
ENDROOT
TORSDOF 0
ENDMDL
MODEL 3
REMARK VINA RESULT:    -5.494     14.924     16.312
REMARK INTER + INTRA:          -5.494
REMARK INTER:                  -5.494
REMARK INTRA:                   0.000
REMARK UNBOUND:                 0.000
REMARK SMILES C=C1CCC[C@]2(C)C=C3OC(=O)C(C)=C3C[C@@H]12
REMARK SMILES IDX 14 1 13 2 15 3 16 4 17 5 2 6 1 7 3 8 4 9 5 10 6 11 8 12 9 13
REMARK SMILES IDX 10 14 11 15 12 16 7 17
REMARK H PARENT
REMARK Flexibility Score: inf
ROOT
ATOM      1  C   UNL     1     -43.835  73.625 -13.708  1.00  0.00     0.053 C 
ATOM      2  C   UNL     1     -42.971  74.626 -13.009  1.00  0.00     0.041 C 
ATOM      3  C   UNL     1     -41.913  74.364 -12.247  1.00  0.00     0.005 C 
ATOM      4  C   UNL     1     -41.265  73.045 -11.941  1.00  0.00     0.049 C 
ATOM      5  C   UNL     1     -40.429  73.193 -10.639  1.00  0.00     0.029 C 
ATOM      6  C   UNL     1     -39.629  71.969 -10.214  1.00  0.00    -0.073 C 
ATOM      7  C   UNL     1     -39.617  70.809 -10.896  1.00  0.00     0.008 C 
ATOM      8  C   UNL     1     -38.883  72.084  -8.904  1.00  0.00     0.031 C 
ATOM      9  C   UNL     1     -38.019  73.352  -8.875  1.00  0.00     0.005 C 
ATOM     10  C   UNL     1     -38.811  74.610  -9.279  1.00  0.00     0.012 C 
ATOM     11  C   UNL     1     -39.504  74.466 -10.662  1.00  0.00    -0.004 C 
ATOM     12  C   UNL     1     -40.343  75.710 -10.928  1.00  0.00     0.027 C 
ATOM     13  C   UNL     1     -41.418  75.623 -11.711  1.00  0.00     0.131 C 
ATOM     14  O   UNL     1     -42.224  76.671 -12.127  1.00  0.00    -0.423 OA
ATOM     15  C   UNL     1     -43.192  76.073 -12.926  1.00  0.00     0.339 C 
ATOM     16  O   UNL     1     -44.125  76.704 -13.489  1.00  0.00    -0.246 OA
ATOM     17  C   UNL     1     -38.440  74.374 -11.785  1.00  0.00     0.016 C 
ENDROOT
TORSDOF 0
ENDMDL
MODEL 4
REMARK VINA RESULT:    -5.373     14.767     16.526
REMARK INTER + INTRA:          -5.373
REMARK INTER:                  -5.373
REMARK INTRA:                   0.000
REMARK UNBOUND:                 0.000
REMARK SMILES C=C1CCC[C@]2(C)C=C3OC(=O)C(C)=C3C[C@@H]12
REMARK SMILES IDX 14 1 13 2 15 3 16 4 17 5 2 6 1 7 3 8 4 9 5 10 6 11 8 12 9 13
REMARK SMILES IDX 10 14 11 15 12 16 7 17
REMARK H PARENT
REMARK Flexibility Score: inf
ROOT
ATOM      1  C   UNL     1     -39.369  70.996 -10.205  1.00  0.00     0.053 C 
ATOM      2  C   UNL     1     -39.566  72.469 -10.377  1.00  0.00     0.041 C 
ATOM      3  C   UNL     1     -40.538  73.062 -11.065  1.00  0.00     0.005 C 
ATOM      4  C   UNL     1     -41.709  72.450 -11.776  1.00  0.00     0.049 C 
ATOM      5  C   UNL     1     -42.237  73.466 -12.828  1.00  0.00     0.029 C 
ATOM      6  C   UNL     1     -43.483  73.047 -13.596  1.00  0.00    -0.073 C 
ATOM      7  C   UNL     1     -44.123  71.879 -13.406  1.00  0.00     0.008 C 
ATOM      8  C   UNL     1     -43.946  73.997 -14.678  1.00  0.00     0.031 C 
ATOM      9  C   UNL     1     -44.081  75.425 -14.134  1.00  0.00     0.005 C 
ATOM     10  C   UNL     1     -42.822  75.881 -13.371  1.00  0.00     0.012 C 
ATOM     11  C   UNL     1     -42.426  74.907 -12.227  1.00  0.00    -0.004 C 
ATOM     12  C   UNL     1     -41.120  75.384 -11.602  1.00  0.00     0.027 C 
ATOM     13  C   UNL     1     -40.305  74.498 -11.029  1.00  0.00     0.131 C 
ATOM     14  O   UNL     1     -39.138  74.777 -10.336  1.00  0.00    -0.423 OA
ATOM     15  C   UNL     1     -38.665  73.535  -9.930  1.00  0.00     0.339 C 
ATOM     16  O   UNL     1     -37.603  73.369  -9.273  1.00  0.00    -0.246 OA
ATOM     17  C   UNL     1     -43.506  74.922 -11.116  1.00  0.00     0.016 C 
ENDROOT
TORSDOF 0
ENDMDL
MODEL 5
REMARK VINA RESULT:    -5.260      2.193      5.116
REMARK INTER + INTRA:          -5.260
REMARK INTER:                  -5.260
REMARK INTRA:                   0.000
REMARK UNBOUND:                 0.000
REMARK SMILES C=C1CCC[C@]2(C)C=C3OC(=O)C(C)=C3C[C@@H]12
REMARK SMILES IDX 14 1 13 2 15 3 16 4 17 5 2 6 1 7 3 8 4 9 5 10 6 11 8 12 9 13
REMARK SMILES IDX 10 14 11 15 12 16 7 17
REMARK H PARENT
REMARK Flexibility Score: inf
ROOT
ATOM      1  C   UNL     1     -34.010  74.680 -26.296  1.00  0.00     0.053 C 
ATOM      2  C   UNL     1     -35.217  74.506 -27.162  1.00  0.00     0.041 C 
ATOM      3  C   UNL     1     -36.452  74.916 -26.888  1.00  0.00     0.005 C 
ATOM      4  C   UNL     1     -36.955  75.703 -25.713  1.00  0.00     0.049 C 
ATOM      5  C   UNL     1     -38.489  75.482 -25.588  1.00  0.00     0.029 C 
ATOM      6  C   UNL     1     -39.191  76.272 -24.492  1.00  0.00    -0.073 C 
ATOM      7  C   UNL     1     -38.561  77.123 -23.661  1.00  0.00     0.008 C 
ATOM      8  C   UNL     1     -40.666  75.994 -24.314  1.00  0.00     0.031 C 
ATOM      9  C   UNL     1     -41.411  76.112 -25.650  1.00  0.00     0.005 C 
ATOM     10  C   UNL     1     -40.733  75.302 -26.772  1.00  0.00     0.012 C 
ATOM     11  C   UNL     1     -39.236  75.672 -26.959  1.00  0.00    -0.004 C 
ATOM     12  C   UNL     1     -38.627  74.752 -28.012  1.00  0.00     0.027 C 
ATOM     13  C   UNL     1     -37.323  74.476 -27.967  1.00  0.00     0.131 C 
ATOM     14  O   UNL     1     -36.603  73.743 -28.897  1.00  0.00    -0.423 OA
ATOM     15  C   UNL     1     -35.299  73.748 -28.413  1.00  0.00     0.339 C 
ATOM     16  O   UNL     1     -34.337  73.169 -28.983  1.00  0.00    -0.246 OA
ATOM     17  C   UNL     1     -39.106  77.125 -27.481  1.00  0.00     0.016 C 
ENDROOT
TORSDOF 0
ENDMDL
MODEL 6
REMARK VINA RESULT:    -5.141     14.927     16.589
REMARK INTER + INTRA:          -5.141
REMARK INTER:                  -5.141
REMARK INTRA:                   0.000
REMARK UNBOUND:                 0.000
REMARK SMILES C=C1CCC[C@]2(C)C=C3OC(=O)C(C)=C3C[C@@H]12
REMARK SMILES IDX 14 1 13 2 15 3 16 4 17 5 2 6 1 7 3 8 4 9 5 10 6 11 8 12 9 13
REMARK SMILES IDX 10 14 11 15 12 16 7 17
REMARK H PARENT
REMARK Flexibility Score: inf
ROOT
ATOM      1  C   UNL     1     -42.873  72.060 -11.584  1.00  0.00     0.053 C 
ATOM      2  C   UNL     1     -41.602  72.167 -10.803  1.00  0.00     0.041 C 
ATOM      3  C   UNL     1     -40.732  73.172 -10.842  1.00  0.00     0.005 C 
ATOM      4  C   UNL     1     -40.810  74.469 -11.594  1.00  0.00     0.049 C 
ATOM      5  C   UNL     1     -39.374  75.050 -11.730  1.00  0.00     0.029 C 
ATOM      6  C   UNL     1     -39.265  76.413 -12.401  1.00  0.00    -0.073 C 
ATOM      7  C   UNL     1     -40.322  77.108 -12.860  1.00  0.00     0.008 C 
ATOM      8  C   UNL     1     -37.863  76.940 -12.609  1.00  0.00     0.031 C 
ATOM      9  C   UNL     1     -37.061  76.896 -11.302  1.00  0.00     0.005 C 
ATOM     10  C   UNL     1     -37.136  75.519 -10.615  1.00  0.00     0.012 C 
ATOM     11  C   UNL     1     -38.597  75.052 -10.363  1.00  0.00    -0.004 C 
ATOM     12  C   UNL     1     -38.573  73.644  -9.779  1.00  0.00     0.027 C 
ATOM     13  C   UNL     1     -39.608  72.830  -9.984  1.00  0.00     0.131 C 
ATOM     14  O   UNL     1     -39.784  71.566  -9.445  1.00  0.00    -0.423 OA
ATOM     15  C   UNL     1     -41.009  71.139  -9.944  1.00  0.00     0.339 C 
ATOM     16  O   UNL     1     -41.519  70.016  -9.686  1.00  0.00    -0.246 OA
ATOM     17  C   UNL     1     -39.280  75.975  -9.322  1.00  0.00     0.016 C 
ENDROOT
TORSDOF 0
ENDMDL
MODEL 7
REMARK VINA RESULT:    -4.357     15.057     16.893
REMARK INTER + INTRA:          -4.357
REMARK INTER:                  -4.357
REMARK INTRA:                   0.000
REMARK UNBOUND:                 0.000
REMARK SMILES C=C1CCC[C@]2(C)C=C3OC(=O)C(C)=C3C[C@@H]12
REMARK SMILES IDX 14 1 13 2 15 3 16 4 17 5 2 6 1 7 3 8 4 9 5 10 6 11 8 12 9 13
REMARK SMILES IDX 10 14 11 15 12 16 7 17
REMARK H PARENT
REMARK Flexibility Score: inf
ROOT
ATOM      1  C   UNL     1     -37.479  72.908 -10.233  1.00  0.00     0.053 C 
ATOM      2  C   UNL     1     -38.924  72.524 -10.212  1.00  0.00     0.041 C 
ATOM      3  C   UNL     1     -39.935  73.219 -10.725  1.00  0.00     0.005 C 
ATOM      4  C   UNL     1     -39.908  74.501 -11.506  1.00  0.00     0.049 C 
ATOM      5  C   UNL     1     -41.314  75.160 -11.427  1.00  0.00     0.029 C 
ATOM      6  C   UNL     1     -41.500  76.438 -12.233  1.00  0.00    -0.073 C 
ATOM      7  C   UNL     1     -40.534  76.997 -12.984  1.00  0.00     0.008 C 
ATOM      8  C   UNL     1     -42.840  77.125 -12.089  1.00  0.00     0.031 C 
ATOM      9  C   UNL     1     -43.990  76.139 -12.334  1.00  0.00     0.005 C 
ATOM     10  C   UNL     1     -43.837  74.846 -11.511  1.00  0.00     0.012 C 
ATOM     11  C   UNL     1     -42.471  74.143 -11.745  1.00  0.00    -0.004 C 
ATOM     12  C   UNL     1     -42.370  72.937 -10.817  1.00  0.00     0.027 C 
ATOM     13  C   UNL     1     -41.170  72.516 -10.416  1.00  0.00     0.131 C 
ATOM     14  O   UNL     1     -40.903  71.387  -9.658  1.00  0.00    -0.423 OA
ATOM     15  C   UNL     1     -39.520  71.379  -9.518  1.00  0.00     0.339 C 
ATOM     16  O   UNL     1     -38.885  70.501  -8.875  1.00  0.00    -0.246 OA
ATOM     17  C   UNL     1     -42.383  73.618 -13.200  1.00  0.00     0.016 C 
ENDROOT
TORSDOF 0
ENDMDL
MODEL 8
REMARK VINA RESULT:    -4.275      1.361      1.971
REMARK INTER + INTRA:          -4.275
REMARK INTER:                  -4.275
REMARK INTRA:                   0.000
REMARK UNBOUND:                 0.000
REMARK SMILES C=C1CCC[C@]2(C)C=C3OC(=O)C(C)=C3C[C@@H]12
REMARK SMILES IDX 14 1 13 2 15 3 16 4 17 5 2 6 1 7 3 8 4 9 5 10 6 11 8 12 9 13
REMARK SMILES IDX 10 14 11 15 12 16 7 17
REMARK H PARENT
REMARK Flexibility Score: inf
ROOT
ATOM      1  C   UNL     1     -39.047  76.746 -21.869  1.00  0.00     0.053 C 
ATOM      2  C   UNL     1     -39.443  76.354 -23.257  1.00  0.00     0.041 C 
ATOM      3  C   UNL     1     -38.624  76.123 -24.279  1.00  0.00     0.005 C 
ATOM      4  C   UNL     1     -37.123  76.118 -24.312  1.00  0.00     0.049 C 
ATOM      5  C   UNL     1     -36.659  76.313 -25.783  1.00  0.00     0.029 C 
ATOM      6  C   UNL     1     -35.156  76.253 -26.023  1.00  0.00    -0.073 C 
ATOM      7  C   UNL     1     -34.250  76.045 -25.051  1.00  0.00     0.008 C 
ATOM      8  C   UNL     1     -34.699  76.526 -27.439  1.00  0.00     0.031 C 
ATOM      9  C   UNL     1     -35.459  75.646 -28.440  1.00  0.00     0.005 C 
ATOM     10  C   UNL     1     -36.985  75.706 -28.232  1.00  0.00     0.012 C 
ATOM     11  C   UNL     1     -37.408  75.353 -26.779  1.00  0.00    -0.004 C 
ATOM     12  C   UNL     1     -38.915  75.540 -26.644  1.00  0.00     0.027 C 
ATOM     13  C   UNL     1     -39.434  75.843 -25.454  1.00  0.00     0.131 C 
ATOM     14  O   UNL     1     -40.781  75.950 -25.144  1.00  0.00    -0.423 OA
ATOM     15  C   UNL     1     -40.805  76.269 -23.792  1.00  0.00     0.339 C 
ATOM     16  O   UNL     1     -41.863  76.461 -23.135  1.00  0.00    -0.246 OA
ATOM     17  C   UNL     1     -37.095  73.865 -26.479  1.00  0.00     0.016 C 
ENDROOT
TORSDOF 0
ENDMDL
MODEL 9
REMARK VINA RESULT:    -4.186     14.903     16.336
REMARK INTER + INTRA:          -4.186
REMARK INTER:                  -4.186
REMARK INTRA:                   0.000
REMARK UNBOUND:                 0.000
REMARK SMILES C=C1CCC[C@]2(C)C=C3OC(=O)C(C)=C3C[C@@H]12
REMARK SMILES IDX 14 1 13 2 15 3 16 4 17 5 2 6 1 7 3 8 4 9 5 10 6 11 8 12 9 13
REMARK SMILES IDX 10 14 11 15 12 16 7 17
REMARK H PARENT
REMARK Flexibility Score: inf
ROOT
ATOM      1  C   UNL     1     -37.755  74.022  -9.650  1.00  0.00     0.053 C 
ATOM      2  C   UNL     1     -38.481  75.091 -10.402  1.00  0.00     0.041 C 
ATOM      3  C   UNL     1     -39.654  74.970 -11.017  1.00  0.00     0.005 C 
ATOM      4  C   UNL     1     -40.583  73.792 -11.068  1.00  0.00     0.049 C 
ATOM      5  C   UNL     1     -41.525  73.956 -12.295  1.00  0.00     0.029 C 
ATOM      6  C   UNL     1     -42.597  72.888 -12.462  1.00  0.00    -0.073 C 
ATOM      7  C   UNL     1     -42.757  71.850 -11.622  1.00  0.00     0.008 C 
ATOM      8  C   UNL     1     -43.458  73.000 -13.700  1.00  0.00     0.031 C 
ATOM      9  C   UNL     1     -44.050  74.410 -13.831  1.00  0.00     0.005 C 
ATOM     10  C   UNL     1     -42.980  75.509 -13.688  1.00  0.00     0.012 C 
ATOM     11  C   UNL     1     -42.168  75.390 -12.368  1.00  0.00    -0.004 C 
ATOM     12  C   UNL     1     -41.072  76.450 -12.364  1.00  0.00     0.027 C 
ATOM     13  C   UNL     1     -39.949  76.230 -11.680  1.00  0.00     0.131 C 
ATOM     14  O   UNL     1     -38.907  77.125 -11.496  1.00  0.00    -0.423 OA
ATOM     15  C   UNL     1     -37.988  76.436 -10.712  1.00  0.00     0.339 C 
ATOM     16  O   UNL     1     -36.887  76.918 -10.336  1.00  0.00    -0.246 OA
ATOM     17  C   UNL     1     -43.085  75.665 -11.150  1.00  0.00     0.016 C 
ENDROOT
TORSDOF 0
ENDMDL
