MODEL 1
REMARK VINA RESULT:    -4.114      0.000      0.000
REMARK INTER + INTRA:          -4.938
REMARK INTER:                  -4.835
REMARK INTRA:                  -0.103
REMARK UNBOUND:                -0.103
REMARK SMILES CCCCC(=O)[O-]
REMARK SMILES IDX 4 1 5 2 6 3 7 4 3 5 2 6 1 7
REMARK H PARENT
REMARK Flexibility Score: inf
ROOT
ATOM      1  C   UNL     1      -3.517  18.719  27.144  1.00  0.00     0.053 C 
ENDROOT
BRANCH   1   2
ATOM      2  C   UNL     1      -2.680  17.790  27.968  1.00  0.00     0.041 C 
ATOM      3  O   UNL     1      -1.768  18.245  28.709  1.00  0.00    -0.550 OA
ATOM      4  O   UNL     1      -2.887  16.419  27.898  1.00  0.00    -0.550 OA
ENDBRANCH   1   2
BRANCH   1   5
ATOM      5  C   UNL     1      -3.410  20.183  27.604  1.00  0.00     0.006 C 
BRANCH   5   6
ATOM      6  C   UNL     1      -2.782  21.122  26.559  1.00  0.00    -0.003 C 
ATOM      7  C   UNL     1      -1.319  20.795  26.260  1.00  0.00     0.004 C 
ENDBRANCH   5   6
ENDBRANCH   1   5
TORSDOF 3
ENDMDL
MODEL 2
REMARK VINA RESULT:    -3.904      1.358      1.746
REMARK INTER + INTRA:          -4.691
REMARK INTER:                  -4.680
REMARK INTRA:                  -0.011
REMARK UNBOUND:                -0.103
REMARK SMILES CCCCC(=O)[O-]
REMARK SMILES IDX 4 1 5 2 6 3 7 4 3 5 2 6 1 7
REMARK H PARENT
REMARK Flexibility Score: inf
ROOT
ATOM      1  C   UNL     1      -1.934  19.022  28.487  1.00  0.00     0.053 C 
ENDROOT
BRANCH   1   2
ATOM      2  C   UNL     1      -2.883  18.075  27.818  1.00  0.00     0.041 C 
ATOM      3  O   UNL     1      -2.749  16.831  27.967  1.00  0.00    -0.550 OA
ATOM      4  O   UNL     1      -3.898  18.564  27.007  1.00  0.00    -0.550 OA
ENDBRANCH   1   2
BRANCH   1   5
ATOM      5  C   UNL     1      -1.881  20.397  27.798  1.00  0.00     0.006 C 
BRANCH   5   6
ATOM      6  C   UNL     1      -1.123  20.394  26.458  1.00  0.00    -0.003 C 
ATOM      7  C   UNL     1      -1.279  21.697  25.677  1.00  0.00     0.004 C 
ENDBRANCH   5   6
ENDBRANCH   1   5
TORSDOF 3
ENDMDL
MODEL 3
REMARK VINA RESULT:    -3.386      2.350      3.711
REMARK INTER + INTRA:          -4.082
REMARK INTER:                  -4.026
REMARK INTRA:                  -0.056
REMARK UNBOUND:                -0.103
REMARK SMILES CCCCC(=O)[O-]
REMARK SMILES IDX 4 1 5 2 6 3 7 4 3 5 2 6 1 7
REMARK H PARENT
REMARK Flexibility Score: inf
ROOT
ATOM      1  C   UNL     1      -3.028  19.416  27.555  1.00  0.00     0.053 C 
ENDROOT
BRANCH   1   2
ATOM      2  C   UNL     1      -2.462  20.581  26.803  1.00  0.00     0.041 C 
ATOM      3  O   UNL     1      -3.182  21.584  26.548  1.00  0.00    -0.550 OA
ATOM      4  O   UNL     1      -1.148  20.550  26.357  1.00  0.00    -0.550 OA
ENDBRANCH   1   2
BRANCH   1   5
ATOM      5  C   UNL     1      -2.075  18.888  28.641  1.00  0.00     0.006 C 
BRANCH   5   6
ATOM      6  C   UNL     1      -1.861  17.365  28.597  1.00  0.00    -0.003 C 
ATOM      7  C   UNL     1      -2.939  16.629  27.802  1.00  0.00     0.004 C 
ENDBRANCH   5   6
ENDBRANCH   1   5
TORSDOF 3
ENDMDL
MODEL 4
REMARK VINA RESULT:    -3.324     11.733     12.294
REMARK INTER + INTRA:          -4.010
REMARK INTER:                  -3.996
REMARK INTRA:                  -0.014
REMARK UNBOUND:                -0.103
REMARK SMILES CCCCC(=O)[O-]
REMARK SMILES IDX 4 1 5 2 6 3 7 4 3 5 2 6 1 7
REMARK H PARENT
REMARK Flexibility Score: inf
ROOT
ATOM      1  C   UNL     1      -2.857  10.549  19.188  1.00  0.00     0.053 C 
ENDROOT
BRANCH   1   2
ATOM      2  C   UNL     1      -1.474  10.854  18.701  1.00  0.00     0.041 C 
ATOM      3  O   UNL     1      -0.931  11.957  18.979  1.00  0.00    -0.550 OA
ATOM      4  O   UNL     1      -0.793   9.934  17.916  1.00  0.00    -0.550 OA
ENDBRANCH   1   2
BRANCH   1   5
ATOM      5  C   UNL     1      -2.881   9.445  20.259  1.00  0.00     0.006 C 
BRANCH   5   6
ATOM      6  C   UNL     1      -1.632   9.422  21.158  1.00  0.00    -0.003 C 
ATOM      7  C   UNL     1      -1.628   8.261  22.151  1.00  0.00     0.004 C 
ENDBRANCH   5   6
ENDBRANCH   1   5
TORSDOF 3
ENDMDL
MODEL 5
REMARK VINA RESULT:    -3.315     12.995     13.817
REMARK INTER + INTRA:          -4.000
REMARK INTER:                  -3.895
REMARK INTRA:                  -0.104
REMARK UNBOUND:                -0.103
REMARK SMILES CCCCC(=O)[O-]
REMARK SMILES IDX 4 1 5 2 6 3 7 4 3 5 2 6 1 7
REMARK H PARENT
REMARK Flexibility Score: inf
ROOT
ATOM      1  C   UNL     1       9.369  15.233  23.583  1.00  0.00     0.053 C 
ENDROOT
BRANCH   1   2
ATOM      2  C   UNL     1       8.423  14.609  24.563  1.00  0.00     0.041 C 
ATOM      3  O   UNL     1       8.838  14.221  25.688  1.00  0.00    -0.550 OA
ATOM      4  O   UNL     1       7.089  14.430  24.226  1.00  0.00    -0.550 OA
ENDBRANCH   1   2
BRANCH   1   5
ATOM      5  C   UNL     1      10.436  14.247  23.076  1.00  0.00     0.006 C 
BRANCH   5   6
ATOM      6  C   UNL     1      11.872  14.615  23.489  1.00  0.00    -0.003 C 
ATOM      7  C   UNL     1      12.263  14.064  24.859  1.00  0.00     0.004 C 
ENDBRANCH   5   6
ENDBRANCH   1   5
TORSDOF 3
ENDMDL
MODEL 6
REMARK VINA RESULT:    -3.281      6.772      7.325
REMARK INTER + INTRA:          -3.959
REMARK INTER:                  -3.943
REMARK INTRA:                  -0.016
REMARK UNBOUND:                -0.103
REMARK SMILES CCCCC(=O)[O-]
REMARK SMILES IDX 4 1 5 2 6 3 7 4 3 5 2 6 1 7
REMARK H PARENT
REMARK Flexibility Score: inf
ROOT
ATOM      1  C   UNL     1       0.760  20.687  32.375  1.00  0.00     0.053 C 
ENDROOT
BRANCH   1   2
ATOM      2  C   UNL     1       1.904  19.817  32.796  1.00  0.00     0.041 C 
ATOM      3  O   UNL     1       1.703  18.815  33.533  1.00  0.00    -0.550 OA
ATOM      4  O   UNL     1       3.197  20.126  32.399  1.00  0.00    -0.550 OA
ENDBRANCH   1   2
BRANCH   1   5
ATOM      5  C   UNL     1       0.239  21.578  33.516  1.00  0.00     0.006 C 
BRANCH   5   6
ATOM      6  C   UNL     1      -0.578  22.791  33.037  1.00  0.00    -0.003 C 
ATOM      7  C   UNL     1      -1.075  23.672  34.182  1.00  0.00     0.004 C 
ENDBRANCH   5   6
ENDBRANCH   1   5
TORSDOF 3
ENDMDL
MODEL 7
REMARK VINA RESULT:    -3.258     12.727     13.523
REMARK INTER + INTRA:          -3.933
REMARK INTER:                  -3.913
REMARK INTRA:                  -0.019
REMARK UNBOUND:                -0.103
REMARK SMILES CCCCC(=O)[O-]
REMARK SMILES IDX 4 1 5 2 6 3 7 4 3 5 2 6 1 7
REMARK H PARENT
REMARK Flexibility Score: inf
ROOT
ATOM      1  C   UNL     1       9.610  14.829  23.542  1.00  0.00     0.053 C 
ENDROOT
BRANCH   1   2
ATOM      2  C   UNL     1      11.011  14.482  23.944  1.00  0.00     0.041 C 
ATOM      3  O   UNL     1      11.934  14.474  23.087  1.00  0.00    -0.550 OA
ATOM      4  O   UNL     1      11.293  14.140  25.259  1.00  0.00    -0.550 OA
ENDBRANCH   1   2
BRANCH   1   5
ATOM      5  C   UNL     1       8.594  14.610  24.677  1.00  0.00     0.006 C 
BRANCH   5   6
ATOM      6  C   UNL     1       7.133  14.532  24.199  1.00  0.00    -0.003 C 
ATOM      7  C   UNL     1       6.173  15.343  25.067  1.00  0.00     0.004 C 
ENDBRANCH   5   6
ENDBRANCH   1   5
TORSDOF 3
ENDMDL
MODEL 8
REMARK VINA RESULT:    -3.257     11.834     12.630
REMARK INTER + INTRA:          -3.931
REMARK INTER:                  -3.898
REMARK INTRA:                  -0.033
REMARK UNBOUND:                -0.103
REMARK SMILES CCCCC(=O)[O-]
REMARK SMILES IDX 4 1 5 2 6 3 7 4 3 5 2 6 1 7
REMARK H PARENT
REMARK Flexibility Score: inf
ROOT
ATOM      1  C   UNL     1       8.358  14.621  24.758  1.00  0.00     0.053 C 
ENDROOT
BRANCH   1   2
ATOM      2  C   UNL     1       6.888  14.792  24.523  1.00  0.00     0.041 C 
ATOM      3  O   UNL     1       6.351  14.322  23.485  1.00  0.00    -0.550 OA
ATOM      4  O   UNL     1       6.114  15.494  25.437  1.00  0.00    -0.550 OA
ENDBRANCH   1   2
BRANCH   1   5
ATOM      5  C   UNL     1       9.214  15.224  23.631  1.00  0.00     0.006 C 
BRANCH   5   6
ATOM      6  C   UNL     1      10.325  14.289  23.123  1.00  0.00    -0.003 C 
ATOM      7  C   UNL     1      11.683  14.560  23.768  1.00  0.00     0.004 C 
ENDBRANCH   5   6
ENDBRANCH   1   5
TORSDOF 3
ENDMDL
MODEL 9
REMARK VINA RESULT:    -3.099      7.301      7.950
REMARK INTER + INTRA:          -3.745
REMARK INTER:                  -3.723
REMARK INTRA:                  -0.022
REMARK UNBOUND:                -0.103
REMARK SMILES CCCCC(=O)[O-]
REMARK SMILES IDX 4 1 5 2 6 3 7 4 3 5 2 6 1 7
REMARK H PARENT
REMARK Flexibility Score: inf
ROOT
ATOM      1  C   UNL     1      -0.007  21.852  32.746  1.00  0.00     0.053 C 
ENDROOT
BRANCH   1   2
ATOM      2  C   UNL     1      -0.427  22.982  33.636  1.00  0.00     0.041 C 
ATOM      3  O   UNL     1       0.253  23.274  34.656  1.00  0.00    -0.550 OA
ATOM      4  O   UNL     1      -1.584  23.696  33.356  1.00  0.00    -0.550 OA
ENDBRANCH   1   2
BRANCH   1   5
ATOM      5  C   UNL     1       1.076  20.964  33.383  1.00  0.00     0.006 C 
BRANCH   5   6
ATOM      6  C   UNL     1       1.881  20.137  32.366  1.00  0.00    -0.003 C 
ATOM      7  C   UNL     1       3.336  19.924  32.780  1.00  0.00     0.004 C 
ENDBRANCH   5   6
ENDBRANCH   1   5
TORSDOF 3
ENDMDL
