MODEL 1
REMARK VINA RESULT:    -4.916      0.000      0.000
REMARK INTER + INTRA:          -5.556
REMARK INTER:                  -5.490
REMARK INTRA:                  -0.065
REMARK UNBOUND:                -0.065
REMARK SMILES COc1ccc(C(=O)[O-])cc1
REMARK SMILES IDX 6 1 5 2 10 3 4 4 11 5 3 6 7 7 8 8 9 9 2 10 1 11
REMARK H PARENT
REMARK Flexibility Score: inf
ROOT
ATOM      1  C   UNL     1     -35.045  43.893  40.783  1.00  0.00    -0.003 A 
ATOM      2  C   UNL     1     -35.126  45.239  40.384  1.00  0.00     0.014 A 
ATOM      3  C   UNL     1     -34.596  42.935  39.858  1.00  0.00     0.014 A 
ATOM      4  C   UNL     1     -34.765  45.618  39.088  1.00  0.00     0.047 A 
ATOM      5  C   UNL     1     -34.236  43.316  38.562  1.00  0.00     0.047 A 
ATOM      6  C   UNL     1     -34.315  44.655  38.164  1.00  0.00     0.118 A 
ENDROOT
BRANCH   1   7
ATOM      7  C   UNL     1     -35.426  43.488  42.154  1.00  0.00     0.071 C 
ATOM      8  O   UNL     1     -35.873  44.335  42.972  1.00  0.00    -0.545 OA
ATOM      9  O   UNL     1     -35.295  42.164  42.558  1.00  0.00    -0.545 OA
ENDBRANCH   1   7
BRANCH   6  10
ATOM     10  O   UNL     1     -33.943  44.984  36.853  1.00  0.00    -0.497 OA
ATOM     11  C   UNL     1     -33.520  46.280  36.439  1.00  0.00     0.278 C 
ENDBRANCH   6  10
TORSDOF 2
ENDMDL
MODEL 2
REMARK VINA RESULT:    -4.887      0.079      1.461
REMARK INTER + INTRA:          -5.524
REMARK INTER:                  -5.455
REMARK INTRA:                  -0.069
REMARK UNBOUND:                -0.065
REMARK SMILES COc1ccc(C(=O)[O-])cc1
REMARK SMILES IDX 6 1 5 2 10 3 4 4 11 5 3 6 7 7 8 8 9 9 2 10 1 11
REMARK H PARENT
REMARK Flexibility Score: inf
ROOT
ATOM      1  C   UNL     1     -35.077  43.877  40.788  1.00  0.00    -0.003 A 
ATOM      2  C   UNL     1     -34.669  42.887  39.877  1.00  0.00     0.014 A 
ATOM      3  C   UNL     1     -35.107  45.218  40.367  1.00  0.00     0.014 A 
ATOM      4  C   UNL     1     -34.298  43.231  38.573  1.00  0.00     0.047 A 
ATOM      5  C   UNL     1     -34.736  45.560  39.064  1.00  0.00     0.047 A 
ATOM      6  C   UNL     1     -34.330  44.575  38.157  1.00  0.00     0.118 A 
ENDROOT
BRANCH   1   7
ATOM      7  C   UNL     1     -35.470  43.517  42.168  1.00  0.00     0.071 C 
ATOM      8  O   UNL     1     -35.864  44.401  42.974  1.00  0.00    -0.545 OA
ATOM      9  O   UNL     1     -35.411  42.195  42.594  1.00  0.00    -0.545 OA
ENDBRANCH   1   7
BRANCH   6  10
ATOM     10  O   UNL     1     -33.967  44.971  36.861  1.00  0.00    -0.497 OA
ATOM     11  C   UNL     1     -33.460  46.259  36.527  1.00  0.00     0.278 C 
ENDBRANCH   6  10
TORSDOF 2
ENDMDL
MODEL 3
REMARK VINA RESULT:    -4.791      0.938      4.965
REMARK INTER + INTRA:          -5.416
REMARK INTER:                  -5.354
REMARK INTRA:                  -0.062
REMARK UNBOUND:                -0.065
REMARK SMILES COc1ccc(C(=O)[O-])cc1
REMARK SMILES IDX 6 1 5 2 10 3 4 4 11 5 3 6 7 7 8 8 9 9 2 10 1 11
REMARK H PARENT
REMARK Flexibility Score: inf
ROOT
ATOM      1  C   UNL     1     -34.252  45.085  38.303  1.00  0.00    -0.003 A 
ATOM      2  C   UNL     1     -34.146  43.684  38.354  1.00  0.00     0.014 A 
ATOM      3  C   UNL     1     -34.751  45.770  39.424  1.00  0.00     0.014 A 
ATOM      4  C   UNL     1     -34.533  42.983  39.499  1.00  0.00     0.047 A 
ATOM      5  C   UNL     1     -35.138  45.068  40.569  1.00  0.00     0.047 A 
ATOM      6  C   UNL     1     -35.034  43.674  40.620  1.00  0.00     0.118 A 
ENDROOT
BRANCH   1   7
ATOM      7  C   UNL     1     -33.842  45.830  37.093  1.00  0.00     0.071 C 
ATOM      8  O   UNL     1     -34.706  46.283  36.296  1.00  0.00    -0.545 OA
ATOM      9  O   UNL     1     -32.496  46.041  36.818  1.00  0.00    -0.545 OA
ENDBRANCH   1   7
BRANCH   6  10
ATOM     10  O   UNL     1     -35.436  43.017  41.792  1.00  0.00    -0.497 OA
ATOM     11  C   UNL     1     -35.881  43.680  42.971  1.00  0.00     0.278 C 
ENDBRANCH   6  10
TORSDOF 2
ENDMDL
MODEL 4
REMARK VINA RESULT:    -4.747      8.914     11.231
REMARK INTER + INTRA:          -5.368
REMARK INTER:                  -5.306
REMARK INTRA:                  -0.062
REMARK UNBOUND:                -0.065
REMARK SMILES COc1ccc(C(=O)[O-])cc1
REMARK SMILES IDX 6 1 5 2 10 3 4 4 11 5 3 6 7 7 8 8 9 9 2 10 1 11
REMARK H PARENT
REMARK Flexibility Score: inf
ROOT
ATOM      1  C   UNL     1     -40.368  37.833  48.543  1.00  0.00    -0.003 A 
ATOM      2  C   UNL     1     -38.976  38.024  48.593  1.00  0.00     0.014 A 
ATOM      3  C   UNL     1     -41.063  38.199  47.377  1.00  0.00     0.014 A 
ATOM      4  C   UNL     1     -38.294  38.568  47.501  1.00  0.00     0.047 A 
ATOM      5  C   UNL     1     -40.380  38.744  46.286  1.00  0.00     0.047 A 
ATOM      6  C   UNL     1     -38.994  38.933  46.335  1.00  0.00     0.118 A 
ENDROOT
BRANCH   1   7
ATOM      7  C   UNL     1     -41.093  37.257  49.696  1.00  0.00     0.071 C 
ATOM      8  O   UNL     1     -41.705  38.002  50.506  1.00  0.00    -0.545 OA
ATOM      9  O   UNL     1     -41.110  35.881  49.900  1.00  0.00    -0.545 OA
ENDBRANCH   1   7
BRANCH   6  10
ATOM     10  O   UNL     1     -38.356  39.484  45.214  1.00  0.00    -0.497 OA
ATOM     11  C   UNL     1     -39.023  39.851  44.010  1.00  0.00     0.278 C 
ENDBRANCH   6  10
TORSDOF 2
ENDMDL
MODEL 5
REMARK VINA RESULT:    -4.713      8.313     11.483
REMARK INTER + INTRA:          -5.329
REMARK INTER:                  -5.264
REMARK INTRA:                  -0.065
REMARK UNBOUND:                -0.065
REMARK SMILES COc1ccc(C(=O)[O-])cc1
REMARK SMILES IDX 6 1 5 2 10 3 4 4 11 5 3 6 7 7 8 8 9 9 2 10 1 11
REMARK H PARENT
REMARK Flexibility Score: inf
ROOT
ATOM      1  C   UNL     1     -38.977  38.788  46.177  1.00  0.00    -0.003 A 
ATOM      2  C   UNL     1     -40.346  38.713  46.490  1.00  0.00     0.014 A 
ATOM      3  C   UNL     1     -38.036  38.423  47.156  1.00  0.00     0.014 A 
ATOM      4  C   UNL     1     -40.765  38.285  47.753  1.00  0.00     0.047 A 
ATOM      5  C   UNL     1     -38.455  37.996  48.419  1.00  0.00     0.047 A 
ATOM      6  C   UNL     1     -39.818  37.921  48.730  1.00  0.00     0.118 A 
ENDROOT
BRANCH   1   7
ATOM      7  C   UNL     1     -38.531  39.240  44.842  1.00  0.00     0.071 C 
ATOM      8  O   UNL     1     -39.314  39.873  44.085  1.00  0.00    -0.545 OA
ATOM      9  O   UNL     1     -37.240  38.972  44.403  1.00  0.00    -0.545 OA
ENDBRANCH   1   7
BRANCH   6  10
ATOM     10  O   UNL     1     -40.186  37.486  50.011  1.00  0.00    -0.497 OA
ATOM     11  C   UNL     1     -41.503  37.582  50.545  1.00  0.00     0.278 C 
ENDBRANCH   6  10
TORSDOF 2
ENDMDL
MODEL 6
REMARK VINA RESULT:    -4.713      8.853     11.158
REMARK INTER + INTRA:          -5.329
REMARK INTER:                  -5.271
REMARK INTRA:                  -0.058
REMARK UNBOUND:                -0.065
REMARK SMILES COc1ccc(C(=O)[O-])cc1
REMARK SMILES IDX 6 1 5 2 10 3 4 4 11 5 3 6 7 7 8 8 9 9 2 10 1 11
REMARK H PARENT
REMARK Flexibility Score: inf
ROOT
ATOM      1  C   UNL     1     -40.267  37.847  48.549  1.00  0.00    -0.003 A 
ATOM      2  C   UNL     1     -40.983  38.238  47.404  1.00  0.00     0.014 A 
ATOM      3  C   UNL     1     -38.871  38.010  48.566  1.00  0.00     0.014 A 
ATOM      4  C   UNL     1     -40.318  38.781  46.300  1.00  0.00     0.047 A 
ATOM      5  C   UNL     1     -38.207  38.552  47.462  1.00  0.00     0.047 A 
ATOM      6  C   UNL     1     -38.919  38.942  46.323  1.00  0.00     0.118 A 
ENDROOT
BRANCH   1   7
ATOM      7  C   UNL     1     -40.967  37.273  49.718  1.00  0.00     0.071 C 
ATOM      8  O   UNL     1     -41.632  38.011  50.492  1.00  0.00    -0.545 OA
ATOM      9  O   UNL     1     -40.902  35.909  49.978  1.00  0.00    -0.545 OA
ENDBRANCH   1   7
BRANCH   6  10
ATOM     10  O   UNL     1     -38.206  39.480  45.241  1.00  0.00    -0.497 OA
ATOM     11  C   UNL     1     -38.800  39.916  44.024  1.00  0.00     0.278 C 
ENDBRANCH   6  10
TORSDOF 2
ENDMDL
MODEL 7
REMARK VINA RESULT:    -4.616     10.279     12.575
REMARK INTER + INTRA:          -5.221
REMARK INTER:                  -5.169
REMARK INTRA:                  -0.052
REMARK UNBOUND:                -0.065
REMARK SMILES COc1ccc(C(=O)[O-])cc1
REMARK SMILES IDX 6 1 5 2 10 3 4 4 11 5 3 6 7 7 8 8 9 9 2 10 1 11
REMARK H PARENT
REMARK Flexibility Score: inf
ROOT
ATOM      1  C   UNL     1     -38.385  36.885  47.061  1.00  0.00    -0.003 A 
ATOM      2  C   UNL     1     -39.242  35.812  47.366  1.00  0.00     0.014 A 
ATOM      3  C   UNL     1     -38.656  38.149  47.613  1.00  0.00     0.014 A 
ATOM      4  C   UNL     1     -40.346  36.001  48.203  1.00  0.00     0.047 A 
ATOM      5  C   UNL     1     -39.760  38.336  48.449  1.00  0.00     0.047 A 
ATOM      6  C   UNL     1     -40.613  37.269  48.752  1.00  0.00     0.118 A 
ENDROOT
BRANCH   1   7
ATOM      7  C   UNL     1     -37.215  36.689  46.177  1.00  0.00     0.071 C 
ATOM      8  O   UNL     1     -37.212  37.152  45.006  1.00  0.00    -0.545 OA
ATOM      9  O   UNL     1     -36.101  35.990  46.628  1.00  0.00    -0.545 OA
ENDBRANCH   1   7
BRANCH   6  10
ATOM     10  O   UNL     1     -41.707  37.510  49.596  1.00  0.00    -0.497 OA
ATOM     11  C   UNL     1     -41.761  37.135  50.968  1.00  0.00     0.278 C 
ENDBRANCH   6  10
TORSDOF 2
ENDMDL
MODEL 8
REMARK VINA RESULT:    -4.593      9.872     12.417
REMARK INTER + INTRA:          -5.196
REMARK INTER:                  -5.142
REMARK INTRA:                  -0.053
REMARK UNBOUND:                -0.065
REMARK SMILES COc1ccc(C(=O)[O-])cc1
REMARK SMILES IDX 6 1 5 2 10 3 4 4 11 5 3 6 7 7 8 8 9 9 2 10 1 11
REMARK H PARENT
REMARK Flexibility Score: inf
ROOT
ATOM      1  C   UNL     1     -38.465  37.198  47.028  1.00  0.00    -0.003 A 
ATOM      2  C   UNL     1     -38.950  38.378  47.620  1.00  0.00     0.014 A 
ATOM      3  C   UNL     1     -39.109  35.981  47.311  1.00  0.00     0.014 A 
ATOM      4  C   UNL     1     -40.053  38.341  48.478  1.00  0.00     0.047 A 
ATOM      5  C   UNL     1     -40.212  35.945  48.168  1.00  0.00     0.047 A 
ATOM      6  C   UNL     1     -40.694  37.119  48.758  1.00  0.00     0.118 A 
ENDROOT
BRANCH   1   7
ATOM      7  C   UNL     1     -37.298  37.234  46.119  1.00  0.00     0.071 C 
ATOM      8  O   UNL     1     -37.378  37.795  44.995  1.00  0.00    -0.545 OA
ATOM      9  O   UNL     1     -36.095  36.647  46.496  1.00  0.00    -0.545 OA
ENDBRANCH   1   7
BRANCH   6  10
ATOM     10  O   UNL     1     -41.804  37.028  49.612  1.00  0.00    -0.497 OA
ATOM     11  C   UNL     1     -41.791  37.397  50.987  1.00  0.00     0.278 C 
ENDBRANCH   6  10
TORSDOF 2
ENDMDL
MODEL 9
REMARK VINA RESULT:    -4.490      1.729      4.973
REMARK INTER + INTRA:          -5.081
REMARK INTER:                  -5.020
REMARK INTRA:                  -0.061
REMARK UNBOUND:                -0.065
REMARK SMILES COc1ccc(C(=O)[O-])cc1
REMARK SMILES IDX 6 1 5 2 10 3 4 4 11 5 3 6 7 7 8 8 9 9 2 10 1 11
REMARK H PARENT
REMARK Flexibility Score: inf
ROOT
ATOM      1  C   UNL     1     -34.248  43.910  39.804  1.00  0.00    -0.003 A 
ATOM      2  C   UNL     1     -33.160  43.023  39.880  1.00  0.00     0.014 A 
ATOM      3  C   UNL     1     -35.227  43.873  40.812  1.00  0.00     0.014 A 
ATOM      4  C   UNL     1     -33.054  42.118  40.940  1.00  0.00     0.047 A 
ATOM      5  C   UNL     1     -35.120  42.968  41.871  1.00  0.00     0.047 A 
ATOM      6  C   UNL     1     -34.038  42.085  41.947  1.00  0.00     0.118 A 
ENDROOT
BRANCH   1   7
ATOM      7  C   UNL     1     -34.363  44.869  38.684  1.00  0.00     0.071 C 
ATOM      8  O   UNL     1     -35.111  45.879  38.778  1.00  0.00    -0.545 OA
ATOM      9  O   UNL     1     -33.646  44.670  37.510  1.00  0.00    -0.545 OA
ENDBRANCH   1   7
BRANCH   6  10
ATOM     10  O   UNL     1     -33.977  41.196  43.030  1.00  0.00    -0.497 OA
ATOM     11  C   UNL     1     -33.742  41.587  44.379  1.00  0.00     0.278 C 
ENDBRANCH   6  10
TORSDOF 2
ENDMDL
