MODEL 1
REMARK VINA RESULT:    -7.678      0.000      0.000
REMARK INTER + INTRA:          -9.785
REMARK INTER:                  -9.473
REMARK INTRA:                  -0.311
REMARK UNBOUND:                -0.311
REMARK SMILES Oc1cc(O)c2cc(O)c(-c3cc(O)c(O)c(O)c3)[o+]c2c1
REMARK SMILES IDX 10 1 20 2 21 3 22 4 2 5 3 6 4 7 6 8 7 9 8 10 11 11 12 12
REMARK SMILES IDX 13 13 19 14 15 15 17 16 14 17 16 19 18 21 9 23 1 25 5 27
REMARK H PARENT 14 18 16 20 18 22 9 24 1 26 5 28
REMARK Flexibility Score: inf
ROOT
ATOM      1  C   UNL     1      84.866  64.778   9.022  1.00  0.00     0.402 A 
ATOM      2  O   UNL     1      85.211  63.528   9.319  1.00  0.00    -0.202 OA
ATOM      3  C   UNL     1      85.889  63.198  10.412  1.00  0.00     0.368 A 
ATOM      4  C   UNL     1      86.207  61.857  10.637  1.00  0.00     0.162 A 
ATOM      5  C   UNL     1      86.922  61.481  11.776  1.00  0.00     0.128 A 
ATOM      6  C   UNL     1      87.323  62.453  12.697  1.00  0.00     0.093 A 
ATOM      7  C   UNL     1      87.018  63.805  12.495  1.00  0.00     0.136 A 
ATOM      8  C   UNL     1      86.289  64.190  11.341  1.00  0.00     0.125 A 
ATOM      9  C   UNL     1      85.927  65.519  11.063  1.00  0.00     0.078 A 
ATOM     10  C   UNL     1      85.203  65.821   9.905  1.00  0.00     0.223 A 
ENDROOT
BRANCH   1  11
ATOM     11  C   UNL     1      84.118  65.020   7.767  1.00  0.00     0.091 A 
ATOM     12  C   UNL     1      82.805  64.541   7.644  1.00  0.00     0.068 A 
ATOM     13  C   UNL     1      82.082  64.739   6.460  1.00  0.00     0.162 A 
ATOM     14  C   UNL     1      84.714  65.670   6.673  1.00  0.00     0.068 A 
ATOM     15  C   UNL     1      82.675  65.405   5.381  1.00  0.00     0.200 A 
ATOM     16  C   UNL     1      83.997  65.868   5.484  1.00  0.00     0.162 A 
BRANCH  13  17
ATOM     17  O   UNL     1      80.773  64.273   6.348  1.00  0.00    -0.504 OA
ATOM     18  H   UNL     1      80.010  64.710   6.853  1.00  0.00     0.293 HD
ENDBRANCH  13  17
BRANCH  15  19
ATOM     19  O   UNL     1      81.939  65.595   4.210  1.00  0.00    -0.502 OA
ATOM     20  H   UNL     1      82.288  66.151   3.438  1.00  0.00     0.293 HD
ENDBRANCH  15  19
BRANCH  16  21
ATOM     21  O   UNL     1      84.595  66.520   4.407  1.00  0.00    -0.504 OA
ATOM     22  H   UNL     1      84.551  66.144   3.467  1.00  0.00     0.293 HD
ENDBRANCH  16  21
ENDBRANCH   1  11
BRANCH  10  23
ATOM     23  O   UNL     1      84.800  67.133   9.655  1.00  0.00    -0.500 OA
ATOM     24  H   UNL     1      83.838  67.363   9.441  1.00  0.00     0.294 HD
ENDBRANCH  10  23
BRANCH   5  25
ATOM     25  O   UNL     1      87.228  60.137  11.981  1.00  0.00    -0.507 OA
ATOM     26  H   UNL     1      86.569  59.505  12.420  1.00  0.00     0.293 HD
ENDBRANCH   5  25
BRANCH   7  27
ATOM     27  O   UNL     1      87.457  64.716  13.461  1.00  0.00    -0.507 OA
ATOM     28  H   UNL     1      87.224  65.697  13.467  1.00  0.00     0.293 HD
ENDBRANCH   7  27
TORSDOF 7
ENDMDL
MODEL 2
REMARK VINA RESULT:    -7.627      0.114      1.789
REMARK INTER + INTRA:          -9.722
REMARK INTER:                  -9.414
REMARK INTRA:                  -0.307
REMARK UNBOUND:                -0.311
REMARK SMILES Oc1cc(O)c2cc(O)c(-c3cc(O)c(O)c(O)c3)[o+]c2c1
REMARK SMILES IDX 10 1 20 2 21 3 22 4 2 5 3 6 4 7 6 8 7 9 8 10 11 11 12 12
REMARK SMILES IDX 13 13 19 14 15 15 17 16 14 17 16 19 18 21 9 23 1 25 5 27
REMARK H PARENT 14 18 16 20 18 22 9 24 1 26 5 28
REMARK Flexibility Score: inf
ROOT
ATOM      1  C   UNL     1      84.807  64.730   9.017  1.00  0.00     0.402 A 
ATOM      2  O   UNL     1      85.161  63.485   9.326  1.00  0.00    -0.202 OA
ATOM      3  C   UNL     1      85.866  63.174  10.408  1.00  0.00     0.368 A 
ATOM      4  C   UNL     1      86.192  61.837  10.646  1.00  0.00     0.162 A 
ATOM      5  C   UNL     1      86.934  61.481  11.773  1.00  0.00     0.128 A 
ATOM      6  C   UNL     1      87.357  62.468  12.668  1.00  0.00     0.093 A 
ATOM      7  C   UNL     1      87.045  63.817  12.452  1.00  0.00     0.136 A 
ATOM      8  C   UNL     1      86.287  64.182  11.310  1.00  0.00     0.125 A 
ATOM      9  C   UNL     1      85.916  65.505  11.020  1.00  0.00     0.078 A 
ATOM     10  C   UNL     1      85.164  65.787   9.875  1.00  0.00     0.223 A 
ENDROOT
BRANCH   1  11
ATOM     11  C   UNL     1      84.028  64.951   7.778  1.00  0.00     0.091 A 
ATOM     12  C   UNL     1      84.643  65.564   6.675  1.00  0.00     0.068 A 
ATOM     13  C   UNL     1      83.922  65.802   5.498  1.00  0.00     0.162 A 
ATOM     14  C   UNL     1      82.666  64.611   7.700  1.00  0.00     0.068 A 
ATOM     15  C   UNL     1      82.571  65.442   5.419  1.00  0.00     0.200 A 
ATOM     16  C   UNL     1      81.938  64.850   6.525  1.00  0.00     0.162 A 
BRANCH  13  17
ATOM     17  O   UNL     1      84.541  66.398   4.401  1.00  0.00    -0.504 OA
ATOM     18  H   UNL     1      84.228  67.291   4.035  1.00  0.00     0.293 HD
ENDBRANCH  13  17
BRANCH  15  19
ATOM     19  O   UNL     1      81.869  65.686   4.237  1.00  0.00    -0.502 OA
ATOM     20  H   UNL     1      81.907  66.580   3.762  1.00  0.00     0.293 HD
ENDBRANCH  15  19
BRANCH  16  21
ATOM     21  O   UNL     1      80.590  64.503   6.455  1.00  0.00    -0.504 OA
ATOM     22  H   UNL     1      79.867  65.203   6.337  1.00  0.00     0.293 HD
ENDBRANCH  16  21
ENDBRANCH   1  11
BRANCH  10  23
ATOM     23  O   UNL     1      84.753  67.095   9.613  1.00  0.00    -0.500 OA
ATOM     24  H   UNL     1      83.906  67.477  10.016  1.00  0.00     0.294 HD
ENDBRANCH  10  23
BRANCH   5  25
ATOM     25  O   UNL     1      87.248  60.141  11.993  1.00  0.00    -0.507 OA
ATOM     26  H   UNL     1      87.885  59.640  11.385  1.00  0.00     0.293 HD
ENDBRANCH   5  25
BRANCH   7  27
ATOM     27  O   UNL     1      87.506  64.743  13.392  1.00  0.00    -0.507 OA
ATOM     28  H   UNL     1      86.965  65.079  14.174  1.00  0.00     0.293 HD
ENDBRANCH   7  27
TORSDOF 7
ENDMDL
MODEL 3
REMARK VINA RESULT:    -7.381      0.898      1.096
REMARK INTER + INTRA:          -9.418
REMARK INTER:                  -9.119
REMARK INTRA:                  -0.298
REMARK UNBOUND:                -0.311
REMARK SMILES Oc1cc(O)c2cc(O)c(-c3cc(O)c(O)c(O)c3)[o+]c2c1
REMARK SMILES IDX 10 1 20 2 21 3 22 4 2 5 3 6 4 7 6 8 7 9 8 10 11 11 12 12
REMARK SMILES IDX 13 13 19 14 15 15 17 16 14 17 16 19 18 21 9 23 1 25 5 27
REMARK H PARENT 14 18 16 20 18 22 9 24 1 26 5 28
REMARK Flexibility Score: inf
ROOT
ATOM      1  C   UNL     1      84.134  64.554   9.002  1.00  0.00     0.402 A 
ATOM      2  O   UNL     1      84.563  63.351   9.372  1.00  0.00    -0.202 OA
ATOM      3  C   UNL     1      85.466  63.160  10.327  1.00  0.00     0.368 A 
ATOM      4  C   UNL     1      85.857  61.856  10.643  1.00  0.00     0.162 A 
ATOM      5  C   UNL     1      86.805  61.626  11.641  1.00  0.00     0.128 A 
ATOM      6  C   UNL     1      87.370  62.705  12.328  1.00  0.00     0.093 A 
ATOM      7  C   UNL     1      86.996  64.022  12.029  1.00  0.00     0.136 A 
ATOM      8  C   UNL     1      86.029  64.260  11.019  1.00  0.00     0.125 A 
ATOM      9  C   UNL     1      85.585  65.544  10.662  1.00  0.00     0.078 A 
ATOM     10  C   UNL     1      84.624  65.699   9.657  1.00  0.00     0.223 A 
ENDROOT
BRANCH   1  11
ATOM     11  C   UNL     1      83.130  64.638   7.916  1.00  0.00     0.091 A 
ATOM     12  C   UNL     1      81.842  64.124   8.126  1.00  0.00     0.068 A 
ATOM     13  C   UNL     1      80.880  64.172   7.109  1.00  0.00     0.162 A 
ATOM     14  C   UNL     1      83.457  65.169   6.657  1.00  0.00     0.068 A 
ATOM     15  C   UNL     1      81.206  64.722   5.863  1.00  0.00     0.200 A 
ATOM     16  C   UNL     1      82.500  65.218   5.633  1.00  0.00     0.162 A 
BRANCH  13  17
ATOM     17  O   UNL     1      79.597  63.673   7.327  1.00  0.00    -0.504 OA
ATOM     18  H   UNL     1      79.374  62.696   7.172  1.00  0.00     0.293 HD
ENDBRANCH  13  17
BRANCH  15  19
ATOM     19  O   UNL     1      80.234  64.764   4.861  1.00  0.00    -0.502 OA
ATOM     20  H   UNL     1      79.885  63.924   4.414  1.00  0.00     0.293 HD
ENDBRANCH  15  19
BRANCH  16  21
ATOM     21  O   UNL     1      82.833  65.753   4.390  1.00  0.00    -0.504 OA
ATOM     22  H   UNL     1      83.331  65.211   3.694  1.00  0.00     0.293 HD
ENDBRANCH  16  21
ENDBRANCH   1  11
BRANCH  10  23
ATOM     23  O   UNL     1      84.146  66.970   9.338  1.00  0.00    -0.500 OA
ATOM     24  H   UNL     1      83.775  67.593  10.045  1.00  0.00     0.294 HD
ENDBRANCH  10  23
BRANCH   5  25
ATOM     25  O   UNL     1      87.181  60.318  11.941  1.00  0.00    -0.507 OA
ATOM     26  H   UNL     1      88.102  60.102  12.303  1.00  0.00     0.293 HD
ENDBRANCH   5  25
BRANCH   7  27
ATOM     27  O   UNL     1      87.608  65.046  12.759  1.00  0.00    -0.507 OA
ATOM     28  H   UNL     1      87.905  64.962  13.719  1.00  0.00     0.293 HD
ENDBRANCH   7  27
TORSDOF 7
ENDMDL
MODEL 4
REMARK VINA RESULT:    -7.265      1.013      2.163
REMARK INTER + INTRA:          -9.274
REMARK INTER:                  -9.004
REMARK INTRA:                  -0.270
REMARK UNBOUND:                -0.311
REMARK SMILES Oc1cc(O)c2cc(O)c(-c3cc(O)c(O)c(O)c3)[o+]c2c1
REMARK SMILES IDX 10 1 20 2 21 3 22 4 2 5 3 6 4 7 6 8 7 9 8 10 11 11 12 12
REMARK SMILES IDX 13 13 19 14 15 15 17 16 14 17 16 19 18 21 9 23 1 25 5 27
REMARK H PARENT 14 18 16 20 18 22 9 24 1 26 5 28
REMARK Flexibility Score: inf
ROOT
ATOM      1  C   UNL     1      83.953  64.371   8.872  1.00  0.00     0.402 A 
ATOM      2  O   UNL     1      84.449  63.187   9.221  1.00  0.00    -0.202 OA
ATOM      3  C   UNL     1      85.358  63.030  10.178  1.00  0.00     0.368 A 
ATOM      4  C   UNL     1      85.821  61.745  10.471  1.00  0.00     0.162 A 
ATOM      5  C   UNL     1      86.778  61.550  11.468  1.00  0.00     0.128 A 
ATOM      6  C   UNL     1      87.277  62.647  12.178  1.00  0.00     0.093 A 
ATOM      7  C   UNL     1      86.829  63.946  11.903  1.00  0.00     0.136 A 
ATOM      8  C   UNL     1      85.854  64.147  10.892  1.00  0.00     0.125 A 
ATOM      9  C   UNL     1      85.338  65.410  10.558  1.00  0.00     0.078 A 
ATOM     10  C   UNL     1      84.374  65.529   9.551  1.00  0.00     0.223 A 
ENDROOT
BRANCH   1  11
ATOM     11  C   UNL     1      82.951  64.418   7.784  1.00  0.00     0.091 A 
ATOM     12  C   UNL     1      83.284  65.028   6.565  1.00  0.00     0.068 A 
ATOM     13  C   UNL     1      82.347  65.104   5.525  1.00  0.00     0.162 A 
ATOM     14  C   UNL     1      81.650  63.915   7.963  1.00  0.00     0.068 A 
ATOM     15  C   UNL     1      81.060  64.582   5.704  1.00  0.00     0.200 A 
ATOM     16  C   UNL     1      80.707  63.990   6.928  1.00  0.00     0.162 A 
BRANCH  13  17
ATOM     17  O   UNL     1      82.687  65.698   4.312  1.00  0.00    -0.504 OA
ATOM     18  H   UNL     1      82.822  66.700   4.231  1.00  0.00     0.293 HD
ENDBRANCH  13  17
BRANCH  15  19
ATOM     19  O   UNL     1      80.140  64.664   4.657  1.00  0.00    -0.502 OA
ATOM     20  H   UNL     1      80.257  64.143   3.795  1.00  0.00     0.293 HD
ENDBRANCH  15  19
BRANCH  16  21
ATOM     21  O   UNL     1      79.423  63.482   7.114  1.00  0.00    -0.504 OA
ATOM     22  H   UNL     1      78.612  63.919   6.691  1.00  0.00     0.293 HD
ENDBRANCH  16  21
ENDBRANCH   1  11
BRANCH  10  23
ATOM     23  O   UNL     1      83.826  66.777   9.254  1.00  0.00    -0.500 OA
ATOM     24  H   UNL     1      83.096  66.886   8.560  1.00  0.00     0.294 HD
ENDBRANCH  10  23
BRANCH   5  25
ATOM     25  O   UNL     1      87.226  60.261  11.745  1.00  0.00    -0.507 OA
ATOM     26  H   UNL     1      86.587  59.526  12.025  1.00  0.00     0.293 HD
ENDBRANCH   5  25
BRANCH   7  27
ATOM     27  O   UNL     1      87.379  64.989  12.655  1.00  0.00    -0.507 OA
ATOM     28  H   UNL     1      87.925  64.860  13.493  1.00  0.00     0.293 HD
ENDBRANCH   7  27
TORSDOF 7
ENDMDL
MODEL 5
REMARK VINA RESULT:    -7.250      7.881     11.426
REMARK INTER + INTRA:          -9.256
REMARK INTER:                  -8.884
REMARK INTRA:                  -0.372
REMARK UNBOUND:                -0.311
REMARK SMILES Oc1cc(O)c2cc(O)c(-c3cc(O)c(O)c(O)c3)[o+]c2c1
REMARK SMILES IDX 10 1 20 2 21 3 22 4 2 5 3 6 4 7 6 8 7 9 8 10 11 11 12 12
REMARK SMILES IDX 13 13 19 14 15 15 17 16 14 17 16 19 18 21 9 23 1 25 5 27
REMARK H PARENT 14 18 16 20 18 22 9 24 1 26 5 28
REMARK Flexibility Score: inf
ROOT
ATOM      1  C   UNL     1      76.323  62.341   2.286  1.00  0.00     0.402 A 
ATOM      2  O   UNL     1      77.483  62.834   1.862  1.00  0.00    -0.202 OA
ATOM      3  C   UNL     1      78.591  62.828   2.594  1.00  0.00     0.368 A 
ATOM      4  C   UNL     1      79.762  63.372   2.062  1.00  0.00     0.162 A 
ATOM      5  C   UNL     1      80.940  63.382   2.810  1.00  0.00     0.128 A 
ATOM      6  C   UNL     1      80.949  62.845   4.101  1.00  0.00     0.093 A 
ATOM      7  C   UNL     1      79.788  62.293   4.659  1.00  0.00     0.136 A 
ATOM      8  C   UNL     1      78.590  62.278   3.900  1.00  0.00     0.125 A 
ATOM      9  C   UNL     1      77.384  61.735   4.372  1.00  0.00     0.078 A 
ATOM     10  C   UNL     1      76.243  61.753   3.563  1.00  0.00     0.223 A 
ENDROOT
BRANCH   1  11
ATOM     11  C   UNL     1      75.155  62.415   1.379  1.00  0.00     0.091 A 
ATOM     12  C   UNL     1      74.340  63.557   1.394  1.00  0.00     0.068 A 
ATOM     13  C   UNL     1      73.218  63.644   0.560  1.00  0.00     0.162 A 
ATOM     14  C   UNL     1      74.810  61.340   0.542  1.00  0.00     0.068 A 
ATOM     15  C   UNL     1      72.891  62.578  -0.287  1.00  0.00     0.200 A 
ATOM     16  C   UNL     1      73.686  61.419  -0.293  1.00  0.00     0.162 A 
BRANCH  13  17
ATOM     17  O   UNL     1      72.421  64.787   0.569  1.00  0.00    -0.504 OA
ATOM     18  H   UNL     1      72.647  65.596   0.000  1.00  0.00     0.293 HD
ENDBRANCH  13  17
BRANCH  15  19
ATOM     19  O   UNL     1      71.771  62.683  -1.113  1.00  0.00    -0.502 OA
ATOM     20  H   UNL     1      71.844  62.679  -2.123  1.00  0.00     0.293 HD
ENDBRANCH  15  19
BRANCH  16  21
ATOM     21  O   UNL     1      73.356  60.351  -1.125  1.00  0.00    -0.504 OA
ATOM     22  H   UNL     1      73.701  59.414  -0.949  1.00  0.00     0.293 HD
ENDBRANCH  16  21
ENDBRANCH   1  11
BRANCH  10  23
ATOM     23  O   UNL     1      75.058  61.169   4.012  1.00  0.00    -0.500 OA
ATOM     24  H   UNL     1      74.963  60.818   4.957  1.00  0.00     0.294 HD
ENDBRANCH  10  23
BRANCH   5  25
ATOM     25  O   UNL     1      82.097  63.929   2.261  1.00  0.00    -0.507 OA
ATOM     26  H   UNL     1      82.062  64.544   1.456  1.00  0.00     0.293 HD
ENDBRANCH   5  25
BRANCH   7  27
ATOM     27  O   UNL     1      79.879  61.779   5.956  1.00  0.00    -0.507 OA
ATOM     28  H   UNL     1      79.235  61.997   6.702  1.00  0.00     0.293 HD
ENDBRANCH   7  27
TORSDOF 7
ENDMDL
MODEL 6
REMARK VINA RESULT:    -7.209      2.243      7.418
REMARK INTER + INTRA:          -9.206
REMARK INTER:                  -8.878
REMARK INTRA:                  -0.328
REMARK UNBOUND:                -0.311
REMARK SMILES Oc1cc(O)c2cc(O)c(-c3cc(O)c(O)c(O)c3)[o+]c2c1
REMARK SMILES IDX 10 1 20 2 21 3 22 4 2 5 3 6 4 7 6 8 7 9 8 10 11 11 12 12
REMARK SMILES IDX 13 13 19 14 15 15 17 16 14 17 16 19 18 21 9 23 1 25 5 27
REMARK H PARENT 14 18 16 20 18 22 9 24 1 26 5 28
REMARK Flexibility Score: inf
ROOT
ATOM      1  C   UNL     1      82.742  64.566   8.363  1.00  0.00     0.402 A 
ATOM      2  O   UNL     1      82.814  64.962   7.095  1.00  0.00    -0.202 OA
ATOM      3  C   UNL     1      81.872  64.704   6.194  1.00  0.00     0.368 A 
ATOM      4  C   UNL     1      82.040  65.160   4.885  1.00  0.00     0.162 A 
ATOM      5  C   UNL     1      81.067  64.901   3.917  1.00  0.00     0.128 A 
ATOM      6  C   UNL     1      79.919  64.180   4.260  1.00  0.00     0.093 A 
ATOM      7  C   UNL     1      79.727  63.711   5.566  1.00  0.00     0.136 A 
ATOM      8  C   UNL     1      80.711  63.975   6.553  1.00  0.00     0.125 A 
ATOM      9  C   UNL     1      80.597  63.557   7.888  1.00  0.00     0.078 A 
ATOM     10  C   UNL     1      81.609  63.859   8.806  1.00  0.00     0.223 A 
ENDROOT
BRANCH   1  11
ATOM     11  C   UNL     1      83.861  64.908   9.269  1.00  0.00     0.091 A 
ATOM     12  C   UNL     1      85.037  64.142   9.233  1.00  0.00     0.068 A 
ATOM     13  C   UNL     1      86.103  64.432  10.094  1.00  0.00     0.162 A 
ATOM     14  C   UNL     1      83.752  65.948  10.208  1.00  0.00     0.068 A 
ATOM     15  C   UNL     1      85.996  65.483  11.013  1.00  0.00     0.200 A 
ATOM     16  C   UNL     1      84.815  66.241  11.074  1.00  0.00     0.162 A 
BRANCH  13  17
ATOM     17  O   UNL     1      87.274  63.677  10.044  1.00  0.00    -0.504 OA
ATOM     18  H   UNL     1      87.853  63.541  10.865  1.00  0.00     0.293 HD
ENDBRANCH  13  17
BRANCH  15  19
ATOM     19  O   UNL     1      87.070  65.758  11.861  1.00  0.00    -0.502 OA
ATOM     20  H   UNL     1      87.399  65.090  12.548  1.00  0.00     0.293 HD
ENDBRANCH  15  19
BRANCH  16  21
ATOM     21  O   UNL     1      84.699  67.279  11.997  1.00  0.00    -0.504 OA
ATOM     22  H   UNL     1      85.418  67.988  12.093  1.00  0.00     0.293 HD
ENDBRANCH  16  21
ENDBRANCH   1  11
BRANCH  10  23
ATOM     23  O   UNL     1      81.472  63.487  10.144  1.00  0.00    -0.500 OA
ATOM     24  H   UNL     1      80.690  62.929  10.464  1.00  0.00     0.294 HD
ENDBRANCH  10  23
BRANCH   5  25
ATOM     25  O   UNL     1      81.254  65.365   2.617  1.00  0.00    -0.507 OA
ATOM     26  H   UNL     1      81.972  66.044   2.394  1.00  0.00     0.293 HD
ENDBRANCH   5  25
BRANCH   7  27
ATOM     27  O   UNL     1      78.554  62.996   5.827  1.00  0.00    -0.507 OA
ATOM     28  H   UNL     1      77.849  62.787   5.137  1.00  0.00     0.293 HD
ENDBRANCH   7  27
TORSDOF 7
ENDMDL
MODEL 7
REMARK VINA RESULT:    -7.191      2.231      7.333
REMARK INTER + INTRA:          -9.184
REMARK INTER:                  -8.862
REMARK INTRA:                  -0.321
REMARK UNBOUND:                -0.311
REMARK SMILES Oc1cc(O)c2cc(O)c(-c3cc(O)c(O)c(O)c3)[o+]c2c1
REMARK SMILES IDX 10 1 20 2 21 3 22 4 2 5 3 6 4 7 6 8 7 9 8 10 11 11 12 12
REMARK SMILES IDX 13 13 19 14 15 15 17 16 14 17 16 19 18 21 9 23 1 25 5 27
REMARK H PARENT 14 18 16 20 18 22 9 24 1 26 5 28
REMARK Flexibility Score: inf
ROOT
ATOM      1  C   UNL     1      82.866  64.534   8.377  1.00  0.00     0.402 A 
ATOM      2  O   UNL     1      82.980  64.939   7.115  1.00  0.00    -0.202 OA
ATOM      3  C   UNL     1      82.056  64.711   6.189  1.00  0.00     0.368 A 
ATOM      4  C   UNL     1      82.267  65.173   4.888  1.00  0.00     0.162 A 
ATOM      5  C   UNL     1      81.314  64.946   3.894  1.00  0.00     0.128 A 
ATOM      6  C   UNL     1      80.141  64.249   4.201  1.00  0.00     0.093 A 
ATOM      7  C   UNL     1      79.905  63.774   5.497  1.00  0.00     0.136 A 
ATOM      8  C   UNL     1      80.869  64.007   6.511  1.00  0.00     0.125 A 
ATOM      9  C   UNL     1      80.711  63.580   7.840  1.00  0.00     0.078 A 
ATOM     10  C   UNL     1      81.706  63.851   8.786  1.00  0.00     0.223 A 
ENDROOT
BRANCH   1  11
ATOM     11  C   UNL     1      83.970  64.842   9.315  1.00  0.00     0.091 A 
ATOM     12  C   UNL     1      83.824  65.895  10.231  1.00  0.00     0.068 A 
ATOM     13  C   UNL     1      84.862  66.219  11.116  1.00  0.00     0.162 A 
ATOM     14  C   UNL     1      85.186  64.139   9.269  1.00  0.00     0.068 A 
ATOM     15  C   UNL     1      86.063  65.501  11.079  1.00  0.00     0.200 A 
ATOM     16  C   UNL     1      86.229  64.460  10.149  1.00  0.00     0.162 A 
BRANCH  13  17
ATOM     17  O   UNL     1      84.706  67.256  12.033  1.00  0.00    -0.504 OA
ATOM     18  H   UNL     1      84.819  68.226  11.761  1.00  0.00     0.293 HD
ENDBRANCH  13  17
BRANCH  15  19
ATOM     19  O   UNL     1      87.085  65.837  11.969  1.00  0.00    -0.502 OA
ATOM     20  H   UNL     1      88.063  65.688  11.747  1.00  0.00     0.293 HD
ENDBRANCH  15  19
BRANCH  16  21
ATOM     21  O   UNL     1      87.429  63.752  10.101  1.00  0.00    -0.504 OA
ATOM     22  H   UNL     1      87.873  63.519   9.219  1.00  0.00     0.293 HD
ENDBRANCH  16  21
ENDBRANCH   1  11
BRANCH  10  23
ATOM     23  O   UNL     1      81.526  63.471  10.116  1.00  0.00    -0.500 OA
ATOM     24  H   UNL     1      82.275  63.053  10.656  1.00  0.00     0.294 HD
ENDBRANCH  10  23
BRANCH   5  25
ATOM     25  O   UNL     1      81.545  65.416   2.603  1.00  0.00    -0.507 OA
ATOM     26  H   UNL     1      80.876  66.013   2.130  1.00  0.00     0.293 HD
ENDBRANCH   5  25
BRANCH   7  27
ATOM     27  O   UNL     1      78.709  63.085   5.723  1.00  0.00    -0.507 OA
ATOM     28  H   UNL     1      78.604  62.325   6.378  1.00  0.00     0.293 HD
ENDBRANCH   7  27
TORSDOF 7
ENDMDL
MODEL 8
REMARK VINA RESULT:    -7.150      8.874     13.607
REMARK INTER + INTRA:          -9.133
REMARK INTER:                  -8.845
REMARK INTRA:                  -0.288
REMARK UNBOUND:                -0.311
REMARK SMILES Oc1cc(O)c2cc(O)c(-c3cc(O)c(O)c(O)c3)[o+]c2c1
REMARK SMILES IDX 10 1 20 2 21 3 22 4 2 5 3 6 4 7 6 8 7 9 8 10 11 11 12 12
REMARK SMILES IDX 13 13 19 14 15 15 17 16 14 17 16 19 18 21 9 23 1 25 5 27
REMARK H PARENT 14 18 16 20 18 22 9 24 1 26 5 28
REMARK Flexibility Score: inf
ROOT
ATOM      1  C   UNL     1      76.090  62.341   0.990  1.00  0.00     0.402 A 
ATOM      2  O   UNL     1      75.062  62.284   1.833  1.00  0.00    -0.202 OA
ATOM      3  C   UNL     1      73.931  61.642   1.562  1.00  0.00     0.368 A 
ATOM      4  C   UNL     1      72.906  61.641   2.510  1.00  0.00     0.162 A 
ATOM      5  C   UNL     1      71.705  60.978   2.251  1.00  0.00     0.128 A 
ATOM      6  C   UNL     1      71.526  60.312   1.034  1.00  0.00     0.093 A 
ATOM      7  C   UNL     1      72.538  60.299   0.066  1.00  0.00     0.136 A 
ATOM      8  C   UNL     1      73.762  60.969   0.327  1.00  0.00     0.125 A 
ATOM      9  C   UNL     1      74.835  60.997  -0.578  1.00  0.00     0.078 A 
ATOM     10  C   UNL     1      76.013  61.676  -0.247  1.00  0.00     0.223 A 
ENDROOT
BRANCH   1  11
ATOM     11  C   UNL     1      77.295  63.096   1.404  1.00  0.00     0.091 A 
ATOM     12  C   UNL     1      77.610  64.301   0.759  1.00  0.00     0.068 A 
ATOM     13  C   UNL     1      78.755  65.024   1.118  1.00  0.00     0.162 A 
ATOM     14  C   UNL     1      78.164  62.602   2.392  1.00  0.00     0.068 A 
ATOM     15  C   UNL     1      79.606  64.538   2.117  1.00  0.00     0.200 A 
ATOM     16  C   UNL     1      79.313  63.320   2.754  1.00  0.00     0.162 A 
BRANCH  13  17
ATOM     17  O   UNL     1      79.055  66.228   0.483  1.00  0.00    -0.504 OA
ATOM     18  H   UNL     1      79.189  67.086   1.008  1.00  0.00     0.293 HD
ENDBRANCH  13  17
BRANCH  15  19
ATOM     19  O   UNL     1      80.741  65.273   2.463  1.00  0.00    -0.502 OA
ATOM     20  H   UNL     1      81.426  64.926   3.125  1.00  0.00     0.293 HD
ENDBRANCH  15  19
BRANCH  16  21
ATOM     21  O   UNL     1      80.165  62.825   3.740  1.00  0.00    -0.504 OA
ATOM     22  H   UNL     1      80.645  63.441   4.386  1.00  0.00     0.293 HD
ENDBRANCH  16  21
ENDBRANCH   1  11
BRANCH  10  23
ATOM     23  O   UNL     1      77.097  61.662  -1.125  1.00  0.00    -0.500 OA
ATOM     24  H   UNL     1      77.136  61.026  -1.912  1.00  0.00     0.294 HD
ENDBRANCH  10  23
BRANCH   5  25
ATOM     25  O   UNL     1      70.695  60.988   3.211  1.00  0.00    -0.507 OA
ATOM     26  H   UNL     1      69.824  61.482   3.057  1.00  0.00     0.293 HD
ENDBRANCH   5  25
BRANCH   7  27
ATOM     27  O   UNL     1      72.281  59.613  -1.125  1.00  0.00    -0.507 OA
ATOM     28  H   UNL     1      71.451  59.067  -1.300  1.00  0.00     0.293 HD
ENDBRANCH   7  27
TORSDOF 7
ENDMDL
MODEL 9
REMARK VINA RESULT:    -6.994      8.021     13.096
REMARK INTER + INTRA:          -8.940
REMARK INTER:                  -8.592
REMARK INTRA:                  -0.348
REMARK UNBOUND:                -0.311
REMARK SMILES Oc1cc(O)c2cc(O)c(-c3cc(O)c(O)c(O)c3)[o+]c2c1
REMARK SMILES IDX 10 1 20 2 21 3 22 4 2 5 3 6 4 7 6 8 7 9 8 10 11 11 12 12
REMARK SMILES IDX 13 13 19 14 15 15 17 16 14 17 16 19 18 21 9 23 1 25 5 27
REMARK H PARENT 14 18 16 20 18 22 9 24 1 26 5 28
REMARK Flexibility Score: inf
ROOT
ATOM      1  C   UNL     1      76.941  62.155   1.767  1.00  0.00     0.402 A 
ATOM      2  O   UNL     1      76.037  63.107   1.553  1.00  0.00    -0.202 OA
ATOM      3  C   UNL     1      74.933  62.917   0.838  1.00  0.00     0.368 A 
ATOM      4  C   UNL     1      74.044  63.980   0.665  1.00  0.00     0.162 A 
ATOM      5  C   UNL     1      72.878  63.811  -0.083  1.00  0.00     0.128 A 
ATOM      6  C   UNL     1      72.599  62.571  -0.666  1.00  0.00     0.093 A 
ATOM      7  C   UNL     1      73.475  61.489  -0.509  1.00  0.00     0.136 A 
ATOM      8  C   UNL     1      74.659  61.656   0.254  1.00  0.00     0.125 A 
ATOM      9  C   UNL     1      75.587  60.625   0.476  1.00  0.00     0.078 A 
ATOM     10  C   UNL     1      76.731  60.865   1.244  1.00  0.00     0.223 A 
ENDROOT
BRANCH   1  11
ATOM     11  C   UNL     1      78.136  62.492   2.574  1.00  0.00     0.091 A 
ATOM     12  C   UNL     1      78.170  62.146   3.934  1.00  0.00     0.068 A 
ATOM     13  C   UNL     1      79.281  62.472   4.724  1.00  0.00     0.162 A 
ATOM     14  C   UNL     1      79.215  63.203   2.022  1.00  0.00     0.068 A 
ATOM     15  C   UNL     1      80.362  63.162   4.163  1.00  0.00     0.200 A 
ATOM     16  C   UNL     1      80.328  63.534   2.809  1.00  0.00     0.162 A 
BRANCH  13  17
ATOM     17  O   UNL     1      79.316  62.113   6.070  1.00  0.00    -0.504 OA
ATOM     18  H   UNL     1      79.121  62.786   6.804  1.00  0.00     0.293 HD
ENDBRANCH  13  17
BRANCH  15  19
ATOM     19  O   UNL     1      81.460  63.476   4.965  1.00  0.00    -0.502 OA
ATOM     20  H   UNL     1      81.356  63.777   5.927  1.00  0.00     0.293 HD
ENDBRANCH  15  19
BRANCH  16  21
ATOM     21  O   UNL     1      81.396  64.234   2.250  1.00  0.00    -0.504 OA
ATOM     22  H   UNL     1      81.375  65.242   2.147  1.00  0.00     0.293 HD
ENDBRANCH  16  21
ENDBRANCH   1  11
BRANCH  10  23
ATOM     23  O   UNL     1      77.627  59.829   1.505  1.00  0.00    -0.500 OA
ATOM     24  H   UNL     1      77.326  58.863   1.549  1.00  0.00     0.294 HD
ENDBRANCH  10  23
BRANCH   5  25
ATOM     25  O   UNL     1      72.003  64.884  -0.242  1.00  0.00    -0.507 OA
ATOM     26  H   UNL     1      71.787  65.509   0.525  1.00  0.00     0.293 HD
ENDBRANCH   5  25
BRANCH   7  27
ATOM     27  O   UNL     1      73.126  60.283  -1.125  1.00  0.00    -0.507 OA
ATOM     28  H   UNL     1      72.326  59.724  -0.870  1.00  0.00     0.293 HD
ENDBRANCH   7  27
TORSDOF 7
ENDMDL
