MODEL 1
REMARK VINA RESULT:    -3.936      0.000      0.000
REMARK INTER + INTRA:          -7.130
REMARK INTER:                  -5.662
REMARK INTRA:                  -1.468
REMARK UNBOUND:                -1.468
REMARK SMILES O=C(CO)[C@H](O)[C@@H](O)[C@H](O)CO
REMARK SMILES IDX 7 1 9 2 11 3 12 4 10 6 5 8 2 9 1 10 3 11 4 12 6 14 8 16
REMARK H PARENT 12 5 10 7 4 13 6 15 8 17
REMARK Flexibility Score: inf
ROOT
ATOM      1  C   UNL     1      14.397  37.834  26.093  1.00  0.00     0.181 C 
ENDROOT
BRANCH   1   2
ATOM      2  C   UNL     1      15.437  38.990  26.029  1.00  0.00     0.171 C 
BRANCH   2   3
ATOM      3  C   UNL     1      15.369  39.836  24.739  1.00  0.00     0.190 C 
BRANCH   3   4
ATOM      4  O   UNL     1      14.274  39.470  23.944  1.00  0.00    -0.394 OA
ATOM      5  H   UNL     1      13.474  39.896  24.351  1.00  0.00     0.210 HD
ENDBRANCH   3   4
ENDBRANCH   2   3
BRANCH   2   6
ATOM      6  O   UNL     1      15.290  39.827  27.147  1.00  0.00    -0.388 OA
ATOM      7  H   UNL     1      16.147  39.797  27.648  1.00  0.00     0.211 HD
ENDBRANCH   2   6
ENDBRANCH   1   2
BRANCH   1   8
ATOM      8  C   UNL     1      14.669  36.773  27.193  1.00  0.00     0.214 C 
BRANCH   8   9
ATOM      9  C   UNL     1      13.529  36.674  28.179  1.00  0.00     0.189 C 
ATOM     10  O   UNL     1      12.526  36.043  27.876  1.00  0.00    -0.294 OA
BRANCH   9  11
ATOM     11  C   UNL     1      13.596  37.337  29.530  1.00  0.00     0.234 C 
BRANCH  11  12
ATOM     12  O   UNL     1      13.756  38.721  29.383  1.00  0.00    -0.388 OA
ATOM     13  H   UNL     1      12.927  39.060  28.957  1.00  0.00     0.211 HD
ENDBRANCH  11  12
ENDBRANCH   9  11
ENDBRANCH   8   9
BRANCH   8  14
ATOM     14  O   UNL     1      15.839  37.109  27.898  1.00  0.00    -0.382 OA
ATOM     15  H   UNL     1      15.624  37.893  28.467  1.00  0.00     0.211 HD
ENDBRANCH   8  14
ENDBRANCH   1   8
BRANCH   1  16
ATOM     16  O   UNL     1      13.112  38.368  26.287  1.00  0.00    -0.387 OA
ATOM     17  H   UNL     1      12.626  38.280  25.425  1.00  0.00     0.211 HD
ENDBRANCH   1  16
TORSDOF 10
ENDMDL
MODEL 2
REMARK VINA RESULT:    -3.929      1.858      4.024
REMARK INTER + INTRA:          -7.120
REMARK INTER:                  -5.689
REMARK INTRA:                  -1.431
REMARK UNBOUND:                -1.468
REMARK SMILES O=C(CO)[C@H](O)[C@@H](O)[C@H](O)CO
REMARK SMILES IDX 7 1 9 2 11 3 12 4 10 6 5 8 2 9 1 10 3 11 4 12 6 14 8 16
REMARK H PARENT 12 5 10 7 4 13 6 15 8 17
REMARK Flexibility Score: inf
ROOT
ATOM      1  C   UNL     1      14.494  37.935  27.743  1.00  0.00     0.181 C 
ENDROOT
BRANCH   1   2
ATOM      2  C   UNL     1      15.097  38.927  28.780  1.00  0.00     0.171 C 
BRANCH   2   3
ATOM      3  C   UNL     1      15.726  38.250  30.016  1.00  0.00     0.190 C 
BRANCH   3   4
ATOM      4  O   UNL     1      16.902  37.565  29.683  1.00  0.00    -0.394 OA
ATOM      5  H   UNL     1      17.408  38.156  29.065  1.00  0.00     0.210 HD
ENDBRANCH   3   4
ENDBRANCH   2   3
BRANCH   2   6
ATOM      6  O   UNL     1      16.053  39.745  28.156  1.00  0.00    -0.388 OA
ATOM      7  H   UNL     1      15.617  40.621  27.981  1.00  0.00     0.211 HD
ENDBRANCH   2   6
ENDBRANCH   1   2
BRANCH   1   8
ATOM      8  C   UNL     1      13.584  38.589  26.669  1.00  0.00     0.214 C 
BRANCH   8   9
ATOM      9  C   UNL     1      14.164  38.459  25.280  1.00  0.00     0.189 C 
ATOM     10  O   UNL     1      14.021  37.412  24.665  1.00  0.00    -0.294 OA
BRANCH   9  11
ATOM     11  C   UNL     1      14.918  39.591  24.633  1.00  0.00     0.234 C 
BRANCH  11  12
ATOM     12  O   UNL     1      16.149  39.782  25.274  1.00  0.00    -0.388 OA
ATOM     13  H   UNL     1      16.656  40.437  24.729  1.00  0.00     0.211 HD
ENDBRANCH  11  12
ENDBRANCH   9  11
ENDBRANCH   8   9
BRANCH   8  14
ATOM     14  O   UNL     1      13.417  39.956  26.955  1.00  0.00    -0.382 OA
ATOM     15  H   UNL     1      13.107  40.396  26.121  1.00  0.00     0.211 HD
ENDBRANCH   8  14
ENDBRANCH   1   8
BRANCH   1  16
ATOM     16  O   UNL     1      15.530  37.241  27.097  1.00  0.00    -0.387 OA
ATOM     17  H   UNL     1      16.381  37.512  27.534  1.00  0.00     0.211 HD
ENDBRANCH   1  16
TORSDOF 10
ENDMDL
MODEL 3
REMARK VINA RESULT:    -3.858      1.311      2.178
REMARK INTER + INTRA:          -7.017
REMARK INTER:                  -5.954
REMARK INTRA:                  -1.064
REMARK UNBOUND:                -1.468
REMARK SMILES O=C(CO)[C@H](O)[C@@H](O)[C@H](O)CO
REMARK SMILES IDX 7 1 9 2 11 3 12 4 10 6 5 8 2 9 1 10 3 11 4 12 6 14 8 16
REMARK H PARENT 12 5 10 7 4 13 6 15 8 17
REMARK Flexibility Score: inf
ROOT
ATOM      1  C   UNL     1      13.753  38.746  26.549  1.00  0.00     0.181 C 
ENDROOT
BRANCH   1   2
ATOM      2  C   UNL     1      13.789  39.024  25.018  1.00  0.00     0.171 C 
BRANCH   2   3
ATOM      3  C   UNL     1      14.914  39.981  24.571  1.00  0.00     0.190 C 
BRANCH   3   4
ATOM      4  O   UNL     1      16.178  39.484  24.919  1.00  0.00    -0.394 OA
ATOM      5  H   UNL     1      16.328  39.733  25.869  1.00  0.00     0.210 HD
ENDBRANCH   3   4
ENDBRANCH   2   3
BRANCH   2   6
ATOM      6  O   UNL     1      13.897  37.812  24.317  1.00  0.00    -0.388 OA
ATOM      7  H   UNL     1      14.740  37.852  23.793  1.00  0.00     0.211 HD
ENDBRANCH   2   6
ENDBRANCH   1   2
BRANCH   1   8
ATOM      8  C   UNL     1      14.255  37.339  26.968  1.00  0.00     0.214 C 
BRANCH   8   9
ATOM      9  C   UNL     1      14.156  37.123  28.460  1.00  0.00     0.189 C 
ATOM     10  O   UNL     1      15.043  37.545  29.188  1.00  0.00    -0.294 OA
BRANCH   9  11
ATOM     11  C   UNL     1      12.989  36.395  29.074  1.00  0.00     0.234 C 
BRANCH  11  12
ATOM     12  O   UNL     1      12.383  35.562  28.124  1.00  0.00    -0.388 OA
ATOM     13  H   UNL     1      12.957  34.757  28.044  1.00  0.00     0.211 HD
ENDBRANCH  11  12
ENDBRANCH   9  11
ENDBRANCH   8   9
BRANCH   8  14
ATOM     14  O   UNL     1      15.599  37.179  26.584  1.00  0.00    -0.382 OA
ATOM     15  H   UNL     1      16.152  37.698  27.225  1.00  0.00     0.211 HD
ENDBRANCH   8  14
ENDBRANCH   1   8
BRANCH   1  16
ATOM     16  O   UNL     1      14.514  39.717  27.221  1.00  0.00    -0.387 OA
ATOM     17  H   UNL     1      14.398  40.572  26.728  1.00  0.00     0.211 HD
ENDBRANCH   1  16
TORSDOF 10
ENDMDL
MODEL 4
REMARK VINA RESULT:    -3.790      1.502      2.464
REMARK INTER + INTRA:          -6.920
REMARK INTER:                  -5.707
REMARK INTRA:                  -1.213
REMARK UNBOUND:                -1.468
REMARK SMILES O=C(CO)[C@H](O)[C@@H](O)[C@H](O)CO
REMARK SMILES IDX 7 1 9 2 11 3 12 4 10 6 5 8 2 9 1 10 3 11 4 12 6 14 8 16
REMARK H PARENT 12 5 10 7 4 13 6 15 8 17
REMARK Flexibility Score: inf
ROOT
ATOM      1  C   UNL     1      12.882  37.904  27.226  1.00  0.00     0.181 C 
ENDROOT
BRANCH   1   2
ATOM      2  C   UNL     1      13.775  37.025  26.303  1.00  0.00     0.171 C 
BRANCH   2   3
ATOM      3  C   UNL     1      14.376  37.778  25.096  1.00  0.00     0.190 C 
BRANCH   3   4
ATOM      4  O   UNL     1      13.570  38.859  24.714  1.00  0.00    -0.394 OA
ATOM      5  H   UNL     1      12.634  38.527  24.709  1.00  0.00     0.210 HD
ENDBRANCH   3   4
ENDBRANCH   2   3
BRANCH   2   6
ATOM      6  O   UNL     1      14.808  36.442  27.054  1.00  0.00    -0.388 OA
ATOM      7  H   UNL     1      15.455  36.053  26.409  1.00  0.00     0.211 HD
ENDBRANCH   2   6
ENDBRANCH   1   2
BRANCH   1   8
ATOM      8  C   UNL     1      12.274  37.159  28.445  1.00  0.00     0.214 C 
BRANCH   8   9
ATOM      9  C   UNL     1      12.959  37.535  29.738  1.00  0.00     0.189 C 
ATOM     10  O   UNL     1      14.097  37.143  29.951  1.00  0.00    -0.294 OA
BRANCH   9  11
ATOM     11  C   UNL     1      12.270  38.383  30.776  1.00  0.00     0.234 C 
BRANCH  11  12
ATOM     12  O   UNL     1      12.196  39.713  30.343  1.00  0.00    -0.388 OA
ATOM     13  H   UNL     1      13.115  39.978  30.078  1.00  0.00     0.211 HD
ENDBRANCH  11  12
ENDBRANCH   9  11
ENDBRANCH   8   9
BRANCH   8  14
ATOM     14  O   UNL     1      12.399  35.770  28.264  1.00  0.00    -0.382 OA
ATOM     15  H   UNL     1      13.268  35.609  27.812  1.00  0.00     0.211 HD
ENDBRANCH   8  14
ENDBRANCH   1   8
BRANCH   1  16
ATOM     16  O   UNL     1      13.623  39.003  27.691  1.00  0.00    -0.387 OA
ATOM     17  H   UNL     1      13.981  38.758  28.584  1.00  0.00     0.211 HD
ENDBRANCH   1  16
TORSDOF 10
ENDMDL
MODEL 5
REMARK VINA RESULT:    -3.785      1.309      1.737
REMARK INTER + INTRA:          -6.913
REMARK INTER:                  -6.024
REMARK INTRA:                  -0.889
REMARK UNBOUND:                -1.468
REMARK SMILES O=C(CO)[C@H](O)[C@@H](O)[C@H](O)CO
REMARK SMILES IDX 7 1 9 2 11 3 12 4 10 6 5 8 2 9 1 10 3 11 4 12 6 14 8 16
REMARK H PARENT 12 5 10 7 4 13 6 15 8 17
REMARK Flexibility Score: inf
ROOT
ATOM      1  C   UNL     1      13.703  38.633  26.661  1.00  0.00     0.181 C 
ENDROOT
BRANCH   1   2
ATOM      2  C   UNL     1      13.745  38.929  25.133  1.00  0.00     0.171 C 
BRANCH   2   3
ATOM      3  C   UNL     1      14.907  39.847  24.695  1.00  0.00     0.190 C 
BRANCH   3   4
ATOM      4  O   UNL     1      16.151  39.292  25.025  1.00  0.00    -0.394 OA
ATOM      5  H   UNL     1      16.666  39.228  24.178  1.00  0.00     0.210 HD
ENDBRANCH   3   4
ENDBRANCH   2   3
BRANCH   2   6
ATOM      6  O   UNL     1      13.803  37.724  24.416  1.00  0.00    -0.388 OA
ATOM      7  H   UNL     1      12.891  37.550  24.063  1.00  0.00     0.211 HD
ENDBRANCH   2   6
ENDBRANCH   1   2
BRANCH   1   8
ATOM      8  C   UNL     1      14.097  37.184  27.054  1.00  0.00     0.214 C 
BRANCH   8   9
ATOM      9  C   UNL     1      13.654  36.839  28.457  1.00  0.00     0.189 C 
ATOM     10  O   UNL     1      12.828  35.954  28.625  1.00  0.00    -0.294 OA
BRANCH   9  11
ATOM     11  C   UNL     1      14.207  37.562  29.658  1.00  0.00     0.234 C 
BRANCH  11  12
ATOM     12  O   UNL     1      15.608  37.550  29.628  1.00  0.00    -0.388 OA
ATOM     13  H   UNL     1      15.894  38.451  29.327  1.00  0.00     0.211 HD
ENDBRANCH  11  12
ENDBRANCH   9  11
ENDBRANCH   8   9
BRANCH   8  14
ATOM     14  O   UNL     1      15.493  37.034  26.979  1.00  0.00    -0.382 OA
ATOM     15  H   UNL     1      15.743  37.078  26.019  1.00  0.00     0.211 HD
ENDBRANCH   8  14
ENDBRANCH   1   8
BRANCH   1  16
ATOM     16  O   UNL     1      14.545  39.531  27.338  1.00  0.00    -0.387 OA
ATOM     17  H   UNL     1      13.968  40.252  27.706  1.00  0.00     0.211 HD
ENDBRANCH   1  16
TORSDOF 10
ENDMDL
MODEL 6
REMARK VINA RESULT:    -3.726      1.187      4.199
REMARK INTER + INTRA:          -6.828
REMARK INTER:                  -5.568
REMARK INTRA:                  -1.260
REMARK UNBOUND:                -1.468
REMARK SMILES O=C(CO)[C@H](O)[C@@H](O)[C@H](O)CO
REMARK SMILES IDX 7 1 9 2 11 3 12 4 10 6 5 8 2 9 1 10 3 11 4 12 6 14 8 16
REMARK H PARENT 12 5 10 7 4 13 6 15 8 17
REMARK Flexibility Score: inf
ROOT
ATOM      1  C   UNL     1      13.681  36.763  27.280  1.00  0.00     0.181 C 
ENDROOT
BRANCH   1   2
ATOM      2  C   UNL     1      12.951  36.544  28.637  1.00  0.00     0.171 C 
BRANCH   2   3
ATOM      3  C   UNL     1      13.754  37.006  29.872  1.00  0.00     0.190 C 
BRANCH   3   4
ATOM      4  O   UNL     1      13.933  38.396  29.876  1.00  0.00    -0.394 OA
ATOM      5  H   UNL     1      14.897  38.557  30.054  1.00  0.00     0.210 HD
ENDBRANCH   3   4
ENDBRANCH   2   3
BRANCH   2   6
ATOM      6  O   UNL     1      11.705  37.191  28.618  1.00  0.00    -0.388 OA
ATOM      7  H   UNL     1      11.661  37.763  29.428  1.00  0.00     0.211 HD
ENDBRANCH   2   6
ENDBRANCH   1   2
BRANCH   1   8
ATOM      8  C   UNL     1      13.202  38.000  26.475  1.00  0.00     0.214 C 
BRANCH   8   9
ATOM      9  C   UNL     1      14.034  38.225  25.234  1.00  0.00     0.189 C 
ATOM     10  O   UNL     1      14.048  37.372  24.358  1.00  0.00    -0.294 OA
BRANCH   9  11
ATOM     11  C   UNL     1      14.851  39.478  25.050  1.00  0.00     0.234 C 
BRANCH  11  12
ATOM     12  O   UNL     1      15.948  39.473  25.921  1.00  0.00    -0.388 OA
ATOM     13  H   UNL     1      15.768  38.773  26.601  1.00  0.00     0.211 HD
ENDBRANCH  11  12
ENDBRANCH   9  11
ENDBRANCH   8   9
BRANCH   8  14
ATOM     14  O   UNL     1      13.284  39.151  27.279  1.00  0.00    -0.382 OA
ATOM     15  H   UNL     1      13.287  39.936  26.671  1.00  0.00     0.211 HD
ENDBRANCH   8  14
ENDBRANCH   1   8
BRANCH   1  16
ATOM     16  O   UNL     1      15.063  36.873  27.501  1.00  0.00    -0.387 OA
ATOM     17  H   UNL     1      15.347  37.756  27.145  1.00  0.00     0.211 HD
ENDBRANCH   1  16
TORSDOF 10
ENDMDL
MODEL 7
REMARK VINA RESULT:    -3.683      1.557      4.003
REMARK INTER + INTRA:          -6.765
REMARK INTER:                  -5.826
REMARK INTRA:                  -0.940
REMARK UNBOUND:                -1.468
REMARK SMILES O=C(CO)[C@H](O)[C@@H](O)[C@H](O)CO
REMARK SMILES IDX 7 1 9 2 11 3 12 4 10 6 5 8 2 9 1 10 3 11 4 12 6 14 8 16
REMARK H PARENT 12 5 10 7 4 13 6 15 8 17
REMARK Flexibility Score: inf
ROOT
ATOM      1  C   UNL     1      14.295  38.616  27.826  1.00  0.00     0.181 C 
ENDROOT
BRANCH   1   2
ATOM      2  C   UNL     1      14.630  38.117  29.262  1.00  0.00     0.171 C 
BRANCH   2   3
ATOM      3  C   UNL     1      13.544  37.218  29.892  1.00  0.00     0.190 C 
BRANCH   3   4
ATOM      4  O   UNL     1      13.181  36.173  29.032  1.00  0.00    -0.394 OA
ATOM      5  H   UNL     1      12.479  36.534  28.428  1.00  0.00     0.210 HD
ENDBRANCH   3   4
ENDBRANCH   2   3
BRANCH   2   6
ATOM      6  O   UNL     1      15.857  37.435  29.255  1.00  0.00    -0.388 OA
ATOM      7  H   UNL     1      16.572  38.122  29.193  1.00  0.00     0.211 HD
ENDBRANCH   2   6
ENDBRANCH   1   2
BRANCH   1   8
ATOM      8  C   UNL     1      15.105  37.932  26.693  1.00  0.00     0.214 C 
BRANCH   8   9
ATOM      9  C   UNL     1      14.585  38.300  25.323  1.00  0.00     0.189 C 
ATOM     10  O   UNL     1      13.897  37.500  24.707  1.00  0.00    -0.294 OA
BRANCH   9  11
ATOM     11  C   UNL     1      14.897  39.634  24.695  1.00  0.00     0.234 C 
BRANCH  11  12
ATOM     12  O   UNL     1      16.281  39.850  24.680  1.00  0.00    -0.388 OA
ATOM     13  H   UNL     1      16.422  40.809  24.891  1.00  0.00     0.211 HD
ENDBRANCH  11  12
ENDBRANCH   9  11
ENDBRANCH   8   9
BRANCH   8  14
ATOM     14  O   UNL     1      15.034  36.535  26.835  1.00  0.00    -0.382 OA
ATOM     15  H   UNL     1      15.594  36.137  26.118  1.00  0.00     0.211 HD
ENDBRANCH   8  14
ENDBRANCH   1   8
BRANCH   1  16
ATOM     16  O   UNL     1      12.924  38.439  27.574  1.00  0.00    -0.387 OA
ATOM     17  H   UNL     1      12.433  38.817  28.351  1.00  0.00     0.211 HD
ENDBRANCH   1  16
TORSDOF 10
ENDMDL
MODEL 8
REMARK VINA RESULT:    -3.560      1.647      2.190
REMARK INTER + INTRA:          -6.589
REMARK INTER:                  -6.081
REMARK INTRA:                  -0.508
REMARK UNBOUND:                -1.468
REMARK SMILES O=C(CO)[C@H](O)[C@@H](O)[C@H](O)CO
REMARK SMILES IDX 7 1 9 2 11 3 12 4 10 6 5 8 2 9 1 10 3 11 4 12 6 14 8 16
REMARK H PARENT 12 5 10 7 4 13 6 15 8 17
REMARK Flexibility Score: inf
ROOT
ATOM      1  C   UNL     1      15.224  37.799  27.191  1.00  0.00     0.181 C 
ENDROOT
BRANCH   1   2
ATOM      2  C   UNL     1      15.540  38.658  25.932  1.00  0.00     0.171 C 
BRANCH   2   3
ATOM      3  C   UNL     1      14.324  38.918  25.018  1.00  0.00     0.190 C 
BRANCH   3   4
ATOM      4  O   UNL     1      13.780  37.720  24.534  1.00  0.00    -0.394 OA
ATOM      5  H   UNL     1      12.964  37.542  25.071  1.00  0.00     0.210 HD
ENDBRANCH   3   4
ENDBRANCH   2   3
BRANCH   2   6
ATOM      6  O   UNL     1      16.106  39.883  26.321  1.00  0.00    -0.388 OA
ATOM      7  H   UNL     1      15.424  40.361  26.861  1.00  0.00     0.211 HD
ENDBRANCH   2   6
ENDBRANCH   1   2
BRANCH   1   8
ATOM      8  C   UNL     1      13.989  38.267  28.005  1.00  0.00     0.214 C 
BRANCH   8   9
ATOM      9  C   UNL     1      14.246  38.232  29.494  1.00  0.00     0.189 C 
ATOM     10  O   UNL     1      13.453  37.658  30.227  1.00  0.00    -0.294 OA
BRANCH   9  11
ATOM     11  C   UNL     1      15.457  38.892  30.100  1.00  0.00     0.234 C 
BRANCH  11  12
ATOM     12  O   UNL     1      16.404  37.925  30.463  1.00  0.00    -0.388 OA
ATOM     13  H   UNL     1      16.424  37.904  31.454  1.00  0.00     0.211 HD
ENDBRANCH  11  12
ENDBRANCH   9  11
ENDBRANCH   8   9
BRANCH   8  14
ATOM     14  O   UNL     1      12.891  37.435  27.724  1.00  0.00    -0.382 OA
ATOM     15  H   UNL     1      13.181  36.499  27.887  1.00  0.00     0.211 HD
ENDBRANCH   8  14
ENDBRANCH   1   8
BRANCH   1  16
ATOM     16  O   UNL     1      15.036  36.459  26.812  1.00  0.00    -0.387 OA
ATOM     17  H   UNL     1      15.407  35.894  27.541  1.00  0.00     0.211 HD
ENDBRANCH   1  16
TORSDOF 10
ENDMDL
MODEL 9
REMARK VINA RESULT:    -3.456      1.390      4.221
REMARK INTER + INTRA:          -6.438
REMARK INTER:                  -5.444
REMARK INTRA:                  -0.994
REMARK UNBOUND:                -1.468
REMARK SMILES O=C(CO)[C@H](O)[C@@H](O)[C@H](O)CO
REMARK SMILES IDX 7 1 9 2 11 3 12 4 10 6 5 8 2 9 1 10 3 11 4 12 6 14 8 16
REMARK H PARENT 12 5 10 7 4 13 6 15 8 17
REMARK Flexibility Score: inf
ROOT
ATOM      1  C   UNL     1      13.769  38.313  28.187  1.00  0.00     0.181 C 
ENDROOT
BRANCH   1   2
ATOM      2  C   UNL     1      12.881  37.259  28.911  1.00  0.00     0.171 C 
BRANCH   2   3
ATOM      3  C   UNL     1      12.080  37.817  30.107  1.00  0.00     0.190 C 
BRANCH   3   4
ATOM      4  O   UNL     1      10.991  38.588  29.679  1.00  0.00    -0.394 OA
ATOM      5  H   UNL     1      11.302  39.532  29.658  1.00  0.00     0.210 HD
ENDBRANCH   3   4
ENDBRANCH   2   3
BRANCH   2   6
ATOM      6  O   UNL     1      12.002  36.666  27.991  1.00  0.00    -0.388 OA
ATOM      7  H   UNL     1      11.131  37.136  28.076  1.00  0.00     0.211 HD
ENDBRANCH   2   6
ENDBRANCH   1   2
BRANCH   1   8
ATOM      8  C   UNL     1      14.754  37.727  27.141  1.00  0.00     0.214 C 
BRANCH   8   9
ATOM      9  C   UNL     1      14.351  38.075  25.727  1.00  0.00     0.189 C 
ATOM     10  O   UNL     1      13.374  37.535  25.231  1.00  0.00    -0.294 OA
BRANCH   9  11
ATOM     11  C   UNL     1      15.130  39.074  24.910  1.00  0.00     0.234 C 
BRANCH  11  12
ATOM     12  O   UNL     1      14.291  39.693  23.974  1.00  0.00    -0.388 OA
ATOM     13  H   UNL     1      13.575  40.146  24.490  1.00  0.00     0.211 HD
ENDBRANCH  11  12
ENDBRANCH   9  11
ENDBRANCH   8   9
BRANCH   8  14
ATOM     14  O   UNL     1      14.796  36.326  27.259  1.00  0.00    -0.382 OA
ATOM     15  H   UNL     1      15.408  36.112  28.011  1.00  0.00     0.211 HD
ENDBRANCH   8  14
ENDBRANCH   1   8
BRANCH   1  16
ATOM     16  O   UNL     1      12.951  39.265  27.556  1.00  0.00    -0.387 OA
ATOM     17  H   UNL     1      13.238  40.159  27.881  1.00  0.00     0.211 HD
ENDBRANCH   1  16
TORSDOF 10
ENDMDL
