MODEL 1
REMARK VINA RESULT:    -2.124      0.000      0.000
REMARK INTER + INTRA:          -2.531
REMARK INTER:                  -2.496
REMARK INTRA:                  -0.035
REMARK UNBOUND:                -0.035
REMARK SMILES CCCCC(=O)[O-]
REMARK SMILES IDX 4 1 5 2 6 3 7 4 3 5 2 6 1 7
REMARK H PARENT
REMARK Flexibility Score: inf
ROOT
ATOM      1  C   UNL     1      -1.429  51.002   9.660  1.00  0.00     0.053 C 
ENDROOT
BRANCH   1   2
ATOM      2  C   UNL     1      -2.632  51.772   9.207  1.00  0.00     0.041 C 
ATOM      3  O   UNL     1      -3.001  51.725   8.004  1.00  0.00    -0.550 OA
ATOM      4  O   UNL     1      -3.364  52.519  10.121  1.00  0.00    -0.550 OA
ENDBRANCH   1   2
BRANCH   1   5
ATOM      5  C   UNL     1      -0.279  51.915  10.123  1.00  0.00     0.006 C 
BRANCH   5   6
ATOM      6  C   UNL     1       1.118  51.290   9.955  1.00  0.00    -0.003 C 
ATOM      7  C   UNL     1       1.125  50.068   9.039  1.00  0.00     0.004 C 
ENDBRANCH   5   6
ENDBRANCH   1   5
TORSDOF 3
ENDMDL
MODEL 2
REMARK VINA RESULT:    -1.522      2.545      3.985
REMARK INTER + INTRA:          -1.824
REMARK INTER:                  -1.801
REMARK INTRA:                  -0.023
REMARK UNBOUND:                -0.035
REMARK SMILES CCCCC(=O)[O-]
REMARK SMILES IDX 4 1 5 2 6 3 7 4 3 5 2 6 1 7
REMARK H PARENT
REMARK Flexibility Score: inf
ROOT
ATOM      1  C   UNL     1      -0.860  52.152  10.125  1.00  0.00     0.053 C 
ENDROOT
BRANCH   1   2
ATOM      2  C   UNL     1       0.418  51.681   9.502  1.00  0.00     0.041 C 
ATOM      3  O   UNL     1       0.862  50.530   9.754  1.00  0.00    -0.550 OA
ATOM      4  O   UNL     1       1.106  52.503   8.618  1.00  0.00    -0.550 OA
ENDBRANCH   1   2
BRANCH   1   5
ATOM      5  C   UNL     1      -2.066  51.275   9.743  1.00  0.00     0.006 C 
BRANCH   5   6
ATOM      6  C   UNL     1      -3.261  52.068   9.185  1.00  0.00    -0.003 C 
ATOM      7  C   UNL     1      -3.667  53.247  10.068  1.00  0.00     0.004 C 
ENDBRANCH   5   6
ENDBRANCH   1   5
TORSDOF 3
ENDMDL
MODEL 3
REMARK VINA RESULT:    -0.807      2.541      3.847
REMARK INTER + INTRA:          -0.984
REMARK INTER:                  -0.940
REMARK INTRA:                  -0.043
REMARK UNBOUND:                -0.035
REMARK SMILES CCCCC(=O)[O-]
REMARK SMILES IDX 4 1 5 2 6 3 7 4 3 5 2 6 1 7
REMARK H PARENT
REMARK Flexibility Score: inf
ROOT
ATOM      1  C   UNL     1      -1.071  50.947   8.990  1.00  0.00     0.053 C 
ENDROOT
BRANCH   1   2
ATOM      2  C   UNL     1       0.354  51.129   9.415  1.00  0.00     0.041 C 
ATOM      3  O   UNL     1       0.860  52.281   9.467  1.00  0.00    -0.550 OA
ATOM      4  O   UNL     1       1.115  50.027   9.784  1.00  0.00    -0.550 OA
ENDBRANCH   1   2
BRANCH   1   5
ATOM      5  C   UNL     1      -2.071  51.244  10.123  1.00  0.00     0.006 C 
BRANCH   5   6
ATOM      6  C   UNL     1      -3.249  52.139   9.696  1.00  0.00    -0.003 C 
ATOM      7  C   UNL     1      -3.514  52.107   8.192  1.00  0.00     0.004 C 
ENDBRANCH   5   6
ENDBRANCH   1   5
TORSDOF 3
ENDMDL
MODEL 4
REMARK VINA RESULT:    -0.471      3.645      5.865
REMARK INTER + INTRA:          -0.588
REMARK INTER:                  -0.545
REMARK INTRA:                  -0.043
REMARK UNBOUND:                -0.035
REMARK SMILES CCCCC(=O)[O-]
REMARK SMILES IDX 4 1 5 2 6 3 7 4 3 5 2 6 1 7
REMARK H PARENT
REMARK Flexibility Score: inf
ROOT
ATOM      1  C   UNL     1      -4.506  54.059   9.843  1.00  0.00     0.053 C 
ENDROOT
BRANCH   1   2
ATOM      2  C   UNL     1      -3.741  52.881   9.322  1.00  0.00     0.041 C 
ATOM      3  O   UNL     1      -3.931  52.468   8.148  1.00  0.00    -0.550 OA
ATOM      4  O   UNL     1      -2.795  52.256  10.125  1.00  0.00    -0.550 OA
ENDBRANCH   1   2
BRANCH   1   5
ATOM      5  C   UNL     1      -5.916  54.167   9.235  1.00  0.00     0.006 C 
BRANCH   5   6
ATOM      6  C   UNL     1      -7.025  53.576  10.125  1.00  0.00    -0.003 C 
ATOM      7  C   UNL     1      -8.393  54.210   9.883  1.00  0.00     0.004 C 
ENDBRANCH   5   6
ENDBRANCH   1   5
TORSDOF 3
ENDMDL
