MODEL 1
REMARK VINA RESULT:    -2.919      0.000      0.000
REMARK INTER + INTRA:          -4.848
REMARK INTER:                  -4.199
REMARK INTRA:                  -0.648
REMARK UNBOUND:                -0.648
REMARK SMILES CCCCCCCCCO
REMARK SMILES IDX 6 1 5 2 4 3 3 4 2 5 1 6 7 7 8 8 9 9 10 10
REMARK H PARENT 10 11
REMARK Flexibility Score: inf
ROOT
ATOM      1  C   UNL     1      -2.219   3.691  -4.588  1.00  0.00     0.000 C 
ENDROOT
BRANCH   1   2
ATOM      2  C   UNL     1      -0.740   3.772  -4.176  1.00  0.00     0.000 C 
BRANCH   2   3
ATOM      3  C   UNL     1      -0.035   2.404  -4.197  1.00  0.00    -0.000 C 
BRANCH   3   4
ATOM      4  C   UNL     1       1.346   2.389  -4.877  1.00  0.00    -0.000 C 
BRANCH   4   5
ATOM      5  C   UNL     1       1.450   3.383  -6.043  1.00  0.00    -0.003 C 
ATOM      6  C   UNL     1       0.928   2.769  -7.338  1.00  0.00     0.004 C 
ENDBRANCH   4   5
ENDBRANCH   3   4
ENDBRANCH   2   3
ENDBRANCH   1   2
BRANCH   1   7
ATOM      7  C   UNL     1      -2.465   2.664  -5.705  1.00  0.00     0.002 C 
BRANCH   7   8
ATOM      8  C   UNL     1      -2.751   3.324  -7.064  1.00  0.00     0.028 C 
BRANCH   8   9
ATOM      9  C   UNL     1      -3.168   2.294  -8.116  1.00  0.00     0.156 C 
BRANCH   9  10
ATOM     10  O   UNL     1      -3.630   1.127  -7.492  1.00  0.00    -0.396 OA
ATOM     11  H   UNL     1      -4.166   1.427  -6.712  1.00  0.00     0.210 HD
ENDBRANCH   9  10
ENDBRANCH   8   9
ENDBRANCH   7   8
ENDBRANCH   1   7
TORSDOF 8
ENDMDL
MODEL 2
REMARK VINA RESULT:    -2.790      1.112      1.603
REMARK INTER + INTRA:          -4.661
REMARK INTER:                  -4.376
REMARK INTRA:                  -0.286
REMARK UNBOUND:                -0.648
REMARK SMILES CCCCCCCCCO
REMARK SMILES IDX 6 1 5 2 4 3 3 4 2 5 1 6 7 7 8 8 9 9 10 10
REMARK H PARENT 10 11
REMARK Flexibility Score: inf
ROOT
ATOM      1  C   UNL     1      -1.962   3.794  -4.468  1.00  0.00     0.000 C 
ENDROOT
BRANCH   1   2
ATOM      2  C   UNL     1      -0.444   3.848  -4.229  1.00  0.00     0.000 C 
BRANCH   2   3
ATOM      3  C   UNL     1       0.299   2.633  -4.814  1.00  0.00    -0.000 C 
BRANCH   3   4
ATOM      4  C   UNL     1       0.769   1.593  -3.781  1.00  0.00    -0.000 C 
BRANCH   4   5
ATOM      5  C   UNL     1       2.298   1.473  -3.704  1.00  0.00    -0.003 C 
ATOM      6  C   UNL     1       2.978   2.631  -4.429  1.00  0.00     0.004 C 
ENDBRANCH   4   5
ENDBRANCH   3   4
ENDBRANCH   2   3
ENDBRANCH   1   2
BRANCH   1   7
ATOM      7  C   UNL     1      -2.354   2.769  -5.545  1.00  0.00     0.002 C 
BRANCH   7   8
ATOM      8  C   UNL     1      -3.024   3.419  -6.767  1.00  0.00     0.028 C 
BRANCH   8   9
ATOM      9  C   UNL     1      -3.180   2.427  -7.920  1.00  0.00     0.156 C 
BRANCH   9  10
ATOM     10  O   UNL     1      -3.632   1.191  -7.436  1.00  0.00    -0.396 OA
ATOM     11  H   UNL     1      -3.418   1.182  -6.467  1.00  0.00     0.210 HD
ENDBRANCH   9  10
ENDBRANCH   8   9
ENDBRANCH   7   8
ENDBRANCH   1   7
TORSDOF 8
ENDMDL
MODEL 3
REMARK VINA RESULT:    -2.780      4.430      6.766
REMARK INTER + INTRA:          -4.647
REMARK INTER:                  -4.524
REMARK INTRA:                  -0.123
REMARK UNBOUND:                -0.648
REMARK SMILES CCCCCCCCCO
REMARK SMILES IDX 6 1 5 2 4 3 3 4 2 5 1 6 7 7 8 8 9 9 10 10
REMARK H PARENT 10 11
REMARK Flexibility Score: inf
ROOT
ATOM      1  C   UNL     1       2.431   0.755  -3.344  1.00  0.00     0.000 C 
ENDROOT
BRANCH   1   2
ATOM      2  C   UNL     1       1.809   1.937  -4.105  1.00  0.00     0.000 C 
BRANCH   2   3
ATOM      3  C   UNL     1       0.272   1.958  -4.029  1.00  0.00    -0.000 C 
BRANCH   3   4
ATOM      4  C   UNL     1      -0.435   2.562  -5.256  1.00  0.00    -0.000 C 
BRANCH   4   5
ATOM      5  C   UNL     1      -1.961   2.632  -5.094  1.00  0.00    -0.003 C 
ATOM      6  C   UNL     1      -2.409   4.034  -4.692  1.00  0.00     0.004 C 
ENDBRANCH   4   5
ENDBRANCH   3   4
ENDBRANCH   2   3
ENDBRANCH   1   2
BRANCH   1   7
ATOM      7  C   UNL     1       3.949   0.908  -3.154  1.00  0.00     0.002 C 
BRANCH   7   8
ATOM      8  C   UNL     1       4.524  -0.091  -2.136  1.00  0.00     0.028 C 
BRANCH   8   9
ATOM      9  C   UNL     1       4.938   0.602  -0.837  1.00  0.00     0.156 C 
BRANCH   9  10
ATOM     10  O   UNL     1       4.037   0.285   0.189  1.00  0.00    -0.396 OA
ATOM     11  H   UNL     1       3.588   1.135   0.432  1.00  0.00     0.210 HD
ENDBRANCH   9  10
ENDBRANCH   8   9
ENDBRANCH   7   8
ENDBRANCH   1   7
TORSDOF 8
ENDMDL
MODEL 4
REMARK VINA RESULT:    -2.776      2.718      5.195
REMARK INTER + INTRA:          -4.642
REMARK INTER:                  -4.245
REMARK INTRA:                  -0.397
REMARK UNBOUND:                -0.648
REMARK SMILES CCCCCCCCCO
REMARK SMILES IDX 6 1 5 2 4 3 3 4 2 5 1 6 7 7 8 8 9 9 10 10
REMARK H PARENT 10 11
REMARK Flexibility Score: inf
ROOT
ATOM      1  C   UNL     1       1.632   3.026  -5.923  1.00  0.00     0.000 C 
ENDROOT
BRANCH   1   2
ATOM      2  C   UNL     1       0.211   2.581  -6.307  1.00  0.00     0.000 C 
BRANCH   2   3
ATOM      3  C   UNL     1      -0.661   2.240  -5.085  1.00  0.00    -0.000 C 
BRANCH   3   4
ATOM      4  C   UNL     1      -2.056   2.891  -5.075  1.00  0.00    -0.000 C 
BRANCH   4   5
ATOM      5  C   UNL     1      -2.094   4.215  -4.298  1.00  0.00    -0.003 C 
ATOM      6  C   UNL     1      -3.462   4.881  -4.411  1.00  0.00     0.004 C 
ENDBRANCH   4   5
ENDBRANCH   3   4
ENDBRANCH   2   3
ENDBRANCH   1   2
BRANCH   1   7
ATOM      7  C   UNL     1       1.892   2.934  -4.411  1.00  0.00     0.002 C 
BRANCH   7   8
ATOM      8  C   UNL     1       3.298   2.406  -4.081  1.00  0.00     0.028 C 
BRANCH   8   9
ATOM      9  C   UNL     1       3.239   1.093  -3.299  1.00  0.00     0.156 C 
BRANCH   9  10
ATOM     10  O   UNL     1       1.915   0.803  -2.940  1.00  0.00    -0.396 OA
ATOM     11  H   UNL     1       1.644   1.511  -2.300  1.00  0.00     0.210 HD
ENDBRANCH   9  10
ENDBRANCH   8   9
ENDBRANCH   7   8
ENDBRANCH   1   7
TORSDOF 8
ENDMDL
MODEL 5
REMARK VINA RESULT:    -2.768     13.294     14.873
REMARK INTER + INTRA:          -4.631
REMARK INTER:                  -4.016
REMARK INTRA:                  -0.614
REMARK UNBOUND:                -0.648
REMARK SMILES CCCCCCCCCO
REMARK SMILES IDX 6 1 5 2 4 3 3 4 2 5 1 6 7 7 8 8 9 9 10 10
REMARK H PARENT 10 11
REMARK Flexibility Score: inf
ROOT
ATOM      1  C   UNL     1      -2.031   2.406  10.125  1.00  0.00     0.000 C 
ENDROOT
BRANCH   1   2
ATOM      2  C   UNL     1      -2.836   2.047   8.865  1.00  0.00     0.000 C 
BRANCH   2   3
ATOM      3  C   UNL     1      -3.094   0.535   8.729  1.00  0.00    -0.000 C 
BRANCH   3   4
ATOM      4  C   UNL     1      -2.812  -0.053   7.335  1.00  0.00    -0.000 C 
BRANCH   4   5
ATOM      5  C   UNL     1      -2.062   0.920   6.414  1.00  0.00    -0.003 C 
ATOM      6  C   UNL     1      -0.805   0.274   5.838  1.00  0.00     0.004 C 
ENDBRANCH   4   5
ENDBRANCH   3   4
ENDBRANCH   2   3
ENDBRANCH   1   2
BRANCH   1   7
ATOM      7  C   UNL     1      -0.589   1.875  10.075  1.00  0.00     0.002 C 
BRANCH   7   8
ATOM      8  C   UNL     1       0.196   2.403   8.863  1.00  0.00     0.028 C 
BRANCH   8   9
ATOM      9  C   UNL     1       0.749   3.806   9.115  1.00  0.00     0.156 C 
BRANCH   9  10
ATOM     10  O   UNL     1       1.515   4.228   8.020  1.00  0.00    -0.396 OA
ATOM     11  H   UNL     1       2.364   4.576   8.397  1.00  0.00     0.210 HD
ENDBRANCH   9  10
ENDBRANCH   8   9
ENDBRANCH   7   8
ENDBRANCH   1   7
TORSDOF 8
ENDMDL
MODEL 6
REMARK VINA RESULT:    -2.765      2.427      4.330
REMARK INTER + INTRA:          -4.626
REMARK INTER:                  -4.030
REMARK INTRA:                  -0.595
REMARK UNBOUND:                -0.648
REMARK SMILES CCCCCCCCCO
REMARK SMILES IDX 6 1 5 2 4 3 3 4 2 5 1 6 7 7 8 8 9 9 10 10
REMARK H PARENT 10 11
REMARK Flexibility Score: inf
ROOT
ATOM      1  C   UNL     1      -0.708   3.665  -4.098  1.00  0.00     0.000 C 
ENDROOT
BRANCH   1   2
ATOM      2  C   UNL     1      -2.166   3.677  -4.589  1.00  0.00     0.000 C 
BRANCH   2   3
ATOM      3  C   UNL     1      -2.450   2.597  -5.649  1.00  0.00    -0.000 C 
BRANCH   3   4
ATOM      4  C   UNL     1      -3.062   3.116  -6.963  1.00  0.00    -0.000 C 
BRANCH   4   5
ATOM      5  C   UNL     1      -2.003   3.574  -7.977  1.00  0.00    -0.003 C 
ATOM      6  C   UNL     1      -0.759   2.693  -7.910  1.00  0.00     0.004 C 
ENDBRANCH   4   5
ENDBRANCH   3   4
ENDBRANCH   2   3
ENDBRANCH   1   2
BRANCH   1   7
ATOM      7  C   UNL     1      -0.068   2.270  -4.184  1.00  0.00     0.002 C 
BRANCH   7   8
ATOM      8  C   UNL     1       1.336   2.300  -4.811  1.00  0.00     0.028 C 
BRANCH   8   9
ATOM      9  C   UNL     1       2.407   1.840  -3.821  1.00  0.00     0.156 C 
BRANCH   9  10
ATOM     10  O   UNL     1       1.909   0.805  -3.017  1.00  0.00    -0.396 OA
ATOM     11  H   UNL     1       1.915  -0.009  -3.584  1.00  0.00     0.210 HD
ENDBRANCH   9  10
ENDBRANCH   8   9
ENDBRANCH   7   8
ENDBRANCH   1   7
TORSDOF 8
ENDMDL
MODEL 7
REMARK VINA RESULT:    -2.761      1.896      3.046
REMARK INTER + INTRA:          -4.620
REMARK INTER:                  -4.336
REMARK INTRA:                  -0.284
REMARK UNBOUND:                -0.648
REMARK SMILES CCCCCCCCCO
REMARK SMILES IDX 6 1 5 2 4 3 3 4 2 5 1 6 7 7 8 8 9 9 10 10
REMARK H PARENT 10 11
REMARK Flexibility Score: inf
ROOT
ATOM      1  C   UNL     1      -0.232   2.242  -4.837  1.00  0.00     0.000 C 
ENDROOT
BRANCH   1   2
ATOM      2  C   UNL     1       1.192   2.582  -5.307  1.00  0.00     0.000 C 
BRANCH   2   3
ATOM      3  C   UNL     1       2.262   2.293  -4.239  1.00  0.00    -0.000 C 
BRANCH   3   4
ATOM      4  C   UNL     1       2.058   0.990  -3.445  1.00  0.00    -0.000 C 
BRANCH   4   5
ATOM      5  C   UNL     1       3.375   0.258  -3.146  1.00  0.00    -0.003 C 
ATOM      6  C   UNL     1       4.514   1.246  -2.919  1.00  0.00     0.004 C 
ENDBRANCH   4   5
ENDBRANCH   3   4
ENDBRANCH   2   3
ENDBRANCH   1   2
BRANCH   1   7
ATOM      7  C   UNL     1      -1.051   3.494  -4.480  1.00  0.00     0.002 C 
BRANCH   7   8
ATOM      8  C   UNL     1      -2.512   3.401  -4.951  1.00  0.00     0.028 C 
BRANCH   8   9
ATOM      9  C   UNL     1      -2.609   2.918  -6.399  1.00  0.00     0.156 C 
BRANCH   9  10
ATOM     10  O   UNL     1      -3.439   1.791  -6.477  1.00  0.00    -0.396 OA
ATOM     11  H   UNL     1      -4.119   1.998  -7.169  1.00  0.00     0.210 HD
ENDBRANCH   9  10
ENDBRANCH   8   9
ENDBRANCH   7   8
ENDBRANCH   1   7
TORSDOF 8
ENDMDL
MODEL 8
REMARK VINA RESULT:    -2.714      3.124      4.357
REMARK INTER + INTRA:          -4.553
REMARK INTER:                  -4.340
REMARK INTRA:                  -0.213
REMARK UNBOUND:                -0.648
REMARK SMILES CCCCCCCCCO
REMARK SMILES IDX 6 1 5 2 4 3 3 4 2 5 1 6 7 7 8 8 9 9 10 10
REMARK H PARENT 10 11
REMARK Flexibility Score: inf
ROOT
ATOM      1  C   UNL     1       1.616   1.973  -4.063  1.00  0.00     0.000 C 
ENDROOT
BRANCH   1   2
ATOM      2  C   UNL     1       2.215   0.735  -3.375  1.00  0.00     0.000 C 
BRANCH   2   3
ATOM      3  C   UNL     1       3.683   0.934  -2.955  1.00  0.00    -0.000 C 
BRANCH   3   4
ATOM      4  C   UNL     1       4.568  -0.321  -3.058  1.00  0.00    -0.000 C 
BRANCH   4   5
ATOM      5  C   UNL     1       5.793  -0.118  -3.962  1.00  0.00    -0.003 C 
ATOM      6  C   UNL     1       6.025   1.362  -4.251  1.00  0.00     0.004 C 
ENDBRANCH   4   5
ENDBRANCH   3   4
ENDBRANCH   2   3
ENDBRANCH   1   2
BRANCH   1   7
ATOM      7  C   UNL     1       0.080   2.003  -3.989  1.00  0.00     0.002 C 
BRANCH   7   8
ATOM      8  C   UNL     1      -0.512   3.326  -4.503  1.00  0.00     0.028 C 
BRANCH   8   9
ATOM      9  C   UNL     1      -2.000   3.189  -4.832  1.00  0.00     0.156 C 
BRANCH   9  10
ATOM     10  O   UNL     1      -2.285   1.878  -5.239  1.00  0.00    -0.396 OA
ATOM     11  H   UNL     1      -1.742   1.286  -4.657  1.00  0.00     0.210 HD
ENDBRANCH   9  10
ENDBRANCH   8   9
ENDBRANCH   7   8
ENDBRANCH   1   7
TORSDOF 8
ENDMDL
MODEL 9
REMARK VINA RESULT:    -2.694      3.219      5.226
REMARK INTER + INTRA:          -4.523
REMARK INTER:                  -4.092
REMARK INTRA:                  -0.431
REMARK UNBOUND:                -0.648
REMARK SMILES CCCCCCCCCO
REMARK SMILES IDX 6 1 5 2 4 3 3 4 2 5 1 6 7 7 8 8 9 9 10 10
REMARK H PARENT 10 11
REMARK Flexibility Score: inf
ROOT
ATOM      1  C   UNL     1       1.207   2.740  -4.819  1.00  0.00     0.000 C 
ENDROOT
BRANCH   1   2
ATOM      2  C   UNL     1       0.290   3.943  -4.544  1.00  0.00     0.000 C 
BRANCH   2   3
ATOM      3  C   UNL     1      -1.138   3.531  -4.145  1.00  0.00    -0.000 C 
BRANCH   3   4
ATOM      4  C   UNL     1      -2.257   4.114  -5.026  1.00  0.00    -0.000 C 
BRANCH   4   5
ATOM      5  C   UNL     1      -2.886   3.073  -5.964  1.00  0.00    -0.003 C 
ATOM      6  C   UNL     1      -2.087   2.943  -7.256  1.00  0.00     0.004 C 
ENDBRANCH   4   5
ENDBRANCH   3   4
ENDBRANCH   2   3
ENDBRANCH   1   2
BRANCH   1   7
ATOM      7  C   UNL     1       0.963   1.577  -3.844  1.00  0.00     0.002 C 
BRANCH   7   8
ATOM      8  C   UNL     1       2.266   0.893  -3.398  1.00  0.00     0.028 C 
BRANCH   8   9
ATOM      9  C   UNL     1       3.480   1.799  -3.608  1.00  0.00     0.156 C 
BRANCH   9  10
ATOM     10  O   UNL     1       4.126   2.031  -2.386  1.00  0.00    -0.396 OA
ATOM     11  H   UNL     1       4.707   2.822  -2.529  1.00  0.00     0.210 HD
ENDBRANCH   9  10
ENDBRANCH   8   9
ENDBRANCH   7   8
ENDBRANCH   1   7
TORSDOF 8
ENDMDL
