MODEL 1
REMARK VINA RESULT:    -3.886      0.000      0.000
REMARK INTER + INTRA:          -7.527
REMARK INTER:                  -6.613
REMARK INTRA:                  -0.914
REMARK UNBOUND:                -0.914
REMARK SMILES CCCCCCCCCCCCCC(=O)[O-]
REMARK SMILES IDX 8 1 9 2 10 3 11 4 12 5 13 6 14 7 15 8 16 9 7 10 6 11 5 12
REMARK SMILES IDX 4 13 3 14 2 15 1 16
REMARK H PARENT
REMARK Flexibility Score: inf
ROOT
ATOM      1  C   UNL     1      -2.455  -7.526  38.062  1.00  0.00     0.000 C 
ENDROOT
BRANCH   1   2
ATOM      2  C   UNL     1      -1.140  -8.318  37.973  1.00  0.00     0.000 C 
BRANCH   2   3
ATOM      3  C   UNL     1      -0.593  -8.715  39.353  1.00  0.00     0.000 C 
BRANCH   3   4
ATOM      4  C   UNL     1      -1.565  -8.301  40.467  1.00  0.00     0.000 C 
BRANCH   4   5
ATOM      5  C   UNL     1      -1.897  -9.457  41.429  1.00  0.00     0.006 C 
BRANCH   5   6
ATOM      6  C   UNL     1      -1.569 -10.854  40.878  1.00  0.00     0.053 C 
BRANCH   6   7
ATOM      7  C   UNL     1      -1.502 -11.883  41.964  1.00  0.00     0.041 C 
ATOM      8  O   UNL     1      -0.594 -11.827  42.836  1.00  0.00    -0.550 OA
ATOM      9  O   UNL     1      -2.421 -12.924  41.994  1.00  0.00    -0.550 OA
ENDBRANCH   6   7
ENDBRANCH   5   6
ENDBRANCH   4   5
ENDBRANCH   3   4
ENDBRANCH   2   3
ENDBRANCH   1   2
BRANCH   1  10
ATOM     10  C   UNL     1      -2.762  -6.741  36.778  1.00  0.00     0.000 C 
BRANCH  10  11
ATOM     11  C   UNL     1      -1.999  -7.326  35.580  1.00  0.00    -0.000 C 
BRANCH  11  12
ATOM     12  C   UNL     1      -2.736  -7.133  34.243  1.00  0.00    -0.000 C 
BRANCH  12  13
ATOM     13  C   UNL     1      -2.390  -5.838  33.486  1.00  0.00    -0.000 C 
BRANCH  13  14
ATOM     14  C   UNL     1      -3.617  -4.944  33.237  1.00  0.00    -0.000 C 
BRANCH  14  15
ATOM     15  C   UNL     1      -3.842  -3.926  34.367  1.00  0.00    -0.003 C 
ATOM     16  C   UNL     1      -5.039  -4.278  35.250  1.00  0.00     0.004 C 
ENDBRANCH  14  15
ENDBRANCH  13  14
ENDBRANCH  12  13
ENDBRANCH  11  12
ENDBRANCH  10  11
ENDBRANCH   1  10
TORSDOF 12
ENDMDL
MODEL 2
REMARK VINA RESULT:    -3.798      1.615      3.296
REMARK INTER + INTRA:          -7.377
REMARK INTER:                  -5.731
REMARK INTRA:                  -1.647
REMARK UNBOUND:                -0.914
REMARK SMILES CCCCCCCCCCCCCC(=O)[O-]
REMARK SMILES IDX 8 1 9 2 10 3 11 4 12 5 13 6 14 7 15 8 16 9 7 10 6 11 5 12
REMARK SMILES IDX 4 13 3 14 2 15 1 16
REMARK H PARENT
REMARK Flexibility Score: inf
ROOT
ATOM      1  C   UNL     1      -5.233  -6.529  36.543  1.00  0.00     0.000 C 
ENDROOT
BRANCH   1   2
ATOM      2  C   UNL     1      -4.134  -7.396  37.177  1.00  0.00     0.000 C 
BRANCH   2   3
ATOM      3  C   UNL     1      -2.858  -6.600  37.490  1.00  0.00     0.000 C 
BRANCH   3   4
ATOM      4  C   UNL     1      -1.606  -7.386  37.074  1.00  0.00     0.000 C 
BRANCH   4   5
ATOM      5  C   UNL     1      -1.284  -8.547  38.034  1.00  0.00     0.006 C 
BRANCH   5   6
ATOM      6  C   UNL     1      -1.425  -8.195  39.524  1.00  0.00     0.053 C 
BRANCH   6   7
ATOM      7  C   UNL     1      -1.383  -9.412  40.394  1.00  0.00     0.041 C 
ATOM      8  O   UNL     1      -0.710 -10.419  40.045  1.00  0.00    -0.550 OA
ATOM      9  O   UNL     1      -2.113  -9.449  41.576  1.00  0.00    -0.550 OA
ENDBRANCH   6   7
ENDBRANCH   5   6
ENDBRANCH   4   5
ENDBRANCH   3   4
ENDBRANCH   2   3
ENDBRANCH   1   2
BRANCH   1  10
ATOM     10  C   UNL     1      -4.858  -5.039  36.493  1.00  0.00     0.000 C 
BRANCH  10  11
ATOM     11  C   UNL     1      -5.158  -4.443  35.109  1.00  0.00    -0.000 C 
BRANCH  11  12
ATOM     12  C   UNL     1      -3.886  -4.074  34.323  1.00  0.00    -0.000 C 
BRANCH  12  13
ATOM     13  C   UNL     1      -3.468  -5.088  33.242  1.00  0.00    -0.000 C 
BRANCH  13  14
ATOM     14  C   UNL     1      -2.327  -6.013  33.698  1.00  0.00    -0.000 C 
BRANCH  14  15
ATOM     15  C   UNL     1      -2.549  -7.474  33.277  1.00  0.00    -0.003 C 
ATOM     16  C   UNL     1      -4.012  -7.905  33.383  1.00  0.00     0.004 C 
ENDBRANCH  14  15
ENDBRANCH  13  14
ENDBRANCH  12  13
ENDBRANCH  11  12
ENDBRANCH  10  11
ENDBRANCH   1  10
TORSDOF 12
ENDMDL
MODEL 3
REMARK VINA RESULT:    -3.768      0.857      2.119
REMARK INTER + INTRA:          -7.326
REMARK INTER:                  -6.431
REMARK INTRA:                  -0.895
REMARK UNBOUND:                -0.914
REMARK SMILES CCCCCCCCCCCCCC(=O)[O-]
REMARK SMILES IDX 8 1 9 2 10 3 11 4 12 5 13 6 14 7 15 8 16 9 7 10 6 11 5 12
REMARK SMILES IDX 4 13 3 14 2 15 1 16
REMARK H PARENT
REMARK Flexibility Score: inf
ROOT
ATOM      1  C   UNL     1      -2.099  -8.147  37.407  1.00  0.00     0.000 C 
ENDROOT
BRANCH   1   2
ATOM      2  C   UNL     1      -2.474  -7.855  38.869  1.00  0.00     0.000 C 
BRANCH   2   3
ATOM      3  C   UNL     1      -1.305  -8.089  39.838  1.00  0.00     0.000 C 
BRANCH   3   4
ATOM      4  C   UNL     1      -0.595  -9.416  39.530  1.00  0.00     0.000 C 
BRANCH   4   5
ATOM      5  C   UNL     1      -1.376 -10.642  40.039  1.00  0.00     0.006 C 
BRANCH   5   6
ATOM      6  C   UNL     1      -1.813 -10.549  41.509  1.00  0.00     0.053 C 
BRANCH   6   7
ATOM      7  C   UNL     1      -1.660 -11.855  42.224  1.00  0.00     0.041 C 
ATOM      8  O   UNL     1      -2.523 -12.762  42.081  1.00  0.00    -0.550 OA
ATOM      9  O   UNL     1      -0.580 -12.061  43.075  1.00  0.00    -0.550 OA
ENDBRANCH   6   7
ENDBRANCH   5   6
ENDBRANCH   4   5
ENDBRANCH   3   4
ENDBRANCH   2   3
ENDBRANCH   1   2
BRANCH   1  10
ATOM     10  C   UNL     1      -2.581  -7.053  36.442  1.00  0.00     0.000 C 
BRANCH  10  11
ATOM     11  C   UNL     1      -3.516  -6.064  37.155  1.00  0.00    -0.000 C 
BRANCH  11  12
ATOM     12  C   UNL     1      -4.890  -5.935  36.472  1.00  0.00    -0.000 C 
BRANCH  12  13
ATOM     13  C   UNL     1      -5.187  -4.554  35.858  1.00  0.00    -0.000 C 
BRANCH  13  14
ATOM     14  C   UNL     1      -4.185  -4.160  34.759  1.00  0.00    -0.000 C 
BRANCH  14  15
ATOM     15  C   UNL     1      -4.264  -5.085  33.533  1.00  0.00    -0.003 C 
ATOM     16  C   UNL     1      -2.901  -5.641  33.122  1.00  0.00     0.004 C 
ENDBRANCH  14  15
ENDBRANCH  13  14
ENDBRANCH  12  13
ENDBRANCH  11  12
ENDBRANCH  10  11
ENDBRANCH   1  10
TORSDOF 12
ENDMDL
MODEL 4
REMARK VINA RESULT:    -3.767      4.660      7.396
REMARK INTER + INTRA:          -7.323
REMARK INTER:                  -5.666
REMARK INTRA:                  -1.657
REMARK UNBOUND:                -0.914
REMARK SMILES CCCCCCCCCCCCCC(=O)[O-]
REMARK SMILES IDX 8 1 9 2 10 3 11 4 12 5 13 6 14 7 15 8 16 9 7 10 6 11 5 12
REMARK SMILES IDX 4 13 3 14 2 15 1 16
REMARK H PARENT
REMARK Flexibility Score: inf
ROOT
ATOM      1  C   UNL     1      -1.026  -8.989  37.817  1.00  0.00     0.000 C 
ENDROOT
BRANCH   1   2
ATOM      2  C   UNL     1      -1.068  -7.623  37.112  1.00  0.00     0.000 C 
BRANCH   2   3
ATOM      3  C   UNL     1      -2.453  -7.297  36.534  1.00  0.00     0.000 C 
BRANCH   3   4
ATOM      4  C   UNL     1      -3.155  -6.218  37.372  1.00  0.00     0.000 C 
BRANCH   4   5
ATOM      5  C   UNL     1      -4.266  -5.488  36.593  1.00  0.00     0.006 C 
BRANCH   5   6
ATOM      6  C   UNL     1      -4.269  -5.766  35.082  1.00  0.00     0.053 C 
BRANCH   6   7
ATOM      7  C   UNL     1      -4.517  -4.524  34.283  1.00  0.00     0.041 C 
ATOM      8  O   UNL     1      -3.839  -3.484  34.500  1.00  0.00    -0.550 OA
ATOM      9  O   UNL     1      -5.520  -4.503  33.322  1.00  0.00    -0.550 OA
ENDBRANCH   6   7
ENDBRANCH   5   6
ENDBRANCH   4   5
ENDBRANCH   3   4
ENDBRANCH   2   3
ENDBRANCH   1   2
BRANCH   1  10
ATOM     10  C   UNL     1      -0.436  -8.907  39.233  1.00  0.00     0.000 C 
BRANCH  10  11
ATOM     11  C   UNL     1      -1.476  -8.379  40.232  1.00  0.00    -0.000 C 
BRANCH  11  12
ATOM     12  C   UNL     1      -2.199  -9.501  41.000  1.00  0.00    -0.000 C 
BRANCH  12  13
ATOM     13  C   UNL     1      -3.736  -9.400  41.010  1.00  0.00    -0.000 C 
BRANCH  13  14
ATOM     14  C   UNL     1      -4.299  -8.718  39.752  1.00  0.00    -0.000 C 
BRANCH  14  15
ATOM     15  C   UNL     1      -4.615  -9.722  38.631  1.00  0.00    -0.003 C 
ATOM     16  C   UNL     1      -5.553  -9.147  37.569  1.00  0.00     0.004 C 
ENDBRANCH  14  15
ENDBRANCH  13  14
ENDBRANCH  12  13
ENDBRANCH  11  12
ENDBRANCH  10  11
ENDBRANCH   1  10
TORSDOF 12
ENDMDL
MODEL 5
REMARK VINA RESULT:    -3.730      5.263      7.752
REMARK INTER + INTRA:          -7.261
REMARK INTER:                  -6.022
REMARK INTRA:                  -1.239
REMARK UNBOUND:                -0.914
REMARK SMILES CCCCCCCCCCCCCC(=O)[O-]
REMARK SMILES IDX 8 1 9 2 10 3 11 4 12 5 13 6 14 7 15 8 16 9 7 10 6 11 5 12
REMARK SMILES IDX 4 13 3 14 2 15 1 16
REMARK H PARENT
REMARK Flexibility Score: inf
ROOT
ATOM      1  C   UNL     1      -1.436 -12.851  42.610  1.00  0.00     0.000 C 
ENDROOT
BRANCH   1   2
ATOM      2  C   UNL     1      -2.720 -13.361  41.936  1.00  0.00     0.000 C 
BRANCH   2   3
ATOM      3  C   UNL     1      -3.069 -14.801  42.340  1.00  0.00     0.000 C 
BRANCH   3   4
ATOM      4  C   UNL     1      -2.167 -15.282  43.487  1.00  0.00     0.000 C 
BRANCH   4   5
ATOM      5  C   UNL     1      -2.000 -16.813  43.512  1.00  0.00     0.006 C 
BRANCH   5   6
ATOM      6  C   UNL     1      -3.323 -17.595  43.500  1.00  0.00     0.053 C 
BRANCH   6   7
ATOM      7  C   UNL     1      -3.389 -18.568  42.363  1.00  0.00     0.041 C 
ATOM      8  O   UNL     1      -2.816 -19.687  42.452  1.00  0.00    -0.550 OA
ATOM      9  O   UNL     1      -4.055 -18.228  41.192  1.00  0.00    -0.550 OA
ENDBRANCH   6   7
ENDBRANCH   5   6
ENDBRANCH   4   5
ENDBRANCH   3   4
ENDBRANCH   2   3
ENDBRANCH   1   2
BRANCH   1  10
ATOM     10  C   UNL     1      -1.315 -11.320  42.573  1.00  0.00     0.000 C 
BRANCH  10  11
ATOM     11  C   UNL     1      -1.503 -10.788  41.144  1.00  0.00    -0.000 C 
BRANCH  11  12
ATOM     12  C   UNL     1      -2.085  -9.363  41.103  1.00  0.00    -0.000 C 
BRANCH  12  13
ATOM     13  C   UNL     1      -3.369  -9.206  40.267  1.00  0.00    -0.000 C 
BRANCH  13  14
ATOM     14  C   UNL     1      -4.543 -10.039  40.811  1.00  0.00    -0.000 C 
BRANCH  14  15
ATOM     15  C   UNL     1      -4.925  -9.648  42.248  1.00  0.00    -0.003 C 
ATOM     16  C   UNL     1      -5.009 -10.851  43.187  1.00  0.00     0.004 C 
ENDBRANCH  14  15
ENDBRANCH  13  14
ENDBRANCH  12  13
ENDBRANCH  11  12
ENDBRANCH  10  11
ENDBRANCH   1  10
TORSDOF 12
ENDMDL
MODEL 6
REMARK VINA RESULT:    -3.656      4.117      7.002
REMARK INTER + INTRA:          -7.135
REMARK INTER:                  -5.217
REMARK INTRA:                  -1.918
REMARK UNBOUND:                -0.914
REMARK SMILES CCCCCCCCCCCCCC(=O)[O-]
REMARK SMILES IDX 8 1 9 2 10 3 11 4 12 5 13 6 14 7 15 8 16 9 7 10 6 11 5 12
REMARK SMILES IDX 4 13 3 14 2 15 1 16
REMARK H PARENT
REMARK Flexibility Score: inf
ROOT
ATOM      1  C   UNL     1      -3.409 -12.631  41.417  1.00  0.00     0.000 C 
ENDROOT
BRANCH   1   2
ATOM      2  C   UNL     1      -2.125 -12.770  42.251  1.00  0.00     0.000 C 
BRANCH   2   3
ATOM      3  C   UNL     1      -1.277 -11.488  42.252  1.00  0.00     0.000 C 
BRANCH   3   4
ATOM      4  C   UNL     1      -1.381 -10.763  40.902  1.00  0.00     0.000 C 
BRANCH   4   5
ATOM      5  C   UNL     1      -1.829  -9.296  41.046  1.00  0.00     0.006 C 
BRANCH   5   6
ATOM      6  C   UNL     1      -1.136  -8.324  40.078  1.00  0.00     0.053 C 
BRANCH   6   7
ATOM      7  C   UNL     1      -1.805  -8.294  38.739  1.00  0.00     0.041 C 
ATOM      8  O   UNL     1      -1.436  -9.082  37.827  1.00  0.00    -0.550 OA
ATOM      9  O   UNL     1      -2.815  -7.374  38.485  1.00  0.00    -0.550 OA
ENDBRANCH   6   7
ENDBRANCH   5   6
ENDBRANCH   4   5
ENDBRANCH   3   4
ENDBRANCH   2   3
ENDBRANCH   1   2
BRANCH   1  10
ATOM     10  C   UNL     1      -4.638 -13.232  42.116  1.00  0.00     0.000 C 
BRANCH  10  11
ATOM     11  C   UNL     1      -5.693 -12.151  42.398  1.00  0.00    -0.000 C 
BRANCH  11  12
ATOM     12  C   UNL     1      -5.187 -11.047  43.345  1.00  0.00    -0.000 C 
BRANCH  12  13
ATOM     13  C   UNL     1      -5.127  -9.636  42.730  1.00  0.00    -0.000 C 
BRANCH  13  14
ATOM     14  C   UNL     1      -6.082  -9.461  41.537  1.00  0.00    -0.000 C 
BRANCH  14  15
ATOM     15  C   UNL     1      -5.360  -8.963  40.274  1.00  0.00    -0.003 C 
ATOM     16  C   UNL     1      -5.062 -10.086  39.280  1.00  0.00     0.004 C 
ENDBRANCH  14  15
ENDBRANCH  13  14
ENDBRANCH  12  13
ENDBRANCH  11  12
ENDBRANCH  10  11
ENDBRANCH   1  10
TORSDOF 12
ENDMDL
MODEL 7
REMARK VINA RESULT:    -3.655      1.332      2.370
REMARK INTER + INTRA:          -7.132
REMARK INTER:                  -5.676
REMARK INTRA:                  -1.456
REMARK UNBOUND:                -0.914
REMARK SMILES CCCCCCCCCCCCCC(=O)[O-]
REMARK SMILES IDX 8 1 9 2 10 3 11 4 12 5 13 6 14 7 15 8 16 9 7 10 6 11 5 12
REMARK SMILES IDX 4 13 3 14 2 15 1 16
REMARK H PARENT
REMARK Flexibility Score: inf
ROOT
ATOM      1  C   UNL     1      -2.764  -8.289  35.591  1.00  0.00     0.000 C 
ENDROOT
BRANCH   1   2
ATOM      2  C   UNL     1      -1.959  -7.297  36.447  1.00  0.00     0.000 C 
BRANCH   2   3
ATOM      3  C   UNL     1      -2.652  -6.965  37.777  1.00  0.00     0.000 C 
BRANCH   3   4
ATOM      4  C   UNL     1      -2.836  -8.229  38.629  1.00  0.00     0.000 C 
BRANCH   4   5
ATOM      5  C   UNL     1      -1.846  -8.304  39.806  1.00  0.00     0.006 C 
BRANCH   5   6
ATOM      6  C   UNL     1      -2.158  -9.410  40.827  1.00  0.00     0.053 C 
BRANCH   6   7
ATOM      7  C   UNL     1      -1.241 -10.585  40.679  1.00  0.00     0.041 C 
ATOM      8  O   UNL     1      -1.187 -11.464  41.579  1.00  0.00    -0.550 OA
ATOM      9  O   UNL     1      -0.421 -10.692  39.562  1.00  0.00    -0.550 OA
ENDBRANCH   6   7
ENDBRANCH   5   6
ENDBRANCH   4   5
ENDBRANCH   3   4
ENDBRANCH   2   3
ENDBRANCH   1   2
BRANCH   1  10
ATOM     10  C   UNL     1      -2.867  -7.855  34.120  1.00  0.00     0.000 C 
BRANCH  10  11
ATOM     11  C   UNL     1      -2.307  -6.438  33.925  1.00  0.00    -0.000 C 
BRANCH  11  12
ATOM     12  C   UNL     1      -3.292  -5.494  33.210  1.00  0.00    -0.000 C 
BRANCH  12  13
ATOM     13  C   UNL     1      -3.697  -4.243  34.012  1.00  0.00    -0.000 C 
BRANCH  13  14
ATOM     14  C   UNL     1      -4.328  -4.583  35.373  1.00  0.00    -0.000 C 
BRANCH  14  15
ATOM     15  C   UNL     1      -5.797  -5.020  35.247  1.00  0.00    -0.003 C 
ATOM     16  C   UNL     1      -6.028  -6.461  35.701  1.00  0.00     0.004 C 
ENDBRANCH  14  15
ENDBRANCH  13  14
ENDBRANCH  12  13
ENDBRANCH  11  12
ENDBRANCH  10  11
ENDBRANCH   1  10
TORSDOF 12
ENDMDL
MODEL 8
REMARK VINA RESULT:    -3.631      3.988      7.590
REMARK INTER + INTRA:          -7.092
REMARK INTER:                  -5.564
REMARK INTRA:                  -1.528
REMARK UNBOUND:                -0.914
REMARK SMILES CCCCCCCCCCCCCC(=O)[O-]
REMARK SMILES IDX 8 1 9 2 10 3 11 4 12 5 13 6 14 7 15 8 16 9 7 10 6 11 5 12
REMARK SMILES IDX 4 13 3 14 2 15 1 16
REMARK H PARENT
REMARK Flexibility Score: inf
ROOT
ATOM      1  C   UNL     1      -0.739  -8.359  39.470  1.00  0.00     0.000 C 
ENDROOT
BRANCH   1   2
ATOM      2  C   UNL     1      -0.763  -9.479  38.417  1.00  0.00     0.000 C 
BRANCH   2   3
ATOM      3  C   UNL     1      -0.613  -8.949  36.983  1.00  0.00     0.000 C 
BRANCH   3   4
ATOM      4  C   UNL     1      -1.040  -7.476  36.897  1.00  0.00     0.000 C 
BRANCH   4   5
ATOM      5  C   UNL     1      -2.472  -7.301  36.359  1.00  0.00     0.006 C 
BRANCH   5   6
ATOM      6  C   UNL     1      -3.325  -6.291  37.144  1.00  0.00     0.053 C 
BRANCH   6   7
ATOM      7  C   UNL     1      -4.120  -5.403  36.238  1.00  0.00     0.041 C 
ATOM      8  O   UNL     1      -3.675  -5.097  35.099  1.00  0.00    -0.550 OA
ATOM      9  O   UNL     1      -5.337  -4.886  36.662  1.00  0.00    -0.550 OA
ENDBRANCH   6   7
ENDBRANCH   5   6
ENDBRANCH   4   5
ENDBRANCH   3   4
ENDBRANCH   2   3
ENDBRANCH   1   2
BRANCH   1  10
ATOM     10  C   UNL     1      -1.959  -8.395  40.403  1.00  0.00     0.000 C 
BRANCH  10  11
ATOM     11  C   UNL     1      -3.230  -8.779  39.631  1.00  0.00    -0.000 C 
BRANCH  11  12
ATOM     12  C   UNL     1      -4.223  -9.600  40.474  1.00  0.00    -0.000 C 
BRANCH  12  13
ATOM     13  C   UNL     1      -3.728  -9.979  41.883  1.00  0.00    -0.000 C 
BRANCH  13  14
ATOM     14  C   UNL     1      -3.474 -11.488  42.042  1.00  0.00    -0.000 C 
BRANCH  14  15
ATOM     15  C   UNL     1      -2.128 -11.924  41.442  1.00  0.00    -0.003 C 
ATOM     16  C   UNL     1      -0.932 -11.480  42.285  1.00  0.00     0.004 C 
ENDBRANCH  14  15
ENDBRANCH  13  14
ENDBRANCH  12  13
ENDBRANCH  11  12
ENDBRANCH  10  11
ENDBRANCH   1  10
TORSDOF 12
ENDMDL
MODEL 9
REMARK VINA RESULT:    -3.596      2.275      3.744
REMARK INTER + INTRA:          -7.033
REMARK INTER:                  -4.776
REMARK INTRA:                  -2.257
REMARK UNBOUND:                -0.914
REMARK SMILES CCCCCCCCCCCCCC(=O)[O-]
REMARK SMILES IDX 8 1 9 2 10 3 11 4 12 5 13 6 14 7 15 8 16 9 7 10 6 11 5 12
REMARK SMILES IDX 4 13 3 14 2 15 1 16
REMARK H PARENT
REMARK Flexibility Score: inf
ROOT
ATOM      1  C   UNL     1      -0.620  -8.382  37.663  1.00  0.00     0.000 C 
ENDROOT
BRANCH   1   2
ATOM      2  C   UNL     1      -0.474  -9.912  37.656  1.00  0.00     0.000 C 
BRANCH   2   3
ATOM      3  C   UNL     1      -0.486 -10.516  39.068  1.00  0.00     0.000 C 
BRANCH   3   4
ATOM      4  C   UNL     1      -0.952  -9.480  40.102  1.00  0.00     0.000 C 
BRANCH   4   5
ATOM      5  C   UNL     1      -2.020 -10.036  41.063  1.00  0.00     0.006 C 
BRANCH   5   6
ATOM      6  C   UNL     1      -2.141 -11.568  41.058  1.00  0.00     0.053 C 
BRANCH   6   7
ATOM      7  C   UNL     1      -1.535 -12.183  42.281  1.00  0.00     0.041 C 
ATOM      8  O   UNL     1      -0.736 -11.520  42.995  1.00  0.00    -0.550 OA
ATOM      9  O   UNL     1      -1.826 -13.500  42.616  1.00  0.00    -0.550 OA
ENDBRANCH   6   7
ENDBRANCH   5   6
ENDBRANCH   4   5
ENDBRANCH   3   4
ENDBRANCH   2   3
ENDBRANCH   1   2
BRANCH   1  10
ATOM     10  C   UNL     1      -1.302  -7.845  36.395  1.00  0.00     0.000 C 
BRANCH  10  11
ATOM     11  C   UNL     1      -2.760  -7.454  36.678  1.00  0.00    -0.000 C 
BRANCH  11  12
ATOM     12  C   UNL     1      -3.048  -7.244  38.176  1.00  0.00    -0.000 C 
BRANCH  12  13
ATOM     13  C   UNL     1      -4.209  -8.083  38.743  1.00  0.00    -0.000 C 
BRANCH  13  14
ATOM     14  C   UNL     1      -4.701  -9.162  37.763  1.00  0.00    -0.000 C 
BRANCH  14  15
ATOM     15  C   UNL     1      -4.172 -10.562  38.115  1.00  0.00    -0.003 C 
ATOM     16  C   UNL     1      -3.740 -11.360  36.884  1.00  0.00     0.004 C 
ENDBRANCH  14  15
ENDBRANCH  13  14
ENDBRANCH  12  13
ENDBRANCH  11  12
ENDBRANCH  10  11
ENDBRANCH   1  10
TORSDOF 12
ENDMDL
