MODEL 1
REMARK VINA RESULT:    -2.674      0.000      0.000
REMARK INTER + INTRA:          -2.674
REMARK INTER:                  -2.674
REMARK INTRA:                   0.000
REMARK UNBOUND:                 0.000
REMARK SMILES CC(=O)[O-]
REMARK SMILES IDX 1 1 2 2 3 3 4 4
REMARK H PARENT
REMARK Flexibility Score: inf
ROOT
ATOM      1  C   UNL     1      75.622  83.477  75.802  1.00  0.00     0.063 C 
ATOM      2  C   UNL     1      76.669  84.135  74.969  1.00  0.00     0.038 C 
ATOM      3  O   UNL     1      76.683  85.388  74.845  1.00  0.00    -0.550 OA
ATOM      4  O   UNL     1      77.665  83.373  74.371  1.00  0.00    -0.550 OA
ENDROOT
TORSDOF 0
ENDMDL
MODEL 2
REMARK VINA RESULT:    -2.652      0.154      1.626
REMARK INTER + INTRA:          -2.652
REMARK INTER:                  -2.652
REMARK INTRA:                   0.000
REMARK UNBOUND:                 0.000
REMARK SMILES CC(=O)[O-]
REMARK SMILES IDX 1 1 2 2 3 3 4 4
REMARK H PARENT
REMARK Flexibility Score: inf
ROOT
ATOM      1  C   UNL     1      75.642  83.296  75.838  1.00  0.00     0.063 C 
ATOM      2  C   UNL     1      76.655  83.978  74.983  1.00  0.00     0.038 C 
ATOM      3  O   UNL     1      77.503  83.300  74.347  1.00  0.00    -0.550 OA
ATOM      4  O   UNL     1      76.633  85.359  74.844  1.00  0.00    -0.550 OA
ENDROOT
TORSDOF 0
ENDMDL
MODEL 3
REMARK VINA RESULT:    -2.496     12.268     12.829
REMARK INTER + INTRA:          -2.496
REMARK INTER:                  -2.496
REMARK INTRA:                   0.000
REMARK UNBOUND:                 0.000
REMARK SMILES CC(=O)[O-]
REMARK SMILES IDX 1 1 2 2 3 3 4 4
REMARK H PARENT
REMARK Flexibility Score: inf
ROOT
ATOM      1  C   UNL     1      72.921  95.289  71.151  1.00  0.00     0.063 C 
ATOM      2  C   UNL     1      71.893  95.438  72.220  1.00  0.00     0.038 C 
ATOM      3  O   UNL     1      71.308  94.423  72.680  1.00  0.00    -0.550 OA
ATOM      4  O   UNL     1      71.616  96.692  72.749  1.00  0.00    -0.550 OA
ENDROOT
TORSDOF 0
ENDMDL
MODEL 4
REMARK VINA RESULT:    -2.335      9.829     10.416
REMARK INTER + INTRA:          -2.335
REMARK INTER:                  -2.335
REMARK INTRA:                   0.000
REMARK UNBOUND:                 0.000
REMARK SMILES CC(=O)[O-]
REMARK SMILES IDX 1 1 2 2 3 3 4 4
REMARK H PARENT
REMARK Flexibility Score: inf
ROOT
ATOM      1  C   UNL     1      76.603  94.159  77.539  1.00  0.00     0.063 C 
ATOM      2  C   UNL     1      77.079  93.538  78.809  1.00  0.00     0.038 C 
ATOM      3  O   UNL     1      76.742  92.360  79.100  1.00  0.00    -0.550 OA
ATOM      4  O   UNL     1      77.938  94.236  79.646  1.00  0.00    -0.550 OA
ENDROOT
TORSDOF 0
ENDMDL
MODEL 5
REMARK VINA RESULT:    -1.936     13.523     13.783
REMARK INTER + INTRA:          -1.936
REMARK INTER:                  -1.936
REMARK INTRA:                   0.000
REMARK UNBOUND:                 0.000
REMARK SMILES CC(=O)[O-]
REMARK SMILES IDX 1 1 2 2 3 3 4 4
REMARK H PARENT
REMARK Flexibility Score: inf
ROOT
ATOM      1  C   UNL     1      73.095  96.665  70.581  1.00  0.00     0.063 C 
ATOM      2  C   UNL     1      71.733  96.109  70.828  1.00  0.00     0.038 C 
ATOM      3  O   UNL     1      70.984  95.821  69.859  1.00  0.00    -0.550 OA
ATOM      4  O   UNL     1      71.309  95.857  72.126  1.00  0.00    -0.550 OA
ENDROOT
TORSDOF 0
ENDMDL
MODEL 6
REMARK VINA RESULT:    -1.917      9.625      9.729
REMARK INTER + INTRA:          -1.917
REMARK INTER:                  -1.917
REMARK INTRA:                   0.000
REMARK UNBOUND:                 0.000
REMARK SMILES CC(=O)[O-]
REMARK SMILES IDX 1 1 2 2 3 3 4 4
REMARK H PARENT
REMARK Flexibility Score: inf
ROOT
ATOM      1  C   UNL     1      71.875  85.060  66.697  1.00  0.00     0.063 C 
ATOM      2  C   UNL     1      71.044  85.994  67.510  1.00  0.00     0.038 C 
ATOM      3  O   UNL     1      71.372  87.205  67.613  1.00  0.00    -0.550 OA
ATOM      4  O   UNL     1      69.875  85.544  68.109  1.00  0.00    -0.550 OA
ENDROOT
TORSDOF 0
ENDMDL
MODEL 7
REMARK VINA RESULT:    -1.916     10.530     11.065
REMARK INTER + INTRA:          -1.916
REMARK INTER:                  -1.916
REMARK INTRA:                   0.000
REMARK UNBOUND:                 0.000
REMARK SMILES CC(=O)[O-]
REMARK SMILES IDX 1 1 2 2 3 3 4 4
REMARK H PARENT
REMARK Flexibility Score: inf
ROOT
ATOM      1  C   UNL     1      78.740  94.849  79.185  1.00  0.00     0.063 C 
ATOM      2  C   UNL     1      77.398  94.317  78.815  1.00  0.00     0.038 C 
ATOM      3  O   UNL     1      76.618  95.006  78.106  1.00  0.00    -0.550 OA
ATOM      4  O   UNL     1      77.025  93.037  79.204  1.00  0.00    -0.550 OA
ENDROOT
TORSDOF 0
ENDMDL
MODEL 8
REMARK VINA RESULT:    -1.885      2.267      2.720
REMARK INTER + INTRA:          -1.885
REMARK INTER:                  -1.885
REMARK INTRA:                   0.000
REMARK UNBOUND:                 0.000
REMARK SMILES CC(=O)[O-]
REMARK SMILES IDX 1 1 2 2 3 3 4 4
REMARK H PARENT
REMARK Flexibility Score: inf
ROOT
ATOM      1  C   UNL     1      78.653  82.331  73.307  1.00  0.00     0.063 C 
ATOM      2  C   UNL     1      78.614  83.130  74.566  1.00  0.00     0.038 C 
ATOM      3  O   UNL     1      77.940  84.191  74.620  1.00  0.00    -0.550 OA
ATOM      4  O   UNL     1      79.278  82.677  75.698  1.00  0.00    -0.550 OA
ENDROOT
TORSDOF 0
ENDMDL
MODEL 9
REMARK VINA RESULT:    -1.828      3.862      4.117
REMARK INTER + INTRA:          -1.828
REMARK INTER:                  -1.828
REMARK INTRA:                   0.000
REMARK UNBOUND:                 0.000
REMARK SMILES CC(=O)[O-]
REMARK SMILES IDX 1 1 2 2 3 3 4 4
REMARK H PARENT
REMARK Flexibility Score: inf
ROOT
ATOM      1  C   UNL     1      77.711  81.617  78.456  1.00  0.00     0.063 C 
ATOM      2  C   UNL     1      76.345  82.105  78.111  1.00  0.00     0.038 C 
ATOM      3  O   UNL     1      75.424  82.062  78.968  1.00  0.00    -0.550 OA
ATOM      4  O   UNL     1      76.097  82.658  76.862  1.00  0.00    -0.550 OA
ENDROOT
TORSDOF 0
ENDMDL
