MODEL 1
REMARK VINA RESULT:    -4.303      0.000      0.000
REMARK INTER + INTRA:          -5.194
REMARK INTER:                  -5.058
REMARK INTRA:                  -0.136
REMARK UNBOUND:                -0.136
REMARK SMILES O=C([O-])C=Cc1ccc(O)c(O)c1
REMARK SMILES IDX 6 1 13 2 7 3 11 4 8 5 9 6 5 7 4 8 2 9 1 10 3 11 12 12 10 14
REMARK H PARENT 12 13 10 15
REMARK Flexibility Score: inf
ROOT
ATOM      1  C   UNL     1      42.971  19.898  -3.509  1.00  0.00    -0.022 A 
ATOM      2  C   UNL     1      42.890  18.661  -2.851  1.00  0.00     0.058 A 
ATOM      3  C   UNL     1      42.219  20.980  -3.014  1.00  0.00     0.012 A 
ATOM      4  C   UNL     1      42.101  18.499  -1.705  1.00  0.00     0.157 A 
ATOM      5  C   UNL     1      41.429  20.827  -1.874  1.00  0.00     0.051 A 
ATOM      6  C   UNL     1      41.362  19.599  -1.208  1.00  0.00     0.157 A 
ENDROOT
BRANCH   1   7
ATOM      7  C   UNL     1      43.817  20.004  -4.724  1.00  0.00     0.010 C 
ATOM      8  C   UNL     1      44.335  18.948  -5.366  1.00  0.00     0.025 C 
BRANCH   8   9
ATOM      9  C   UNL     1      45.159  19.101  -6.576  1.00  0.00     0.064 C 
ATOM     10  O   UNL     1      45.252  20.230  -7.125  1.00  0.00    -0.545 OA
ATOM     11  O   UNL     1      45.835  18.018  -7.125  1.00  0.00    -0.545 OA
ENDBRANCH   8   9
ENDBRANCH   1   7
BRANCH   4  12
ATOM     12  O   UNL     1      42.079  17.241  -1.100  1.00  0.00    -0.504 OA
ATOM     13  H   UNL     1      41.283  16.867  -0.606  1.00  0.00     0.293 HD
ENDBRANCH   4  12
BRANCH   6  14
ATOM     14  O   UNL     1      40.555  19.515  -0.071  1.00  0.00    -0.504 OA
ATOM     15  H   UNL     1      40.829  19.853   0.841  1.00  0.00     0.293 HD
ENDBRANCH   6  14
TORSDOF 4
ENDMDL
MODEL 2
REMARK VINA RESULT:    -4.161      1.383      1.719
REMARK INTER + INTRA:          -5.027
REMARK INTER:                  -4.896
REMARK INTRA:                  -0.131
REMARK UNBOUND:                -0.136
REMARK SMILES O=C([O-])C=Cc1ccc(O)c(O)c1
REMARK SMILES IDX 6 1 13 2 7 3 11 4 8 5 9 6 5 7 4 8 2 9 1 10 3 11 12 12 10 14
REMARK H PARENT 12 13 10 15
REMARK Flexibility Score: inf
ROOT
ATOM      1  C   UNL     1      43.254  19.296  -3.885  1.00  0.00    -0.022 A 
ATOM      2  C   UNL     1      42.893  18.508  -2.781  1.00  0.00     0.058 A 
ATOM      3  C   UNL     1      42.883  20.653  -3.899  1.00  0.00     0.012 A 
ATOM      4  C   UNL     1      42.200  19.055  -1.694  1.00  0.00     0.157 A 
ATOM      5  C   UNL     1      42.192  21.207  -2.819  1.00  0.00     0.051 A 
ATOM      6  C   UNL     1      41.847  20.425  -1.712  1.00  0.00     0.157 A 
ENDROOT
BRANCH   1   7
ATOM      7  C   UNL     1      43.979  18.655  -5.010  1.00  0.00     0.010 C 
ATOM      8  C   UNL     1      44.721  17.547  -4.885  1.00  0.00     0.025 C 
BRANCH   8   9
ATOM      9  C   UNL     1      45.413  16.940  -6.033  1.00  0.00     0.064 C 
ATOM     10  O   UNL     1      44.860  16.002  -6.666  1.00  0.00    -0.545 OA
ATOM     11  O   UNL     1      46.669  17.383  -6.431  1.00  0.00    -0.545 OA
ENDBRANCH   8   9
ENDBRANCH   1   7
BRANCH   4  12
ATOM     12  O   UNL     1      41.885  18.210  -0.629  1.00  0.00    -0.504 OA
ATOM     13  H   UNL     1      41.055  18.302  -0.062  1.00  0.00     0.293 HD
ENDBRANCH   4  12
BRANCH   6  14
ATOM     14  O   UNL     1      41.159  21.042  -0.666  1.00  0.00    -0.504 OA
ATOM     15  H   UNL     1      40.706  20.540   0.085  1.00  0.00     0.293 HD
ENDBRANCH   6  14
TORSDOF 4
ENDMDL
MODEL 3
REMARK VINA RESULT:    -4.120      7.424      9.666
REMARK INTER + INTRA:          -4.978
REMARK INTER:                  -4.847
REMARK INTRA:                  -0.132
REMARK UNBOUND:                -0.136
REMARK SMILES O=C([O-])C=Cc1ccc(O)c(O)c1
REMARK SMILES IDX 6 1 13 2 7 3 11 4 8 5 9 6 5 7 4 8 2 9 1 10 3 11 12 12 10 14
REMARK H PARENT 12 13 10 15
REMARK Flexibility Score: inf
ROOT
ATOM      1  C   UNL     1      49.359  13.809  -4.267  1.00  0.00    -0.022 A 
ATOM      2  C   UNL     1      48.714  15.039  -4.467  1.00  0.00     0.058 A 
ATOM      3  C   UNL     1      50.621  13.603  -4.856  1.00  0.00     0.012 A 
ATOM      4  C   UNL     1      49.314  16.061  -5.214  1.00  0.00     0.157 A 
ATOM      5  C   UNL     1      51.226  14.616  -5.602  1.00  0.00     0.051 A 
ATOM      6  C   UNL     1      50.590  15.847  -5.786  1.00  0.00     0.157 A 
ENDROOT
BRANCH   1   7
ATOM      7  C   UNL     1      48.668  12.762  -3.475  1.00  0.00     0.010 C 
ATOM      8  C   UNL     1      47.621  13.003  -2.674  1.00  0.00     0.025 C 
BRANCH   8   9
ATOM      9  C   UNL     1      46.958  11.930  -1.917  1.00  0.00     0.064 C 
ATOM     10  O   UNL     1      45.897  11.420  -2.361  1.00  0.00    -0.545 OA
ATOM     11  O   UNL     1      47.483  11.470  -0.715  1.00  0.00    -0.545 OA
ENDBRANCH   8   9
ENDBRANCH   1   7
BRANCH   4  12
ATOM     12  O   UNL     1      48.613  17.260  -5.360  1.00  0.00    -0.504 OA
ATOM     13  H   UNL     1      47.666  17.402  -5.040  1.00  0.00     0.293 HD
ENDBRANCH   4  12
BRANCH   6  14
ATOM     14  O   UNL     1      51.252  16.818  -6.540  1.00  0.00    -0.504 OA
ATOM     15  H   UNL     1      52.107  16.650  -7.052  1.00  0.00     0.293 HD
ENDBRANCH   6  14
TORSDOF 4
ENDMDL
MODEL 4
REMARK VINA RESULT:    -4.033      7.653      9.918
REMARK INTER + INTRA:          -4.876
REMARK INTER:                  -4.737
REMARK INTRA:                  -0.139
REMARK UNBOUND:                -0.136
REMARK SMILES O=C([O-])C=Cc1ccc(O)c(O)c1
REMARK SMILES IDX 6 1 13 2 7 3 11 4 8 5 9 6 5 7 4 8 2 9 1 10 3 11 12 12 10 14
REMARK H PARENT 12 13 10 15
REMARK Flexibility Score: inf
ROOT
ATOM      1  C   UNL     1      49.415  14.044  -4.468  1.00  0.00    -0.022 A 
ATOM      2  C   UNL     1      50.719  13.745  -4.891  1.00  0.00     0.058 A 
ATOM      3  C   UNL     1      48.869  15.300  -4.791  1.00  0.00     0.012 A 
ATOM      4  C   UNL     1      51.465  14.660  -5.645  1.00  0.00     0.157 A 
ATOM      5  C   UNL     1      49.605  16.218  -5.541  1.00  0.00     0.051 A 
ATOM      6  C   UNL     1      50.899  15.914  -5.977  1.00  0.00     0.157 A 
ENDROOT
BRANCH   1   7
ATOM      7  C   UNL     1      48.679  13.037  -3.663  1.00  0.00     0.010 C 
ATOM      8  C   UNL     1      47.714  13.344  -2.786  1.00  0.00     0.025 C 
BRANCH   8   9
ATOM      9  C   UNL     1      47.003  12.310  -2.019  1.00  0.00     0.064 C 
ATOM     10  O   UNL     1      47.458  11.939  -0.905  1.00  0.00    -0.545 OA
ATOM     11  O   UNL     1      45.835  11.732  -2.504  1.00  0.00    -0.545 OA
ENDBRANCH   8   9
ENDBRANCH   1   7
BRANCH   4  12
ATOM     12  O   UNL     1      52.751  14.287  -6.037  1.00  0.00    -0.504 OA
ATOM     13  H   UNL     1      53.052  13.329  -6.149  1.00  0.00     0.293 HD
ENDBRANCH   4  12
BRANCH   6  14
ATOM     14  O   UNL     1      51.579  16.875  -6.727  1.00  0.00    -0.504 OA
ATOM     15  H   UNL     1      51.857  16.747  -7.690  1.00  0.00     0.293 HD
ENDBRANCH   6  14
TORSDOF 4
ENDMDL
MODEL 5
REMARK VINA RESULT:    -4.004      5.395      8.645
REMARK INTER + INTRA:          -4.842
REMARK INTER:                  -4.707
REMARK INTRA:                  -0.135
REMARK UNBOUND:                -0.136
REMARK SMILES O=C([O-])C=Cc1ccc(O)c(O)c1
REMARK SMILES IDX 6 1 13 2 7 3 11 4 8 5 9 6 5 7 4 8 2 9 1 10 3 11 12 12 10 14
REMARK H PARENT 12 13 10 15
REMARK Flexibility Score: inf
ROOT
ATOM      1  C   UNL     1      48.872  16.564  -5.697  1.00  0.00    -0.022 A 
ATOM      2  C   UNL     1      49.552  15.572  -4.975  1.00  0.00     0.058 A 
ATOM      3  C   UNL     1      49.568  17.275  -6.693  1.00  0.00     0.012 A 
ATOM      4  C   UNL     1      50.892  15.265  -5.247  1.00  0.00     0.157 A 
ATOM      5  C   UNL     1      50.903  16.976  -6.971  1.00  0.00     0.051 A 
ATOM      6  C   UNL     1      51.576  15.975  -6.262  1.00  0.00     0.157 A 
ENDROOT
BRANCH   1   7
ATOM      7  C   UNL     1      47.457  16.850  -5.355  1.00  0.00     0.010 C 
ATOM      8  C   UNL     1      46.756  16.162  -4.444  1.00  0.00     0.025 C 
BRANCH   8   9
ATOM      9  C   UNL     1      45.357  16.490  -4.128  1.00  0.00     0.064 C 
ATOM     10  O   UNL     1      44.607  16.947  -5.030  1.00  0.00    -0.545 OA
ATOM     11  O   UNL     1      44.848  16.305  -2.848  1.00  0.00    -0.545 OA
ENDBRANCH   8   9
ENDBRANCH   1   7
BRANCH   4  12
ATOM     12  O   UNL     1      51.497  14.259  -4.492  1.00  0.00    -0.504 OA
ATOM     13  H   UNL     1      51.107  13.337  -4.366  1.00  0.00     0.293 HD
ENDBRANCH   4  12
BRANCH   6  14
ATOM     14  O   UNL     1      52.909  15.724  -6.592  1.00  0.00    -0.504 OA
ATOM     15  H   UNL     1      53.696  16.123  -6.101  1.00  0.00     0.293 HD
ENDBRANCH   6  14
TORSDOF 4
ENDMDL
MODEL 6
REMARK VINA RESULT:    -3.904      2.438      3.117
REMARK INTER + INTRA:          -4.724
REMARK INTER:                  -4.586
REMARK INTRA:                  -0.138
REMARK UNBOUND:                -0.136
REMARK SMILES O=C([O-])C=Cc1ccc(O)c(O)c1
REMARK SMILES IDX 6 1 13 2 7 3 11 4 8 5 9 6 5 7 4 8 2 9 1 10 3 11 12 12 10 14
REMARK H PARENT 12 13 10 15
REMARK Flexibility Score: inf
ROOT
ATOM      1  C   UNL     1      44.055  16.991  -3.306  1.00  0.00    -0.022 A 
ATOM      2  C   UNL     1      43.214  16.109  -2.611  1.00  0.00     0.058 A 
ATOM      3  C   UNL     1      43.618  18.310  -3.529  1.00  0.00     0.012 A 
ATOM      4  C   UNL     1      41.971  16.527  -2.119  1.00  0.00     0.157 A 
ATOM      5  C   UNL     1      42.380  18.735  -3.043  1.00  0.00     0.051 A 
ATOM      6  C   UNL     1      41.549  17.861  -2.336  1.00  0.00     0.157 A 
ENDROOT
BRANCH   1   7
ATOM      7  C   UNL     1      45.356  16.486  -3.811  1.00  0.00     0.010 C 
ATOM      8  C   UNL     1      45.907  16.872  -4.969  1.00  0.00     0.025 C 
BRANCH   8   9
ATOM      9  C   UNL     1      47.207  16.353  -5.423  1.00  0.00     0.064 C 
ATOM     10  O   UNL     1      47.358  15.113  -5.585  1.00  0.00    -0.545 OA
ATOM     11  O   UNL     1      48.273  17.208  -5.676  1.00  0.00    -0.545 OA
ENDBRANCH   8   9
ENDBRANCH   1   7
BRANCH   4  12
ATOM     12  O   UNL     1      41.195  15.594  -1.430  1.00  0.00    -0.504 OA
ATOM     13  H   UNL     1      41.443  14.621  -1.324  1.00  0.00     0.293 HD
ENDBRANCH   4  12
BRANCH   6  14
ATOM     14  O   UNL     1      40.326  18.351  -1.874  1.00  0.00    -0.504 OA
ATOM     15  H   UNL     1      39.484  18.380  -2.431  1.00  0.00     0.293 HD
ENDBRANCH   6  14
TORSDOF 4
ENDMDL
MODEL 7
REMARK VINA RESULT:    -3.873      5.525      8.196
REMARK INTER + INTRA:          -4.689
REMARK INTER:                  -4.556
REMARK INTRA:                  -0.133
REMARK UNBOUND:                -0.136
REMARK SMILES O=C([O-])C=Cc1ccc(O)c(O)c1
REMARK SMILES IDX 6 1 13 2 7 3 11 4 8 5 9 6 5 7 4 8 2 9 1 10 3 11 12 12 10 14
REMARK H PARENT 12 13 10 15
REMARK Flexibility Score: inf
ROOT
ATOM      1  C   UNL     1      47.717  15.442  -4.429  1.00  0.00    -0.022 A 
ATOM      2  C   UNL     1      48.098  14.200  -3.899  1.00  0.00     0.058 A 
ATOM      3  C   UNL     1      48.666  16.191  -5.149  1.00  0.00     0.012 A 
ATOM      4  C   UNL     1      49.388  13.690  -4.098  1.00  0.00     0.157 A 
ATOM      5  C   UNL     1      49.954  15.691  -5.352  1.00  0.00     0.051 A 
ATOM      6  C   UNL     1      50.328  14.446  -4.838  1.00  0.00     0.157 A 
ENDROOT
BRANCH   1   7
ATOM      7  C   UNL     1      46.339  15.932  -4.176  1.00  0.00     0.010 C 
ATOM      8  C   UNL     1      45.516  15.401  -3.262  1.00  0.00     0.025 C 
BRANCH   8   9
ATOM      9  C   UNL     1      44.161  15.928  -3.037  1.00  0.00     0.064 C 
ATOM     10  O   UNL     1      43.197  15.129  -2.903  1.00  0.00    -0.545 OA
ATOM     11  O   UNL     1      43.925  17.297  -2.971  1.00  0.00    -0.545 OA
ENDBRANCH   8   9
ENDBRANCH   1   7
BRANCH   4  12
ATOM     12  O   UNL     1      49.689  12.443  -3.548  1.00  0.00    -0.504 OA
ATOM     13  H   UNL     1      50.229  12.314  -2.705  1.00  0.00     0.293 HD
ENDBRANCH   4  12
BRANCH   6  14
ATOM     14  O   UNL     1      51.630  14.004  -5.080  1.00  0.00    -0.504 OA
ATOM     15  H   UNL     1      51.884  13.032  -5.191  1.00  0.00     0.293 HD
ENDBRANCH   6  14
TORSDOF 4
ENDMDL
MODEL 8
REMARK VINA RESULT:    -3.872      6.089      9.358
REMARK INTER + INTRA:          -4.687
REMARK INTER:                  -4.546
REMARK INTRA:                  -0.141
REMARK UNBOUND:                -0.136
REMARK SMILES O=C([O-])C=Cc1ccc(O)c(O)c1
REMARK SMILES IDX 6 1 13 2 7 3 11 4 8 5 9 6 5 7 4 8 2 9 1 10 3 11 12 12 10 14
REMARK H PARENT 12 13 10 15
REMARK Flexibility Score: inf
ROOT
ATOM      1  C   UNL     1      49.458  15.732  -5.448  1.00  0.00    -0.022 A 
ATOM      2  C   UNL     1      50.494  16.443  -6.072  1.00  0.00     0.058 A 
ATOM      3  C   UNL     1      49.690  14.400  -5.057  1.00  0.00     0.012 A 
ATOM      4  C   UNL     1      51.750  15.860  -6.284  1.00  0.00     0.157 A 
ATOM      5  C   UNL     1      50.939  13.810  -5.265  1.00  0.00     0.051 A 
ATOM      6  C   UNL     1      51.976  14.525  -5.872  1.00  0.00     0.157 A 
ENDROOT
BRANCH   1   7
ATOM      7  C   UNL     1      48.147  16.401  -5.261  1.00  0.00     0.010 C 
ATOM      8  C   UNL     1      47.141  15.883  -4.543  1.00  0.00     0.025 C 
BRANCH   8   9
ATOM      9  C   UNL     1      45.862  16.590  -4.374  1.00  0.00     0.064 C 
ATOM     10  O   UNL     1      45.461  17.373  -5.275  1.00  0.00    -0.545 OA
ATOM     11  O   UNL     1      45.088  16.410  -3.234  1.00  0.00    -0.545 OA
ENDBRANCH   8   9
ENDBRANCH   1   7
BRANCH   4  12
ATOM     12  O   UNL     1      52.733  16.634  -6.903  1.00  0.00    -0.504 OA
ATOM     13  H   UNL     1      53.554  16.253  -7.349  1.00  0.00     0.293 HD
ENDBRANCH   4  12
BRANCH   6  14
ATOM     14  O   UNL     1      53.200  13.878  -6.047  1.00  0.00    -0.504 OA
ATOM     15  H   UNL     1      54.028  14.078  -5.503  1.00  0.00     0.293 HD
ENDBRANCH   6  14
TORSDOF 4
ENDMDL
