MODEL 1
REMARK VINA RESULT:    -4.608      0.000      0.000
REMARK INTER + INTRA:          -5.334
REMARK INTER:                  -5.282
REMARK INTRA:                  -0.052
REMARK UNBOUND:                -0.052
REMARK SMILES O=C([O-])c1cc(O)c(O)c(O)c1
REMARK SMILES IDX 4 1 5 2 12 3 6 4 10 5 8 6 2 7 1 8 3 9 7 10 11 12 9 14
REMARK H PARENT 7 11 11 13 9 15
REMARK Flexibility Score: inf
ROOT
ATOM      1  C   UNL     1      -1.057   7.816   9.631  1.00  0.00     0.005 A 
ATOM      2  C   UNL     1      -2.111   8.672   9.995  1.00  0.00     0.060 A 
ATOM      3  C   UNL     1      -1.251   6.907   8.576  1.00  0.00     0.060 A 
ATOM      4  C   UNL     1      -3.339   8.620   9.321  1.00  0.00     0.162 A 
ATOM      5  C   UNL     1      -2.473   6.850   7.898  1.00  0.00     0.162 A 
ATOM      6  C   UNL     1      -3.523   7.708   8.267  1.00  0.00     0.200 A 
ENDROOT
BRANCH   1   7
ATOM      7  C   UNL     1       0.239   7.869  10.342  1.00  0.00     0.072 C 
ATOM      8  O   UNL     1       1.059   6.916  10.251  1.00  0.00    -0.545 OA
ATOM      9  O   UNL     1       0.572   8.971  11.120  1.00  0.00    -0.545 OA
ENDBRANCH   1   7
BRANCH   4  10
ATOM     10  O   UNL     1      -4.376   9.475   9.693  1.00  0.00    -0.504 OA
ATOM     11  H   UNL     1      -5.344   9.257   9.486  1.00  0.00     0.293 HD
ENDBRANCH   4  10
BRANCH   5  12
ATOM     12  O   UNL     1      -2.625   5.934   6.857  1.00  0.00    -0.504 OA
ATOM     13  H   UNL     1      -3.099   5.049   6.985  1.00  0.00     0.293 HD
ENDBRANCH   5  12
BRANCH   6  14
ATOM     14  O   UNL     1      -4.738   7.645   7.585  1.00  0.00    -0.502 OA
ATOM     15  H   UNL     1      -5.336   6.828   7.622  1.00  0.00     0.293 HD
ENDBRANCH   6  14
TORSDOF 4
ENDMDL
MODEL 2
REMARK VINA RESULT:    -4.602      0.063      2.430
REMARK INTER + INTRA:          -5.326
REMARK INTER:                  -5.275
REMARK INTRA:                  -0.052
REMARK UNBOUND:                -0.052
REMARK SMILES O=C([O-])c1cc(O)c(O)c(O)c1
REMARK SMILES IDX 4 1 5 2 12 3 6 4 10 5 8 6 2 7 1 8 3 9 7 10 11 12 9 14
REMARK H PARENT 7 11 11 13 9 15
REMARK Flexibility Score: inf
ROOT
ATOM      1  C   UNL     1      -1.089   7.812   9.665  1.00  0.00     0.005 A 
ATOM      2  C   UNL     1      -1.252   6.902   8.606  1.00  0.00     0.060 A 
ATOM      3  C   UNL     1      -2.160   8.654  10.011  1.00  0.00     0.060 A 
ATOM      4  C   UNL     1      -2.463   6.835   7.903  1.00  0.00     0.162 A 
ATOM      5  C   UNL     1      -3.372   8.592   9.315  1.00  0.00     0.162 A 
ATOM      6  C   UNL     1      -3.529   7.681   8.257  1.00  0.00     0.200 A 
ENDROOT
BRANCH   1   7
ATOM      7  C   UNL     1       0.188   7.885  10.408  1.00  0.00     0.072 C 
ATOM      8  O   UNL     1       0.997   6.919  10.388  1.00  0.00    -0.545 OA
ATOM      9  O   UNL     1       0.515   9.022  11.137  1.00  0.00    -0.545 OA
ENDBRANCH   1   7
BRANCH   4  10
ATOM     10  O   UNL     1      -2.612   5.927   6.854  1.00  0.00    -0.504 OA
ATOM     11  H   UNL     1      -2.828   6.234   5.913  1.00  0.00     0.293 HD
ENDBRANCH   4  10
BRANCH   5  12
ATOM     12  O   UNL     1      -4.410   9.446   9.689  1.00  0.00    -0.504 OA
ATOM     13  H   UNL     1      -4.999   9.907   9.008  1.00  0.00     0.293 HD
ENDBRANCH   5  12
BRANCH   6  14
ATOM     14  O   UNL     1      -4.741   7.625   7.567  1.00  0.00    -0.502 OA
ATOM     15  H   UNL     1      -5.550   8.162   7.855  1.00  0.00     0.293 HD
ENDBRANCH   6  14
TORSDOF 4
ENDMDL
MODEL 3
REMARK VINA RESULT:    -4.340     15.377     16.604
REMARK INTER + INTRA:          -5.026
REMARK INTER:                  -4.977
REMARK INTRA:                  -0.050
REMARK UNBOUND:                -0.052
REMARK SMILES O=C([O-])c1cc(O)c(O)c(O)c1
REMARK SMILES IDX 4 1 5 2 12 3 6 4 10 5 8 6 2 7 1 8 3 9 7 10 11 12 9 14
REMARK H PARENT 7 11 11 13 9 15
REMARK Flexibility Score: inf
ROOT
ATOM      1  C   UNL     1      -4.188  -8.211  10.332  1.00  0.00     0.005 A 
ATOM      2  C   UNL     1      -4.651  -7.008  10.894  1.00  0.00     0.060 A 
ATOM      3  C   UNL     1      -3.759  -9.241  11.186  1.00  0.00     0.060 A 
ATOM      4  C   UNL     1      -4.684  -6.837  12.285  1.00  0.00     0.162 A 
ATOM      5  C   UNL     1      -3.790  -9.078  12.575  1.00  0.00     0.162 A 
ATOM      6  C   UNL     1      -4.253  -7.873  13.130  1.00  0.00     0.200 A 
ENDROOT
BRANCH   1   7
ATOM      7  C   UNL     1      -4.152  -8.394   8.865  1.00  0.00     0.072 C 
ATOM      8  O   UNL     1      -5.052  -7.898   8.134  1.00  0.00    -0.545 OA
ATOM      9  O   UNL     1      -3.124  -9.115   8.269  1.00  0.00    -0.545 OA
ENDBRANCH   1   7
BRANCH   4  10
ATOM     10  O   UNL     1      -5.146  -5.638  12.829  1.00  0.00    -0.504 OA
ATOM     11  H   UNL     1      -6.064  -5.565  13.250  1.00  0.00     0.293 HD
ENDBRANCH   4  10
BRANCH   5  12
ATOM     12  O   UNL     1      -3.355 -10.125  13.387  1.00  0.00    -0.504 OA
ATOM     13  H   UNL     1      -3.899 -10.968  13.516  1.00  0.00     0.293 HD
ENDBRANCH   5  12
BRANCH   6  14
ATOM     14  O   UNL     1      -4.281  -7.718  14.517  1.00  0.00    -0.502 OA
ATOM     15  H   UNL     1      -3.736  -8.306  15.137  1.00  0.00     0.293 HD
ENDBRANCH   6  14
TORSDOF 4
ENDMDL
MODEL 4
REMARK VINA RESULT:    -4.289     15.397     16.406
REMARK INTER + INTRA:          -4.968
REMARK INTER:                  -4.924
REMARK INTRA:                  -0.045
REMARK UNBOUND:                -0.052
REMARK SMILES O=C([O-])c1cc(O)c(O)c(O)c1
REMARK SMILES IDX 4 1 5 2 12 3 6 4 10 5 8 6 2 7 1 8 3 9 7 10 11 12 9 14
REMARK H PARENT 7 11 11 13 9 15
REMARK Flexibility Score: inf
ROOT
ATOM      1  C   UNL     1      -4.714  -8.292  12.083  1.00  0.00     0.005 A 
ATOM      2  C   UNL     1      -4.348  -7.057  11.519  1.00  0.00     0.060 A 
ATOM      3  C   UNL     1      -5.341  -9.253  11.271  1.00  0.00     0.060 A 
ATOM      4  C   UNL     1      -4.605  -6.786  10.168  1.00  0.00     0.162 A 
ATOM      5  C   UNL     1      -5.599  -8.989   9.923  1.00  0.00     0.162 A 
ATOM      6  C   UNL     1      -5.232  -7.754   9.364  1.00  0.00     0.200 A 
ENDROOT
BRANCH   1   7
ATOM      7  C   UNL     1      -4.444  -8.580  13.509  1.00  0.00     0.072 C 
ATOM      8  O   UNL     1      -3.327  -9.040  13.869  1.00  0.00    -0.545 OA
ATOM      9  O   UNL     1      -5.418  -8.346  14.472  1.00  0.00    -0.545 OA
ENDBRANCH   1   7
BRANCH   4  10
ATOM     10  O   UNL     1      -4.237  -5.557   9.621  1.00  0.00    -0.504 OA
ATOM     11  H   UNL     1      -3.284  -5.217   9.671  1.00  0.00     0.293 HD
ENDBRANCH   4  10
BRANCH   5  12
ATOM     12  O   UNL     1      -6.224  -9.970   9.151  1.00  0.00    -0.504 OA
ATOM     13  H   UNL     1      -5.863 -10.258   8.251  1.00  0.00     0.293 HD
ENDBRANCH   5  12
BRANCH   6  14
ATOM     14  O   UNL     1      -5.494  -7.499   8.018  1.00  0.00    -0.502 OA
ATOM     15  H   UNL     1      -5.705  -6.570   7.675  1.00  0.00     0.293 HD
ENDBRANCH   6  14
TORSDOF 4
ENDMDL
MODEL 5
REMARK VINA RESULT:    -4.270     15.422     16.531
REMARK INTER + INTRA:          -4.946
REMARK INTER:                  -4.901
REMARK INTRA:                  -0.045
REMARK UNBOUND:                -0.052
REMARK SMILES O=C([O-])c1cc(O)c(O)c(O)c1
REMARK SMILES IDX 4 1 5 2 12 3 6 4 10 5 8 6 2 7 1 8 3 9 7 10 11 12 9 14
REMARK H PARENT 7 11 11 13 9 15
REMARK Flexibility Score: inf
ROOT
ATOM      1  C   UNL     1      -4.682  -8.343  12.059  1.00  0.00     0.005 A 
ATOM      2  C   UNL     1      -5.332  -9.294  11.253  1.00  0.00     0.060 A 
ATOM      3  C   UNL     1      -4.319  -7.107  11.496  1.00  0.00     0.060 A 
ATOM      4  C   UNL     1      -5.614  -9.018   9.909  1.00  0.00     0.162 A 
ATOM      5  C   UNL     1      -4.598  -6.824  10.155  1.00  0.00     0.162 A 
ATOM      6  C   UNL     1      -5.248  -7.779   9.355  1.00  0.00     0.200 A 
ENDROOT
BRANCH   1   7
ATOM      7  C   UNL     1      -4.383  -8.633  13.478  1.00  0.00     0.072 C 
ATOM      8  O   UNL     1      -3.318  -9.226  13.801  1.00  0.00    -0.545 OA
ATOM      9  O   UNL     1      -5.272  -8.254  14.477  1.00  0.00    -0.545 OA
ENDBRANCH   1   7
BRANCH   4  10
ATOM     10  O   UNL     1      -6.259  -9.971   9.120  1.00  0.00    -0.504 OA
ATOM     11  H   UNL     1      -6.232 -10.957   9.350  1.00  0.00     0.293 HD
ENDBRANCH   4  10
BRANCH   5  12
ATOM     12  O   UNL     1      -4.221  -5.586   9.634  1.00  0.00    -0.504 OA
ATOM     13  H   UNL     1      -4.800  -5.080   8.976  1.00  0.00     0.293 HD
ENDBRANCH   5  12
BRANCH   6  14
ATOM     14  O   UNL     1      -5.522  -7.488   8.018  1.00  0.00    -0.502 OA
ATOM     15  H   UNL     1      -4.897  -6.932   7.447  1.00  0.00     0.293 HD
ENDBRANCH   6  14
TORSDOF 4
ENDMDL
MODEL 6
REMARK VINA RESULT:    -3.973      1.783      4.429
REMARK INTER + INTRA:          -4.606
REMARK INTER:                  -4.561
REMARK INTRA:                  -0.045
REMARK UNBOUND:                -0.052
REMARK SMILES O=C([O-])c1cc(O)c(O)c(O)c1
REMARK SMILES IDX 4 1 5 2 12 3 6 4 10 5 8 6 2 7 1 8 3 9 7 10 11 12 9 14
REMARK H PARENT 7 11 11 13 9 15
REMARK Flexibility Score: inf
ROOT
ATOM      1  C   UNL     1      -4.589   8.528   8.238  1.00  0.00     0.005 A 
ATOM      2  C   UNL     1      -3.797   9.057   9.272  1.00  0.00     0.060 A 
ATOM      3  C   UNL     1      -4.090   7.456   7.479  1.00  0.00     0.060 A 
ATOM      4  C   UNL     1      -2.529   8.525   9.544  1.00  0.00     0.162 A 
ATOM      5  C   UNL     1      -2.826   6.919   7.744  1.00  0.00     0.162 A 
ATOM      6  C   UNL     1      -2.040   7.452   8.779  1.00  0.00     0.200 A 
ENDROOT
BRANCH   1   7
ATOM      7  C   UNL     1      -5.927   9.088   7.950  1.00  0.00     0.072 C 
ATOM      8  O   UNL     1      -6.941   8.684   8.581  1.00  0.00    -0.545 OA
ATOM      9  O   UNL     1      -6.086  10.070   6.980  1.00  0.00    -0.545 OA
ENDBRANCH   1   7
BRANCH   4  10
ATOM     10  O   UNL     1      -1.754   9.059  10.573  1.00  0.00    -0.504 OA
ATOM     11  H   UNL     1      -0.828   8.703  10.781  1.00  0.00     0.293 HD
ENDBRANCH   4  10
BRANCH   5  12
ATOM     12  O   UNL     1      -2.368   5.855   6.967  1.00  0.00    -0.504 OA
ATOM     13  H   UNL     1      -1.782   5.123   7.348  1.00  0.00     0.293 HD
ENDBRANCH   5  12
BRANCH   6  14
ATOM     14  O   UNL     1      -0.779   6.911   9.037  1.00  0.00    -0.502 OA
ATOM     15  H   UNL     1      -0.177   6.568   8.298  1.00  0.00     0.293 HD
ENDBRANCH   6  14
TORSDOF 4
ENDMDL
MODEL 7
REMARK VINA RESULT:    -3.922      1.767      4.982
REMARK INTER + INTRA:          -4.547
REMARK INTER:                  -4.503
REMARK INTRA:                  -0.045
REMARK UNBOUND:                -0.052
REMARK SMILES O=C([O-])c1cc(O)c(O)c(O)c1
REMARK SMILES IDX 4 1 5 2 12 3 6 4 10 5 8 6 2 7 1 8 3 9 7 10 11 12 9 14
REMARK H PARENT 7 11 11 13 9 15
REMARK Flexibility Score: inf
ROOT
ATOM      1  C   UNL     1      -4.524   8.577   8.204  1.00  0.00     0.005 A 
ATOM      2  C   UNL     1      -4.024   7.499   7.453  1.00  0.00     0.060 A 
ATOM      3  C   UNL     1      -3.750   9.090   9.259  1.00  0.00     0.060 A 
ATOM      4  C   UNL     1      -2.773   6.942   7.750  1.00  0.00     0.162 A 
ATOM      5  C   UNL     1      -2.500   8.540   9.561  1.00  0.00     0.162 A 
ATOM      6  C   UNL     1      -2.006   7.462   8.806  1.00  0.00     0.200 A 
ENDROOT
BRANCH   1   7
ATOM      7  C   UNL     1      -5.845   9.167   7.892  1.00  0.00     0.072 C 
ATOM      8  O   UNL     1      -5.944  10.118   7.071  1.00  0.00    -0.545 OA
ATOM      9  O   UNL     1      -6.996   8.679   8.499  1.00  0.00    -0.545 OA
ENDBRANCH   1   7
BRANCH   4  10
ATOM     10  O   UNL     1      -2.289   5.873   6.997  1.00  0.00    -0.504 OA
ATOM     11  H   UNL     1      -2.071   4.979   7.421  1.00  0.00     0.293 HD
ENDBRANCH   4  10
BRANCH   5  12
ATOM     12  O   UNL     1      -1.763   9.077  10.616  1.00  0.00    -0.504 OA
ATOM     13  H   UNL     1      -1.572   8.554  11.461  1.00  0.00     0.293 HD
ENDBRANCH   5  12
BRANCH   6  14
ATOM     14  O   UNL     1      -0.758   6.919   9.115  1.00  0.00    -0.502 OA
ATOM     15  H   UNL     1      -0.038   7.453   9.586  1.00  0.00     0.293 HD
ENDBRANCH   6  14
TORSDOF 4
ENDMDL
MODEL 8
REMARK VINA RESULT:    -3.790      1.481      3.901
REMARK INTER + INTRA:          -4.396
REMARK INTER:                  -4.346
REMARK INTRA:                  -0.050
REMARK UNBOUND:                -0.052
REMARK SMILES O=C([O-])c1cc(O)c(O)c(O)c1
REMARK SMILES IDX 4 1 5 2 12 3 6 4 10 5 8 6 2 7 1 8 3 9 7 10 11 12 9 14
REMARK H PARENT 7 11 11 13 9 15
REMARK Flexibility Score: inf
ROOT
ATOM      1  C   UNL     1      -2.204   8.787   9.443  1.00  0.00     0.005 A 
ATOM      2  C   UNL     1      -2.717   7.810   8.572  1.00  0.00     0.060 A 
ATOM      3  C   UNL     1      -0.811   8.905   9.589  1.00  0.00     0.060 A 
ATOM      4  C   UNL     1      -1.855   6.963   7.861  1.00  0.00     0.162 A 
ATOM      5  C   UNL     1       0.056   8.065   8.882  1.00  0.00     0.162 A 
ATOM      6  C   UNL     1      -0.463   7.090   8.014  1.00  0.00     0.200 A 
ENDROOT
BRANCH   1   7
ATOM      7  C   UNL     1      -3.112   9.680  10.194  1.00  0.00     0.072 C 
ATOM      8  O   UNL     1      -2.823  10.052  11.364  1.00  0.00    -0.545 OA
ATOM      9  O   UNL     1      -4.297  10.125   9.621  1.00  0.00    -0.545 OA
ENDBRANCH   1   7
BRANCH   4  10
ATOM     10  O   UNL     1      -2.377   5.998   7.001  1.00  0.00    -0.504 OA
ATOM     11  H   UNL     1      -1.782   5.460   6.382  1.00  0.00     0.293 HD
ENDBRANCH   4  10
BRANCH   5  12
ATOM     12  O   UNL     1       1.432   8.215   9.056  1.00  0.00    -0.504 OA
ATOM     13  H   UNL     1       2.089   7.492   8.794  1.00  0.00     0.293 HD
ENDBRANCH   5  12
BRANCH   6  14
ATOM     14  O   UNL     1       0.408   6.256   7.313  1.00  0.00    -0.502 OA
ATOM     15  H   UNL     1       1.258   5.892   7.727  1.00  0.00     0.293 HD
ENDBRANCH   6  14
TORSDOF 4
ENDMDL
MODEL 9
REMARK VINA RESULT:    -3.782      1.461      3.004
REMARK INTER + INTRA:          -4.387
REMARK INTER:                  -4.335
REMARK INTRA:                  -0.052
REMARK UNBOUND:                -0.052
REMARK SMILES O=C([O-])c1cc(O)c(O)c(O)c1
REMARK SMILES IDX 4 1 5 2 12 3 6 4 10 5 8 6 2 7 1 8 3 9 7 10 11 12 9 14
REMARK H PARENT 7 11 11 13 9 15
REMARK Flexibility Score: inf
ROOT
ATOM      1  C   UNL     1      -0.488   8.452   9.995  1.00  0.00     0.005 A 
ATOM      2  C   UNL     1       0.320   7.794   9.051  1.00  0.00     0.060 A 
ATOM      3  C   UNL     1      -1.883   8.293   9.927  1.00  0.00     0.060 A 
ATOM      4  C   UNL     1      -0.255   6.993   8.055  1.00  0.00     0.162 A 
ATOM      5  C   UNL     1      -2.463   7.494   8.937  1.00  0.00     0.162 A 
ATOM      6  C   UNL     1      -1.651   6.840   7.995  1.00  0.00     0.200 A 
ENDROOT
BRANCH   1   7
ATOM      7  C   UNL     1       0.117   9.298  11.047  1.00  0.00     0.072 C 
ATOM      8  O   UNL     1      -0.588  10.123  11.690  1.00  0.00    -0.545 OA
ATOM      9  O   UNL     1       1.471   9.196  11.342  1.00  0.00    -0.545 OA
ENDBRANCH   1   7
BRANCH   4  10
ATOM     10  O   UNL     1       0.558   6.347   7.124  1.00  0.00    -0.504 OA
ATOM     11  H   UNL     1       0.899   5.405   7.279  1.00  0.00     0.293 HD
ENDBRANCH   4  10
BRANCH   5  12
ATOM     12  O   UNL     1      -3.852   7.362   8.904  1.00  0.00    -0.504 OA
ATOM     13  H   UNL     1      -4.342   7.042   8.079  1.00  0.00     0.293 HD
ENDBRANCH   5  12
BRANCH   6  14
ATOM     14  O   UNL     1      -2.238   6.045   7.010  1.00  0.00    -0.502 OA
ATOM     15  H   UNL     1      -2.095   6.216   6.022  1.00  0.00     0.293 HD
ENDBRANCH   6  14
TORSDOF 4
ENDMDL
