MODEL 1
REMARK VINA RESULT:    -3.445      0.000      0.000
REMARK INTER + INTRA:          -3.658
REMARK INTER:                  -3.647
REMARK INTRA:                  -0.011
REMARK UNBOUND:                -0.011
REMARK SMILES O=Cc1ccco1
REMARK SMILES IDX 5 1 6 2 7 3 3 4 4 5 2 6 1 7
REMARK H PARENT
REMARK Flexibility Score: inf
ROOT
ATOM      1  C   UNL     1      19.114 -11.486  12.316  1.00  0.00     0.043 A 
ATOM      2  C   UNL     1      17.797 -11.147  12.081  1.00  0.00     0.196 A 
ATOM      3  O   UNL     1      17.492 -10.062  12.757  1.00  0.00    -0.462 OA
ATOM      4  C   UNL     1      18.553  -9.674  13.425  1.00  0.00     0.166 A 
ATOM      5  C   UNL     1      19.607 -10.535  13.184  1.00  0.00     0.054 A 
ENDROOT
BRANCH   4   6
ATOM      6  C   UNL     1      18.582  -8.494  14.292  1.00  0.00     0.298 C 
ATOM      7  O   UNL     1      19.621  -8.195  14.937  1.00  0.00    -0.294 OA
ENDBRANCH   4   6
TORSDOF 1
ENDMDL
MODEL 2
REMARK VINA RESULT:    -3.425      1.499      3.265
REMARK INTER + INTRA:          -3.636
REMARK INTER:                  -3.624
REMARK INTRA:                  -0.012
REMARK UNBOUND:                -0.011
REMARK SMILES O=Cc1ccco1
REMARK SMILES IDX 5 1 6 2 7 3 3 4 4 5 2 6 1 7
REMARK H PARENT
REMARK Flexibility Score: inf
ROOT
ATOM      1  C   UNL     1      17.741  -8.639  14.373  1.00  0.00     0.043 A 
ATOM      2  C   UNL     1      19.114  -8.525  14.463  1.00  0.00     0.196 A 
ATOM      3  O   UNL     1      19.684  -9.504  13.797  1.00  0.00    -0.462 OA
ATOM      4  C   UNL     1      18.743 -10.255  13.273  1.00  0.00     0.166 A 
ATOM      5  C   UNL     1      17.498  -9.756  13.603  1.00  0.00     0.054 A 
ENDROOT
BRANCH   4   6
ATOM      6  C   UNL     1      19.011 -11.444  12.460  1.00  0.00     0.298 C 
ATOM      7  O   UNL     1      19.565 -12.456  12.963  1.00  0.00    -0.294 OA
ENDBRANCH   4   6
TORSDOF 1
ENDMDL
MODEL 3
REMARK VINA RESULT:    -3.288      1.773      3.138
REMARK INTER + INTRA:          -3.492
REMARK INTER:                  -3.480
REMARK INTRA:                  -0.011
REMARK UNBOUND:                -0.011
REMARK SMILES O=Cc1ccco1
REMARK SMILES IDX 5 1 6 2 7 3 3 4 4 5 2 6 1 7
REMARK H PARENT
REMARK Flexibility Score: inf
ROOT
ATOM      1  C   UNL     1      19.018  -8.602  14.497  1.00  0.00     0.043 A 
ATOM      2  C   UNL     1      19.679  -9.480  13.662  1.00  0.00     0.196 A 
ATOM      3  O   UNL     1      18.806 -10.224  13.020  1.00  0.00    -0.462 OA
ATOM      4  C   UNL     1      17.599  -9.870  13.399  1.00  0.00     0.166 A 
ATOM      5  C   UNL     1      17.672  -8.851  14.328  1.00  0.00     0.054 A 
ENDROOT
BRANCH   4   6
ATOM      6  C   UNL     1      16.373 -10.489  12.888  1.00  0.00     0.298 C 
ATOM      7  O   UNL     1      15.244 -10.027  13.196  1.00  0.00    -0.294 OA
ENDBRANCH   4   6
TORSDOF 1
ENDMDL
MODEL 4
REMARK VINA RESULT:    -3.198      6.823      8.027
REMARK INTER + INTRA:          -3.396
REMARK INTER:                  -3.385
REMARK INTRA:                  -0.011
REMARK UNBOUND:                -0.011
REMARK SMILES O=Cc1ccco1
REMARK SMILES IDX 5 1 6 2 7 3 3 4 4 5 2 6 1 7
REMARK H PARENT
REMARK Flexibility Score: inf
ROOT
ATOM      1  C   UNL     1      20.377  -3.995  19.956  1.00  0.00     0.043 A 
ATOM      2  C   UNL     1      19.310  -4.655  19.379  1.00  0.00     0.196 A 
ATOM      3  O   UNL     1      19.694  -5.218  18.255  1.00  0.00    -0.462 OA
ATOM      4  C   UNL     1      20.967  -4.957  18.071  1.00  0.00     0.166 A 
ATOM      5  C   UNL     1      21.450  -4.189  19.113  1.00  0.00     0.054 A 
ENDROOT
BRANCH   4   6
ATOM      6  C   UNL     1      21.735  -5.427  16.915  1.00  0.00     0.298 C 
ATOM      7  O   UNL     1      22.818  -4.873  16.594  1.00  0.00    -0.294 OA
ENDBRANCH   4   6
TORSDOF 1
ENDMDL
MODEL 5
REMARK VINA RESULT:    -3.183      8.235      9.093
REMARK INTER + INTRA:          -3.381
REMARK INTER:                  -3.365
REMARK INTRA:                  -0.016
REMARK UNBOUND:                -0.011
REMARK SMILES O=Cc1ccco1
REMARK SMILES IDX 5 1 6 2 7 3 3 4 4 5 2 6 1 7
REMARK H PARENT
REMARK Flexibility Score: inf
ROOT
ATOM      1  C   UNL     1      18.367  -4.162  20.876  1.00  0.00     0.043 A 
ATOM      2  C   UNL     1      18.517  -4.980  19.775  1.00  0.00     0.196 A 
ATOM      3  O   UNL     1      17.631  -4.656  18.859  1.00  0.00    -0.462 OA
ATOM      4  C   UNL     1      16.908  -3.659  19.313  1.00  0.00     0.166 A 
ATOM      5  C   UNL     1      17.328  -3.306  20.580  1.00  0.00     0.054 A 
ENDROOT
BRANCH   4   6
ATOM      6  C   UNL     1      15.819  -3.035  18.557  1.00  0.00     0.298 C 
ATOM      7  O   UNL     1      15.420  -3.535  17.473  1.00  0.00    -0.294 OA
ENDBRANCH   4   6
TORSDOF 1
ENDMDL
MODEL 6
REMARK VINA RESULT:    -3.181      2.334      3.967
REMARK INTER + INTRA:          -3.378
REMARK INTER:                  -3.363
REMARK INTRA:                  -0.015
REMARK UNBOUND:                -0.011
REMARK SMILES O=Cc1ccco1
REMARK SMILES IDX 5 1 6 2 7 3 3 4 4 5 2 6 1 7
REMARK H PARENT
REMARK Flexibility Score: inf
ROOT
ATOM      1  C   UNL     1      18.031 -10.175  12.541  1.00  0.00     0.043 A 
ATOM      2  C   UNL     1      19.095 -10.581  13.320  1.00  0.00     0.196 A 
ATOM      3  O   UNL     1      19.463 -11.793  12.970  1.00  0.00    -0.462 OA
ATOM      4  C   UNL     1      18.686 -12.199  11.992  1.00  0.00     0.166 A 
ATOM      5  C   UNL     1      17.765 -11.218  11.680  1.00  0.00     0.054 A 
ENDROOT
BRANCH   4   6
ATOM      6  C   UNL     1      18.807 -13.509  11.348  1.00  0.00     0.298 C 
ATOM      7  O   UNL     1      19.394 -14.459  11.929  1.00  0.00    -0.294 OA
ENDBRANCH   4   6
TORSDOF 1
ENDMDL
MODEL 7
REMARK VINA RESULT:    -3.147      7.328      8.545
REMARK INTER + INTRA:          -3.343
REMARK INTER:                  -3.328
REMARK INTRA:                  -0.015
REMARK UNBOUND:                -0.011
REMARK SMILES O=Cc1ccco1
REMARK SMILES IDX 5 1 6 2 7 3 3 4 4 5 2 6 1 7
REMARK H PARENT
REMARK Flexibility Score: inf
ROOT
ATOM      1  C   UNL     1      17.389  -2.561  17.791  1.00  0.00     0.043 A 
ATOM      2  C   UNL     1      16.142  -2.114  18.177  1.00  0.00     0.196 A 
ATOM      3  O   UNL     1      15.250  -3.058  17.973  1.00  0.00    -0.462 OA
ATOM      4  C   UNL     1      15.861  -4.106  17.470  1.00  0.00     0.166 A 
ATOM      5  C   UNL     1      17.211  -3.849  17.334  1.00  0.00     0.054 A 
ENDROOT
BRANCH   4   6
ATOM      6  C   UNL     1      15.177  -5.352  17.115  1.00  0.00     0.298 C 
ATOM      7  O   UNL     1      14.140  -5.714  17.730  1.00  0.00    -0.294 OA
ENDBRANCH   4   6
TORSDOF 1
ENDMDL
MODEL 8
REMARK VINA RESULT:    -3.119      8.493      9.093
REMARK INTER + INTRA:          -3.313
REMARK INTER:                  -3.297
REMARK INTRA:                  -0.016
REMARK UNBOUND:                -0.011
REMARK SMILES O=Cc1ccco1
REMARK SMILES IDX 5 1 6 2 7 3 3 4 4 5 2 6 1 7
REMARK H PARENT
REMARK Flexibility Score: inf
ROOT
ATOM      1  C   UNL     1      18.987  -1.188  17.742  1.00  0.00     0.043 A 
ATOM      2  C   UNL     1      18.742  -2.328  17.003  1.00  0.00     0.196 A 
ATOM      3  O   UNL     1      19.538  -3.294  17.402  1.00  0.00    -0.462 OA
ATOM      4  C   UNL     1      20.295  -2.837  18.373  1.00  0.00     0.166 A 
ATOM      5  C   UNL     1      19.991  -1.514  18.629  1.00  0.00     0.054 A 
ENDROOT
BRANCH   4   6
ATOM      6  C   UNL     1      21.307  -3.641  19.062  1.00  0.00     0.298 C 
ATOM      7  O   UNL     1      21.377  -4.884  18.875  1.00  0.00    -0.294 OA
ENDBRANCH   4   6
TORSDOF 1
ENDMDL
MODEL 9
REMARK VINA RESULT:    -3.083      8.386      9.868
REMARK INTER + INTRA:          -3.275
REMARK INTER:                  -3.264
REMARK INTRA:                  -0.010
REMARK UNBOUND:                -0.011
REMARK SMILES O=Cc1ccco1
REMARK SMILES IDX 5 1 6 2 7 3 3 4 4 5 2 6 1 7
REMARK H PARENT
REMARK Flexibility Score: inf
ROOT
ATOM      1  C   UNL     1      18.427  -4.858  19.972  1.00  0.00     0.043 A 
ATOM      2  C   UNL     1      19.560  -4.741  19.192  1.00  0.00     0.196 A 
ATOM      3  O   UNL     1      20.464  -4.029  19.828  1.00  0.00    -0.462 OA
ATOM      4  C   UNL     1      19.972  -3.676  20.993  1.00  0.00     0.166 A 
ATOM      5  C   UNL     1      18.691  -4.171  21.138  1.00  0.00     0.054 A 
ENDROOT
BRANCH   4   6
ATOM      6  C   UNL     1      20.705  -2.871  21.974  1.00  0.00     0.298 C 
ATOM      7  O   UNL     1      20.808  -3.252  23.169  1.00  0.00    -0.294 OA
ENDBRANCH   4   6
TORSDOF 1
ENDMDL
