MODEL 1
REMARK VINA RESULT:    -3.122      0.000      0.000
REMARK INTER + INTRA:          -4.918
REMARK INTER:                  -4.399
REMARK INTRA:                  -0.519
REMARK UNBOUND:                -0.519
REMARK SMILES CCCCCCCCC(=O)[O-]
REMARK SMILES IDX 6 1 7 2 8 3 9 4 10 5 11 6 5 7 4 8 3 9 2 10 1 11
REMARK H PARENT
REMARK Flexibility Score: inf
ROOT
ATOM      1  C   UNL     1      16.687  18.869  48.803  1.00  0.00     0.000 C 
ENDROOT
BRANCH   1   2
ATOM      2  C   UNL     1      17.358  17.930  47.786  1.00  0.00     0.006 C 
BRANCH   2   3
ATOM      3  C   UNL     1      17.026  18.314  46.338  1.00  0.00     0.053 C 
BRANCH   3   4
ATOM      4  C   UNL     1      15.623  17.937  45.970  1.00  0.00     0.041 C 
ATOM      5  O   UNL     1      15.325  16.731  45.765  1.00  0.00    -0.550 OA
ATOM      6  O   UNL     1      14.654  18.920  45.826  1.00  0.00    -0.550 OA
ENDBRANCH   3   4
ENDBRANCH   2   3
ENDBRANCH   1   2
BRANCH   1   7
ATOM      7  C   UNL     1      15.489  18.219  49.517  1.00  0.00     0.000 C 
BRANCH   7   8
ATOM      8  C   UNL     1      15.540  18.264  51.058  1.00  0.00    -0.000 C 
BRANCH   8   9
ATOM      9  C   UNL     1      16.261  17.079  51.723  1.00  0.00    -0.000 C 
BRANCH   9  10
ATOM     10  C   UNL     1      17.650  17.451  52.260  1.00  0.00    -0.003 C 
ATOM     11  C   UNL     1      18.742  17.088  51.259  1.00  0.00     0.004 C 
ENDBRANCH   9  10
ENDBRANCH   8   9
ENDBRANCH   7   8
ENDBRANCH   1   7
TORSDOF 7
ENDMDL
MODEL 2
REMARK VINA RESULT:    -3.087     13.553     14.723
REMARK INTER + INTRA:          -4.869
REMARK INTER:                  -4.548
REMARK INTRA:                  -0.322
REMARK UNBOUND:                -0.519
REMARK SMILES CCCCCCCCC(=O)[O-]
REMARK SMILES IDX 6 1 7 2 8 3 9 4 10 5 11 6 5 7 4 8 3 9 2 10 1 11
REMARK H PARENT
REMARK Flexibility Score: inf
ROOT
ATOM      1  C   UNL     1      19.261  29.399  55.210  1.00  0.00     0.000 C 
ENDROOT
BRANCH   1   2
ATOM      2  C   UNL     1      20.519  30.233  55.507  1.00  0.00     0.006 C 
BRANCH   2   3
ATOM      3  C   UNL     1      21.429  29.559  56.542  1.00  0.00     0.053 C 
BRANCH   3   4
ATOM      4  C   UNL     1      20.987  29.848  57.944  1.00  0.00     0.041 C 
ATOM      5  O   UNL     1      20.302  29.005  58.579  1.00  0.00    -0.550 OA
ATOM      6  O   UNL     1      21.308  31.062  58.537  1.00  0.00    -0.550 OA
ENDBRANCH   3   4
ENDBRANCH   2   3
ENDBRANCH   1   2
BRANCH   1   7
ATOM      7  C   UNL     1      18.662  29.694  53.823  1.00  0.00     0.000 C 
BRANCH   7   8
ATOM      8  C   UNL     1      17.177  30.108  53.825  1.00  0.00    -0.000 C 
BRANCH   8   9
ATOM      9  C   UNL     1      16.340  29.534  54.981  1.00  0.00    -0.000 C 
BRANCH   9  10
ATOM     10  C   UNL     1      15.695  28.184  54.639  1.00  0.00    -0.003 C 
ATOM     11  C   UNL     1      14.743  28.314  53.455  1.00  0.00     0.004 C 
ENDBRANCH   9  10
ENDBRANCH   8   9
ENDBRANCH   7   8
ENDBRANCH   1   7
TORSDOF 7
ENDMDL
MODEL 3
REMARK VINA RESULT:    -3.037     13.837     15.021
REMARK INTER + INTRA:          -4.799
REMARK INTER:                  -4.269
REMARK INTRA:                  -0.530
REMARK UNBOUND:                -0.519
REMARK SMILES CCCCCCCCC(=O)[O-]
REMARK SMILES IDX 6 1 7 2 8 3 9 4 10 5 11 6 5 7 4 8 3 9 2 10 1 11
REMARK H PARENT
REMARK Flexibility Score: inf
ROOT
ATOM      1  C   UNL     1      20.090  28.942  55.244  1.00  0.00     0.000 C 
ENDROOT
BRANCH   1   2
ATOM      2  C   UNL     1      20.720  30.263  55.719  1.00  0.00     0.006 C 
BRANCH   2   3
ATOM      3  C   UNL     1      21.754  30.043  56.831  1.00  0.00     0.053 C 
BRANCH   3   4
ATOM      4  C   UNL     1      21.143  30.180  58.193  1.00  0.00     0.041 C 
ATOM      5  O   UNL     1      20.620  29.183  58.756  1.00  0.00    -0.550 OA
ATOM      6  O   UNL     1      21.127  31.416  58.826  1.00  0.00    -0.550 OA
ENDBRANCH   3   4
ENDBRANCH   2   3
ENDBRANCH   1   2
BRANCH   1   7
ATOM      7  C   UNL     1      18.666  28.730  55.790  1.00  0.00     0.000 C 
BRANCH   7   8
ATOM      8  C   UNL     1      17.574  28.541  54.716  1.00  0.00    -0.000 C 
BRANCH   8   9
ATOM      9  C   UNL     1      16.850  29.829  54.288  1.00  0.00    -0.000 C 
BRANCH   9  10
ATOM     10  C   UNL     1      17.560  30.558  53.138  1.00  0.00    -0.003 C 
ATOM     11  C   UNL     1      17.984  29.582  52.046  1.00  0.00     0.004 C 
ENDBRANCH   9  10
ENDBRANCH   8   9
ENDBRANCH   7   8
ENDBRANCH   1   7
TORSDOF 7
ENDMDL
MODEL 4
REMARK VINA RESULT:    -2.993      1.315      1.929
REMARK INTER + INTRA:          -4.736
REMARK INTER:                  -4.313
REMARK INTRA:                  -0.424
REMARK UNBOUND:                -0.519
REMARK SMILES CCCCCCCCC(=O)[O-]
REMARK SMILES IDX 6 1 7 2 8 3 9 4 10 5 11 6 5 7 4 8 3 9 2 10 1 11
REMARK H PARENT
REMARK Flexibility Score: inf
ROOT
ATOM      1  C   UNL     1      16.172  18.732  49.567  1.00  0.00     0.000 C 
ENDROOT
BRANCH   1   2
ATOM      2  C   UNL     1      15.712  19.169  48.166  1.00  0.00     0.006 C 
BRANCH   2   3
ATOM      3  C   UNL     1      14.670  18.210  47.574  1.00  0.00     0.053 C 
BRANCH   3   4
ATOM      4  C   UNL     1      15.198  17.489  46.371  1.00  0.00     0.041 C 
ATOM      5  O   UNL     1      16.303  17.822  45.867  1.00  0.00    -0.550 OA
ATOM      6  O   UNL     1      14.456  16.469  45.791  1.00  0.00    -0.550 OA
ENDBRANCH   3   4
ENDBRANCH   2   3
ENDBRANCH   1   2
BRANCH   1   7
ATOM      7  C   UNL     1      17.538  18.022  49.554  1.00  0.00     0.000 C 
BRANCH   7   8
ATOM      8  C   UNL     1      18.001  17.466  50.916  1.00  0.00    -0.000 C 
BRANCH   8   9
ATOM      9  C   UNL     1      16.869  17.066  51.877  1.00  0.00    -0.000 C 
BRANCH   9  10
ATOM     10  C   UNL     1      16.980  17.750  53.247  1.00  0.00    -0.003 C 
ATOM     11  C   UNL     1      18.200  18.662  53.308  1.00  0.00     0.004 C 
ENDBRANCH   9  10
ENDBRANCH   8   9
ENDBRANCH   7   8
ENDBRANCH   1   7
TORSDOF 7
ENDMDL
MODEL 5
REMARK VINA RESULT:    -2.985      1.356      2.087
REMARK INTER + INTRA:          -4.725
REMARK INTER:                  -4.055
REMARK INTRA:                  -0.671
REMARK UNBOUND:                -0.519
REMARK SMILES CCCCCCCCC(=O)[O-]
REMARK SMILES IDX 6 1 7 2 8 3 9 4 10 5 11 6 5 7 4 8 3 9 2 10 1 11
REMARK H PARENT
REMARK Flexibility Score: inf
ROOT
ATOM      1  C   UNL     1      16.077  19.653  48.911  1.00  0.00     0.000 C 
ENDROOT
BRANCH   1   2
ATOM      2  C   UNL     1      15.154  18.438  48.720  1.00  0.00     0.006 C 
BRANCH   2   3
ATOM      3  C   UNL     1      14.440  18.462  47.363  1.00  0.00     0.053 C 
BRANCH   3   4
ATOM      4  C   UNL     1      15.105  17.561  46.367  1.00  0.00     0.041 C 
ATOM      5  O   UNL     1      14.470  16.602  45.856  1.00  0.00    -0.550 OA
ATOM      6  O   UNL     1      16.436  17.766  46.026  1.00  0.00    -0.550 OA
ENDBRANCH   3   4
ENDBRANCH   2   3
ENDBRANCH   1   2
BRANCH   1   7
ATOM      7  C   UNL     1      17.531  19.257  49.224  1.00  0.00     0.000 C 
BRANCH   7   8
ATOM      8  C   UNL     1      17.744  17.769  49.571  1.00  0.00    -0.000 C 
BRANCH   8   9
ATOM      9  C   UNL     1      18.008  17.476  51.058  1.00  0.00    -0.000 C 
BRANCH   9  10
ATOM     10  C   UNL     1      16.755  16.997  51.803  1.00  0.00    -0.003 C 
ATOM     11  C   UNL     1      16.123  18.132  52.603  1.00  0.00     0.004 C 
ENDBRANCH   9  10
ENDBRANCH   8   9
ENDBRANCH   7   8
ENDBRANCH   1   7
TORSDOF 7
ENDMDL
MODEL 6
REMARK VINA RESULT:    -2.918     12.782     13.669
REMARK INTER + INTRA:          -4.631
REMARK INTER:                  -4.069
REMARK INTRA:                  -0.562
REMARK UNBOUND:                -0.519
REMARK SMILES CCCCCCCCC(=O)[O-]
REMARK SMILES IDX 6 1 7 2 8 3 9 4 10 5 11 6 5 7 4 8 3 9 2 10 1 11
REMARK H PARENT
REMARK Flexibility Score: inf
ROOT
ATOM      1  C   UNL     1      19.344  28.342  54.414  1.00  0.00     0.000 C 
ENDROOT
BRANCH   1   2
ATOM      2  C   UNL     1      19.095  29.856  54.526  1.00  0.00     0.006 C 
BRANCH   2   3
ATOM      3  C   UNL     1      17.945  30.321  53.624  1.00  0.00     0.053 C 
BRANCH   3   4
ATOM      4  C   UNL     1      16.656  29.638  53.969  1.00  0.00     0.041 C 
ATOM      5  O   UNL     1      16.010  29.020  53.083  1.00  0.00    -0.550 OA
ATOM      6  O   UNL     1      16.157  29.708  55.263  1.00  0.00    -0.550 OA
ENDBRANCH   3   4
ENDBRANCH   2   3
ENDBRANCH   1   2
BRANCH   1   7
ATOM      7  C   UNL     1      19.493  27.657  55.784  1.00  0.00     0.000 C 
BRANCH   7   8
ATOM      8  C   UNL     1      18.965  28.471  56.984  1.00  0.00    -0.000 C 
BRANCH   8   9
ATOM      9  C   UNL     1      19.944  28.606  58.163  1.00  0.00    -0.000 C 
BRANCH   9  10
ATOM     10  C   UNL     1      21.094  29.581  57.875  1.00  0.00    -0.003 C 
ATOM     11  C   UNL     1      21.075  30.757  58.846  1.00  0.00     0.004 C 
ENDBRANCH   9  10
ENDBRANCH   8   9
ENDBRANCH   7   8
ENDBRANCH   1   7
TORSDOF 7
ENDMDL
MODEL 7
REMARK VINA RESULT:    -2.909     12.521     13.498
REMARK INTER + INTRA:          -4.619
REMARK INTER:                  -4.197
REMARK INTRA:                  -0.422
REMARK UNBOUND:                -0.519
REMARK SMILES CCCCCCCCC(=O)[O-]
REMARK SMILES IDX 6 1 7 2 8 3 9 4 10 5 11 6 5 7 4 8 3 9 2 10 1 11
REMARK H PARENT
REMARK Flexibility Score: inf
ROOT
ATOM      1  C   UNL     1      18.276  28.778  55.723  1.00  0.00     0.000 C 
ENDROOT
BRANCH   1   2
ATOM      2  C   UNL     1      16.775  29.115  55.744  1.00  0.00     0.006 C 
BRANCH   2   3
ATOM      3  C   UNL     1      16.220  29.375  54.338  1.00  0.00     0.053 C 
BRANCH   3   4
ATOM      4  C   UNL     1      15.232  28.325  53.927  1.00  0.00     0.041 C 
ATOM      5  O   UNL     1      14.657  28.399  52.809  1.00  0.00    -0.550 OA
ATOM      6  O   UNL     1      14.927  27.282  54.790  1.00  0.00    -0.550 OA
ENDBRANCH   3   4
ENDBRANCH   2   3
ENDBRANCH   1   2
BRANCH   1   7
ATOM      7  C   UNL     1      19.049  29.559  54.646  1.00  0.00     0.000 C 
BRANCH   7   8
ATOM      8  C   UNL     1      20.365  30.206  55.123  1.00  0.00    -0.000 C 
BRANCH   8   9
ATOM      9  C   UNL     1      21.121  29.423  56.211  1.00  0.00    -0.000 C 
BRANCH   9  10
ATOM     10  C   UNL     1      21.453  30.280  57.441  1.00  0.00    -0.003 C 
ATOM     11  C   UNL     1      20.728  29.767  58.680  1.00  0.00     0.004 C 
ENDBRANCH   9  10
ENDBRANCH   8   9
ENDBRANCH   7   8
ENDBRANCH   1   7
TORSDOF 7
ENDMDL
MODEL 8
REMARK VINA RESULT:    -2.895      3.668      5.664
REMARK INTER + INTRA:          -4.599
REMARK INTER:                  -4.229
REMARK INTRA:                  -0.369
REMARK UNBOUND:                -0.519
REMARK SMILES CCCCCCCCC(=O)[O-]
REMARK SMILES IDX 6 1 7 2 8 3 9 4 10 5 11 6 5 7 4 8 3 9 2 10 1 11
REMARK H PARENT
REMARK Flexibility Score: inf
ROOT
ATOM      1  C   UNL     1      17.789  18.523  50.322  1.00  0.00     0.000 C 
ENDROOT
BRANCH   1   2
ATOM      2  C   UNL     1      17.894  17.240  51.165  1.00  0.00     0.006 C 
BRANCH   2   3
ATOM      3  C   UNL     1      16.641  17.005  52.018  1.00  0.00     0.053 C 
BRANCH   3   4
ATOM      4  C   UNL     1      16.579  17.944  53.186  1.00  0.00     0.041 C 
ATOM      5  O   UNL     1      15.506  18.542  53.461  1.00  0.00    -0.550 OA
ATOM      6  O   UNL     1      17.713  18.178  53.951  1.00  0.00    -0.550 OA
ENDBRANCH   3   4
ENDBRANCH   2   3
ENDBRANCH   1   2
BRANCH   1   7
ATOM      7  C   UNL     1      17.372  18.248  48.866  1.00  0.00     0.000 C 
BRANCH   7   8
ATOM      8  C   UNL     1      16.155  19.055  48.369  1.00  0.00    -0.000 C 
BRANCH   8   9
ATOM      9  C   UNL     1      14.843  18.258  48.259  1.00  0.00    -0.000 C 
BRANCH   9  10
ATOM     10  C   UNL     1      14.272  18.243  46.835  1.00  0.00    -0.003 C 
ATOM     11  C   UNL     1      14.905  17.133  46.001  1.00  0.00     0.004 C 
ENDBRANCH   9  10
ENDBRANCH   8   9
ENDBRANCH   7   8
ENDBRANCH   1   7
TORSDOF 7
ENDMDL
MODEL 9
REMARK VINA RESULT:    -2.871      3.201      5.357
REMARK INTER + INTRA:          -4.565
REMARK INTER:                  -3.925
REMARK INTRA:                  -0.640
REMARK UNBOUND:                -0.519
REMARK SMILES CCCCCCCCC(=O)[O-]
REMARK SMILES IDX 6 1 7 2 8 3 9 4 10 5 11 6 5 7 4 8 3 9 2 10 1 11
REMARK H PARENT
REMARK Flexibility Score: inf
ROOT
ATOM      1  C   UNL     1      16.317  19.286  50.245  1.00  0.00     0.000 C 
ENDROOT
BRANCH   1   2
ATOM      2  C   UNL     1      15.852  17.839  50.483  1.00  0.00     0.006 C 
BRANCH   2   3
ATOM      3  C   UNL     1      16.280  17.312  51.859  1.00  0.00     0.053 C 
BRANCH   3   4
ATOM      4  C   UNL     1      17.751  17.482  52.086  1.00  0.00     0.041 C 
ATOM      5  O   UNL     1      18.579  16.857  51.373  1.00  0.00    -0.550 OA
ATOM      6  O   UNL     1      18.206  18.310  53.104  1.00  0.00    -0.550 OA
ENDBRANCH   3   4
ENDBRANCH   2   3
ENDBRANCH   1   2
BRANCH   1   7
ATOM      7  C   UNL     1      17.195  19.433  48.990  1.00  0.00     0.000 C 
BRANCH   7   8
ATOM      8  C   UNL     1      17.356  18.151  48.149  1.00  0.00    -0.000 C 
BRANCH   8   9
ATOM      9  C   UNL     1      17.114  18.325  46.639  1.00  0.00    -0.000 C 
BRANCH   9  10
ATOM     10  C   UNL     1      15.915  17.514  46.129  1.00  0.00    -0.003 C 
ATOM     11  C   UNL     1      14.648  17.861  46.903  1.00  0.00     0.004 C 
ENDBRANCH   9  10
ENDBRANCH   8   9
ENDBRANCH   7   8
ENDBRANCH   1   7
TORSDOF 7
ENDMDL
