MODEL 1
REMARK VINA RESULT:    -4.894      0.000      0.000
REMARK INTER + INTRA:         -12.273
REMARK INTER:                  -9.186
REMARK INTRA:                  -3.086
REMARK UNBOUND:                -3.086
REMARK SMILES CCCCCCCCC=CCCCCCCCC(=O)[O-]
REMARK SMILES IDX 10 1 9 2 11 3 12 4 13 5 14 6 15 7 16 8 17 9 18 10 19 11
REMARK SMILES IDX 20 12 8 13 7 14 6 15 5 16 4 17 3 18 2 19 1 20
REMARK H PARENT
REMARK Flexibility Score: inf
ROOT
ATOM      1  C   UNL     1      26.595  16.358   1.461  1.00  0.00    -0.031 C 
ATOM      2  C   UNL     1      26.579  15.031   1.692  1.00  0.00    -0.031 C 
ENDROOT
BRANCH   1   3
ATOM      3  C   UNL     1      26.451  17.011   0.105  1.00  0.00     0.027 C 
BRANCH   3   4
ATOM      4  C   UNL     1      24.979  17.291  -0.233  1.00  0.00     0.004 C 
BRANCH   4   5
ATOM      5  C   UNL     1      24.142  17.620   1.012  1.00  0.00     0.000 C 
BRANCH   5   6
ATOM      6  C   UNL     1      22.681  17.190   0.818  1.00  0.00     0.000 C 
BRANCH   6   7
ATOM      7  C   UNL     1      22.367  15.822   1.449  1.00  0.00     0.000 C 
BRANCH   7   8
ATOM      8  C   UNL     1      22.860  15.639   2.899  1.00  0.00     0.006 C 
BRANCH   8   9
ATOM      9  C   UNL     1      22.757  14.193   3.420  1.00  0.00     0.053 C 
BRANCH   9  10
ATOM     10  C   UNL     1      23.926  13.804   4.276  1.00  0.00     0.041 C 
ATOM     11  O   UNL     1      24.690  14.688   4.748  1.00  0.00    -0.550 OA
ATOM     12  O   UNL     1      24.149  12.469   4.586  1.00  0.00    -0.550 OA
ENDBRANCH   9  10
ENDBRANCH   8   9
ENDBRANCH   7   8
ENDBRANCH   6   7
ENDBRANCH   5   6
ENDBRANCH   4   5
ENDBRANCH   3   4
ENDBRANCH   1   3
BRANCH   2  13
ATOM     13  C   UNL     1      26.452  13.965   0.633  1.00  0.00     0.027 C 
BRANCH  13  14
ATOM     14  C   UNL     1      25.040  13.359   0.611  1.00  0.00     0.004 C 
BRANCH  14  15
ATOM     15  C   UNL     1      24.371  13.469  -0.768  1.00  0.00     0.000 C 
BRANCH  15  16
ATOM     16  C   UNL     1      22.918  12.962  -0.757  1.00  0.00     0.000 C 
BRANCH  16  17
ATOM     17  C   UNL     1      21.976  13.819  -1.622  1.00  0.00    -0.000 C 
BRANCH  17  18
ATOM     18  C   UNL     1      22.649  14.537  -2.806  1.00  0.00    -0.000 C 
BRANCH  18  19
ATOM     19  C   UNL     1      22.569  16.067  -2.703  1.00  0.00    -0.003 C 
ATOM     20  C   UNL     1      21.120  16.537  -2.604  1.00  0.00     0.004 C 
ENDBRANCH  18  19
ENDBRANCH  17  18
ENDBRANCH  16  17
ENDBRANCH  15  16
ENDBRANCH  14  15
ENDBRANCH  13  14
ENDBRANCH   2  13
TORSDOF 15
ENDMDL
MODEL 2
REMARK VINA RESULT:    -4.876      2.750      5.750
REMARK INTER + INTRA:         -12.239
REMARK INTER:                  -9.717
REMARK INTRA:                  -2.522
REMARK UNBOUND:                -3.086
REMARK SMILES CCCCCCCCC=CCCCCCCCC(=O)[O-]
REMARK SMILES IDX 10 1 9 2 11 3 12 4 13 5 14 6 15 7 16 8 17 9 18 10 19 11
REMARK SMILES IDX 20 12 8 13 7 14 6 15 5 16 4 17 3 18 2 19 1 20
REMARK H PARENT
REMARK Flexibility Score: inf
ROOT
ATOM      1  C   UNL     1      21.546  16.483   0.765  1.00  0.00    -0.031 C 
ATOM      2  C   UNL     1      22.320  16.070   1.788  1.00  0.00    -0.031 C 
ENDROOT
BRANCH   1   3
ATOM      3  C   UNL     1      22.037  17.213  -0.464  1.00  0.00     0.027 C 
BRANCH   3   4
ATOM      4  C   UNL     1      21.529  16.553  -1.754  1.00  0.00     0.004 C 
BRANCH   4   5
ATOM      5  C   UNL     1      22.675  16.074  -2.658  1.00  0.00     0.000 C 
BRANCH   5   6
ATOM      6  C   UNL     1      22.510  14.587  -3.007  1.00  0.00     0.000 C 
BRANCH   6   7
ATOM      7  C   UNL     1      21.923  13.759  -1.851  1.00  0.00     0.000 C 
BRANCH   7   8
ATOM      8  C   UNL     1      22.942  12.905  -1.070  1.00  0.00     0.006 C 
BRANCH   8   9
ATOM      9  C   UNL     1      23.503  11.711  -1.866  1.00  0.00     0.053 C 
BRANCH   9  10
ATOM     10  C   UNL     1      22.488  10.627  -2.072  1.00  0.00     0.041 C 
ATOM     11  O   UNL     1      22.450   9.989  -3.157  1.00  0.00    -0.550 OA
ATOM     12  O   UNL     1      21.609  10.292  -1.049  1.00  0.00    -0.550 OA
ENDBRANCH   9  10
ENDBRANCH   8   9
ENDBRANCH   7   8
ENDBRANCH   6   7
ENDBRANCH   5   6
ENDBRANCH   4   5
ENDBRANCH   3   4
ENDBRANCH   1   3
BRANCH   2  13
ATOM     13  C   UNL     1      23.806  16.297   1.900  1.00  0.00     0.027 C 
BRANCH  13  14
ATOM     14  C   UNL     1      24.602  15.128   1.299  1.00  0.00     0.004 C 
BRANCH  14  15
ATOM     15  C   UNL     1      25.341  15.518   0.009  1.00  0.00     0.000 C 
BRANCH  15  16
ATOM     16  C   UNL     1      25.742  17.004  -0.010  1.00  0.00     0.000 C 
BRANCH  16  17
ATOM     17  C   UNL     1      27.209  17.235   0.397  1.00  0.00    -0.000 C 
BRANCH  17  18
ATOM     18  C   UNL     1      27.476  17.221   1.913  1.00  0.00    -0.000 C 
BRANCH  18  19
ATOM     19  C   UNL     1      28.505  16.160   2.330  1.00  0.00    -0.003 C 
ATOM     20  C   UNL     1      29.122  15.483   1.110  1.00  0.00     0.004 C 
ENDBRANCH  18  19
ENDBRANCH  17  18
ENDBRANCH  16  17
ENDBRANCH  15  16
ENDBRANCH  14  15
ENDBRANCH  13  14
ENDBRANCH   2  13
TORSDOF 15
ENDMDL
MODEL 3
REMARK VINA RESULT:    -4.872      1.142      3.697
REMARK INTER + INTRA:         -12.230
REMARK INTER:                  -9.157
REMARK INTRA:                  -3.073
REMARK UNBOUND:                -3.086
REMARK SMILES CCCCCCCCC=CCCCCCCCC(=O)[O-]
REMARK SMILES IDX 10 1 9 2 11 3 12 4 13 5 14 6 15 7 16 8 17 9 18 10 19 11
REMARK SMILES IDX 20 12 8 13 7 14 6 15 5 16 4 17 3 18 2 19 1 20
REMARK H PARENT
REMARK Flexibility Score: inf
ROOT
ATOM      1  C   UNL     1      22.845  13.510  -2.782  1.00  0.00    -0.031 C 
ATOM      2  C   UNL     1      23.134  12.336  -2.185  1.00  0.00    -0.031 C 
ENDROOT
BRANCH   1   3
ATOM      3  C   UNL     1      21.897  14.556  -2.241  1.00  0.00     0.027 C 
BRANCH   3   4
ATOM      4  C   UNL     1      22.479  15.970  -2.379  1.00  0.00     0.004 C 
BRANCH   4   5
ATOM      5  C   UNL     1      21.870  16.957  -1.372  1.00  0.00     0.000 C 
BRANCH   5   6
ATOM      6  C   UNL     1      21.316  16.215  -0.147  1.00  0.00     0.000 C 
BRANCH   6   7
ATOM      7  C   UNL     1      22.044  16.580   1.159  1.00  0.00     0.000 C 
BRANCH   7   8
ATOM      8  C   UNL     1      22.374  15.392   2.083  1.00  0.00     0.006 C 
BRANCH   8   9
ATOM      9  C   UNL     1      23.435  15.704   3.156  1.00  0.00     0.053 C 
BRANCH   9  10
ATOM     10  C   UNL     1      23.771  14.510   3.999  1.00  0.00     0.041 C 
ATOM     11  O   UNL     1      23.139  13.430   3.851  1.00  0.00    -0.550 OA
ATOM     12  O   UNL     1      24.809  14.576   4.919  1.00  0.00    -0.550 OA
ENDBRANCH   9  10
ENDBRANCH   8   9
ENDBRANCH   7   8
ENDBRANCH   6   7
ENDBRANCH   5   6
ENDBRANCH   4   5
ENDBRANCH   3   4
ENDBRANCH   1   3
BRANCH   2  13
ATOM     13  C   UNL     1      22.534  11.848  -0.891  1.00  0.00     0.027 C 
BRANCH  13  14
ATOM     14  C   UNL     1      23.190  12.522   0.324  1.00  0.00     0.004 C 
BRANCH  14  15
ATOM     15  C   UNL     1      24.695  12.224   0.423  1.00  0.00     0.000 C 
BRANCH  15  16
ATOM     16  C   UNL     1      25.518  13.475   0.776  1.00  0.00     0.000 C 
BRANCH  16  17
ATOM     17  C   UNL     1      25.139  14.703  -0.072  1.00  0.00    -0.000 C 
BRANCH  17  18
ATOM     18  C   UNL     1      26.156  15.858  -0.038  1.00  0.00    -0.000 C 
BRANCH  18  19
ATOM     19  C   UNL     1      25.510  17.232  -0.270  1.00  0.00    -0.003 C 
ATOM     20  C   UNL     1      25.506  18.061   1.011  1.00  0.00     0.004 C 
ENDBRANCH  18  19
ENDBRANCH  17  18
ENDBRANCH  16  17
ENDBRANCH  15  16
ENDBRANCH  14  15
ENDBRANCH  13  14
ENDBRANCH   2  13
TORSDOF 15
ENDMDL
MODEL 4
REMARK VINA RESULT:    -4.842      2.496      4.786
REMARK INTER + INTRA:         -12.174
REMARK INTER:                  -9.210
REMARK INTRA:                  -2.964
REMARK UNBOUND:                -3.086
REMARK SMILES CCCCCCCCC=CCCCCCCCC(=O)[O-]
REMARK SMILES IDX 10 1 9 2 11 3 12 4 13 5 14 6 15 7 16 8 17 9 18 10 19 11
REMARK SMILES IDX 20 12 8 13 7 14 6 15 5 16 4 17 3 18 2 19 1 20
REMARK H PARENT
REMARK Flexibility Score: inf
ROOT
ATOM      1  C   UNL     1      23.073  16.380   2.489  1.00  0.00    -0.031 C 
ATOM      2  C   UNL     1      23.466  15.440   3.371  1.00  0.00    -0.031 C 
ENDROOT
BRANCH   1   3
ATOM      3  C   UNL     1      22.093  16.163   1.359  1.00  0.00     0.027 C 
BRANCH   3   4
ATOM      4  C   UNL     1      22.414  17.057   0.153  1.00  0.00     0.004 C 
BRANCH   4   5
ATOM      5  C   UNL     1      21.619  16.661  -1.100  1.00  0.00     0.000 C 
BRANCH   5   6
ATOM      6  C   UNL     1      22.553  16.114  -2.190  1.00  0.00     0.000 C 
BRANCH   6   7
ATOM      7  C   UNL     1      22.062  14.786  -2.791  1.00  0.00     0.000 C 
BRANCH   7   8
ATOM      8  C   UNL     1      22.081  13.581  -1.830  1.00  0.00     0.006 C 
BRANCH   8   9
ATOM      9  C   UNL     1      22.954  12.406  -2.310  1.00  0.00     0.053 C 
BRANCH   9  10
ATOM     10  C   UNL     1      22.389  11.072  -1.919  1.00  0.00     0.041 C 
ATOM     11  O   UNL     1      21.831  10.921  -0.800  1.00  0.00    -0.550 OA
ATOM     12  O   UNL     1      22.443  10.006  -2.808  1.00  0.00    -0.550 OA
ENDBRANCH   9  10
ENDBRANCH   8   9
ENDBRANCH   7   8
ENDBRANCH   6   7
ENDBRANCH   5   6
ENDBRANCH   4   5
ENDBRANCH   3   4
ENDBRANCH   1   3
BRANCH   2  13
ATOM     13  C   UNL     1      23.024  13.998   3.360  1.00  0.00     0.027 C 
BRANCH  13  14
ATOM     14  C   UNL     1      24.112  13.080   2.781  1.00  0.00     0.004 C 
BRANCH  14  15
ATOM     15  C   UNL     1      23.974  12.884   1.263  1.00  0.00     0.000 C 
BRANCH  15  16
ATOM     16  C   UNL     1      25.262  13.253   0.506  1.00  0.00     0.000 C 
BRANCH  16  17
ATOM     17  C   UNL     1      25.235  14.684  -0.063  1.00  0.00    -0.000 C 
BRANCH  17  18
ATOM     18  C   UNL     1      26.197  15.675   0.619  1.00  0.00    -0.000 C 
BRANCH  18  19
ATOM     19  C   UNL     1      26.218  17.052  -0.060  1.00  0.00    -0.003 C 
ATOM     20  C   UNL     1      25.831  18.155   0.921  1.00  0.00     0.004 C 
ENDBRANCH  18  19
ENDBRANCH  17  18
ENDBRANCH  16  17
ENDBRANCH  15  16
ENDBRANCH  14  15
ENDBRANCH  13  14
ENDBRANCH   2  13
TORSDOF 15
ENDMDL
MODEL 5
REMARK VINA RESULT:    -4.805      2.159      4.798
REMARK INTER + INTRA:         -12.104
REMARK INTER:                  -9.400
REMARK INTRA:                  -2.704
REMARK UNBOUND:                -3.086
REMARK SMILES CCCCCCCCC=CCCCCCCCC(=O)[O-]
REMARK SMILES IDX 10 1 9 2 11 3 12 4 13 5 14 6 15 7 16 8 17 9 18 10 19 11
REMARK SMILES IDX 20 12 8 13 7 14 6 15 5 16 4 17 3 18 2 19 1 20
REMARK H PARENT
REMARK Flexibility Score: inf
ROOT
ATOM      1  C   UNL     1      23.146  16.372   2.104  1.00  0.00    -0.031 C 
ATOM      2  C   UNL     1      22.604  16.993   1.037  1.00  0.00    -0.031 C 
ENDROOT
BRANCH   1   3
ATOM      3  C   UNL     1      22.648  15.078   2.708  1.00  0.00     0.027 C 
BRANCH   3   4
ATOM      4  C   UNL     1      23.767  14.030   2.798  1.00  0.00     0.004 C 
BRANCH   4   5
ATOM      5  C   UNL     1      25.135  14.594   2.389  1.00  0.00     0.000 C 
BRANCH   5   6
ATOM      6  C   UNL     1      25.898  13.594   1.507  1.00  0.00     0.000 C 
BRANCH   6   7
ATOM      7  C   UNL     1      26.457  14.230   0.223  1.00  0.00     0.000 C 
BRANCH   7   8
ATOM      8  C   UNL     1      26.259  15.755   0.103  1.00  0.00     0.006 C 
BRANCH   8   9
ATOM      9  C   UNL     1      27.573  16.558   0.057  1.00  0.00     0.053 C 
BRANCH   9  10
ATOM     10  C   UNL     1      28.545  16.134   1.118  1.00  0.00     0.041 C 
ATOM     11  O   UNL     1      29.627  15.574   0.801  1.00  0.00    -0.550 OA
ATOM     12  O   UNL     1      28.274  16.394   2.456  1.00  0.00    -0.550 OA
ENDBRANCH   9  10
ENDBRANCH   8   9
ENDBRANCH   7   8
ENDBRANCH   6   7
ENDBRANCH   5   6
ENDBRANCH   4   5
ENDBRANCH   3   4
ENDBRANCH   1   3
BRANCH   2  13
ATOM     13  C   UNL     1      21.384  16.524   0.285  1.00  0.00     0.027 C 
BRANCH  13  14
ATOM     14  C   UNL     1      21.533  16.752  -1.227  1.00  0.00     0.004 C 
BRANCH  14  15
ATOM     15  C   UNL     1      22.776  16.059  -1.809  1.00  0.00     0.000 C 
BRANCH  15  16
ATOM     16  C   UNL     1      22.467  14.646  -2.333  1.00  0.00     0.000 C 
BRANCH  16  17
ATOM     17  C   UNL     1      23.398  13.570  -1.743  1.00  0.00    -0.000 C 
BRANCH  17  18
ATOM     18  C   UNL     1      22.835  12.818  -0.523  1.00  0.00    -0.000 C 
BRANCH  18  19
ATOM     19  C   UNL     1      23.096  11.306  -0.578  1.00  0.00    -0.003 C 
ATOM     20  C   UNL     1      21.921  10.567  -1.212  1.00  0.00     0.004 C 
ENDBRANCH  18  19
ENDBRANCH  17  18
ENDBRANCH  16  17
ENDBRANCH  15  16
ENDBRANCH  14  15
ENDBRANCH  13  14
ENDBRANCH   2  13
TORSDOF 15
ENDMDL
MODEL 6
REMARK VINA RESULT:    -4.794      2.492      4.696
REMARK INTER + INTRA:         -12.084
REMARK INTER:                  -9.426
REMARK INTRA:                  -2.658
REMARK UNBOUND:                -3.086
REMARK SMILES CCCCCCCCC=CCCCCCCCC(=O)[O-]
REMARK SMILES IDX 10 1 9 2 11 3 12 4 13 5 14 6 15 7 16 8 17 9 18 10 19 11
REMARK SMILES IDX 20 12 8 13 7 14 6 15 5 16 4 17 3 18 2 19 1 20
REMARK H PARENT
REMARK Flexibility Score: inf
ROOT
ATOM      1  C   UNL     1      21.478  16.550   0.391  1.00  0.00    -0.031 C 
ATOM      2  C   UNL     1      21.386  16.060  -0.860  1.00  0.00    -0.031 C 
ENDROOT
BRANCH   1   3
ATOM      3  C   UNL     1      22.742  16.610   1.217  1.00  0.00     0.027 C 
BRANCH   3   4
ATOM      4  C   UNL     1      22.569  15.900   2.568  1.00  0.00     0.004 C 
BRANCH   4   5
ATOM      5  C   UNL     1      23.547  14.729   2.745  1.00  0.00     0.000 C 
BRANCH   5   6
ATOM      6  C   UNL     1      23.083  13.504   1.945  1.00  0.00     0.000 C 
BRANCH   6   7
ATOM      7  C   UNL     1      24.074  13.095   0.842  1.00  0.00     0.000 C 
BRANCH   7   8
ATOM      8  C   UNL     1      25.480  13.717   0.957  1.00  0.00     0.006 C 
BRANCH   8   9
ATOM      9  C   UNL     1      25.763  14.828  -0.073  1.00  0.00     0.053 C 
BRANCH   9  10
ATOM     10  C   UNL     1      27.183  15.310  -0.024  1.00  0.00     0.041 C 
ATOM     11  O   UNL     1      28.134  14.484  -0.005  1.00  0.00    -0.550 OA
ATOM     12  O   UNL     1      27.457  16.672  -0.043  1.00  0.00    -0.550 OA
ENDBRANCH   9  10
ENDBRANCH   8   9
ENDBRANCH   7   8
ENDBRANCH   6   7
ENDBRANCH   5   6
ENDBRANCH   4   5
ENDBRANCH   3   4
ENDBRANCH   1   3
BRANCH   2  13
ATOM     13  C   UNL     1      22.524  15.450  -1.641  1.00  0.00     0.027 C 
BRANCH  13  14
ATOM     14  C   UNL     1      22.162  14.050  -2.162  1.00  0.00     0.004 C 
BRANCH  14  15
ATOM     15  C   UNL     1      22.503  13.867  -3.649  1.00  0.00     0.000 C 
BRANCH  15  16
ATOM     16  C   UNL     1      23.291  12.573  -3.915  1.00  0.00     0.000 C 
BRANCH  16  17
ATOM     17  C   UNL     1      24.196  12.168  -2.737  1.00  0.00    -0.000 C 
BRANCH  17  18
ATOM     18  C   UNL     1      23.964  10.746  -2.193  1.00  0.00    -0.000 C 
BRANCH  18  19
ATOM     19  C   UNL     1      22.495  10.305  -2.277  1.00  0.00    -0.003 C 
ATOM     20  C   UNL     1      21.768  10.562  -0.961  1.00  0.00     0.004 C 
ENDBRANCH  18  19
ENDBRANCH  17  18
ENDBRANCH  16  17
ENDBRANCH  15  16
ENDBRANCH  14  15
ENDBRANCH  13  14
ENDBRANCH   2  13
TORSDOF 15
ENDMDL
MODEL 7
REMARK VINA RESULT:    -4.741      2.207      5.379
REMARK INTER + INTRA:         -11.985
REMARK INTER:                  -9.255
REMARK INTRA:                  -2.731
REMARK UNBOUND:                -3.086
REMARK SMILES CCCCCCCCC=CCCCCCCCC(=O)[O-]
REMARK SMILES IDX 10 1 9 2 11 3 12 4 13 5 14 6 15 7 16 8 17 9 18 10 19 11
REMARK SMILES IDX 20 12 8 13 7 14 6 15 5 16 4 17 3 18 2 19 1 20
REMARK H PARENT
REMARK Flexibility Score: inf
ROOT
ATOM      1  C   UNL     1      23.754  11.283  -3.124  1.00  0.00    -0.031 C 
ATOM      2  C   UNL     1      23.760  12.488  -3.728  1.00  0.00    -0.031 C 
ENDROOT
BRANCH   1   3
ATOM      3  C   UNL     1      22.520  10.539  -2.670  1.00  0.00     0.027 C 
BRANCH   3   4
ATOM      4  C   UNL     1      22.224  10.789  -1.184  1.00  0.00     0.004 C 
BRANCH   4   5
ATOM      5  C   UNL     1      23.460  11.275  -0.413  1.00  0.00     0.000 C 
BRANCH   5   6
ATOM      6  C   UNL     1      23.180  12.617   0.279  1.00  0.00     0.000 C 
BRANCH   6   7
ATOM      7  C   UNL     1      24.461  13.350   0.714  1.00  0.00     0.000 C 
BRANCH   7   8
ATOM      8  C   UNL     1      25.049  14.322  -0.329  1.00  0.00     0.006 C 
BRANCH   8   9
ATOM      9  C   UNL     1      26.485  14.785  -0.017  1.00  0.00     0.053 C 
BRANCH   9  10
ATOM     10  C   UNL     1      26.523  16.112   0.681  1.00  0.00     0.041 C 
ATOM     11  O   UNL     1      26.446  16.172   1.937  1.00  0.00    -0.550 OA
ATOM     12  O   UNL     1      26.686  17.281  -0.052  1.00  0.00    -0.550 OA
ENDBRANCH   9  10
ENDBRANCH   8   9
ENDBRANCH   7   8
ENDBRANCH   6   7
ENDBRANCH   5   6
ENDBRANCH   4   5
ENDBRANCH   3   4
ENDBRANCH   1   3
BRANCH   2  13
ATOM     13  C   UNL     1      22.536  13.320  -4.021  1.00  0.00     0.027 C 
BRANCH  13  14
ATOM     14  C   UNL     1      22.150  14.194  -2.817  1.00  0.00     0.004 C 
BRANCH  14  15
ATOM     15  C   UNL     1      22.530  15.670  -3.012  1.00  0.00     0.000 C 
BRANCH  15  16
ATOM     16  C   UNL     1      21.991  16.567  -1.885  1.00  0.00     0.000 C 
BRANCH  16  17
ATOM     17  C   UNL     1      21.500  15.769  -0.663  1.00  0.00    -0.000 C 
BRANCH  17  18
ATOM     18  C   UNL     1      21.460  16.557   0.659  1.00  0.00    -0.000 C 
BRANCH  18  19
ATOM     19  C   UNL     1      22.853  16.782   1.265  1.00  0.00    -0.003 C 
ATOM     20  C   UNL     1      22.947  16.180   2.665  1.00  0.00     0.004 C 
ENDBRANCH  18  19
ENDBRANCH  17  18
ENDBRANCH  16  17
ENDBRANCH  15  16
ENDBRANCH  14  15
ENDBRANCH  13  14
ENDBRANCH   2  13
TORSDOF 15
ENDMDL
MODEL 8
REMARK VINA RESULT:    -4.740      2.315      5.719
REMARK INTER + INTRA:         -11.984
REMARK INTER:                  -8.876
REMARK INTRA:                  -3.107
REMARK UNBOUND:                -3.086
REMARK SMILES CCCCCCCCC=CCCCCCCCC(=O)[O-]
REMARK SMILES IDX 10 1 9 2 11 3 12 4 13 5 14 6 15 7 16 8 17 9 18 10 19 11
REMARK SMILES IDX 20 12 8 13 7 14 6 15 5 16 4 17 3 18 2 19 1 20
REMARK H PARENT
REMARK Flexibility Score: inf
ROOT
ATOM      1  C   UNL     1      22.657  14.117  -2.909  1.00  0.00    -0.031 C 
ATOM      2  C   UNL     1      22.491  15.375  -2.455  1.00  0.00    -0.031 C 
ENDROOT
BRANCH   1   3
ATOM      3  C   UNL     1      22.263  12.860  -2.167  1.00  0.00     0.027 C 
BRANCH   3   4
ATOM      4  C   UNL     1      23.433  11.870  -2.072  1.00  0.00     0.004 C 
BRANCH   4   5
ATOM      5  C   UNL     1      23.646  11.348  -0.644  1.00  0.00     0.000 C 
BRANCH   5   6
ATOM      6  C   UNL     1      23.609  12.500   0.371  1.00  0.00     0.000 C 
BRANCH   6   7
ATOM      7  C   UNL     1      25.000  13.091   0.661  1.00  0.00     0.000 C 
BRANCH   7   8
ATOM      8  C   UNL     1      25.289  14.451  -0.007  1.00  0.00     0.006 C 
BRANCH   8   9
ATOM      9  C   UNL     1      26.030  15.452   0.900  1.00  0.00     0.053 C 
BRANCH   9  10
ATOM     10  C   UNL     1      26.661  16.571   0.127  1.00  0.00     0.041 C 
ATOM     11  O   UNL     1      26.003  17.614  -0.133  1.00  0.00    -0.550 OA
ATOM     12  O   UNL     1      27.989  16.481  -0.270  1.00  0.00    -0.550 OA
ENDBRANCH   9  10
ENDBRANCH   8   9
ENDBRANCH   7   8
ENDBRANCH   6   7
ENDBRANCH   5   6
ENDBRANCH   4   5
ENDBRANCH   3   4
ENDBRANCH   1   3
BRANCH   2  13
ATOM     13  C   UNL     1      21.918  15.746  -1.111  1.00  0.00     0.027 C 
BRANCH  13  14
ATOM     14  C   UNL     1      22.551  17.035  -0.565  1.00  0.00     0.004 C 
BRANCH  14  15
ATOM     15  C   UNL     1      22.651  17.042   0.968  1.00  0.00     0.000 C 
BRANCH  15  16
ATOM     16  C   UNL     1      22.148  15.729   1.594  1.00  0.00     0.000 C 
BRANCH  16  17
ATOM     17  C   UNL     1      22.764  15.448   2.977  1.00  0.00    -0.000 C 
BRANCH  17  18
ATOM     18  C   UNL     1      22.539  14.023   3.514  1.00  0.00    -0.000 C 
BRANCH  18  19
ATOM     19  C   UNL     1      23.745  13.480   4.295  1.00  0.00    -0.003 C 
ATOM     20  C   UNL     1      24.809  14.558   4.482  1.00  0.00     0.004 C 
ENDBRANCH  18  19
ENDBRANCH  17  18
ENDBRANCH  16  17
ENDBRANCH  15  16
ENDBRANCH  14  15
ENDBRANCH  13  14
ENDBRANCH   2  13
TORSDOF 15
ENDMDL
MODEL 9
REMARK VINA RESULT:    -4.681      2.850      5.672
REMARK INTER + INTRA:         -11.873
REMARK INTER:                  -8.841
REMARK INTRA:                  -3.032
REMARK UNBOUND:                -3.086
REMARK SMILES CCCCCCCCC=CCCCCCCCC(=O)[O-]
REMARK SMILES IDX 10 1 9 2 11 3 12 4 13 5 14 6 15 7 16 8 17 9 18 10 19 11
REMARK SMILES IDX 20 12 8 13 7 14 6 15 5 16 4 17 3 18 2 19 1 20
REMARK H PARENT
REMARK Flexibility Score: inf
ROOT
ATOM      1  C   UNL     1      23.395  13.849   3.719  1.00  0.00    -0.031 C 
ATOM      2  C   UNL     1      22.514  14.778   3.301  1.00  0.00    -0.031 C 
ENDROOT
BRANCH   1   3
ATOM      3  C   UNL     1      24.865  14.091   3.976  1.00  0.00     0.027 C 
BRANCH   3   4
ATOM      4  C   UNL     1      25.698  13.918   2.697  1.00  0.00     0.004 C 
BRANCH   4   5
ATOM      5  C   UNL     1      25.188  12.769   1.814  1.00  0.00     0.000 C 
BRANCH   5   6
ATOM      6  C   UNL     1      24.979  13.242   0.369  1.00  0.00     0.000 C 
BRANCH   6   7
ATOM      7  C   UNL     1      23.494  13.391  -0.007  1.00  0.00     0.000 C 
BRANCH   7   8
ATOM      8  C   UNL     1      23.225  14.007  -1.395  1.00  0.00     0.006 C 
BRANCH   8   9
ATOM      9  C   UNL     1      21.818  14.615  -1.551  1.00  0.00     0.053 C 
BRANCH   9  10
ATOM     10  C   UNL     1      21.814  15.844  -2.410  1.00  0.00     0.041 C 
ATOM     11  O   UNL     1      21.420  16.946  -1.942  1.00  0.00    -0.550 OA
ATOM     12  O   UNL     1      22.283  15.783  -3.716  1.00  0.00    -0.550 OA
ENDBRANCH   9  10
ENDBRANCH   8   9
ENDBRANCH   7   8
ENDBRANCH   6   7
ENDBRANCH   5   6
ENDBRANCH   4   5
ENDBRANCH   3   4
ENDBRANCH   1   3
BRANCH   2  13
ATOM     13  C   UNL     1      22.850  16.213   2.979  1.00  0.00     0.027 C 
BRANCH  13  14
ATOM     14  C   UNL     1      22.497  16.561   1.525  1.00  0.00     0.004 C 
BRANCH  14  15
ATOM     15  C   UNL     1      23.436  17.621   0.926  1.00  0.00     0.000 C 
BRANCH  15  16
ATOM     16  C   UNL     1      24.616  16.994   0.163  1.00  0.00     0.000 C 
BRANCH  16  17
ATOM     17  C   UNL     1      25.945  17.081   0.935  1.00  0.00    -0.000 C 
BRANCH  17  18
ATOM     18  C   UNL     1      27.212  17.012   0.063  1.00  0.00    -0.000 C 
BRANCH  18  19
ATOM     19  C   UNL     1      27.736  15.579  -0.120  1.00  0.00    -0.003 C 
ATOM     20  C   UNL     1      28.734  15.215   0.975  1.00  0.00     0.004 C 
ENDBRANCH  18  19
ENDBRANCH  17  18
ENDBRANCH  16  17
ENDBRANCH  15  16
ENDBRANCH  14  15
ENDBRANCH  13  14
ENDBRANCH   2  13
TORSDOF 15
ENDMDL
