MODEL 1
REMARK VINA RESULT:    -3.863      0.000      0.000
REMARK INTER + INTRA:          -6.436
REMARK INTER:                  -5.669
REMARK INTRA:                  -0.766
REMARK UNBOUND:                -0.766
REMARK SMILES O=C([O-])CCCCCCCC(=O)[O-]
REMARK SMILES IDX 7 1 6 2 5 3 4 4 2 5 1 6 3 7 8 8 9 9 10 10 11 11 12 12 13 13
REMARK H PARENT
REMARK Flexibility Score: inf
ROOT
ATOM      1  C   UNL     1       7.546  -2.848  -7.417  1.00  0.00     0.000 C 
ENDROOT
BRANCH   1   2
ATOM      2  C   UNL     1       6.441  -3.098  -8.454  1.00  0.00     0.000 C 
BRANCH   2   3
ATOM      3  C   UNL     1       5.061  -2.759  -7.878  1.00  0.00     0.006 C 
BRANCH   3   4
ATOM      4  C   UNL     1       4.090  -3.931  -8.049  1.00  0.00     0.053 C 
BRANCH   4   5
ATOM      5  C   UNL     1       3.385  -4.219  -6.762  1.00  0.00     0.041 C 
ATOM      6  O   UNL     1       3.886  -3.850  -5.668  1.00  0.00    -0.550 OA
ATOM      7  O   UNL     1       2.148  -4.852  -6.773  1.00  0.00    -0.550 OA
ENDBRANCH   4   5
ENDBRANCH   3   4
ENDBRANCH   2   3
ENDBRANCH   1   2
BRANCH   1   8
ATOM      8  C   UNL     1       7.436  -3.779  -6.199  1.00  0.00     0.000 C 
BRANCH   8   9
ATOM      9  C   UNL     1       7.311  -5.259  -6.594  1.00  0.00     0.006 C 
BRANCH   9  10
ATOM     10  C   UNL     1       6.602  -6.060  -5.498  1.00  0.00     0.053 C 
BRANCH  10  11
ATOM     11  C   UNL     1       5.981  -7.296  -6.071  1.00  0.00     0.041 C 
ATOM     12  O   UNL     1       4.958  -7.212  -6.800  1.00  0.00    -0.550 OA
ATOM     13  O   UNL     1       6.506  -8.544  -5.761  1.00  0.00    -0.550 OA
ENDBRANCH  10  11
ENDBRANCH   9  10
ENDBRANCH   8   9
ENDBRANCH   1   8
TORSDOF 8
ENDMDL
MODEL 2
REMARK VINA RESULT:    -3.818      1.267      3.633
REMARK INTER + INTRA:          -6.370
REMARK INTER:                  -5.512
REMARK INTRA:                  -0.859
REMARK UNBOUND:                -0.766
REMARK SMILES O=C([O-])CCCCCCCC(=O)[O-]
REMARK SMILES IDX 7 1 6 2 5 3 4 4 2 5 1 6 3 7 8 8 9 9 10 10 11 11 12 12 13 13
REMARK H PARENT
REMARK Flexibility Score: inf
ROOT
ATOM      1  C   UNL     1       7.214  -3.004  -6.813  1.00  0.00     0.000 C 
ENDROOT
BRANCH   1   2
ATOM      2  C   UNL     1       8.343  -4.039  -6.705  1.00  0.00     0.000 C 
BRANCH   2   3
ATOM      3  C   UNL     1       7.872  -5.418  -7.183  1.00  0.00     0.006 C 
BRANCH   3   4
ATOM      4  C   UNL     1       7.759  -6.398  -6.011  1.00  0.00     0.053 C 
BRANCH   4   5
ATOM      5  C   UNL     1       6.331  -6.550  -5.592  1.00  0.00     0.041 C 
ATOM      6  O   UNL     1       5.796  -5.693  -4.840  1.00  0.00    -0.550 OA
ATOM      7  O   UNL     1       5.575  -7.613  -6.071  1.00  0.00    -0.550 OA
ENDBRANCH   4   5
ENDBRANCH   3   4
ENDBRANCH   2   3
ENDBRANCH   1   2
BRANCH   1   8
ATOM      8  C   UNL     1       6.747  -2.786  -8.260  1.00  0.00     0.000 C 
BRANCH   8   9
ATOM      9  C   UNL     1       5.216  -2.758  -8.391  1.00  0.00     0.006 C 
BRANCH   9  10
ATOM     10  C   UNL     1       4.549  -3.306  -7.125  1.00  0.00     0.053 C 
BRANCH  10  11
ATOM     11  C   UNL     1       3.749  -4.530  -7.443  1.00  0.00     0.041 C 
ATOM     12  O   UNL     1       2.652  -4.739  -6.861  1.00  0.00    -0.550 OA
ATOM     13  O   UNL     1       4.237  -5.463  -8.349  1.00  0.00    -0.550 OA
ENDBRANCH  10  11
ENDBRANCH   9  10
ENDBRANCH   8   9
ENDBRANCH   1   8
TORSDOF 8
ENDMDL
MODEL 3
REMARK VINA RESULT:    -3.660      1.420      3.404
REMARK INTER + INTRA:          -6.138
REMARK INTER:                  -5.195
REMARK INTRA:                  -0.942
REMARK UNBOUND:                -0.766
REMARK SMILES O=C([O-])CCCCCCCC(=O)[O-]
REMARK SMILES IDX 7 1 6 2 5 3 4 4 2 5 1 6 3 7 8 8 9 9 10 10 11 11 12 12 13 13
REMARK H PARENT
REMARK Flexibility Score: inf
ROOT
ATOM      1  C   UNL     1       5.461  -3.110  -8.218  1.00  0.00     0.000 C 
ENDROOT
BRANCH   1   2
ATOM      2  C   UNL     1       6.899  -3.099  -7.681  1.00  0.00     0.000 C 
BRANCH   2   3
ATOM      3  C   UNL     1       6.970  -3.740  -6.289  1.00  0.00     0.006 C 
BRANCH   3   4
ATOM      4  C   UNL     1       7.636  -5.118  -6.351  1.00  0.00     0.053 C 
BRANCH   4   5
ATOM      5  C   UNL     1       6.804  -6.134  -5.635  1.00  0.00     0.041 C 
ATOM      6  O   UNL     1       5.764  -5.783  -5.019  1.00  0.00    -0.550 OA
ATOM      7  O   UNL     1       7.150  -7.479  -5.688  1.00  0.00    -0.550 OA
ENDBRANCH   4   5
ENDBRANCH   3   4
ENDBRANCH   2   3
ENDBRANCH   1   2
BRANCH   1   8
ATOM      8  C   UNL     1       4.414  -3.283  -7.106  1.00  0.00     0.000 C 
BRANCH   8   9
ATOM      9  C   UNL     1       3.470  -4.468  -7.360  1.00  0.00     0.006 C 
BRANCH   9  10
ATOM     10  C   UNL     1       3.979  -5.334  -8.517  1.00  0.00     0.053 C 
BRANCH  10  11
ATOM     11  C   UNL     1       4.166  -6.749  -8.068  1.00  0.00     0.041 C 
ATOM     12  O   UNL     1       3.373  -7.260  -7.234  1.00  0.00    -0.550 OA
ATOM     13  O   UNL     1       5.245  -7.490  -8.536  1.00  0.00    -0.550 OA
ENDBRANCH  10  11
ENDBRANCH   9  10
ENDBRANCH   8   9
ENDBRANCH   1   8
TORSDOF 8
ENDMDL
MODEL 4
REMARK VINA RESULT:    -3.653      1.637      2.514
REMARK INTER + INTRA:          -6.127
REMARK INTER:                  -5.296
REMARK INTRA:                  -0.831
REMARK UNBOUND:                -0.766
REMARK SMILES O=C([O-])CCCCCCCC(=O)[O-]
REMARK SMILES IDX 7 1 6 2 5 3 4 4 2 5 1 6 3 7 8 8 9 9 10 10 11 11 12 12 13 13
REMARK H PARENT
REMARK Flexibility Score: inf
ROOT
ATOM      1  C   UNL     1       5.094  -2.635  -8.396  1.00  0.00     0.000 C 
ENDROOT
BRANCH   1   2
ATOM      2  C   UNL     1       4.410  -3.014  -9.718  1.00  0.00     0.000 C 
BRANCH   2   3
ATOM      3  C   UNL     1       3.383  -4.133  -9.503  1.00  0.00     0.006 C 
BRANCH   3   4
ATOM      4  C   UNL     1       4.070  -5.441  -9.099  1.00  0.00     0.053 C 
BRANCH   4   5
ATOM      5  C   UNL     1       3.521  -5.941  -7.800  1.00  0.00     0.041 C 
ATOM      6  O   UNL     1       3.672  -7.146  -7.470  1.00  0.00    -0.550 OA
ATOM      7  O   UNL     1       2.886  -5.063  -6.930  1.00  0.00    -0.550 OA
ENDBRANCH   4   5
ENDBRANCH   3   4
ENDBRANCH   2   3
ENDBRANCH   1   2
BRANCH   1   8
ATOM      8  C   UNL     1       6.628  -2.665  -8.493  1.00  0.00     0.000 C 
BRANCH   8   9
ATOM      9  C   UNL     1       7.281  -3.408  -7.317  1.00  0.00     0.006 C 
BRANCH   9  10
ATOM     10  C   UNL     1       6.220  -3.927  -6.341  1.00  0.00     0.053 C 
BRANCH  10  11
ATOM     11  C   UNL     1       6.638  -5.244  -5.766  1.00  0.00     0.041 C 
ATOM     12  O   UNL     1       7.783  -5.708  -6.011  1.00  0.00    -0.550 OA
ATOM     13  O   UNL     1       5.746  -5.981  -4.998  1.00  0.00    -0.550 OA
ENDBRANCH  10  11
ENDBRANCH   9  10
ENDBRANCH   8   9
ENDBRANCH   1   8
TORSDOF 8
ENDMDL
MODEL 5
REMARK VINA RESULT:    -3.587      2.534      4.068
REMARK INTER + INTRA:          -6.031
REMARK INTER:                  -5.393
REMARK INTRA:                  -0.639
REMARK UNBOUND:                -0.766
REMARK SMILES O=C([O-])CCCCCCCC(=O)[O-]
REMARK SMILES IDX 7 1 6 2 5 3 4 4 2 5 1 6 3 7 8 8 9 9 10 10 11 11 12 12 13 13
REMARK H PARENT
REMARK Flexibility Score: inf
ROOT
ATOM      1  C   UNL     1       7.512  -5.237  -6.249  1.00  0.00     0.000 C 
ENDROOT
BRANCH   1   2
ATOM      2  C   UNL     1       6.006  -5.452  -6.453  1.00  0.00     0.000 C 
BRANCH   2   3
ATOM      3  C   UNL     1       5.208  -4.231  -5.981  1.00  0.00     0.006 C 
BRANCH   3   4
ATOM      4  C   UNL     1       4.379  -3.638  -7.124  1.00  0.00     0.053 C 
BRANCH   4   5
ATOM      5  C   UNL     1       3.293  -4.583  -7.529  1.00  0.00     0.041 C 
ATOM      6  O   UNL     1       2.317  -4.793  -6.761  1.00  0.00    -0.550 OA
ATOM      7  O   UNL     1       3.330  -5.193  -8.776  1.00  0.00    -0.550 OA
ENDBRANCH   4   5
ENDBRANCH   3   4
ENDBRANCH   2   3
ENDBRANCH   1   2
BRANCH   1   8
ATOM      8  C   UNL     1       7.912  -3.754  -6.313  1.00  0.00     0.000 C 
BRANCH   8   9
ATOM      9  C   UNL     1       8.811  -3.434  -7.517  1.00  0.00     0.006 C 
BRANCH   9  10
ATOM     10  C   UNL     1       7.995  -3.393  -8.813  1.00  0.00     0.053 C 
BRANCH  10  11
ATOM     11  C   UNL     1       7.540  -1.996  -9.100  1.00  0.00     0.041 C 
ATOM     12  O   UNL     1       8.304  -1.021  -8.874  1.00  0.00    -0.550 OA
ATOM     13  O   UNL     1       6.253  -1.769  -9.573  1.00  0.00    -0.550 OA
ENDBRANCH  10  11
ENDBRANCH   9  10
ENDBRANCH   8   9
ENDBRANCH   1   8
TORSDOF 8
ENDMDL
MODEL 6
REMARK VINA RESULT:    -3.574      2.848      3.939
REMARK INTER + INTRA:          -6.012
REMARK INTER:                  -5.400
REMARK INTRA:                  -0.612
REMARK UNBOUND:                -0.766
REMARK SMILES O=C([O-])CCCCCCCC(=O)[O-]
REMARK SMILES IDX 7 1 6 2 5 3 4 4 2 5 1 6 3 7 8 8 9 9 10 10 11 11 12 12 13 13
REMARK H PARENT
REMARK Flexibility Score: inf
ROOT
ATOM      1  C   UNL     1       4.873  -3.425  -7.178  1.00  0.00     0.000 C 
ENDROOT
BRANCH   1   2
ATOM      2  C   UNL     1       4.932  -2.567  -8.450  1.00  0.00     0.000 C 
BRANCH   2   3
ATOM      3  C   UNL     1       6.321  -2.638  -9.097  1.00  0.00     0.006 C 
BRANCH   3   4
ATOM      4  C   UNL     1       7.424  -2.641  -8.034  1.00  0.00     0.053 C 
BRANCH   4   5
ATOM      5  C   UNL     1       8.552  -1.750  -8.448  1.00  0.00     0.041 C 
ATOM      6  O   UNL     1       9.738  -2.049  -8.151  1.00  0.00    -0.550 OA
ATOM      7  O   UNL     1       8.298  -0.613  -9.206  1.00  0.00    -0.550 OA
ENDBRANCH   4   5
ENDBRANCH   3   4
ENDBRANCH   2   3
ENDBRANCH   1   2
BRANCH   1   8
ATOM      8  C   UNL     1       3.845  -4.563  -7.279  1.00  0.00     0.000 C 
BRANCH   8   9
ATOM      9  C   UNL     1       4.451  -5.860  -7.835  1.00  0.00     0.006 C 
BRANCH   9  10
ATOM     10  C   UNL     1       5.906  -6.023  -7.382  1.00  0.00     0.053 C 
BRANCH  10  11
ATOM     11  C   UNL     1       5.969  -6.761  -6.081  1.00  0.00     0.041 C 
ATOM     12  O   UNL     1       5.887  -6.134  -4.992  1.00  0.00    -0.550 OA
ATOM     13  O   UNL     1       6.166  -8.136  -6.072  1.00  0.00    -0.550 OA
ENDBRANCH  10  11
ENDBRANCH   9  10
ENDBRANCH   8   9
ENDBRANCH   1   8
TORSDOF 8
ENDMDL
MODEL 7
REMARK VINA RESULT:    -3.571      2.902      4.562
REMARK INTER + INTRA:          -6.007
REMARK INTER:                  -5.397
REMARK INTRA:                  -0.610
REMARK UNBOUND:                -0.766
REMARK SMILES O=C([O-])CCCCCCCC(=O)[O-]
REMARK SMILES IDX 7 1 6 2 5 3 4 4 2 5 1 6 3 7 8 8 9 9 10 10 11 11 12 12 13 13
REMARK H PARENT
REMARK Flexibility Score: inf
ROOT
ATOM      1  C   UNL     1       5.318  -3.416  -7.348  1.00  0.00     0.000 C 
ENDROOT
BRANCH   1   2
ATOM      2  C   UNL     1       4.031  -4.204  -7.064  1.00  0.00     0.000 C 
BRANCH   2   3
ATOM      3  C   UNL     1       3.419  -4.742  -8.364  1.00  0.00     0.006 C 
BRANCH   3   4
ATOM      4  C   UNL     1       4.210  -5.944  -8.889  1.00  0.00     0.053 C 
BRANCH   4   5
ATOM      5  C   UNL     1       4.227  -7.043  -7.876  1.00  0.00     0.041 C 
ATOM      6  O   UNL     1       5.321  -7.497  -7.450  1.00  0.00    -0.550 OA
ATOM      7  O   UNL     1       3.033  -7.535  -7.363  1.00  0.00    -0.550 OA
ENDBRANCH   4   5
ENDBRANCH   3   4
ENDBRANCH   2   3
ENDBRANCH   1   2
BRANCH   1   8
ATOM      8  C   UNL     1       5.168  -2.441  -8.526  1.00  0.00     0.000 C 
BRANCH   8   9
ATOM      9  C   UNL     1       6.311  -2.563  -9.545  1.00  0.00     0.006 C 
BRANCH   9  10
ATOM     10  C   UNL     1       7.596  -3.054  -8.870  1.00  0.00     0.053 C 
BRANCH  10  11
ATOM     11  C   UNL     1       8.555  -1.921  -8.683  1.00  0.00     0.041 C 
ATOM     12  O   UNL     1       8.271  -0.772  -9.113  1.00  0.00    -0.550 OA
ATOM     13  O   UNL     1       9.784  -2.145  -8.075  1.00  0.00    -0.550 OA
ENDBRANCH  10  11
ENDBRANCH   9  10
ENDBRANCH   8   9
ENDBRANCH   1   8
TORSDOF 8
ENDMDL
MODEL 8
REMARK VINA RESULT:    -3.561      2.907      4.341
REMARK INTER + INTRA:          -5.993
REMARK INTER:                  -5.443
REMARK INTRA:                  -0.549
REMARK UNBOUND:                -0.766
REMARK SMILES O=C([O-])CCCCCCCC(=O)[O-]
REMARK SMILES IDX 7 1 6 2 5 3 4 4 2 5 1 6 3 7 8 8 9 9 10 10 11 11 12 12 13 13
REMARK H PARENT
REMARK Flexibility Score: inf
ROOT
ATOM      1  C   UNL     1       5.230  -3.104  -7.642  1.00  0.00     0.000 C 
ENDROOT
BRANCH   1   2
ATOM      2  C   UNL     1       6.648  -3.310  -7.090  1.00  0.00     0.000 C 
BRANCH   2   3
ATOM      3  C   UNL     1       7.500  -4.134  -8.063  1.00  0.00     0.006 C 
BRANCH   3   4
ATOM      4  C   UNL     1       7.974  -3.277  -9.241  1.00  0.00     0.053 C 
BRANCH   4   5
ATOM      5  C   UNL     1       8.728  -2.083  -8.751  1.00  0.00     0.041 C 
ATOM      6  O   UNL     1       8.289  -0.923  -8.968  1.00  0.00    -0.550 OA
ATOM      7  O   UNL     1       9.890  -2.250  -8.009  1.00  0.00    -0.550 OA
ENDBRANCH   4   5
ENDBRANCH   3   4
ENDBRANCH   2   3
ENDBRANCH   1   2
BRANCH   1   8
ATOM      8  C   UNL     1       4.145  -3.686  -6.721  1.00  0.00     0.000 C 
BRANCH   8   9
ATOM      9  C   UNL     1       3.193  -4.639  -7.458  1.00  0.00     0.006 C 
BRANCH   9  10
ATOM     10  C   UNL     1       3.966  -5.562  -8.406  1.00  0.00     0.053 C 
BRANCH  10  11
ATOM     11  C   UNL     1       4.082  -6.934  -7.821  1.00  0.00     0.041 C 
ATOM     12  O   UNL     1       4.845  -7.143  -6.841  1.00  0.00    -0.550 OA
ATOM     13  O   UNL     1       3.385  -7.993  -8.389  1.00  0.00    -0.550 OA
ENDBRANCH  10  11
ENDBRANCH   9  10
ENDBRANCH   8   9
ENDBRANCH   1   8
TORSDOF 8
ENDMDL
MODEL 9
REMARK VINA RESULT:    -3.434      3.281      4.194
REMARK INTER + INTRA:          -5.806
REMARK INTER:                  -5.106
REMARK INTRA:                  -0.700
REMARK UNBOUND:                -0.766
REMARK SMILES O=C([O-])CCCCCCCC(=O)[O-]
REMARK SMILES IDX 7 1 6 2 5 3 4 4 2 5 1 6 3 7 8 8 9 9 10 10 11 11 12 12 13 13
REMARK H PARENT
REMARK Flexibility Score: inf
ROOT
ATOM      1  C   UNL     1       5.217  -3.870  -6.694  1.00  0.00     0.000 C 
ENDROOT
BRANCH   1   2
ATOM      2  C   UNL     1       4.078  -4.493  -7.514  1.00  0.00     0.000 C 
BRANCH   2   3
ATOM      3  C   UNL     1       3.908  -3.769  -8.855  1.00  0.00     0.006 C 
BRANCH   3   4
ATOM      4  C   UNL     1       5.266  -3.481  -9.502  1.00  0.00     0.053 C 
BRANCH   4   5
ATOM      5  C   UNL     1       5.436  -2.013  -9.730  1.00  0.00     0.041 C 
ATOM      6  O   UNL     1       4.429  -1.260  -9.795  1.00  0.00    -0.550 OA
ATOM      7  O   UNL     1       6.711  -1.466  -9.821  1.00  0.00    -0.550 OA
ENDBRANCH   4   5
ENDBRANCH   3   4
ENDBRANCH   2   3
ENDBRANCH   1   2
BRANCH   1   8
ATOM      8  C   UNL     1       6.102  -4.925  -6.012  1.00  0.00     0.000 C 
BRANCH   8   9
ATOM      9  C   UNL     1       7.601  -4.614  -6.142  1.00  0.00     0.006 C 
BRANCH   9  10
ATOM     10  C   UNL     1       7.821  -3.224  -6.748  1.00  0.00     0.053 C 
BRANCH  10  11
ATOM     11  C   UNL     1       8.895  -3.271  -7.789  1.00  0.00     0.041 C 
ATOM     12  O   UNL     1       9.751  -2.350  -7.859  1.00  0.00    -0.550 OA
ATOM     13  O   UNL     1       8.922  -4.308  -8.712  1.00  0.00    -0.550 OA
ENDBRANCH  10  11
ENDBRANCH   9  10
ENDBRANCH   8   9
ENDBRANCH   1   8
TORSDOF 8
ENDMDL
