MODEL 1
REMARK VINA RESULT:    -2.889      0.000      0.000
REMARK INTER + INTRA:          -3.155
REMARK INTER:                  -3.058
REMARK INTRA:                  -0.097
REMARK UNBOUND:                -0.097
REMARK SMILES C=C(C)[C@@H]1CC=C(C)C(=O)C1
REMARK SMILES IDX 8 1 7 2 6 3 5 4 4 5 11 6 9 7 10 8 2 9 1 10 3 11
REMARK H PARENT
REMARK Flexibility Score: inf
ROOT
ATOM      1  C   UNL     1      32.588  23.345  26.894  1.00  0.00     0.048 C 
ATOM      2  C   UNL     1      32.009  23.895  28.168  1.00  0.00    -0.012 C 
ATOM      3  C   UNL     1      32.826  24.274  29.165  1.00  0.00    -0.019 C 
ATOM      4  C   UNL     1      32.301  24.849  30.454  1.00  0.00     0.036 C 
ATOM      5  C   UNL     1      30.934  24.239  30.817  1.00  0.00     0.025 C 
ATOM      6  C   UNL     1      29.943  24.418  29.651  1.00  0.00     0.089 C 
ATOM      7  C   UNL     1      30.538  23.906  28.368  1.00  0.00     0.158 C 
ATOM      8  O   UNL     1      29.770  23.518  27.446  1.00  0.00    -0.295 OA
ENDROOT
BRANCH   5   9
ATOM      9  C   UNL     1      30.385  24.819  32.114  1.00  0.00    -0.077 C 
ATOM     10  C   UNL     1      29.083  25.125  32.248  1.00  0.00     0.008 C 
ATOM     11  C   UNL     1      31.306  25.064  33.281  1.00  0.00     0.039 C 
ENDBRANCH   5   9
TORSDOF 1
ENDMDL
MODEL 2
REMARK VINA RESULT:    -2.417      1.863      4.366
REMARK INTER + INTRA:          -2.655
REMARK INTER:                  -2.559
REMARK INTRA:                  -0.096
REMARK UNBOUND:                -0.097
REMARK SMILES C=C(C)[C@@H]1CC=C(C)C(=O)C1
REMARK SMILES IDX 8 1 7 2 6 3 5 4 4 5 11 6 9 7 10 8 2 9 1 10 3 11
REMARK H PARENT
REMARK Flexibility Score: inf
ROOT
ATOM      1  C   UNL     1      31.819  25.124  33.852  1.00  0.00     0.048 C 
ATOM      2  C   UNL     1      31.686  24.873  32.376  1.00  0.00    -0.012 C 
ATOM      3  C   UNL     1      32.759  25.000  31.577  1.00  0.00    -0.019 C 
ATOM      4  C   UNL     1      32.686  24.742  30.095  1.00  0.00     0.036 C 
ATOM      5  C   UNL     1      31.303  25.122  29.532  1.00  0.00     0.025 C 
ATOM      6  C   UNL     1      30.192  24.389  30.308  1.00  0.00     0.089 C 
ATOM      7  C   UNL     1      30.349  24.605  31.788  1.00  0.00     0.158 C 
ATOM      8  O   UNL     1      29.335  24.520  32.532  1.00  0.00    -0.295 OA
ENDROOT
BRANCH   5   9
ATOM      9  C   UNL     1      31.211  24.857  28.035  1.00  0.00    -0.077 C 
ATOM     10  C   UNL     1      32.315  24.725  27.279  1.00  0.00     0.008 C 
ATOM     11  C   UNL     1      29.864  24.739  27.371  1.00  0.00     0.039 C 
ENDBRANCH   5   9
TORSDOF 1
ENDMDL
MODEL 3
REMARK VINA RESULT:    -2.383      2.146      4.774
REMARK INTER + INTRA:          -2.620
REMARK INTER:                  -2.522
REMARK INTRA:                  -0.097
REMARK UNBOUND:                -0.097
REMARK SMILES C=C(C)[C@@H]1CC=C(C)C(=O)C1
REMARK SMILES IDX 8 1 7 2 6 3 5 4 4 5 11 6 9 7 10 8 2 9 1 10 3 11
REMARK H PARENT
REMARK Flexibility Score: inf
ROOT
ATOM      1  C   UNL     1      29.174  24.916  32.500  1.00  0.00     0.048 C 
ATOM      2  C   UNL     1      30.250  25.009  31.455  1.00  0.00    -0.012 C 
ATOM      3  C   UNL     1      29.928  24.926  30.153  1.00  0.00    -0.019 C 
ATOM      4  C   UNL     1      30.963  25.032  29.065  1.00  0.00     0.036 C 
ATOM      5  C   UNL     1      32.313  24.449  29.525  1.00  0.00     0.025 C 
ATOM      6  C   UNL     1      32.768  25.125  30.833  1.00  0.00     0.089 C 
ATOM      7  C   UNL     1      31.676  25.070  31.865  1.00  0.00     0.158 C 
ATOM      8  O   UNL     1      31.983  25.112  33.087  1.00  0.00    -0.295 OA
ENDROOT
BRANCH   5   9
ATOM      9  C   UNL     1      33.374  24.559  28.437  1.00  0.00    -0.077 C 
ATOM     10  C   UNL     1      34.647  24.875  28.731  1.00  0.00     0.008 C 
ATOM     11  C   UNL     1      33.006  24.313  26.997  1.00  0.00     0.039 C 
ENDBRANCH   5   9
TORSDOF 1
ENDMDL
MODEL 4
REMARK VINA RESULT:    -2.378     18.280     19.442
REMARK INTER + INTRA:          -2.614
REMARK INTER:                  -2.517
REMARK INTRA:                  -0.097
REMARK UNBOUND:                -0.097
REMARK SMILES C=C(C)[C@@H]1CC=C(C)C(=O)C1
REMARK SMILES IDX 8 1 7 2 6 3 5 4 4 5 11 6 9 7 10 8 2 9 1 10 3 11
REMARK H PARENT
REMARK Flexibility Score: inf
ROOT
ATOM      1  C   UNL     1      17.081  24.991  43.299  1.00  0.00     0.048 C 
ATOM      2  C   UNL     1      18.238  24.445  44.088  1.00  0.00    -0.012 C 
ATOM      3  C   UNL     1      19.444  24.325  43.509  1.00  0.00    -0.019 C 
ATOM      4  C   UNL     1      20.642  23.801  44.258  1.00  0.00     0.036 C 
ATOM      5  C   UNL     1      20.225  22.755  45.309  1.00  0.00     0.025 C 
ATOM      6  C   UNL     1      19.156  23.342  46.252  1.00  0.00     0.089 C 
ATOM      7  C   UNL     1      18.017  23.927  45.462  1.00  0.00     0.158 C 
ATOM      8  O   UNL     1      16.878  24.007  45.994  1.00  0.00    -0.295 OA
ENDROOT
BRANCH   5   9
ATOM      9  C   UNL     1      21.424  22.223  46.082  1.00  0.00    -0.077 C 
ATOM     10  C   UNL     1      21.271  21.384  47.121  1.00  0.00     0.008 C 
ATOM     11  C   UNL     1      22.819  22.639  45.691  1.00  0.00     0.039 C 
ENDBRANCH   5   9
TORSDOF 1
ENDMDL
MODEL 5
REMARK VINA RESULT:    -2.305      1.445      2.531
REMARK INTER + INTRA:          -2.537
REMARK INTER:                  -2.442
REMARK INTRA:                  -0.095
REMARK UNBOUND:                -0.097
REMARK SMILES C=C(C)[C@@H]1CC=C(C)C(=O)C1
REMARK SMILES IDX 8 1 7 2 6 3 5 4 4 5 11 6 9 7 10 8 2 9 1 10 3 11
REMARK H PARENT
REMARK Flexibility Score: inf
ROOT
ATOM      1  C   UNL     1      29.607  24.344  27.437  1.00  0.00     0.048 C 
ATOM      2  C   UNL     1      30.390  24.360  28.720  1.00  0.00    -0.012 C 
ATOM      3  C   UNL     1      29.744  24.343  29.898  1.00  0.00    -0.019 C 
ATOM      4  C   UNL     1      30.479  24.339  31.212  1.00  0.00     0.036 C 
ATOM      5  C   UNL     1      31.800  25.125  31.112  1.00  0.00     0.025 C 
ATOM      6  C   UNL     1      32.661  24.576  29.959  1.00  0.00     0.089 C 
ATOM      7  C   UNL     1      31.866  24.519  28.684  1.00  0.00     0.158 C 
ATOM      8  O   UNL     1      32.470  24.571  27.579  1.00  0.00    -0.295 OA
ENDROOT
BRANCH   5   9
ATOM      9  C   UNL     1      32.560  25.121  32.432  1.00  0.00    -0.077 C 
ATOM     10  C   UNL     1      31.914  25.118  33.611  1.00  0.00     0.008 C 
ATOM     11  C   UNL     1      34.067  25.124  32.435  1.00  0.00     0.039 C 
ENDBRANCH   5   9
TORSDOF 1
ENDMDL
MODEL 6
REMARK VINA RESULT:    -2.288      2.519      4.783
REMARK INTER + INTRA:          -2.518
REMARK INTER:                  -2.422
REMARK INTRA:                  -0.097
REMARK UNBOUND:                -0.097
REMARK SMILES C=C(C)[C@@H]1CC=C(C)C(=O)C1
REMARK SMILES IDX 8 1 7 2 6 3 5 4 4 5 11 6 9 7 10 8 2 9 1 10 3 11
REMARK H PARENT
REMARK Flexibility Score: inf
ROOT
ATOM      1  C   UNL     1      29.912  23.646  27.974  1.00  0.00     0.048 C 
ATOM      2  C   UNL     1      31.397  23.882  27.990  1.00  0.00    -0.012 C 
ATOM      3  C   UNL     1      32.138  23.550  26.920  1.00  0.00    -0.019 C 
ATOM      4  C   UNL     1      33.626  23.782  26.875  1.00  0.00     0.036 C 
ATOM      5  C   UNL     1      34.252  23.637  28.275  1.00  0.00     0.025 C 
ATOM      6  C   UNL     1      33.544  24.571  29.276  1.00  0.00     0.089 C 
ATOM      7  C   UNL     1      32.055  24.366  29.230  1.00  0.00     0.158 C 
ATOM      8  O   UNL     1      31.365  24.644  30.247  1.00  0.00    -0.295 OA
ENDROOT
BRANCH   5   9
ATOM      9  C   UNL     1      35.756  23.879  28.248  1.00  0.00    -0.077 C 
ATOM     10  C   UNL     1      36.317  24.872  28.959  1.00  0.00     0.008 C 
ATOM     11  C   UNL     1      36.647  22.998  27.410  1.00  0.00     0.039 C 
ENDBRANCH   5   9
TORSDOF 1
ENDMDL
MODEL 7
REMARK VINA RESULT:    -2.076     17.823     19.673
REMARK INTER + INTRA:          -2.294
REMARK INTER:                  -2.200
REMARK INTRA:                  -0.094
REMARK UNBOUND:                -0.097
REMARK SMILES C=C(C)[C@@H]1CC=C(C)C(=O)C1
REMARK SMILES IDX 8 1 7 2 6 3 5 4 4 5 11 6 9 7 10 8 2 9 1 10 3 11
REMARK H PARENT
REMARK Flexibility Score: inf
ROOT
ATOM      1  C   UNL     1      23.170  22.498  45.272  1.00  0.00     0.048 C 
ATOM      2  C   UNL     1      21.700  22.809  45.312  1.00  0.00    -0.012 C 
ATOM      3  C   UNL     1      21.193  23.751  44.499  1.00  0.00    -0.019 C 
ATOM      4  C   UNL     1      19.726  24.089  44.484  1.00  0.00     0.036 C 
ATOM      5  C   UNL     1      19.102  23.914  45.882  1.00  0.00     0.025 C 
ATOM      6  C   UNL     1      19.369  22.491  46.410  1.00  0.00     0.089 C 
ATOM      7  C   UNL     1      20.834  22.163  46.331  1.00  0.00     0.158 C 
ATOM      8  O   UNL     1      21.315  21.305  47.119  1.00  0.00    -0.295 OA
ENDROOT
BRANCH   5   9
ATOM      9  C   UNL     1      17.614  24.242  45.880  1.00  0.00    -0.077 C 
ATOM     10  C   UNL     1      16.927  24.378  47.027  1.00  0.00     0.008 C 
ATOM     11  C   UNL     1      16.882  24.420  44.575  1.00  0.00     0.039 C 
ENDBRANCH   5   9
TORSDOF 1
ENDMDL
MODEL 8
REMARK VINA RESULT:    -1.860      1.565      4.174
REMARK INTER + INTRA:          -2.066
REMARK INTER:                  -1.969
REMARK INTRA:                  -0.097
REMARK UNBOUND:                -0.097
REMARK SMILES C=C(C)[C@@H]1CC=C(C)C(=O)C1
REMARK SMILES IDX 8 1 7 2 6 3 5 4 4 5 11 6 9 7 10 8 2 9 1 10 3 11
REMARK H PARENT
REMARK Flexibility Score: inf
ROOT
ATOM      1  C   UNL     1      29.415  24.626  30.827  1.00  0.00     0.048 C 
ATOM      2  C   UNL     1      30.792  24.532  30.231  1.00  0.00    -0.012 C 
ATOM      3  C   UNL     1      31.829  25.125  30.846  1.00  0.00    -0.019 C 
ATOM      4  C   UNL     1      33.231  25.047  30.302  1.00  0.00     0.036 C 
ATOM      5  C   UNL     1      33.227  24.987  28.763  1.00  0.00     0.025 C 
ATOM      6  C   UNL     1      32.345  23.821  28.276  1.00  0.00     0.089 C 
ATOM      7  C   UNL     1      30.981  23.891  28.905  1.00  0.00     0.158 C 
ATOM      8  O   UNL     1      30.002  23.365  28.310  1.00  0.00    -0.295 OA
ENDROOT
BRANCH   5   9
ATOM      9  C   UNL     1      34.639  24.897  28.198  1.00  0.00    -0.077 C 
ATOM     10  C   UNL     1      34.857  24.660  26.893  1.00  0.00     0.008 C 
ATOM     11  C   UNL     1      35.828  25.072  29.108  1.00  0.00     0.039 C 
ENDBRANCH   5   9
TORSDOF 1
ENDMDL
