MODEL 1
REMARK VINA RESULT:    -4.447      0.000      0.000
REMARK INTER + INTRA:          -6.475
REMARK INTER:                  -6.007
REMARK INTRA:                  -0.468
REMARK UNBOUND:                -0.468
REMARK SMILES C=C1C(=O)O[C@@H]2[C@H]1CCC(C)=CCC[C@@]1(C)O[C@@H]21
REMARK SMILES IDX 6 1 7 2 2 3 1 4 3 5 4 6 5 7 8 8 9 9 10 10 11 11 12 12 18 14
REMARK SMILES IDX 15 15 17 16 16 17 14 18 13 19
REMARK H PARENT
REMARK Flexibility Score: 70.00
ROOT
ATOM      1  C   UNL     1      48.206   9.888   5.018  1.00  0.00     0.216 C 
ATOM      2  C   UNL     1      49.139   8.931   4.169  1.00  0.00     0.070 C 
ATOM      3  C   UNL     1      50.379   9.755   3.969  1.00  0.00     0.037 C 
ATOM      4  C   UNL     1      51.517   9.340   3.410  1.00  0.00     0.021 C 
ATOM      5  C   UNL     1      50.161  11.046   4.578  1.00  0.00     0.334 C 
ATOM      6  O   UNL     1      50.991  11.994   4.595  1.00  0.00    -0.247 OA
ATOM      7  O   UNL     1      48.901  11.129   5.131  1.00  0.00    -0.455 OA
ENDROOT
BRANCH   2   8
ATOM      8  C   UNL     1      48.625   8.244   2.871  1.00  0.00     0.017 C 
BRANCH   8   9
ATOM      9  C   UNL     1      47.701   7.003   3.032  1.00  0.00     0.031 C 
BRANCH   9  10
ATOM     10  C   UNL     1      48.095   6.156   4.227  1.00  0.00    -0.077 C 
ATOM     11  C   UNL     1      49.420   5.440   4.182  1.00  0.00     0.039 C 
ATOM     12  C   UNL     1      47.352   6.046   5.355  1.00  0.00    -0.028 CG0
ATOM     13  G   UNL     1      45.975   6.631   5.585  1.00  0.00     0.000 G0
ENDBRANCH   9  10
ENDBRANCH   8   9
ENDBRANCH   2   8
BRANCH   1  14
ATOM     14  C   UNL     1      46.690  10.103   4.739  1.00  0.00     0.192 C 
ATOM     15  C   UNL     1      45.626   9.205   5.308  1.00  0.00     0.096 C 
ATOM     16  O   UNL     1      45.932  10.461   5.867  1.00  0.00    -0.362 OA
ATOM     17  C   UNL     1      44.255   9.217   4.634  1.00  0.00     0.045 C 
BRANCH  15  18
ATOM     18  C   UNL     1      45.955   8.033   6.254  1.00  0.00     0.042 C 
BRANCH  18  19
ATOM     19  C   UNL     1      45.978   6.638   5.598  1.00  0.00     0.030 CG0
ATOM     20  G   UNL     1      47.345   6.040   5.344  1.00  0.00     0.000 G0
ENDBRANCH  18  19
ENDBRANCH  15  18
ENDBRANCH   1  14
TORSDOF 0
ENDMDL
MODEL 2
REMARK VINA RESULT:    -4.427      2.971      5.381
REMARK INTER + INTRA:          -6.449
REMARK INTER:                  -5.970
REMARK INTRA:                  -0.478
REMARK UNBOUND:                -0.468
REMARK SMILES C=C1C(=O)O[C@@H]2[C@H]1CCC(C)=CCC[C@@]1(C)O[C@@H]21
REMARK SMILES IDX 6 1 7 2 2 3 1 4 3 5 4 6 5 7 8 8 9 9 10 10 11 11 12 12 18 14
REMARK SMILES IDX 15 15 17 16 16 17 14 18 13 19
REMARK H PARENT
REMARK Flexibility Score: 70.00
ROOT
ATOM      1  C   UNL     1      48.207   6.775   5.235  1.00  0.00     0.216 C 
ATOM      2  C   UNL     1      48.160   8.152   4.455  1.00  0.00     0.070 C 
ATOM      3  C   UNL     1      46.688   8.412   4.313  1.00  0.00     0.037 C 
ATOM      4  C   UNL     1      46.128   9.521   3.825  1.00  0.00     0.021 C 
ATOM      5  C   UNL     1      45.978   7.294   4.889  1.00  0.00     0.334 C 
ATOM      6  O   UNL     1      44.725   7.173   4.940  1.00  0.00    -0.247 OA
ATOM      7  O   UNL     1      46.854   6.344   5.369  1.00  0.00    -0.455 OA
ENDROOT
BRANCH   2   8
ATOM      8  C   UNL     1      48.965   8.363   3.139  1.00  0.00     0.017 C 
BRANCH   8   9
ATOM      9  C   UNL     1      50.508   8.520   3.258  1.00  0.00     0.031 C 
BRANCH   9  10
ATOM     10  C   UNL     1      50.897   9.401   4.431  1.00  0.00    -0.077 C 
ATOM     11  C   UNL     1      50.489  10.852   4.395  1.00  0.00     0.039 C 
ATOM     12  C   UNL     1      51.545   8.951   5.533  1.00  0.00    -0.028 CG0
ATOM     13  G   UNL     1      52.091   7.557   5.748  1.00  0.00     0.000 G0
ENDBRANCH   9  10
ENDBRANCH   8   9
ENDBRANCH   2   8
BRANCH   1  14
ATOM     14  C   UNL     1      49.153   5.595   4.868  1.00  0.00     0.192 C 
ATOM     15  C   UNL     1      50.557   5.488   5.394  1.00  0.00     0.096 C 
ATOM     16  O   UNL     1      49.488   4.757   5.945  1.00  0.00    -0.362 OA
ATOM     17  C   UNL     1      51.526   4.574   4.644  1.00  0.00     0.045 C 
BRANCH  15  18
ATOM     18  C   UNL     1      51.150   6.515   6.379  1.00  0.00     0.042 C 
BRANCH  18  19
ATOM     19  C   UNL     1      52.100   7.558   5.758  1.00  0.00     0.030 CG0
ATOM     20  G   UNL     1      51.528   8.941   5.542  1.00  0.00     0.000 G0
ENDBRANCH  18  19
ENDBRANCH  15  18
ENDBRANCH   1  14
TORSDOF 0
ENDMDL
MODEL 3
REMARK VINA RESULT:    -4.263      3.080      4.544
REMARK INTER + INTRA:          -6.226
REMARK INTER:                  -5.786
REMARK INTRA:                  -0.440
REMARK UNBOUND:                -0.468
REMARK SMILES C=C1C(=O)O[C@@H]2[C@H]1CCC(C)=CCC[C@@]1(C)O[C@@H]21
REMARK SMILES IDX 6 1 7 2 2 3 1 4 3 5 4 6 5 7 8 8 9 9 10 10 11 11 12 12 18 14
REMARK SMILES IDX 15 15 17 16 16 17 14 18 13 19
REMARK H PARENT
REMARK Flexibility Score: 70.00
ROOT
ATOM      1  C   UNL     1      51.351   7.877   5.374  1.00  0.00     0.216 C 
ATOM      2  C   UNL     1      50.642   7.379   6.699  1.00  0.00     0.070 C 
ATOM      3  C   UNL     1      51.600   7.802   7.777  1.00  0.00     0.037 C 
ATOM      4  C   UNL     1      51.394   7.714   9.091  1.00  0.00     0.021 C 
ATOM      5  C   UNL     1      52.744   8.415   7.143  1.00  0.00     0.334 C 
ATOM      6  O   UNL     1      53.748   8.881   7.744  1.00  0.00    -0.247 OA
ATOM      7  O   UNL     1      52.614   8.409   5.770  1.00  0.00    -0.455 OA
ENDROOT
BRANCH   2   8
ATOM      8  C   UNL     1      50.140   5.913   6.845  1.00  0.00     0.017 C 
BRANCH   8   9
ATOM      9  C   UNL     1      48.909   5.488   5.996  1.00  0.00     0.031 C 
BRANCH   9  10
ATOM     10  C   UNL     1      47.798   6.519   6.054  1.00  0.00    -0.077 C 
ATOM     11  C   UNL     1      47.161   6.801   7.391  1.00  0.00     0.039 C 
ATOM     12  C   UNL     1      47.379   7.241   4.987  1.00  0.00    -0.028 CG0
ATOM     13  G   UNL     1      47.839   7.078   3.555  1.00  0.00     0.000 G0
ENDBRANCH   9  10
ENDBRANCH   8   9
ENDBRANCH   2   8
BRANCH   1  14
ATOM     14  C   UNL     1      51.467   7.029   4.074  1.00  0.00     0.192 C 
ATOM     15  C   UNL     1      50.387   6.997   3.029  1.00  0.00     0.096 C 
ATOM     16  O   UNL     1      51.548   7.782   2.890  1.00  0.00    -0.362 OA
ATOM     17  C   UNL     1      50.388   5.826   2.046  1.00  0.00     0.045 C 
BRANCH  15  18
ATOM     18  C   UNL     1      49.103   7.843   3.142  1.00  0.00     0.042 C 
BRANCH  18  19
ATOM     19  C   UNL     1      47.834   7.069   3.550  1.00  0.00     0.030 CG0
ATOM     20  G   UNL     1      47.372   7.247   4.980  1.00  0.00     0.000 G0
ENDBRANCH  18  19
ENDBRANCH  15  18
ENDBRANCH   1  14
TORSDOF 0
ENDMDL
MODEL 4
REMARK VINA RESULT:    -4.257      3.245      4.129
REMARK INTER + INTRA:          -6.218
REMARK INTER:                  -5.772
REMARK INTRA:                  -0.446
REMARK UNBOUND:                -0.468
REMARK SMILES C=C1C(=O)O[C@@H]2[C@H]1CCC(C)=CCC[C@@]1(C)O[C@@H]21
REMARK SMILES IDX 6 1 7 2 2 3 1 4 3 5 4 6 5 7 8 8 9 9 10 10 11 11 12 12 18 14
REMARK SMILES IDX 15 15 17 16 16 17 14 18 13 19
REMARK H PARENT
REMARK Flexibility Score: 70.00
ROOT
ATOM      1  C   UNL     1      49.880   7.333   6.631  1.00  0.00     0.216 C 
ATOM      2  C   UNL     1      51.196   8.021   6.080  1.00  0.00     0.070 C 
ATOM      3  C   UNL     1      51.984   8.297   7.329  1.00  0.00     0.037 C 
ATOM      4  C   UNL     1      53.232   8.765   7.385  1.00  0.00     0.021 C 
ATOM      5  C   UNL     1      51.192   7.873   8.461  1.00  0.00     0.334 C 
ATOM      6  O   UNL     1      51.539   7.961   9.668  1.00  0.00    -0.247 OA
ATOM      7  O   UNL     1      49.974   7.369   8.054  1.00  0.00    -0.455 OA
ENDROOT
BRANCH   2   8
ATOM      8  C   UNL     1      51.128   9.228   5.101  1.00  0.00     0.017 C 
BRANCH   8   9
ATOM      9  C   UNL     1      50.954   8.917   3.587  1.00  0.00     0.031 C 
BRANCH   9  10
ATOM     10  C   UNL     1      51.534   7.564   3.219  1.00  0.00    -0.077 C 
ATOM     11  C   UNL     1      53.034   7.419   3.193  1.00  0.00     0.039 C 
ATOM     12  C   UNL     1      50.785   6.465   2.961  1.00  0.00    -0.028 CG0
ATOM     13  G   UNL     1      49.275   6.404   2.878  1.00  0.00     0.000 G0
ENDBRANCH   9  10
ENDBRANCH   8   9
ENDBRANCH   2   8
BRANCH   1  14
ATOM     14  C   UNL     1      48.444   7.679   6.142  1.00  0.00     0.192 C 
ATOM     15  C   UNL     1      47.816   7.021   4.944  1.00  0.00     0.096 C 
ATOM     16  O   UNL     1      47.516   6.630   6.263  1.00  0.00    -0.362 OA
ATOM     17  C   UNL     1      46.628   7.726   4.291  1.00  0.00     0.045 C 
BRANCH  15  18
ATOM     18  C   UNL     1      48.530   5.915   4.141  1.00  0.00     0.042 C 
BRANCH  18  19
ATOM     19  C   UNL     1      49.272   6.390   2.875  1.00  0.00     0.030 CG0
ATOM     20  G   UNL     1      50.781   6.453   2.967  1.00  0.00     0.000 G0
ENDBRANCH  18  19
ENDBRANCH  15  18
ENDBRANCH   1  14
TORSDOF 0
ENDMDL
MODEL 5
REMARK VINA RESULT:    -4.071      2.350      4.997
REMARK INTER + INTRA:          -5.967
REMARK INTER:                  -6.375
REMARK INTRA:                   0.408
REMARK UNBOUND:                -0.468
REMARK SMILES C=C1C(=O)O[C@@H]2[C@H]1CCC(C)=CCC[C@@]1(C)O[C@@H]21
REMARK SMILES IDX 6 1 7 2 2 3 1 4 3 5 4 6 5 7 8 8 9 9 10 10 11 11 12 12 18 14
REMARK SMILES IDX 15 15 17 16 16 17 14 18 13 19
REMARK H PARENT
REMARK Flexibility Score: 70.00
ROOT
ATOM      1  C   UNL     1      47.143   7.496   3.939  1.00  0.00     0.216 C 
ATOM      2  C   UNL     1      46.843   6.619   5.223  1.00  0.00     0.070 C 
ATOM      3  C   UNL     1      45.376   6.844   5.454  1.00  0.00     0.037 C 
ATOM      4  C   UNL     1      44.617   6.222   6.357  1.00  0.00     0.021 C 
ATOM      5  C   UNL     1      44.905   7.781   4.460  1.00  0.00     0.334 C 
ATOM      6  O   UNL     1      43.723   8.203   4.358  1.00  0.00    -0.247 OA
ATOM      7  O   UNL     1      45.931   8.183   3.631  1.00  0.00    -0.455 OA
ENDROOT
BRANCH   2   8
ATOM      8  C   UNL     1      47.709   6.748   6.510  1.00  0.00     0.017 C 
BRANCH   8   9
ATOM      9  C   UNL     1      48.758   5.634   6.785  1.00  0.00     0.031 C 
BRANCH   9  10
ATOM     10  C   UNL     1      50.170   6.100   6.485  1.00  0.00    -0.077 C 
ATOM     11  C   UNL     1      50.975   6.693   7.613  1.00  0.00     0.039 C 
ATOM     12  C   UNL     1      50.770   5.968   5.277  1.00  0.00    -0.028 CG0
ATOM     13  G   UNL     1      50.129   5.457   4.006  1.00  0.00     0.000 G0
ENDBRANCH   9  10
ENDBRANCH   8   9
ENDBRANCH   2   8
BRANCH   1  14
ATOM     14  C   UNL     1      48.384   8.422   3.784  1.00  0.00     0.192 C 
ATOM     15  C   UNL     1      49.712   7.921   3.291  1.00  0.00     0.096 C 
ATOM     16  O   UNL     1      48.811   8.611   2.459  1.00  0.00    -0.362 OA
ATOM     17  C   UNL     1      50.947   8.769   3.596  1.00  0.00     0.045 C 
BRANCH  15  18
ATOM     18  C   UNL     1      49.932   6.459   2.852  1.00  0.00     0.042 C 
BRANCH  18  19
ATOM     19  C   UNL     1      50.130   5.446   3.997  1.00  0.00     0.030 CG0
ATOM     20  G   UNL     1      50.764   5.981   5.262  1.00  0.00     0.000 G0
ENDBRANCH  18  19
ENDBRANCH  15  18
ENDBRANCH   1  14
TORSDOF 0
ENDMDL
MODEL 6
REMARK VINA RESULT:    -3.988      3.440      5.800
REMARK INTER + INTRA:          -5.856
REMARK INTER:                  -5.392
REMARK INTRA:                  -0.463
REMARK UNBOUND:                -0.468
REMARK SMILES C=C1C(=O)O[C@@H]2[C@H]1CCC(C)=CCC[C@@]1(C)O[C@@H]21
REMARK SMILES IDX 6 1 7 2 2 3 1 4 3 5 4 6 5 7 8 8 9 9 10 10 11 11 12 12 18 14
REMARK SMILES IDX 15 15 17 16 16 17 14 18 13 19
REMARK H PARENT
REMARK Flexibility Score: 70.00
ROOT
ATOM      1  C   UNL     1      49.117   6.903   6.405  1.00  0.00     0.216 C 
ATOM      2  C   UNL     1      48.921   8.088   5.373  1.00  0.00     0.070 C 
ATOM      3  C   UNL     1      47.428   8.229   5.296  1.00  0.00     0.037 C 
ATOM      4  C   UNL     1      46.760   9.182   4.643  1.00  0.00     0.021 C 
ATOM      5  C   UNL     1      46.838   7.212   6.135  1.00  0.00     0.334 C 
ATOM      6  O   UNL     1      45.603   7.031   6.304  1.00  0.00    -0.247 OA
ATOM      7  O   UNL     1      47.809   6.430   6.724  1.00  0.00    -0.455 OA
ENDROOT
BRANCH   2   8
ATOM      8  C   UNL     1      49.624   8.076   3.984  1.00  0.00     0.017 C 
BRANCH   8   9
ATOM      9  C   UNL     1      51.163   8.298   3.956  1.00  0.00     0.031 C 
BRANCH   9  10
ATOM     10  C   UNL     1      51.588   9.428   4.873  1.00  0.00    -0.077 C 
ATOM     11  C   UNL     1      51.084  10.816   4.569  1.00  0.00     0.039 C 
ATOM     12  C   UNL     1      52.351   9.258   5.980  1.00  0.00    -0.028 CG0
ATOM     13  G   UNL     1      53.003   7.971   6.434  1.00  0.00     0.000 G0
ENDBRANCH   9  10
ENDBRANCH   8   9
ENDBRANCH   2   8
BRANCH   1  14
ATOM     14  C   UNL     1      50.119   5.729   6.206  1.00  0.00     0.192 C 
ATOM     15  C   UNL     1      51.560   5.815   6.628  1.00  0.00     0.096 C 
ATOM     16  O   UNL     1      50.587   5.152   7.399  1.00  0.00    -0.362 OA
ATOM     17  C   UNL     1      52.541   4.825   6.000  1.00  0.00     0.045 C 
BRANCH  15  18
ATOM     18  C   UNL     1      52.141   7.056   7.335  1.00  0.00     0.042 C 
BRANCH  18  19
ATOM     19  C   UNL     1      53.008   7.976   6.453  1.00  0.00     0.030 CG0
ATOM     20  G   UNL     1      52.361   9.263   5.990  1.00  0.00     0.000 G0
ENDBRANCH  18  19
ENDBRANCH  15  18
ENDBRANCH   1  14
TORSDOF 0
ENDMDL
MODEL 7
REMARK VINA RESULT:    -3.985      2.628      4.383
REMARK INTER + INTRA:          -5.851
REMARK INTER:                  -6.289
REMARK INTRA:                   0.438
REMARK UNBOUND:                -0.468
REMARK SMILES C=C1C(=O)O[C@@H]2[C@H]1CCC(C)=CCC[C@@]1(C)O[C@@H]21
REMARK SMILES IDX 6 1 7 2 2 3 1 4 3 5 4 6 5 7 8 8 9 9 10 10 11 11 12 12 18 14
REMARK SMILES IDX 15 15 17 16 16 17 14 18 13 19
REMARK H PARENT
REMARK Flexibility Score: 70.00
ROOT
ATOM      1  C   UNL     1      47.396   8.490   5.931  1.00  0.00     0.216 C 
ATOM      2  C   UNL     1      47.199   8.838   4.399  1.00  0.00     0.070 C 
ATOM      3  C   UNL     1      45.836   9.469   4.366  1.00  0.00     0.037 C 
ATOM      4  C   UNL     1      45.261  10.045   3.309  1.00  0.00     0.021 C 
ATOM      5  C   UNL     1      45.294   9.434   5.704  1.00  0.00     0.334 C 
ATOM      6  O   UNL     1      44.163   9.872   6.045  1.00  0.00    -0.247 OA
ATOM      7  O   UNL     1      46.171   8.830   6.580  1.00  0.00    -0.455 OA
ENDROOT
BRANCH   2   8
ATOM      8  C   UNL     1      47.423   7.768   3.292  1.00  0.00     0.017 C 
BRANCH   8   9
ATOM      9  C   UNL     1      48.719   7.878   2.438  1.00  0.00     0.031 C 
BRANCH   9  10
ATOM     10  C   UNL     1      49.761   6.859   2.860  1.00  0.00    -0.077 C 
ATOM     11  C   UNL     1      49.841   5.566   2.089  1.00  0.00     0.039 C 
ATOM     12  C   UNL     1      50.658   7.062   3.854  1.00  0.00    -0.028 CG0
ATOM     13  G   UNL     1      50.716   8.254   4.784  1.00  0.00     0.000 G0
ENDBRANCH   9  10
ENDBRANCH   8   9
ENDBRANCH   2   8
BRANCH   1  14
ATOM     14  C   UNL     1      47.967   7.140   6.453  1.00  0.00     0.192 C 
ATOM     15  C   UNL     1      49.442   6.886   6.596  1.00  0.00     0.096 C 
ATOM     16  O   UNL     1      48.625   7.224   7.692  1.00  0.00    -0.362 OA
ATOM     17  C   UNL     1      49.904   5.431   6.677  1.00  0.00     0.045 C 
BRANCH  15  18
ATOM     18  C   UNL     1      50.499   7.964   6.284  1.00  0.00     0.042 C 
BRANCH  18  19
ATOM     19  C   UNL     1      50.726   8.256   4.787  1.00  0.00     0.030 CG0
ATOM     20  G   UNL     1      50.654   7.066   3.855  1.00  0.00     0.000 G0
ENDBRANCH  18  19
ENDBRANCH  15  18
ENDBRANCH   1  14
TORSDOF 0
ENDMDL
MODEL 8
REMARK VINA RESULT:    -3.964      3.276      5.498
REMARK INTER + INTRA:          -5.823
REMARK INTER:                  -5.474
REMARK INTRA:                  -0.349
REMARK UNBOUND:                -0.468
REMARK SMILES C=C1C(=O)O[C@@H]2[C@H]1CCC(C)=CCC[C@@]1(C)O[C@@H]21
REMARK SMILES IDX 6 1 7 2 2 3 1 4 3 5 4 6 5 7 8 8 9 9 10 10 11 11 12 12 18 14
REMARK SMILES IDX 15 15 17 16 16 17 14 18 13 19
REMARK H PARENT
REMARK Flexibility Score: 70.00
ROOT
ATOM      1  C   UNL     1      48.499   6.501   4.370  1.00  0.00     0.216 C 
ATOM      2  C   UNL     1      48.580   7.516   5.583  1.00  0.00     0.070 C 
ATOM      3  C   UNL     1      47.183   8.063   5.664  1.00  0.00     0.037 C 
ATOM      4  C   UNL     1      46.710   8.874   6.611  1.00  0.00     0.021 C 
ATOM      5  C   UNL     1      46.411   7.477   4.593  1.00  0.00     0.334 C 
ATOM      6  O   UNL     1      45.197   7.714   4.355  1.00  0.00    -0.247 OA
ATOM      7  O   UNL     1      47.183   6.625   3.832  1.00  0.00    -0.455 OA
ENDROOT
BRANCH   2   8
ATOM      8  C   UNL     1      49.687   8.608   5.649  1.00  0.00     0.017 C 
BRANCH   8   9
ATOM      9  C   UNL     1      51.160   8.131   5.789  1.00  0.00     0.031 C 
BRANCH   9  10
ATOM     10  C   UNL     1      51.338   7.180   6.958  1.00  0.00    -0.077 C 
ATOM     11  C   UNL     1      50.986   7.677   8.337  1.00  0.00     0.039 C 
ATOM     12  C   UNL     1      51.744   5.893   6.831  1.00  0.00    -0.028 CG0
ATOM     13  G   UNL     1      52.198   5.215   5.558  1.00  0.00     0.000 G0
ENDBRANCH   9  10
ENDBRANCH   8   9
ENDBRANCH   2   8
BRANCH   1  14
ATOM     14  C   UNL     1      49.570   6.395   3.247  1.00  0.00     0.192 C 
ATOM     15  C   UNL     1      50.810   5.555   3.388  1.00  0.00     0.096 C 
ATOM     16  O   UNL     1      49.683   5.120   2.665  1.00  0.00    -0.362 OA
ATOM     17  C   UNL     1      51.982   5.862   2.456  1.00  0.00     0.045 C 
BRANCH  15  18
ATOM     18  C   UNL     1      51.087   4.696   4.638  1.00  0.00     0.042 C 
BRANCH  18  19
ATOM     19  C   UNL     1      52.206   5.214   5.563  1.00  0.00     0.030 CG0
ATOM     20  G   UNL     1      51.758   5.891   6.840  1.00  0.00     0.000 G0
ENDBRANCH  18  19
ENDBRANCH  15  18
ENDBRANCH   1  14
TORSDOF 0
ENDMDL
MODEL 9
REMARK VINA RESULT:    -3.930     17.071     18.700
REMARK INTER + INTRA:          -5.776
REMARK INTER:                  -5.455
REMARK INTRA:                  -0.321
REMARK UNBOUND:                -0.468
REMARK SMILES C=C1C(=O)O[C@@H]2[C@H]1CCC(C)=CCC[C@@]1(C)O[C@@H]21
REMARK SMILES IDX 6 1 7 2 2 3 1 4 3 5 4 6 5 7 8 8 9 9 10 10 11 11 12 12 18 14
REMARK SMILES IDX 15 15 17 16 16 17 14 18 13 19
REMARK H PARENT
REMARK Flexibility Score: 70.00
ROOT
ATOM      1  C   UNL     1      36.754  14.360  17.261  1.00  0.00     0.216 C 
ATOM      2  C   UNL     1      38.055  14.425  18.161  1.00  0.00     0.070 C 
ATOM      3  C   UNL     1      38.569  13.014  18.119  1.00  0.00     0.037 C 
ATOM      4  C   UNL     1      39.722  12.581  18.631  1.00  0.00     0.021 C 
ATOM      5  C   UNL     1      37.645  12.225  17.338  1.00  0.00     0.334 C 
ATOM      6  O   UNL     1      37.758  10.993  17.099  1.00  0.00    -0.247 OA
ATOM      7  O   UNL     1      36.588  12.991  16.894  1.00  0.00    -0.455 OA
ENDROOT
BRANCH   2   8
ATOM      8  C   UNL     1      38.018  15.037  19.592  1.00  0.00     0.017 C 
BRANCH   8   9
ATOM      9  C   UNL     1      38.547  16.489  19.765  1.00  0.00     0.031 C 
BRANCH   9  10
ATOM     10  C   UNL     1      39.198  17.009  18.497  1.00  0.00    -0.077 C 
ATOM     11  C   UNL     1      40.658  16.708  18.275  1.00  0.00     0.039 C 
ATOM     12  C   UNL     1      38.534  17.684  17.528  1.00  0.00    -0.028 CG0
ATOM     13  G   UNL     1      37.091  18.137  17.575  1.00  0.00     0.000 G0
ENDBRANCH   9  10
ENDBRANCH   8   9
ENDBRANCH   2   8
BRANCH   1  14
ATOM     14  C   UNL     1      35.397  15.022  17.638  1.00  0.00     0.192 C 
ATOM     15  C   UNL     1      35.100  16.471  17.367  1.00  0.00     0.096 C 
ATOM     16  O   UNL     1      34.623  15.436  16.540  1.00  0.00    -0.362 OA
ATOM     17  C   UNL     1      33.962  17.119  18.157  1.00  0.00     0.045 C 
BRANCH  15  18
ATOM     18  C   UNL     1      36.100  17.399  16.649  1.00  0.00     0.042 C 
BRANCH  18  19
ATOM     19  C   UNL     1      37.087  18.147  17.567  1.00  0.00     0.030 CG0
ATOM     20  G   UNL     1      38.525  17.681  17.525  1.00  0.00     0.000 G0
ENDBRANCH  18  19
ENDBRANCH  15  18
ENDBRANCH   1  14
TORSDOF 0
ENDMDL
