MODEL 1
REMARK VINA RESULT:    -5.080      0.000      0.000
REMARK INTER + INTRA:         -10.715
REMARK INTER:                  -9.534
REMARK INTRA:                  -1.181
REMARK UNBOUND:                -1.181
REMARK SMILES O=C([O-])CCCCCCCCCCCCCCC(=O)[O-]
REMARK SMILES IDX 10 1 9 2 8 3 7 4 6 5 5 6 4 7 2 8 1 9 3 10 11 11 12 12 13 13
REMARK SMILES IDX 14 14 15 15 16 16 17 17 18 18 19 19 20 20
REMARK H PARENT
REMARK Flexibility Score: inf
ROOT
ATOM      1  C   UNL     1       4.340  46.527  65.219  1.00  0.00     0.000 C 
ENDROOT
BRANCH   1   2
ATOM      2  C   UNL     1       4.873  47.347  64.033  1.00  0.00     0.000 C 
BRANCH   2   3
ATOM      3  C   UNL     1       5.116  48.823  64.394  1.00  0.00     0.000 C 
BRANCH   3   4
ATOM      4  C   UNL     1       5.377  49.015  65.903  1.00  0.00     0.000 C 
BRANCH   4   5
ATOM      5  C   UNL     1       6.841  49.350  66.236  1.00  0.00     0.000 C 
BRANCH   5   6
ATOM      6  C   UNL     1       7.541  48.242  67.035  1.00  0.00     0.006 C 
BRANCH   6   7
ATOM      7  C   UNL     1       7.884  48.716  68.450  1.00  0.00     0.053 C 
BRANCH   7   8
ATOM      8  C   UNL     1       7.121  47.926  69.465  1.00  0.00     0.041 C 
ATOM      9  O   UNL     1       7.612  47.712  70.604  1.00  0.00    -0.550 OA
ATOM     10  O   UNL     1       5.843  47.467  69.171  1.00  0.00    -0.550 OA
ENDBRANCH   7   8
ENDBRANCH   6   7
ENDBRANCH   5   6
ENDBRANCH   4   5
ENDBRANCH   3   4
ENDBRANCH   2   3
ENDBRANCH   1   2
BRANCH   1  11
ATOM     11  C   UNL     1       3.167  45.615  64.820  1.00  0.00     0.000 C 
BRANCH  11  12
ATOM     12  C   UNL     1       3.628  44.350  64.077  1.00  0.00     0.000 C 
BRANCH  12  13
ATOM     13  C   UNL     1       3.485  43.078  64.933  1.00  0.00     0.000 C 
BRANCH  13  14
ATOM     14  C   UNL     1       2.561  43.281  66.145  1.00  0.00     0.000 C 
BRANCH  14  15
ATOM     15  C   UNL     1       3.236  42.895  67.473  1.00  0.00     0.000 C 
BRANCH  15  16
ATOM     16  C   UNL     1       2.786  43.782  68.649  1.00  0.00     0.006 C 
BRANCH  16  17
ATOM     17  C   UNL     1       2.585  43.028  69.974  1.00  0.00     0.053 C 
BRANCH  17  18
ATOM     18  C   UNL     1       3.622  43.392  70.991  1.00  0.00     0.041 C 
ATOM     19  O   UNL     1       4.796  42.947  70.886  1.00  0.00    -0.550 OA
ATOM     20  O   UNL     1       3.285  44.195  72.073  1.00  0.00    -0.550 OA
ENDBRANCH  17  18
ENDBRANCH  16  17
ENDBRANCH  15  16
ENDBRANCH  14  15
ENDBRANCH  13  14
ENDBRANCH  12  13
ENDBRANCH  11  12
ENDBRANCH   1  11
TORSDOF 15
ENDMDL
MODEL 2
REMARK VINA RESULT:    -4.977      0.864      5.803
REMARK INTER + INTRA:         -10.522
REMARK INTER:                  -9.424
REMARK INTRA:                  -1.098
REMARK UNBOUND:                -1.181
REMARK SMILES O=C([O-])CCCCCCCCCCCCCCC(=O)[O-]
REMARK SMILES IDX 10 1 9 2 8 3 7 4 6 5 5 6 4 7 2 8 1 9 3 10 11 11 12 12 13 13
REMARK SMILES IDX 14 14 15 15 16 16 17 17 18 18 19 19 20 20
REMARK H PARENT
REMARK Flexibility Score: inf
ROOT
ATOM      1  C   UNL     1       3.274  46.583  65.048  1.00  0.00     0.000 C 
ENDROOT
BRANCH   1   2
ATOM      2  C   UNL     1       3.524  45.463  66.070  1.00  0.00     0.000 C 
BRANCH   2   3
ATOM      3  C   UNL     1       3.211  44.065  65.506  1.00  0.00     0.000 C 
BRANCH   3   4
ATOM      4  C   UNL     1       3.228  42.980  66.603  1.00  0.00     0.000 C 
BRANCH   4   5
ATOM      5  C   UNL     1       2.819  43.502  67.992  1.00  0.00     0.000 C 
BRANCH   5   6
ATOM      6  C   UNL     1       3.328  42.616  69.137  1.00  0.00     0.006 C 
BRANCH   6   7
ATOM      7  C   UNL     1       2.769  43.084  70.484  1.00  0.00     0.053 C 
BRANCH   7   8
ATOM      8  C   UNL     1       3.802  43.860  71.237  1.00  0.00     0.041 C 
ATOM      9  O   UNL     1       4.948  44.033  70.747  1.00  0.00    -0.550 OA
ATOM     10  O   UNL     1       3.482  44.437  72.460  1.00  0.00    -0.550 OA
ENDBRANCH   7   8
ENDBRANCH   6   7
ENDBRANCH   5   6
ENDBRANCH   4   5
ENDBRANCH   3   4
ENDBRANCH   2   3
ENDBRANCH   1   2
BRANCH   1  11
ATOM     11  C   UNL     1       4.272  46.540  63.877  1.00  0.00     0.000 C 
BRANCH  11  12
ATOM     12  C   UNL     1       5.436  47.528  64.055  1.00  0.00     0.000 C 
BRANCH  12  13
ATOM     13  C   UNL     1       4.977  48.886  64.616  1.00  0.00     0.000 C 
BRANCH  13  14
ATOM     14  C   UNL     1       5.972  49.476  65.629  1.00  0.00     0.000 C 
BRANCH  14  15
ATOM     15  C   UNL     1       6.626  48.398  66.510  1.00  0.00     0.000 C 
BRANCH  15  16
ATOM     16  C   UNL     1       7.462  48.996  67.658  1.00  0.00     0.006 C 
BRANCH  16  17
ATOM     17  C   UNL     1       8.169  47.953  68.539  1.00  0.00     0.053 C 
BRANCH  17  18
ATOM     18  C   UNL     1       7.432  47.704  69.819  1.00  0.00     0.041 C 
ATOM     19  O   UNL     1       6.230  47.328  69.794  1.00  0.00    -0.550 OA
ATOM     20  O   UNL     1       8.061  47.920  71.038  1.00  0.00    -0.550 OA
ENDBRANCH  17  18
ENDBRANCH  16  17
ENDBRANCH  15  16
ENDBRANCH  14  15
ENDBRANCH  13  14
ENDBRANCH  12  13
ENDBRANCH  11  12
ENDBRANCH   1  11
TORSDOF 15
ENDMDL
MODEL 3
REMARK VINA RESULT:    -4.895     11.465     13.504
REMARK INTER + INTRA:         -10.369
REMARK INTER:                  -7.543
REMARK INTRA:                  -2.826
REMARK UNBOUND:                -1.181
REMARK SMILES O=C([O-])CCCCCCCCCCCCCCC(=O)[O-]
REMARK SMILES IDX 10 1 9 2 8 3 7 4 6 5 5 6 4 7 2 8 1 9 3 10 11 11 12 12 13 13
REMARK SMILES IDX 14 14 15 15 16 16 17 17 18 18 19 19 20 20
REMARK H PARENT
REMARK Flexibility Score: inf
ROOT
ATOM      1  C   UNL     1       8.470  32.609  67.637  1.00  0.00     0.000 C 
ENDROOT
BRANCH   1   2
ATOM      2  C   UNL     1       7.557  33.843  67.557  1.00  0.00     0.000 C 
BRANCH   2   3
ATOM      3  C   UNL     1       7.672  34.746  68.798  1.00  0.00     0.000 C 
BRANCH   3   4
ATOM      4  C   UNL     1       6.312  34.946  69.499  1.00  0.00     0.000 C 
BRANCH   4   5
ATOM      5  C   UNL     1       6.069  33.969  70.662  1.00  0.00     0.000 C 
BRANCH   5   6
ATOM      6  C   UNL     1       7.370  33.402  71.248  1.00  0.00     0.006 C 
BRANCH   6   7
ATOM      7  C   UNL     1       7.199  31.933  71.647  1.00  0.00     0.053 C 
BRANCH   7   8
ATOM      8  C   UNL     1       7.428  31.760  73.115  1.00  0.00     0.041 C 
ATOM      9  O   UNL     1       8.230  30.886  73.534  1.00  0.00    -0.550 OA
ATOM     10  O   UNL     1       6.792  32.601  74.021  1.00  0.00    -0.550 OA
ENDBRANCH   7   8
ENDBRANCH   6   7
ENDBRANCH   5   6
ENDBRANCH   4   5
ENDBRANCH   3   4
ENDBRANCH   2   3
ENDBRANCH   1   2
BRANCH   1  11
ATOM     11  C   UNL     1       7.686  31.317  67.927  1.00  0.00     0.000 C 
BRANCH  11  12
ATOM     12  C   UNL     1       6.212  31.411  67.498  1.00  0.00     0.000 C 
BRANCH  12  13
ATOM     13  C   UNL     1       5.244  30.995  68.619  1.00  0.00     0.000 C 
BRANCH  13  14
ATOM     14  C   UNL     1       3.931  31.795  68.595  1.00  0.00     0.000 C 
BRANCH  14  15
ATOM     15  C   UNL     1       3.938  32.910  67.536  1.00  0.00     0.000 C 
BRANCH  15  16
ATOM     16  C   UNL     1       3.096  34.131  67.952  1.00  0.00     0.006 C 
BRANCH  16  17
ATOM     17  C   UNL     1       2.494  34.038  69.363  1.00  0.00     0.053 C 
BRANCH  17  18
ATOM     18  C   UNL     1       2.464  35.369  70.051  1.00  0.00     0.041 C 
ATOM     19  O   UNL     1       2.094  36.397  69.424  1.00  0.00    -0.550 OA
ATOM     20  O   UNL     1       2.876  35.479  71.373  1.00  0.00    -0.550 OA
ENDBRANCH  17  18
ENDBRANCH  16  17
ENDBRANCH  15  16
ENDBRANCH  14  15
ENDBRANCH  13  14
ENDBRANCH  12  13
ENDBRANCH  11  12
ENDBRANCH   1  11
TORSDOF 15
ENDMDL
MODEL 4
REMARK VINA RESULT:    -4.887     11.170     13.153
REMARK INTER + INTRA:         -10.353
REMARK INTER:                  -8.113
REMARK INTRA:                  -2.240
REMARK UNBOUND:                -1.181
REMARK SMILES O=C([O-])CCCCCCCCCCCCCCC(=O)[O-]
REMARK SMILES IDX 10 1 9 2 8 3 7 4 6 5 5 6 4 7 2 8 1 9 3 10 11 11 12 12 13 13
REMARK SMILES IDX 14 14 15 15 16 16 17 17 18 18 19 19 20 20
REMARK H PARENT
REMARK Flexibility Score: inf
ROOT
ATOM      1  C   UNL     1       4.016  32.499  68.088  1.00  0.00     0.000 C 
ENDROOT
BRANCH   1   2
ATOM      2  C   UNL     1       4.352  33.918  67.605  1.00  0.00     0.000 C 
BRANCH   2   3
ATOM      3  C   UNL     1       5.294  33.923  66.388  1.00  0.00     0.000 C 
BRANCH   3   4
ATOM      4  C   UNL     1       6.665  34.550  66.718  1.00  0.00     0.000 C 
BRANCH   4   5
ATOM      5  C   UNL     1       6.947  34.654  68.227  1.00  0.00     0.000 C 
BRANCH   5   6
ATOM      6  C   UNL     1       7.915  33.574  68.730  1.00  0.00     0.006 C 
BRANCH   6   7
ATOM      7  C   UNL     1       8.413  32.701  67.575  1.00  0.00     0.053 C 
BRANCH   7   8
ATOM      8  C   UNL     1       7.868  31.313  67.696  1.00  0.00     0.041 C 
ATOM      9  O   UNL     1       7.076  30.864  66.826  1.00  0.00    -0.550 OA
ATOM     10  O   UNL     1       8.274  30.496  68.743  1.00  0.00    -0.550 OA
ENDBRANCH   7   8
ENDBRANCH   6   7
ENDBRANCH   5   6
ENDBRANCH   4   5
ENDBRANCH   3   4
ENDBRANCH   2   3
ENDBRANCH   1   2
BRANCH   1  11
ATOM     11  C   UNL     1       4.553  32.219  69.503  1.00  0.00     0.000 C 
BRANCH  11  12
ATOM     12  C   UNL     1       3.824  33.036  70.583  1.00  0.00     0.000 C 
BRANCH  12  13
ATOM     13  C   UNL     1       4.702  34.157  71.168  1.00  0.00     0.000 C 
BRANCH  13  14
ATOM     14  C   UNL     1       4.138  35.559  70.887  1.00  0.00     0.000 C 
BRANCH  14  15
ATOM     15  C   UNL     1       2.605  35.563  70.750  1.00  0.00     0.000 C 
BRANCH  15  16
ATOM     16  C   UNL     1       2.123  36.285  69.477  1.00  0.00     0.006 C 
BRANCH  16  17
ATOM     17  C   UNL     1       0.730  35.855  68.991  1.00  0.00     0.053 C 
BRANCH  17  18
ATOM     18  C   UNL     1       0.783  35.182  67.654  1.00  0.00     0.041 C 
ATOM     19  O   UNL     1       0.834  33.925  67.579  1.00  0.00    -0.550 OA
ATOM     20  O   UNL     1       0.809  35.942  66.492  1.00  0.00    -0.550 OA
ENDBRANCH  17  18
ENDBRANCH  16  17
ENDBRANCH  15  16
ENDBRANCH  14  15
ENDBRANCH  13  14
ENDBRANCH  12  13
ENDBRANCH  11  12
ENDBRANCH   1  11
TORSDOF 15
ENDMDL
MODEL 5
REMARK VINA RESULT:    -4.886     11.328     13.444
REMARK INTER + INTRA:         -10.352
REMARK INTER:                  -8.091
REMARK INTRA:                  -2.261
REMARK UNBOUND:                -1.181
REMARK SMILES O=C([O-])CCCCCCCCCCCCCCC(=O)[O-]
REMARK SMILES IDX 10 1 9 2 8 3 7 4 6 5 5 6 4 7 2 8 1 9 3 10 11 11 12 12 13 13
REMARK SMILES IDX 14 14 15 15 16 16 17 17 18 18 19 19 20 20
REMARK H PARENT
REMARK Flexibility Score: inf
ROOT
ATOM      1  C   UNL     1       7.779  34.609  68.370  1.00  0.00     0.000 C 
ENDROOT
BRANCH   1   2
ATOM      2  C   UNL     1       7.079  34.335  67.030  1.00  0.00     0.000 C 
BRANCH   2   3
ATOM      3  C   UNL     1       5.550  34.229  67.170  1.00  0.00     0.000 C 
BRANCH   3   4
ATOM      4  C   UNL     1       5.046  32.787  66.949  1.00  0.00     0.000 C 
BRANCH   4   5
ATOM      5  C   UNL     1       4.755  32.029  68.256  1.00  0.00     0.000 C 
BRANCH   5   6
ATOM      6  C   UNL     1       5.501  30.691  68.351  1.00  0.00     0.006 C 
BRANCH   6   7
ATOM      7  C   UNL     1       6.824  30.744  67.581  1.00  0.00     0.053 C 
BRANCH   7   8
ATOM      8  C   UNL     1       7.966  30.972  68.520  1.00  0.00     0.041 C 
ATOM      9  O   UNL     1       9.096  31.304  68.076  1.00  0.00    -0.550 OA
ATOM     10  O   UNL     1       7.769  30.869  69.891  1.00  0.00    -0.550 OA
ENDBRANCH   7   8
ENDBRANCH   6   7
ENDBRANCH   5   6
ENDBRANCH   4   5
ENDBRANCH   3   4
ENDBRANCH   2   3
ENDBRANCH   1   2
BRANCH   1  11
ATOM     11  C   UNL     1       6.809  35.145  69.438  1.00  0.00     0.000 C 
BRANCH  11  12
ATOM     12  C   UNL     1       6.628  34.170  70.613  1.00  0.00     0.000 C 
BRANCH  12  13
ATOM     13  C   UNL     1       5.201  34.202  71.190  1.00  0.00     0.000 C 
BRANCH  13  14
ATOM     14  C   UNL     1       4.442  35.488  70.825  1.00  0.00     0.000 C 
BRANCH  14  15
ATOM     15  C   UNL     1       3.007  35.504  71.378  1.00  0.00     0.000 C 
BRANCH  15  16
ATOM     16  C   UNL     1       1.941  35.514  70.266  1.00  0.00     0.006 C 
BRANCH  16  17
ATOM     17  C   UNL     1       2.369  34.811  68.968  1.00  0.00     0.053 C 
BRANCH  17  18
ATOM     18  C   UNL     1       1.487  35.174  67.814  1.00  0.00     0.041 C 
ATOM     19  O   UNL     1       0.778  34.294  67.257  1.00  0.00    -0.550 OA
ATOM     20  O   UNL     1       1.472  36.477  67.332  1.00  0.00    -0.550 OA
ENDBRANCH  17  18
ENDBRANCH  16  17
ENDBRANCH  15  16
ENDBRANCH  14  15
ENDBRANCH  13  14
ENDBRANCH  12  13
ENDBRANCH  11  12
ENDBRANCH   1  11
TORSDOF 15
ENDMDL
MODEL 6
REMARK VINA RESULT:    -4.871     10.999     13.631
REMARK INTER + INTRA:         -10.322
REMARK INTER:                  -8.285
REMARK INTRA:                  -2.037
REMARK UNBOUND:                -1.181
REMARK SMILES O=C([O-])CCCCCCCCCCCCCCC(=O)[O-]
REMARK SMILES IDX 10 1 9 2 8 3 7 4 6 5 5 6 4 7 2 8 1 9 3 10 11 11 12 12 13 13
REMARK SMILES IDX 14 14 15 15 16 16 17 17 18 18 19 19 20 20
REMARK H PARENT
REMARK Flexibility Score: inf
ROOT
ATOM      1  C   UNL     1       8.373  33.340  68.008  1.00  0.00     0.000 C 
ENDROOT
BRANCH   1   2
ATOM      2  C   UNL     1       7.625  32.194  67.310  1.00  0.00     0.000 C 
BRANCH   2   3
ATOM      3  C   UNL     1       7.777  30.851  68.046  1.00  0.00     0.000 C 
BRANCH   3   4
ATOM      4  C   UNL     1       6.784  30.718  69.220  1.00  0.00     0.000 C 
BRANCH   4   5
ATOM      5  C   UNL     1       7.444  30.860  70.603  1.00  0.00     0.000 C 
BRANCH   5   6
ATOM      6  C   UNL     1       6.638  31.749  71.561  1.00  0.00     0.006 C 
BRANCH   6   7
ATOM      7  C   UNL     1       7.506  32.877  72.125  1.00  0.00     0.053 C 
BRANCH   7   8
ATOM      8  C   UNL     1       8.020  32.513  73.482  1.00  0.00     0.041 C 
ATOM      9  O   UNL     1       8.736  33.322  74.128  1.00  0.00    -0.550 OA
ATOM     10  O   UNL     1       7.664  31.299  74.056  1.00  0.00    -0.550 OA
ENDBRANCH   7   8
ENDBRANCH   6   7
ENDBRANCH   5   6
ENDBRANCH   4   5
ENDBRANCH   3   4
ENDBRANCH   2   3
ENDBRANCH   1   2
BRANCH   1  11
ATOM     11  C   UNL     1       7.425  34.456  68.483  1.00  0.00     0.000 C 
BRANCH  11  12
ATOM     12  C   UNL     1       5.961  34.191  68.095  1.00  0.00     0.000 C 
BRANCH  12  13
ATOM     13  C   UNL     1       5.026  34.145  69.317  1.00  0.00     0.000 C 
BRANCH  13  14
ATOM     14  C   UNL     1       5.300  35.282  70.316  1.00  0.00     0.000 C 
BRANCH  14  15
ATOM     15  C   UNL     1       4.041  35.702  71.093  1.00  0.00     0.000 C 
BRANCH  15  16
ATOM     16  C   UNL     1       2.739  35.244  70.409  1.00  0.00     0.006 C 
BRANCH  16  17
ATOM     17  C   UNL     1       1.925  36.380  69.767  1.00  0.00     0.053 C 
BRANCH  17  18
ATOM     18  C   UNL     1       1.453  36.024  68.391  1.00  0.00     0.041 C 
ATOM     19  O   UNL     1       0.396  36.534  67.933  1.00  0.00    -0.550 OA
ATOM     20  O   UNL     1       2.162  35.106  67.627  1.00  0.00    -0.550 OA
ENDBRANCH  17  18
ENDBRANCH  16  17
ENDBRANCH  15  16
ENDBRANCH  14  15
ENDBRANCH  13  14
ENDBRANCH  12  13
ENDBRANCH  11  12
ENDBRANCH   1  11
TORSDOF 15
ENDMDL
MODEL 7
REMARK VINA RESULT:    -4.845     11.365     13.547
REMARK INTER + INTRA:         -10.274
REMARK INTER:                  -7.766
REMARK INTRA:                  -2.508
REMARK UNBOUND:                -1.181
REMARK SMILES O=C([O-])CCCCCCCCCCCCCCC(=O)[O-]
REMARK SMILES IDX 10 1 9 2 8 3 7 4 6 5 5 6 4 7 2 8 1 9 3 10 11 11 12 12 13 13
REMARK SMILES IDX 14 14 15 15 16 16 17 17 18 18 19 19 20 20
REMARK H PARENT
REMARK Flexibility Score: inf
ROOT
ATOM      1  C   UNL     1       8.268  30.996  68.526  1.00  0.00     0.000 C 
ENDROOT
BRANCH   1   2
ATOM      2  C   UNL     1       7.050  30.431  69.273  1.00  0.00     0.000 C 
BRANCH   2   3
ATOM      3  C   UNL     1       6.351  31.486  70.149  1.00  0.00     0.000 C 
BRANCH   3   4
ATOM      4  C   UNL     1       7.362  32.385  70.892  1.00  0.00     0.000 C 
BRANCH   4   5
ATOM      5  C   UNL     1       6.918  33.855  70.998  1.00  0.00     0.000 C 
BRANCH   5   6
ATOM      6  C   UNL     1       5.399  34.032  70.856  1.00  0.00     0.006 C 
BRANCH   6   7
ATOM      7  C   UNL     1       5.045  35.482  70.516  1.00  0.00     0.053 C 
BRANCH   7   8
ATOM      8  C   UNL     1       3.620  35.769  70.870  1.00  0.00     0.041 C 
ATOM      9  O   UNL     1       3.260  35.804  72.075  1.00  0.00    -0.550 OA
ATOM     10  O   UNL     1       2.698  36.047  69.868  1.00  0.00    -0.550 OA
ENDBRANCH   7   8
ENDBRANCH   6   7
ENDBRANCH   5   6
ENDBRANCH   4   5
ENDBRANCH   3   4
ENDBRANCH   2   3
ENDBRANCH   1   2
BRANCH   1  11
ATOM     11  C   UNL     1       7.874  31.726  67.230  1.00  0.00     0.000 C 
BRANCH  11  12
ATOM     12  C   UNL     1       8.080  33.247  67.323  1.00  0.00     0.000 C 
BRANCH  12  13
ATOM     13  C   UNL     1       6.756  34.027  67.246  1.00  0.00     0.000 C 
BRANCH  13  14
ATOM     14  C   UNL     1       5.554  33.124  66.926  1.00  0.00     0.000 C 
BRANCH  14  15
ATOM     15  C   UNL     1       4.221  33.720  67.411  1.00  0.00     0.000 C 
BRANCH  15  16
ATOM     16  C   UNL     1       3.158  32.643  67.701  1.00  0.00     0.006 C 
BRANCH  16  17
ATOM     17  C   UNL     1       1.738  33.192  67.910  1.00  0.00     0.053 C 
BRANCH  17  18
ATOM     18  C   UNL     1       1.116  32.680  69.173  1.00  0.00     0.041 C 
ATOM     19  O   UNL     1       0.574  33.479  69.981  1.00  0.00    -0.550 OA
ATOM     20  O   UNL     1       1.165  31.324  69.473  1.00  0.00    -0.550 OA
ENDBRANCH  17  18
ENDBRANCH  16  17
ENDBRANCH  15  16
ENDBRANCH  14  15
ENDBRANCH  13  14
ENDBRANCH  12  13
ENDBRANCH  11  12
ENDBRANCH   1  11
TORSDOF 15
ENDMDL
MODEL 8
REMARK VINA RESULT:    -4.840     11.210     13.726
REMARK INTER + INTRA:         -10.266
REMARK INTER:                  -8.070
REMARK INTRA:                  -2.196
REMARK UNBOUND:                -1.181
REMARK SMILES O=C([O-])CCCCCCCCCCCCCCC(=O)[O-]
REMARK SMILES IDX 10 1 9 2 8 3 7 4 6 5 5 6 4 7 2 8 1 9 3 10 11 11 12 12 13 13
REMARK SMILES IDX 14 14 15 15 16 16 17 17 18 18 19 19 20 20
REMARK H PARENT
REMARK Flexibility Score: inf
ROOT
ATOM      1  C   UNL     1       7.004  32.208  70.814  1.00  0.00     0.000 C 
ENDROOT
BRANCH   1   2
ATOM      2  C   UNL     1       5.642  31.502  70.722  1.00  0.00     0.000 C 
BRANCH   2   3
ATOM      3  C   UNL     1       5.255  31.149  69.275  1.00  0.00     0.000 C 
BRANCH   3   4
ATOM      4  C   UNL     1       4.509  32.305  68.576  1.00  0.00     0.000 C 
BRANCH   4   5
ATOM      5  C   UNL     1       5.307  32.947  67.428  1.00  0.00     0.000 C 
BRANCH   5   6
ATOM      6  C   UNL     1       6.518  32.106  66.998  1.00  0.00     0.006 C 
BRANCH   6   7
ATOM      7  C   UNL     1       7.825  32.877  67.209  1.00  0.00     0.053 C 
BRANCH   7   8
ATOM      8  C   UNL     1       8.938  31.935  67.542  1.00  0.00     0.041 C 
ATOM      9  O   UNL     1      10.114  32.185  67.168  1.00  0.00    -0.550 OA
ATOM     10  O   UNL     1       8.686  30.806  68.311  1.00  0.00    -0.550 OA
ENDBRANCH   7   8
ENDBRANCH   6   7
ENDBRANCH   5   6
ENDBRANCH   4   5
ENDBRANCH   3   4
ENDBRANCH   2   3
ENDBRANCH   1   2
BRANCH   1  11
ATOM     11  C   UNL     1       6.884  33.641  71.364  1.00  0.00     0.000 C 
BRANCH  11  12
ATOM     12  C   UNL     1       6.716  34.689  70.252  1.00  0.00     0.000 C 
BRANCH  12  13
ATOM     13  C   UNL     1       5.425  35.512  70.407  1.00  0.00     0.000 C 
BRANCH  13  14
ATOM     14  C   UNL     1       4.412  34.852  71.357  1.00  0.00     0.000 C 
BRANCH  14  15
ATOM     15  C   UNL     1       3.149  35.706  71.561  1.00  0.00     0.000 C 
BRANCH  15  16
ATOM     16  C   UNL     1       2.440  36.046  70.236  1.00  0.00     0.006 C 
BRANCH  16  17
ATOM     17  C   UNL     1       1.733  34.854  69.570  1.00  0.00     0.053 C 
BRANCH  17  18
ATOM     18  C   UNL     1       1.418  35.120  68.130  1.00  0.00     0.041 C 
ATOM     19  O   UNL     1       1.437  36.298  67.685  1.00  0.00    -0.550 OA
ATOM     20  O   UNL     1       1.073  34.071  67.288  1.00  0.00    -0.550 OA
ENDBRANCH  17  18
ENDBRANCH  16  17
ENDBRANCH  15  16
ENDBRANCH  14  15
ENDBRANCH  13  14
ENDBRANCH  12  13
ENDBRANCH  11  12
ENDBRANCH   1  11
TORSDOF 15
ENDMDL
MODEL 9
REMARK VINA RESULT:    -4.825     11.072     13.197
REMARK INTER + INTRA:         -10.237
REMARK INTER:                  -7.949
REMARK INTRA:                  -2.288
REMARK UNBOUND:                -1.181
REMARK SMILES O=C([O-])CCCCCCCCCCCCCCC(=O)[O-]
REMARK SMILES IDX 10 1 9 2 8 3 7 4 6 5 5 6 4 7 2 8 1 9 3 10 11 11 12 12 13 13
REMARK SMILES IDX 14 14 15 15 16 16 17 17 18 18 19 19 20 20
REMARK H PARENT
REMARK Flexibility Score: inf
ROOT
ATOM      1  C   UNL     1       3.847  32.777  68.716  1.00  0.00     0.000 C 
ENDROOT
BRANCH   1   2
ATOM      2  C   UNL     1       3.900  33.427  70.108  1.00  0.00     0.000 C 
BRANCH   2   3
ATOM      3  C   UNL     1       4.642  34.776  70.104  1.00  0.00     0.000 C 
BRANCH   3   4
ATOM      4  C   UNL     1       3.945  35.823  70.998  1.00  0.00     0.000 C 
BRANCH   4   5
ATOM      5  C   UNL     1       2.409  35.754  70.944  1.00  0.00     0.000 C 
BRANCH   5   6
ATOM      6  C   UNL     1       1.823  36.435  69.699  1.00  0.00     0.006 C 
BRANCH   6   7
ATOM      7  C   UNL     1       0.699  35.592  69.090  1.00  0.00     0.053 C 
BRANCH   7   8
ATOM      8  C   UNL     1       1.073  35.137  67.715  1.00  0.00     0.041 C 
ATOM      9  O   UNL     1       1.724  35.896  66.950  1.00  0.00    -0.550 OA
ATOM     10  O   UNL     1       0.746  33.853  67.295  1.00  0.00    -0.550 OA
ENDBRANCH   7   8
ENDBRANCH   6   7
ENDBRANCH   5   6
ENDBRANCH   4   5
ENDBRANCH   3   4
ENDBRANCH   2   3
ENDBRANCH   1   2
BRANCH   1  11
ATOM     11  C   UNL     1       4.541  33.634  67.642  1.00  0.00     0.000 C 
BRANCH  11  12
ATOM     12  C   UNL     1       5.866  33.019  67.161  1.00  0.00     0.000 C 
BRANCH  12  13
ATOM     13  C   UNL     1       7.075  33.927  67.447  1.00  0.00     0.000 C 
BRANCH  13  14
ATOM     14  C   UNL     1       7.807  33.548  68.744  1.00  0.00     0.000 C 
BRANCH  14  15
ATOM     15  C   UNL     1       7.658  32.057  69.092  1.00  0.00     0.000 C 
BRANCH  15  16
ATOM     16  C   UNL     1       7.146  31.829  70.527  1.00  0.00     0.006 C 
BRANCH  16  17
ATOM     17  C   UNL     1       7.373  33.014  71.479  1.00  0.00     0.053 C 
BRANCH  17  18
ATOM     18  C   UNL     1       7.455  32.578  72.910  1.00  0.00     0.041 C 
ATOM     19  O   UNL     1       8.433  32.926  73.623  1.00  0.00    -0.550 OA
ATOM     20  O   UNL     1       6.468  31.761  73.447  1.00  0.00    -0.550 OA
ENDBRANCH  17  18
ENDBRANCH  16  17
ENDBRANCH  15  16
ENDBRANCH  14  15
ENDBRANCH  13  14
ENDBRANCH  12  13
ENDBRANCH  11  12
ENDBRANCH   1  11
TORSDOF 15
ENDMDL
