MODEL 1
REMARK VINA RESULT:    -6.418      0.000      0.000
REMARK INTER + INTRA:          -7.709
REMARK INTER:                  -7.544
REMARK INTRA:                  -0.165
REMARK UNBOUND:                -0.165
REMARK SMILES O=c1c(O)c(-c2ccc(O)c(O)c2)oc2cc(O)ccc12
REMARK SMILES IDX 5 1 3 2 2 3 1 4 21 5 15 6 14 7 16 8 17 9 19 10 20 11 6 12
REMARK SMILES IDX 7 13 8 14 9 15 13 16 11 17 10 18 12 20 4 22 18 24
REMARK H PARENT 10 19 12 21 4 23 18 25
REMARK Flexibility Score: inf
ROOT
ATOM      1  C   UNL     1     -12.233 -33.732  31.455  1.00  0.00     0.180 A 
ATOM      2  C   UNL     1     -12.139 -35.118  31.217  1.00  0.00     0.208 A 
ATOM      3  C   UNL     1     -12.671 -35.638  30.027  1.00  0.00     0.235 A 
ATOM      4  O   UNL     1     -12.610 -36.877  29.796  1.00  0.00    -0.285 OA
ATOM      5  C   UNL     1     -13.262 -34.769  29.097  1.00  0.00     0.069 A 
ATOM      6  C   UNL     1     -13.296 -33.390  29.397  1.00  0.00     0.142 A 
ATOM      7  O   UNL     1     -12.788 -32.939  30.540  1.00  0.00    -0.452 OA
ATOM      8  C   UNL     1     -13.867 -32.489  28.492  1.00  0.00     0.094 A 
ATOM      9  C   UNL     1     -14.410 -32.948  27.288  1.00  0.00     0.119 A 
ATOM     10  C   UNL     1     -14.380 -34.317  26.986  1.00  0.00     0.047 A 
ATOM     11  C   UNL     1     -13.809 -35.224  27.884  1.00  0.00     0.020 A 
ENDROOT
BRANCH   1  12
ATOM     12  C   UNL     1     -11.712 -33.108  32.693  1.00  0.00     0.025 A 
ATOM     13  C   UNL     1     -10.341 -33.109  32.990  1.00  0.00     0.016 A 
ATOM     14  C   UNL     1      -9.876 -32.537  34.176  1.00  0.00     0.051 A 
ATOM     15  C   UNL     1     -10.766 -31.965  35.091  1.00  0.00     0.157 A 
ATOM     16  C   UNL     1     -12.610 -32.555  33.620  1.00  0.00     0.062 A 
ATOM     17  C   UNL     1     -12.154 -31.978  34.811  1.00  0.00     0.158 A 
BRANCH  15  18
ATOM     18  O   UNL     1     -10.237 -31.405  36.254  1.00  0.00    -0.504 OA
ATOM     19  H   UNL     1     -10.604 -31.573  37.181  1.00  0.00     0.293 HD
ENDBRANCH  15  18
BRANCH  17  20
ATOM     20  O   UNL     1     -13.104 -31.436  35.679  1.00  0.00    -0.504 OA
ATOM     21  H   UNL     1     -13.035 -30.516  36.087  1.00  0.00     0.293 HD
ENDBRANCH  17  20
ENDBRANCH   1  12
BRANCH   2  22
ATOM     22  O   UNL     1     -11.502 -35.953  32.138  1.00  0.00    -0.502 OA
ATOM     23  H   UNL     1     -12.010 -36.609  32.718  1.00  0.00     0.293 HD
ENDBRANCH   2  22
BRANCH   9  24
ATOM     24  O   UNL     1     -14.975 -32.039  26.397  1.00  0.00    -0.508 OA
ATOM     25  H   UNL     1     -14.415 -31.335  25.932  1.00  0.00     0.293 HD
ENDBRANCH   9  24
TORSDOF 5
ENDMDL
MODEL 2
REMARK VINA RESULT:    -6.041      0.759      1.559
REMARK INTER + INTRA:          -7.265
REMARK INTER:                  -7.156
REMARK INTRA:                  -0.109
REMARK UNBOUND:                -0.165
REMARK SMILES O=c1c(O)c(-c2ccc(O)c(O)c2)oc2cc(O)ccc12
REMARK SMILES IDX 5 1 3 2 2 3 1 4 21 5 15 6 14 7 16 8 17 9 19 10 20 11 6 12
REMARK SMILES IDX 7 13 8 14 9 15 13 16 11 17 10 18 12 20 4 22 18 24
REMARK H PARENT 10 19 12 21 4 23 18 25
REMARK Flexibility Score: inf
ROOT
ATOM      1  C   UNL     1     -12.762 -33.531  31.451  1.00  0.00     0.180 A 
ATOM      2  C   UNL     1     -12.289 -34.825  31.153  1.00  0.00     0.208 A 
ATOM      3  C   UNL     1     -12.470 -35.330  29.856  1.00  0.00     0.235 A 
ATOM      4  O   UNL     1     -12.067 -36.491  29.568  1.00  0.00    -0.285 OA
ATOM      5  C   UNL     1     -13.096 -34.532  28.886  1.00  0.00     0.069 A 
ATOM      6  C   UNL     1     -13.520 -33.238  29.256  1.00  0.00     0.142 A 
ATOM      7  O   UNL     1     -13.337 -32.800  30.497  1.00  0.00    -0.452 OA
ATOM      8  C   UNL     1     -14.139 -32.407  28.315  1.00  0.00     0.094 A 
ATOM      9  C   UNL     1     -14.344 -32.854  27.006  1.00  0.00     0.119 A 
ATOM     10  C   UNL     1     -13.926 -34.140  26.634  1.00  0.00     0.047 A 
ATOM     11  C   UNL     1     -13.305 -34.976  27.567  1.00  0.00     0.020 A 
ENDROOT
BRANCH   1  12
ATOM     12  C   UNL     1     -12.624 -32.933  32.799  1.00  0.00     0.025 A 
ATOM     13  C   UNL     1     -13.748 -32.526  33.535  1.00  0.00     0.016 A 
ATOM     14  C   UNL     1     -13.593 -31.943  34.793  1.00  0.00     0.051 A 
ATOM     15  C   UNL     1     -12.319 -31.745  35.337  1.00  0.00     0.157 A 
ATOM     16  C   UNL     1     -11.344 -32.716  33.332  1.00  0.00     0.062 A 
ATOM     17  C   UNL     1     -11.178 -32.132  34.595  1.00  0.00     0.158 A 
BRANCH  15  18
ATOM     18  O   UNL     1     -12.233 -31.162  36.602  1.00  0.00    -0.504 OA
ATOM     19  H   UNL     1     -11.860 -31.630  37.417  1.00  0.00     0.293 HD
ENDBRANCH  15  18
BRANCH  17  20
ATOM     20  O   UNL     1      -9.875 -31.958  35.066  1.00  0.00    -0.504 OA
ATOM     21  H   UNL     1      -9.632 -31.906  36.044  1.00  0.00     0.293 HD
ENDBRANCH  17  20
ENDBRANCH   1  12
BRANCH   2  22
ATOM     22  O   UNL     1     -11.626 -35.578  32.125  1.00  0.00    -0.502 OA
ATOM     23  H   UNL     1     -10.935 -36.279  31.889  1.00  0.00     0.293 HD
ENDBRANCH   2  22
BRANCH   9  24
ATOM     24  O   UNL     1     -14.962 -32.016  26.081  1.00  0.00    -0.508 OA
ATOM     25  H   UNL     1     -15.695 -31.374  26.356  1.00  0.00     0.293 HD
ENDBRANCH   9  24
TORSDOF 5
ENDMDL
MODEL 3
REMARK VINA RESULT:    -5.703      1.974      6.837
REMARK INTER + INTRA:          -6.869
REMARK INTER:                  -6.699
REMARK INTRA:                  -0.170
REMARK UNBOUND:                -0.165
REMARK SMILES O=c1c(O)c(-c2ccc(O)c(O)c2)oc2cc(O)ccc12
REMARK SMILES IDX 5 1 3 2 2 3 1 4 21 5 15 6 14 7 16 8 17 9 19 10 20 11 6 12
REMARK SMILES IDX 7 13 8 14 9 15 13 16 11 17 10 18 12 20 4 22 18 24
REMARK H PARENT 10 19 12 21 4 23 18 25
REMARK Flexibility Score: inf
ROOT
ATOM      1  C   UNL     1     -12.740 -33.240  31.264  1.00  0.00     0.180 A 
ATOM      2  C   UNL     1     -14.049 -32.865  31.627  1.00  0.00     0.208 A 
ATOM      3  C   UNL     1     -14.279 -32.378  32.924  1.00  0.00     0.235 A 
ATOM      4  O   UNL     1     -15.444 -32.047  33.277  1.00  0.00    -0.285 OA
ATOM      5  C   UNL     1     -13.202 -32.257  33.816  1.00  0.00     0.069 A 
ATOM      6  C   UNL     1     -11.917 -32.631  33.369  1.00  0.00     0.142 A 
ATOM      7  O   UNL     1     -11.744 -33.095  32.136  1.00  0.00    -0.452 OA
ATOM      8  C   UNL     1     -10.816 -32.516  34.224  1.00  0.00     0.094 A 
ATOM      9  C   UNL     1     -10.982 -32.034  35.527  1.00  0.00     0.119 A 
ATOM     10  C   UNL     1     -12.257 -31.663  35.976  1.00  0.00     0.047 A 
ATOM     11  C   UNL     1     -13.363 -31.773  35.127  1.00  0.00     0.020 A 
ENDROOT
BRANCH   1  12
ATOM     12  C   UNL     1     -12.420 -33.779  29.922  1.00  0.00     0.025 A 
ATOM     13  C   UNL     1     -11.634 -33.054  29.013  1.00  0.00     0.016 A 
ATOM     14  C   UNL     1     -11.365 -33.571  27.744  1.00  0.00     0.051 A 
ATOM     15  C   UNL     1     -11.882 -34.811  27.354  1.00  0.00     0.157 A 
ATOM     16  C   UNL     1     -12.958 -35.013  29.525  1.00  0.00     0.062 A 
ATOM     17  C   UNL     1     -12.693 -35.541  28.255  1.00  0.00     0.158 A 
BRANCH  15  18
ATOM     18  O   UNL     1     -11.572 -35.274  26.075  1.00  0.00    -0.504 OA
ATOM     19  H   UNL     1     -10.729 -35.783  25.846  1.00  0.00     0.293 HD
ENDBRANCH  15  18
BRANCH  17  20
ATOM     20  O   UNL     1     -13.253 -36.779  27.935  1.00  0.00    -0.504 OA
ATOM     21  H   UNL     1     -13.861 -36.936  27.145  1.00  0.00     0.293 HD
ENDBRANCH  17  20
ENDBRANCH   1  12
BRANCH   2  22
ATOM     22  O   UNL     1     -15.093 -32.949  30.703  1.00  0.00    -0.502 OA
ATOM     23  H   UNL     1     -15.433 -32.142  30.194  1.00  0.00     0.293 HD
ENDBRANCH   2  22
BRANCH   9  24
ATOM     24  O   UNL     1      -9.876 -31.926  36.366  1.00  0.00    -0.508 OA
ATOM     25  H   UNL     1      -8.946 -31.763  35.999  1.00  0.00     0.293 HD
ENDBRANCH   9  24
TORSDOF 5
ENDMDL
MODEL 4
REMARK VINA RESULT:    -5.169      2.335      3.027
REMARK INTER + INTRA:          -6.241
REMARK INTER:                  -6.539
REMARK INTRA:                   0.298
REMARK UNBOUND:                -0.165
REMARK SMILES O=c1c(O)c(-c2ccc(O)c(O)c2)oc2cc(O)ccc12
REMARK SMILES IDX 5 1 3 2 2 3 1 4 21 5 15 6 14 7 16 8 17 9 19 10 20 11 6 12
REMARK SMILES IDX 7 13 8 14 9 15 13 16 11 17 10 18 12 20 4 22 18 24
REMARK H PARENT 10 19 12 21 4 23 18 25
REMARK Flexibility Score: inf
ROOT
ATOM      1  C   UNL     1     -12.028 -33.506  32.166  1.00  0.00     0.180 A 
ATOM      2  C   UNL     1     -10.931 -33.347  31.296  1.00  0.00     0.208 A 
ATOM      3  C   UNL     1     -10.876 -34.121  30.127  1.00  0.00     0.235 A 
ATOM      4  O   UNL     1      -9.898 -34.005  29.338  1.00  0.00    -0.285 OA
ATOM      5  C   UNL     1     -11.919 -35.016  29.842  1.00  0.00     0.069 A 
ATOM      6  C   UNL     1     -12.995 -35.101  30.751  1.00  0.00     0.142 A 
ATOM      7  O   UNL     1     -13.004 -34.356  31.852  1.00  0.00    -0.452 OA
ATOM      8  C   UNL     1     -14.059 -35.974  30.499  1.00  0.00     0.094 A 
ATOM      9  C   UNL     1     -14.061 -36.768  29.348  1.00  0.00     0.119 A 
ATOM     10  C   UNL     1     -12.994 -36.689  28.443  1.00  0.00     0.047 A 
ATOM     11  C   UNL     1     -11.927 -35.818  28.686  1.00  0.00     0.020 A 
ENDROOT
BRANCH   1  12
ATOM     12  C   UNL     1     -12.151 -32.740  33.428  1.00  0.00     0.025 A 
ATOM     13  C   UNL     1     -13.403 -32.349  33.926  1.00  0.00     0.016 A 
ATOM     14  C   UNL     1     -13.493 -31.606  35.104  1.00  0.00     0.051 A 
ATOM     15  C   UNL     1     -12.339 -31.229  35.801  1.00  0.00     0.157 A 
ATOM     16  C   UNL     1     -10.991 -32.345  34.113  1.00  0.00     0.062 A 
ATOM     17  C   UNL     1     -11.070 -31.600  35.296  1.00  0.00     0.158 A 
BRANCH  15  18
ATOM     18  O   UNL     1     -12.498 -30.492  36.975  1.00  0.00    -0.504 OA
ATOM     19  H   UNL     1     -12.864 -29.551  37.007  1.00  0.00     0.293 HD
ENDBRANCH  15  18
BRANCH  17  20
ATOM     20  O   UNL     1      -9.875 -31.254  35.929  1.00  0.00    -0.504 OA
ATOM     21  H   UNL     1      -9.279 -31.912  36.407  1.00  0.00     0.293 HD
ENDBRANCH  17  20
ENDBRANCH   1  12
BRANCH   2  22
ATOM     22  O   UNL     1      -9.932 -32.413  31.580  1.00  0.00    -0.502 OA
ATOM     23  H   UNL     1      -8.948 -32.654  31.582  1.00  0.00     0.293 HD
ENDBRANCH   2  22
BRANCH   9  24
ATOM     24  O   UNL     1     -15.128 -37.632  29.111  1.00  0.00    -0.508 OA
ATOM     25  H   UNL     1     -15.948 -37.334  28.597  1.00  0.00     0.293 HD
ENDBRANCH   9  24
TORSDOF 5
ENDMDL
MODEL 5
REMARK VINA RESULT:    -4.744      1.445      3.370
REMARK INTER + INTRA:          -5.741
REMARK INTER:                  -5.682
REMARK INTRA:                  -0.058
REMARK UNBOUND:                -0.165
REMARK SMILES O=c1c(O)c(-c2ccc(O)c(O)c2)oc2cc(O)ccc12
REMARK SMILES IDX 5 1 3 2 2 3 1 4 21 5 15 6 14 7 16 8 17 9 19 10 20 11 6 12
REMARK SMILES IDX 7 13 8 14 9 15 13 16 11 17 10 18 12 20 4 22 18 24
REMARK H PARENT 10 19 12 21 4 23 18 25
REMARK Flexibility Score: inf
ROOT
ATOM      1  C   UNL     1     -13.368 -33.359  31.625  1.00  0.00     0.180 A 
ATOM      2  C   UNL     1     -14.039 -32.603  30.642  1.00  0.00     0.208 A 
ATOM      3  C   UNL     1     -14.355 -33.212  29.418  1.00  0.00     0.235 A 
ATOM      4  O   UNL     1     -14.945 -32.553  28.518  1.00  0.00    -0.285 OA
ATOM      5  C   UNL     1     -14.016 -34.558  29.209  1.00  0.00     0.069 A 
ATOM      6  C   UNL     1     -13.367 -35.254  30.251  1.00  0.00     0.142 A 
ATOM      7  O   UNL     1     -13.078 -34.637  31.392  1.00  0.00    -0.452 OA
ATOM      8  C   UNL     1     -13.021 -36.599  30.086  1.00  0.00     0.094 A 
ATOM      9  C   UNL     1     -13.313 -37.261  28.889  1.00  0.00     0.119 A 
ATOM     10  C   UNL     1     -13.957 -36.574  27.851  1.00  0.00     0.047 A 
ATOM     11  C   UNL     1     -14.308 -35.229  28.008  1.00  0.00     0.020 A 
ENDROOT
BRANCH   1  12
ATOM     12  C   UNL     1     -12.984 -32.783  32.934  1.00  0.00     0.025 A 
ATOM     13  C   UNL     1     -13.936 -32.191  33.779  1.00  0.00     0.016 A 
ATOM     14  C   UNL     1     -13.547 -31.634  34.998  1.00  0.00     0.051 A 
ATOM     15  C   UNL     1     -12.205 -31.645  35.393  1.00  0.00     0.157 A 
ATOM     16  C   UNL     1     -11.634 -32.777  33.318  1.00  0.00     0.062 A 
ATOM     17  C   UNL     1     -11.234 -32.221  34.539  1.00  0.00     0.158 A 
BRANCH  15  18
ATOM     18  O   UNL     1     -11.882 -31.076  36.626  1.00  0.00    -0.504 OA
ATOM     19  H   UNL     1     -12.238 -31.408  37.512  1.00  0.00     0.293 HD
ENDBRANCH  15  18
BRANCH  17  20
ATOM     20  O   UNL     1      -9.875 -32.261  34.860  1.00  0.00    -0.504 OA
ATOM     21  H   UNL     1      -9.251 -31.473  34.770  1.00  0.00     0.293 HD
ENDBRANCH  17  20
ENDBRANCH   1  12
BRANCH   2  22
ATOM     22  O   UNL     1     -14.409 -31.280  30.896  1.00  0.00    -0.502 OA
ATOM     23  H   UNL     1     -15.369 -30.964  30.837  1.00  0.00     0.293 HD
ENDBRANCH   2  22
BRANCH   9  24
ATOM     24  O   UNL     1     -12.962 -38.601  28.741  1.00  0.00    -0.508 OA
ATOM     25  H   UNL     1     -12.235 -38.890  28.098  1.00  0.00     0.293 HD
ENDBRANCH   9  24
TORSDOF 5
ENDMDL
MODEL 6
REMARK VINA RESULT:    -4.672      2.458      3.845
REMARK INTER + INTRA:          -5.656
REMARK INTER:                  -6.179
REMARK INTRA:                   0.523
REMARK UNBOUND:                -0.165
REMARK SMILES O=c1c(O)c(-c2ccc(O)c(O)c2)oc2cc(O)ccc12
REMARK SMILES IDX 5 1 3 2 2 3 1 4 21 5 15 6 14 7 16 8 17 9 19 10 20 11 6 12
REMARK SMILES IDX 7 13 8 14 9 15 13 16 11 17 10 18 12 20 4 22 18 24
REMARK H PARENT 10 19 12 21 4 23 18 25
REMARK Flexibility Score: inf
ROOT
ATOM      1  C   UNL     1     -12.203 -32.360  33.753  1.00  0.00     0.180 A 
ATOM      2  C   UNL     1     -13.544 -32.330  33.320  1.00  0.00     0.208 A 
ATOM      3  C   UNL     1     -13.923 -33.137  32.236  1.00  0.00     0.235 A 
ATOM      4  O   UNL     1     -15.115 -33.119  31.821  1.00  0.00    -0.285 OA
ATOM      5  C   UNL     1     -12.969 -33.965  31.625  1.00  0.00     0.069 A 
ATOM      6  C   UNL     1     -11.652 -33.957  32.133  1.00  0.00     0.142 A 
ATOM      7  O   UNL     1     -11.332 -33.171  33.156  1.00  0.00    -0.452 OA
ATOM      8  C   UNL     1     -10.674 -34.776  31.559  1.00  0.00     0.094 A 
ATOM      9  C   UNL     1     -10.993 -35.605  30.478  1.00  0.00     0.119 A 
ATOM     10  C   UNL     1     -12.300 -35.615  29.970  1.00  0.00     0.047 A 
ATOM     11  C   UNL     1     -13.284 -34.801  30.539  1.00  0.00     0.020 A 
ENDROOT
BRANCH   1  12
ATOM     12  C   UNL     1     -11.720 -31.525  34.878  1.00  0.00     0.025 A 
ATOM     13  C   UNL     1     -10.355 -31.442  35.192  1.00  0.00     0.016 A 
ATOM     14  C   UNL     1      -9.925 -30.669  36.271  1.00  0.00     0.051 A 
ATOM     15  C   UNL     1     -10.846 -29.974  37.064  1.00  0.00     0.157 A 
ATOM     16  C   UNL     1     -12.647 -30.847  35.684  1.00  0.00     0.062 A 
ATOM     17  C   UNL     1     -12.226 -30.068  36.769  1.00  0.00     0.158 A 
BRANCH  15  18
ATOM     18  O   UNL     1     -10.351 -29.214  38.125  1.00  0.00    -0.504 OA
ATOM     19  H   UNL     1     -10.289 -28.206  38.117  1.00  0.00     0.293 HD
ENDBRANCH  15  18
BRANCH  17  20
ATOM     20  O   UNL     1     -13.205 -29.412  37.519  1.00  0.00    -0.504 OA
ATOM     21  H   UNL     1     -13.840 -28.726  37.139  1.00  0.00     0.293 HD
ENDBRANCH  17  20
ENDBRANCH   1  12
BRANCH   2  22
ATOM     22  O   UNL     1     -14.483 -31.532  33.978  1.00  0.00    -0.502 OA
ATOM     23  H   UNL     1     -14.641 -30.564  33.729  1.00  0.00     0.293 HD
ENDBRANCH   2  22
BRANCH   9  24
ATOM     24  O   UNL     1     -10.008 -36.414  29.918  1.00  0.00    -0.508 OA
ATOM     25  H   UNL     1      -9.900 -36.499  28.914  1.00  0.00     0.293 HD
ENDBRANCH   9  24
TORSDOF 5
ENDMDL
MODEL 7
REMARK VINA RESULT:    -4.178      1.898      3.337
REMARK INTER + INTRA:          -5.075
REMARK INTER:                  -5.475
REMARK INTRA:                   0.400
REMARK UNBOUND:                -0.165
REMARK SMILES O=c1c(O)c(-c2ccc(O)c(O)c2)oc2cc(O)ccc12
REMARK SMILES IDX 5 1 3 2 2 3 1 4 21 5 15 6 14 7 16 8 17 9 19 10 20 11 6 12
REMARK SMILES IDX 7 13 8 14 9 15 13 16 11 17 10 18 12 20 4 22 18 24
REMARK H PARENT 10 19 12 21 4 23 18 25
REMARK Flexibility Score: inf
ROOT
ATOM      1  C   UNL     1     -13.234 -32.738  30.706  1.00  0.00     0.180 A 
ATOM      2  C   UNL     1     -14.353 -32.250  30.000  1.00  0.00     0.208 A 
ATOM      3  C   UNL     1     -14.417 -32.449  28.612  1.00  0.00     0.235 A 
ATOM      4  O   UNL     1     -15.403 -32.012  27.956  1.00  0.00    -0.285 OA
ATOM      5  C   UNL     1     -13.382 -33.142  27.966  1.00  0.00     0.069 A 
ATOM      6  C   UNL     1     -12.307 -33.620  28.745  1.00  0.00     0.142 A 
ATOM      7  O   UNL     1     -12.280 -33.403  30.056  1.00  0.00    -0.452 OA
ATOM      8  C   UNL     1     -11.261 -34.324  28.140  1.00  0.00     0.094 A 
ATOM      9  C   UNL     1     -11.272 -34.557  26.761  1.00  0.00     0.119 A 
ATOM     10  C   UNL     1     -12.336 -34.082  25.982  1.00  0.00     0.047 A 
ATOM     11  C   UNL     1     -13.387 -33.379  26.579  1.00  0.00     0.020 A 
ENDROOT
BRANCH   1  12
ATOM     12  C   UNL     1     -13.083 -32.553  32.167  1.00  0.00     0.025 A 
ATOM     13  C   UNL     1     -14.178 -32.214  32.977  1.00  0.00     0.016 A 
ATOM     14  C   UNL     1     -14.008 -32.021  34.349  1.00  0.00     0.051 A 
ATOM     15  C   UNL     1     -12.744 -32.150  34.937  1.00  0.00     0.157 A 
ATOM     16  C   UNL     1     -11.811 -32.661  32.751  1.00  0.00     0.062 A 
ATOM     17  C   UNL     1     -11.630 -32.470  34.126  1.00  0.00     0.158 A 
BRANCH  15  18
ATOM     18  O   UNL     1     -12.642 -31.949  36.315  1.00  0.00    -0.504 OA
ATOM     19  H   UNL     1     -13.155 -32.482  37.003  1.00  0.00     0.293 HD
ENDBRANCH  15  18
BRANCH  17  20
ATOM     20  O   UNL     1     -10.338 -32.606  34.639  1.00  0.00    -0.504 OA
ATOM     21  H   UNL     1     -10.074 -32.349  35.578  1.00  0.00     0.293 HD
ENDBRANCH  17  20
ENDBRANCH   1  12
BRANCH   2  22
ATOM     22  O   UNL     1     -15.392 -31.608  30.677  1.00  0.00    -0.502 OA
ATOM     23  H   UNL     1     -15.519 -31.689  31.679  1.00  0.00     0.293 HD
ENDBRANCH   2  22
BRANCH   9  24
ATOM     24  O   UNL     1     -10.222 -35.259  26.174  1.00  0.00    -0.508 OA
ATOM     25  H   UNL     1      -9.585 -34.815  25.524  1.00  0.00     0.293 HD
ENDBRANCH   9  24
TORSDOF 5
ENDMDL
MODEL 8
REMARK VINA RESULT:    -3.853      1.741      3.517
REMARK INTER + INTRA:          -4.694
REMARK INTER:                  -4.501
REMARK INTRA:                  -0.193
REMARK UNBOUND:                -0.165
REMARK SMILES O=c1c(O)c(-c2ccc(O)c(O)c2)oc2cc(O)ccc12
REMARK SMILES IDX 5 1 3 2 2 3 1 4 21 5 15 6 14 7 16 8 17 9 19 10 20 11 6 12
REMARK SMILES IDX 7 13 8 14 9 15 13 16 11 17 10 18 12 20 4 22 18 24
REMARK H PARENT 10 19 12 21 4 23 18 25
REMARK Flexibility Score: inf
ROOT
ATOM      1  C   UNL     1     -12.461 -33.857  32.167  1.00  0.00     0.180 A 
ATOM      2  C   UNL     1     -13.195 -33.391  31.058  1.00  0.00     0.208 A 
ATOM      3  C   UNL     1     -13.649 -34.319  30.108  1.00  0.00     0.235 A 
ATOM      4  O   UNL     1     -14.298 -33.925  29.100  1.00  0.00    -0.285 OA
ATOM      5  C   UNL     1     -13.379 -35.684  30.293  1.00  0.00     0.069 A 
ATOM      6  C   UNL     1     -12.658 -36.074  31.441  1.00  0.00     0.142 A 
ATOM      7  O   UNL     1     -12.240 -35.163  32.313  1.00  0.00    -0.452 OA
ATOM      8  C   UNL     1     -12.378 -37.426  31.668  1.00  0.00     0.094 A 
ATOM      9  C   UNL     1     -12.807 -38.397  30.758  1.00  0.00     0.119 A 
ATOM     10  C   UNL     1     -13.523 -38.014  29.615  1.00  0.00     0.047 A 
ATOM     11  C   UNL     1     -13.809 -36.666  29.381  1.00  0.00     0.020 A 
ENDROOT
BRANCH   1  12
ATOM     12  C   UNL     1     -11.933 -32.940  33.203  1.00  0.00     0.025 A 
ATOM     13  C   UNL     1     -10.553 -32.745  33.371  1.00  0.00     0.016 A 
ATOM     14  C   UNL     1     -10.078 -31.894  34.370  1.00  0.00     0.051 A 
ATOM     15  C   UNL     1     -10.965 -31.233  35.228  1.00  0.00     0.157 A 
ATOM     16  C   UNL     1     -12.824 -32.296  34.076  1.00  0.00     0.062 A 
ATOM     17  C   UNL     1     -12.357 -31.440  35.081  1.00  0.00     0.158 A 
BRANCH  15  18
ATOM     18  O   UNL     1     -10.425 -30.392  36.203  1.00  0.00    -0.504 OA
ATOM     19  H   UNL     1      -9.557 -29.887  36.096  1.00  0.00     0.293 HD
ENDBRANCH  15  18
BRANCH  17  20
ATOM     20  O   UNL     1     -13.302 -30.824  35.904  1.00  0.00    -0.504 OA
ATOM     21  H   UNL     1     -13.600 -29.865  35.800  1.00  0.00     0.293 HD
ENDBRANCH  17  20
ENDBRANCH   1  12
BRANCH   2  22
ATOM     22  O   UNL     1     -13.491 -32.032  30.925  1.00  0.00    -0.502 OA
ATOM     23  H   UNL     1     -14.081 -31.676  30.183  1.00  0.00     0.293 HD
ENDBRANCH   2  22
BRANCH   9  24
ATOM     24  O   UNL     1     -12.520 -39.739  30.997  1.00  0.00    -0.508 OA
ATOM     25  H   UNL     1     -13.213 -40.463  30.854  1.00  0.00     0.293 HD
ENDBRANCH   9  24
TORSDOF 5
ENDMDL
