MODEL 1
REMARK VINA RESULT:    -4.203      0.000      0.000
REMARK INTER + INTRA:          -4.459
REMARK INTER:                  -4.449
REMARK INTRA:                  -0.010
REMARK UNBOUND:                -0.010
REMARK SMILES O=Cc1ccccc1
REMARK SMILES IDX 6 1 5 2 4 3 3 4 8 5 7 6 2 7 1 8
REMARK H PARENT
REMARK Flexibility Score: inf
ROOT
ATOM      1  C   UNL     1      -6.577   5.630  -3.495  1.00  0.00     0.000 A 
ATOM      2  C   UNL     1      -7.532   6.611  -3.215  1.00  0.00     0.001 A 
ATOM      3  C   UNL     1      -7.127   7.897  -2.842  1.00  0.00     0.011 A 
ATOM      4  C   UNL     1      -5.759   8.210  -2.746  1.00  0.00     0.014 A 
ATOM      5  C   UNL     1      -4.807   7.216  -3.029  1.00  0.00     0.011 A 
ATOM      6  C   UNL     1      -5.216   5.932  -3.402  1.00  0.00     0.001 A 
ENDROOT
BRANCH   4   7
ATOM      7  C   UNL     1      -5.310   9.558  -2.355  1.00  0.00     0.260 C 
ATOM      8  O   UNL     1      -4.587   9.733  -1.338  1.00  0.00    -0.298 OA
ENDBRANCH   4   7
TORSDOF 1
ENDMDL
MODEL 2
REMARK VINA RESULT:    -4.137      1.971      2.964
REMARK INTER + INTRA:          -4.388
REMARK INTER:                  -4.380
REMARK INTRA:                  -0.009
REMARK UNBOUND:                -0.010
REMARK SMILES O=Cc1ccccc1
REMARK SMILES IDX 6 1 5 2 4 3 3 4 8 5 7 6 2 7 1 8
REMARK H PARENT
REMARK Flexibility Score: inf
ROOT
ATOM      1  C   UNL     1      -7.500   7.687  -2.991  1.00  0.00     0.000 A 
ATOM      2  C   UNL     1      -7.500   6.308  -3.213  1.00  0.00     0.001 A 
ATOM      3  C   UNL     1      -6.299   5.639  -3.471  1.00  0.00     0.011 A 
ATOM      4  C   UNL     1      -5.085   6.350  -3.507  1.00  0.00     0.014 A 
ATOM      5  C   UNL     1      -5.096   7.737  -3.283  1.00  0.00     0.011 A 
ATOM      6  C   UNL     1      -6.299   8.401  -3.026  1.00  0.00     0.001 A 
ENDROOT
BRANCH   4   7
ATOM      7  C   UNL     1      -3.808   5.665  -3.776  1.00  0.00     0.260 C 
ATOM      8  O   UNL     1      -3.245   4.968  -2.891  1.00  0.00    -0.298 OA
ENDBRANCH   4   7
TORSDOF 1
ENDMDL
MODEL 3
REMARK VINA RESULT:    -3.979      2.063      2.670
REMARK INTER + INTRA:          -4.222
REMARK INTER:                  -4.213
REMARK INTRA:                  -0.009
REMARK UNBOUND:                -0.010
REMARK SMILES O=Cc1ccccc1
REMARK SMILES IDX 6 1 5 2 4 3 3 4 8 5 7 6 2 7 1 8
REMARK H PARENT
REMARK Flexibility Score: inf
ROOT
ATOM      1  C   UNL     1      -6.353   5.643  -3.361  1.00  0.00     0.000 A 
ATOM      2  C   UNL     1      -4.980   5.889  -3.444  1.00  0.00     0.001 A 
ATOM      3  C   UNL     1      -4.515   7.117  -3.925  1.00  0.00     0.011 A 
ATOM      4  C   UNL     1      -5.425   8.112  -4.326  1.00  0.00     0.014 A 
ATOM      5  C   UNL     1      -6.804   7.855  -4.238  1.00  0.00     0.011 A 
ATOM      6  C   UNL     1      -7.264   6.626  -3.758  1.00  0.00     0.001 A 
ENDROOT
BRANCH   4   7
ATOM      7  C   UNL     1      -4.958   9.414  -4.834  1.00  0.00     0.260 C 
ATOM      8  O   UNL     1      -4.470   9.523  -5.990  1.00  0.00    -0.298 OA
ENDBRANCH   4   7
TORSDOF 1
ENDMDL
MODEL 4
REMARK VINA RESULT:    -3.954      2.304      3.008
REMARK INTER + INTRA:          -4.195
REMARK INTER:                  -4.182
REMARK INTRA:                  -0.013
REMARK UNBOUND:                -0.010
REMARK SMILES O=Cc1ccccc1
REMARK SMILES IDX 6 1 5 2 4 3 3 4 8 5 7 6 2 7 1 8
REMARK H PARENT
REMARK Flexibility Score: inf
ROOT
ATOM      1  C   UNL     1      -4.466   6.312  -3.801  1.00  0.00     0.000 A 
ATOM      2  C   UNL     1      -4.486   7.618  -4.297  1.00  0.00     0.001 A 
ATOM      3  C   UNL     1      -5.701   8.295  -4.443  1.00  0.00     0.011 A 
ATOM      4  C   UNL     1      -6.909   7.665  -4.091  1.00  0.00     0.014 A 
ATOM      5  C   UNL     1      -6.878   6.352  -3.594  1.00  0.00     0.011 A 
ATOM      6  C   UNL     1      -5.661   5.679  -3.450  1.00  0.00     0.001 A 
ENDROOT
BRANCH   4   7
ATOM      7  C   UNL     1      -8.201   8.359  -4.236  1.00  0.00     0.260 C 
ATOM      8  O   UNL     1      -9.189   8.051  -3.517  1.00  0.00    -0.298 OA
ENDBRANCH   4   7
TORSDOF 1
ENDMDL
MODEL 5
REMARK VINA RESULT:    -3.940      2.087      2.087
REMARK INTER + INTRA:          -4.180
REMARK INTER:                  -4.172
REMARK INTRA:                  -0.009
REMARK UNBOUND:                -0.010
REMARK SMILES O=Cc1ccccc1
REMARK SMILES IDX 6 1 5 2 4 3 3 4 8 5 7 6 2 7 1 8
REMARK H PARENT
REMARK Flexibility Score: inf
ROOT
ATOM      1  C   UNL     1      -6.345   5.616  -3.373  1.00  0.00     0.000 A 
ATOM      2  C   UNL     1      -7.293   6.571  -3.754  1.00  0.00     0.001 A 
ATOM      3  C   UNL     1      -6.879   7.818  -4.234  1.00  0.00     0.011 A 
ATOM      4  C   UNL     1      -5.508   8.118  -4.336  1.00  0.00     0.014 A 
ATOM      5  C   UNL     1      -4.563   7.152  -3.950  1.00  0.00     0.011 A 
ATOM      6  C   UNL     1      -4.982   5.907  -3.471  1.00  0.00     0.001 A 
ENDROOT
BRANCH   4   7
ATOM      7  C   UNL     1      -5.049   9.425  -4.840  1.00  0.00     0.260 C 
ATOM      8  O   UNL     1      -4.963   9.651  -6.076  1.00  0.00    -0.298 OA
ENDBRANCH   4   7
TORSDOF 1
ENDMDL
MODEL 6
REMARK VINA RESULT:    -3.934     17.893     18.680
REMARK INTER + INTRA:          -4.174
REMARK INTER:                  -4.165
REMARK INTRA:                  -0.009
REMARK UNBOUND:                -0.010
REMARK SMILES O=Cc1ccccc1
REMARK SMILES IDX 6 1 5 2 4 3 3 4 8 5 7 6 2 7 1 8
REMARK H PARENT
REMARK Flexibility Score: inf
ROOT
ATOM      1  C   UNL     1       3.213  -7.832   4.534  1.00  0.00     0.000 A 
ATOM      2  C   UNL     1       2.472  -6.794   5.105  1.00  0.00     0.001 A 
ATOM      3  C   UNL     1       1.075  -6.853   5.117  1.00  0.00     0.011 A 
ATOM      4  C   UNL     1       0.408  -7.957   4.554  1.00  0.00     0.014 A 
ATOM      5  C   UNL     1       1.161  -8.995   3.982  1.00  0.00     0.011 A 
ATOM      6  C   UNL     1       2.558  -8.932   3.973  1.00  0.00     0.001 A 
ENDROOT
BRANCH   4   7
ATOM      7  C   UNL     1      -1.064  -8.040   4.555  1.00  0.00     0.260 C 
ATOM      8  O   UNL     1      -1.726  -7.866   3.497  1.00  0.00    -0.298 OA
ENDBRANCH   4   7
TORSDOF 1
ENDMDL
MODEL 7
REMARK VINA RESULT:    -3.686     18.254     19.455
REMARK INTER + INTRA:          -3.912
REMARK INTER:                  -3.900
REMARK INTRA:                  -0.012
REMARK UNBOUND:                -0.010
REMARK SMILES O=Cc1ccccc1
REMARK SMILES IDX 6 1 5 2 4 3 3 4 8 5 7 6 2 7 1 8
REMARK H PARENT
REMARK Flexibility Score: inf
ROOT
ATOM      1  C   UNL     1       4.307  -9.132   3.689  1.00  0.00     0.000 A 
ATOM      2  C   UNL     1       4.188  -7.917   4.368  1.00  0.00     0.001 A 
ATOM      3  C   UNL     1       2.924  -7.431   4.721  1.00  0.00     0.011 A 
ATOM      4  C   UNL     1       1.767  -8.162   4.394  1.00  0.00     0.014 A 
ATOM      5  C   UNL     1       1.898  -9.382   3.710  1.00  0.00     0.011 A 
ATOM      6  C   UNL     1       3.163  -9.864   3.359  1.00  0.00     0.001 A 
ENDROOT
BRANCH   4   7
ATOM      7  C   UNL     1       0.426  -7.670   4.756  1.00  0.00     0.260 C 
ATOM      8  O   UNL     1      -0.560  -7.851   3.994  1.00  0.00    -0.298 OA
ENDBRANCH   4   7
TORSDOF 1
ENDMDL
MODEL 8
REMARK VINA RESULT:    -3.654     18.417     19.615
REMARK INTER + INTRA:          -3.878
REMARK INTER:                  -3.866
REMARK INTRA:                  -0.012
REMARK UNBOUND:                -0.010
REMARK SMILES O=Cc1ccccc1
REMARK SMILES IDX 6 1 5 2 4 3 3 4 8 5 7 6 2 7 1 8
REMARK H PARENT
REMARK Flexibility Score: inf
ROOT
ATOM      1  C   UNL     1       4.760  -9.043   3.664  1.00  0.00     0.000 A 
ATOM      2  C   UNL     1       3.641  -9.801   3.310  1.00  0.00     0.001 A 
ATOM      3  C   UNL     1       2.360  -9.370   3.669  1.00  0.00     0.011 A 
ATOM      4  C   UNL     1       2.190  -8.172   4.387  1.00  0.00     0.014 A 
ATOM      5  C   UNL     1       3.322  -7.417   4.739  1.00  0.00     0.011 A 
ATOM      6  C   UNL     1       4.601  -7.852   4.378  1.00  0.00     0.001 A 
ENDROOT
BRANCH   4   7
ATOM      7  C   UNL     1       0.849  -7.698   4.775  1.00  0.00     0.260 C 
ATOM      8  O   UNL     1      -0.149  -7.896   4.033  1.00  0.00    -0.298 OA
ENDBRANCH   4   7
TORSDOF 1
ENDMDL
MODEL 9
REMARK VINA RESULT:    -3.411     18.749     19.688
REMARK INTER + INTRA:          -3.620
REMARK INTER:                  -3.606
REMARK INTRA:                  -0.014
REMARK UNBOUND:                -0.010
REMARK SMILES O=Cc1ccccc1
REMARK SMILES IDX 6 1 5 2 4 3 3 4 8 5 7 6 2 7 1 8
REMARK H PARENT
REMARK Flexibility Score: inf
ROOT
ATOM      1  C   UNL     1       1.002  -7.843   4.672  1.00  0.00     0.000 A 
ATOM      2  C   UNL     1       1.263  -9.044   4.007  1.00  0.00     0.001 A 
ATOM      3  C   UNL     1       2.579  -9.398   3.690  1.00  0.00     0.011 A 
ATOM      4  C   UNL     1       3.645  -8.549   4.039  1.00  0.00     0.014 A 
ATOM      5  C   UNL     1       3.371  -7.344   4.707  1.00  0.00     0.011 A 
ATOM      6  C   UNL     1       2.054  -6.994   5.021  1.00  0.00     0.001 A 
ENDROOT
BRANCH   4   7
ATOM      7  C   UNL     1       5.039  -8.902   3.716  1.00  0.00     0.260 C 
ATOM      8  O   UNL     1       5.970  -8.064   3.850  1.00  0.00    -0.298 OA
ENDBRANCH   4   7
TORSDOF 1
ENDMDL
