MODEL 1
REMARK VINA RESULT:    -6.528      0.000      0.000
REMARK INTER + INTRA:          -6.719
REMARK INTER:                  -6.719
REMARK INTRA:                   0.000
REMARK UNBOUND:                 0.000
REMARK SMILES Oc1ccc2[nH]ccc2c1
REMARK SMILES IDX 3 1 4 2 5 3 9 4 8 5 7 6 6 7 10 8 2 9 1 11
REMARK H PARENT 6 10 1 12
REMARK Flexibility Score: inf
ROOT
ATOM      1  C   UNL     1      10.502  -3.620 -18.235  1.00  0.00     0.048 A 
ATOM      2  C   UNL     1       9.468  -3.247 -17.356  1.00  0.00     0.030 A 
ATOM      3  C   UNL     1       8.811  -2.041 -17.597  1.00  0.00     0.046 A 
ATOM      4  C   UNL     1       9.151  -1.235 -18.651  1.00  0.00     0.003 A 
ATOM      5  C   UNL     1       8.324  -0.134 -18.610  1.00  0.00     0.028 A 
ATOM      6  C   UNL     1       7.504  -0.336 -17.504  1.00  0.00     0.083 A 
ATOM      7  N   UNL     1       7.806  -1.502 -16.888  1.00  0.00    -0.361 N 
ATOM      8  C   UNL     1      10.169  -1.574 -19.540  1.00  0.00     0.056 A 
ATOM      9  C   UNL     1      10.854  -2.789 -19.325  1.00  0.00     0.116 A 
ATOM     10  H   UNL     1       7.349  -1.898 -16.037  1.00  0.00     0.166 HD
ENDROOT
BRANCH   9  11
ATOM     11  O   UNL     1      11.881  -3.181 -20.179  1.00  0.00    -0.508 OA
ATOM     12  H   UNL     1      11.733  -3.881 -20.897  1.00  0.00     0.293 HD
ENDBRANCH   9  11
TORSDOF 1
ENDMDL
MODEL 2
REMARK VINA RESULT:    -6.364      1.130      2.628
REMARK INTER + INTRA:          -6.550
REMARK INTER:                  -6.550
REMARK INTRA:                   0.000
REMARK UNBOUND:                 0.000
REMARK SMILES Oc1ccc2[nH]ccc2c1
REMARK SMILES IDX 3 1 4 2 5 3 9 4 8 5 7 6 6 7 10 8 2 9 1 11
REMARK H PARENT 6 10 1 12
REMARK Flexibility Score: inf
ROOT
ATOM      1  C   UNL     1      10.089  -1.084 -19.285  1.00  0.00     0.048 A 
ATOM      2  C   UNL     1       9.234  -1.210 -18.173  1.00  0.00     0.030 A 
ATOM      3  C   UNL     1       9.223  -2.428 -17.494  1.00  0.00     0.046 A 
ATOM      4  C   UNL     1      10.013  -3.476 -17.885  1.00  0.00     0.003 A 
ATOM      5  C   UNL     1       9.770  -4.520 -17.019  1.00  0.00     0.028 A 
ATOM      6  C   UNL     1       8.821  -4.036 -16.124  1.00  0.00     0.083 A 
ATOM      7  N   UNL     1       8.490  -2.757 -16.419  1.00  0.00    -0.361 N 
ATOM      8  C   UNL     1      10.870  -3.386 -18.981  1.00  0.00     0.056 A 
ATOM      9  C   UNL     1      10.905  -2.166 -19.690  1.00  0.00     0.116 A 
ATOM     10  H   UNL     1       7.805  -2.154 -15.912  1.00  0.00     0.166 HD
ENDROOT
BRANCH   9  11
ATOM     11  O   UNL     1      11.742  -2.016 -20.793  1.00  0.00    -0.508 OA
ATOM     12  H   UNL     1      11.778  -2.713 -21.528  1.00  0.00     0.293 HD
ENDBRANCH   9  11
TORSDOF 1
ENDMDL
MODEL 3
REMARK VINA RESULT:    -6.140      2.614      4.038
REMARK INTER + INTRA:          -6.320
REMARK INTER:                  -6.320
REMARK INTRA:                   0.000
REMARK UNBOUND:                 0.000
REMARK SMILES Oc1ccc2[nH]ccc2c1
REMARK SMILES IDX 3 1 4 2 5 3 9 4 8 5 7 6 6 7 10 8 2 9 1 11
REMARK H PARENT 6 10 1 12
REMARK Flexibility Score: inf
ROOT
ATOM      1  C   UNL     1       7.962  -0.140 -18.044  1.00  0.00     0.048 A 
ATOM      2  C   UNL     1       8.980  -0.034 -19.010  1.00  0.00     0.030 A 
ATOM      3  C   UNL     1       9.815  -1.134 -19.200  1.00  0.00     0.046 A 
ATOM      4  C   UNL     1       9.660  -2.288 -18.477  1.00  0.00     0.003 A 
ATOM      5  C   UNL     1      10.631  -3.170 -18.899  1.00  0.00     0.028 A 
ATOM      6  C   UNL     1      11.341  -2.488 -19.882  1.00  0.00     0.083 A 
ATOM      7  N   UNL     1      10.839  -1.244 -20.061  1.00  0.00    -0.361 N 
ATOM      8  C   UNL     1       8.663  -2.426 -17.513  1.00  0.00     0.056 A 
ATOM      9  C   UNL     1       7.801  -1.331 -17.296  1.00  0.00     0.116 A 
ATOM     10  H   UNL     1      11.180  -0.522 -20.733  1.00  0.00     0.166 HD
ENDROOT
BRANCH   9  11
ATOM     11  O   UNL     1       6.786  -1.410 -16.347  1.00  0.00    -0.508 OA
ATOM     12  H   UNL     1       5.892  -0.952 -16.489  1.00  0.00     0.293 HD
ENDBRANCH   9  11
TORSDOF 1
ENDMDL
MODEL 4
REMARK VINA RESULT:    -5.900      2.143      3.301
REMARK INTER + INTRA:          -6.073
REMARK INTER:                  -6.073
REMARK INTRA:                   0.000
REMARK UNBOUND:                 0.000
REMARK SMILES Oc1ccc2[nH]ccc2c1
REMARK SMILES IDX 3 1 4 2 5 3 9 4 8 5 7 6 6 7 10 8 2 9 1 11
REMARK H PARENT 6 10 1 12
REMARK Flexibility Score: inf
ROOT
ATOM      1  C   UNL     1      10.586  -1.470 -19.712  1.00  0.00     0.048 A 
ATOM      2  C   UNL     1      10.949  -2.774 -19.325  1.00  0.00     0.030 A 
ATOM      3  C   UNL     1      10.326  -3.317 -18.202  1.00  0.00     0.046 A 
ATOM      4  C   UNL     1       9.389  -2.615 -17.490  1.00  0.00     0.003 A 
ATOM      5  C   UNL     1       8.973  -3.422 -16.453  1.00  0.00     0.028 A 
ATOM      6  C   UNL     1       9.697  -4.601 -16.596  1.00  0.00     0.083 A 
ATOM      7  N   UNL     1      10.523  -4.531 -17.666  1.00  0.00    -0.361 N 
ATOM      8  C   UNL     1       9.007  -1.324 -17.845  1.00  0.00     0.056 A 
ATOM      9  C   UNL     1       9.619  -0.745 -18.978  1.00  0.00     0.116 A 
ATOM     10  H   UNL     1      11.177  -5.273 -18.002  1.00  0.00     0.166 HD
ENDROOT
BRANCH   9  11
ATOM     11  O   UNL     1       9.278   0.543 -19.382  1.00  0.00    -0.508 OA
ATOM     12  H   UNL     1       9.968   1.174 -19.774  1.00  0.00     0.293 HD
ENDBRANCH   9  11
TORSDOF 1
ENDMDL
MODEL 5
REMARK VINA RESULT:    -5.835      2.728      3.528
REMARK INTER + INTRA:          -6.005
REMARK INTER:                  -6.005
REMARK INTRA:                   0.000
REMARK UNBOUND:                 0.000
REMARK SMILES Oc1ccc2[nH]ccc2c1
REMARK SMILES IDX 3 1 4 2 5 3 9 4 8 5 7 6 6 7 10 8 2 9 1 11
REMARK H PARENT 6 10 1 12
REMARK Flexibility Score: inf
ROOT
ATOM      1  C   UNL     1       9.149  -3.976 -16.539  1.00  0.00     0.048 A 
ATOM      2  C   UNL     1      10.180  -4.228 -17.463  1.00  0.00     0.030 A 
ATOM      3  C   UNL     1      10.413  -3.276 -18.455  1.00  0.00     0.046 A 
ATOM      4  C   UNL     1       9.670  -2.128 -18.538  1.00  0.00     0.003 A 
ATOM      5  C   UNL     1      10.145  -1.408 -19.613  1.00  0.00     0.028 A 
ATOM      6  C   UNL     1      11.178  -2.178 -20.138  1.00  0.00     0.083 A 
ATOM      7  N   UNL     1      11.337  -3.318 -19.427  1.00  0.00    -0.361 N 
ATOM      8  C   UNL     1       8.642  -1.847 -17.640  1.00  0.00     0.056 A 
ATOM      9  C   UNL     1       8.381  -2.791 -16.624  1.00  0.00     0.116 A 
ATOM     10  H   UNL     1      12.038  -4.073 -19.601  1.00  0.00     0.166 HD
ENDROOT
BRANCH   9  11
ATOM     11  O   UNL     1       7.367  -2.566 -15.697  1.00  0.00    -0.508 OA
ATOM     12  H   UNL     1       7.159  -1.634 -15.355  1.00  0.00     0.293 HD
ENDBRANCH   9  11
TORSDOF 1
ENDMDL
MODEL 6
REMARK VINA RESULT:    -5.680      1.380      2.781
REMARK INTER + INTRA:          -5.846
REMARK INTER:                  -5.846
REMARK INTRA:                   0.000
REMARK UNBOUND:                 0.000
REMARK SMILES Oc1ccc2[nH]ccc2c1
REMARK SMILES IDX 3 1 4 2 5 3 9 4 8 5 7 6 6 7 10 8 2 9 1 11
REMARK H PARENT 6 10 1 12
REMARK Flexibility Score: inf
ROOT
ATOM      1  C   UNL     1       8.664  -0.673 -18.720  1.00  0.00     0.048 A 
ATOM      2  C   UNL     1       7.841  -1.018 -17.631  1.00  0.00     0.030 A 
ATOM      3  C   UNL     1       8.131  -2.195 -16.943  1.00  0.00     0.046 A 
ATOM      4  C   UNL     1       9.180  -2.999 -17.303  1.00  0.00     0.003 A 
ATOM      5  C   UNL     1       9.194  -4.069 -16.435  1.00  0.00     0.028 A 
ATOM      6  C   UNL     1       8.126  -3.851 -15.571  1.00  0.00     0.083 A 
ATOM      7  N   UNL     1       7.479  -2.705 -15.886  1.00  0.00    -0.361 N 
ATOM      8  C   UNL     1      10.014  -2.687 -18.375  1.00  0.00     0.056 A 
ATOM      9  C   UNL     1       9.748  -1.502 -19.093  1.00  0.00     0.116 A 
ATOM     10  H   UNL     1       6.645  -2.304 -15.403  1.00  0.00     0.166 HD
ENDROOT
BRANCH   9  11
ATOM     11  O   UNL     1      10.546  -1.138 -20.174  1.00  0.00    -0.508 OA
ATOM     12  H   UNL     1      11.547  -1.298 -20.169  1.00  0.00     0.293 HD
ENDBRANCH   9  11
TORSDOF 1
ENDMDL
MODEL 7
REMARK VINA RESULT:    -5.559      3.131      4.007
REMARK INTER + INTRA:          -5.721
REMARK INTER:                  -5.721
REMARK INTRA:                   0.000
REMARK UNBOUND:                 0.000
REMARK SMILES Oc1ccc2[nH]ccc2c1
REMARK SMILES IDX 3 1 4 2 5 3 9 4 8 5 7 6 6 7 10 8 2 9 1 11
REMARK H PARENT 6 10 1 12
REMARK Flexibility Score: inf
ROOT
ATOM      1  C   UNL     1       8.644  -4.640 -15.257  1.00  0.00     0.048 A 
ATOM      2  C   UNL     1       9.775  -4.578 -16.092  1.00  0.00     0.030 A 
ATOM      3  C   UNL     1       9.821  -3.570 -17.053  1.00  0.00     0.046 A 
ATOM      4  C   UNL     1       8.804  -2.662 -17.192  1.00  0.00     0.003 A 
ATOM      5  C   UNL     1       9.151  -1.810 -18.218  1.00  0.00     0.028 A 
ATOM      6  C   UNL     1      10.393  -2.256 -18.657  1.00  0.00     0.083 A 
ATOM      7  N   UNL     1      10.797  -3.332 -17.943  1.00  0.00    -0.361 N 
ATOM      8  C   UNL     1       7.670  -2.695 -16.383  1.00  0.00     0.056 A 
ATOM      9  C   UNL     1       7.593  -3.704 -15.399  1.00  0.00     0.116 A 
ATOM     10  H   UNL     1      11.687  -3.865 -18.062  1.00  0.00     0.166 HD
ENDROOT
BRANCH   9  11
ATOM     11  O   UNL     1       6.484  -3.788 -14.561  1.00  0.00    -0.508 OA
ATOM     12  H   UNL     1       5.862  -4.588 -14.585  1.00  0.00     0.293 HD
ENDBRANCH   9  11
TORSDOF 1
ENDMDL
MODEL 8
REMARK VINA RESULT:    -5.532      2.012      3.316
REMARK INTER + INTRA:          -5.693
REMARK INTER:                  -5.693
REMARK INTRA:                   0.000
REMARK UNBOUND:                 0.000
REMARK SMILES Oc1ccc2[nH]ccc2c1
REMARK SMILES IDX 3 1 4 2 5 3 9 4 8 5 7 6 6 7 10 8 2 9 1 11
REMARK H PARENT 6 10 1 12
REMARK Flexibility Score: inf
ROOT
ATOM      1  C   UNL     1       7.859  -0.103 -18.067  1.00  0.00     0.048 A 
ATOM      2  C   UNL     1       7.830  -1.318 -17.357  1.00  0.00     0.030 A 
ATOM      3  C   UNL     1       8.870  -2.222 -17.569  1.00  0.00     0.046 A 
ATOM      4  C   UNL     1       9.894  -1.949 -18.436  1.00  0.00     0.003 A 
ATOM      5  C   UNL     1      10.748  -3.030 -18.417  1.00  0.00     0.028 A 
ATOM      6  C   UNL     1      10.182  -3.925 -17.515  1.00  0.00     0.083 A 
ATOM      7  N   UNL     1       9.034  -3.426 -17.000  1.00  0.00    -0.361 N 
ATOM      8  C   UNL     1       9.954  -0.757 -19.155  1.00  0.00     0.056 A 
ATOM      9  C   UNL     1       8.916   0.180 -18.964  1.00  0.00     0.116 A 
ATOM     10  H   UNL     1       8.408  -3.887 -16.302  1.00  0.00     0.166 HD
ENDROOT
BRANCH   9  11
ATOM     11  O   UNL     1       8.922   1.389 -19.654  1.00  0.00    -0.508 OA
ATOM     12  H   UNL     1       8.438   1.495 -20.539  1.00  0.00     0.293 HD
ENDBRANCH   9  11
TORSDOF 1
ENDMDL
MODEL 9
REMARK VINA RESULT:    -5.527      1.687      2.299
REMARK INTER + INTRA:          -5.688
REMARK INTER:                  -5.688
REMARK INTRA:                   0.000
REMARK UNBOUND:                 0.000
REMARK SMILES Oc1ccc2[nH]ccc2c1
REMARK SMILES IDX 3 1 4 2 5 3 9 4 8 5 7 6 6 7 10 8 2 9 1 11
REMARK H PARENT 6 10 1 12
REMARK Flexibility Score: inf
ROOT
ATOM      1  C   UNL     1      10.974  -3.147 -18.745  1.00  0.00     0.048 A 
ATOM      2  C   UNL     1      10.755  -1.903 -19.367  1.00  0.00     0.030 A 
ATOM      3  C   UNL     1       9.691  -1.126 -18.914  1.00  0.00     0.046 A 
ATOM      4  C   UNL     1       8.874  -1.547 -17.897  1.00  0.00     0.003 A 
ATOM      5  C   UNL     1       7.932  -0.563 -17.692  1.00  0.00     0.028 A 
ATOM      6  C   UNL     1       8.235   0.429 -18.619  1.00  0.00     0.083 A 
ATOM      7  N   UNL     1       9.310   0.080 -19.364  1.00  0.00    -0.361 N 
ATOM      8  C   UNL     1       9.062  -2.772 -17.260  1.00  0.00     0.056 A 
ATOM      9  C   UNL     1      10.132  -3.583 -17.695  1.00  0.00     0.116 A 
ATOM     10  H   UNL     1       9.749   0.637 -20.129  1.00  0.00     0.166 HD
ENDROOT
BRANCH   9  11
ATOM     11  O   UNL     1      10.370  -4.818 -17.096  1.00  0.00    -0.508 OA
ATOM     12  H   UNL     1       9.666  -5.273 -16.525  1.00  0.00     0.293 HD
ENDBRANCH   9  11
TORSDOF 1
ENDMDL
