MODEL 1
REMARK VINA RESULT:    -3.705      0.000      0.000
REMARK INTER + INTRA:          -4.146
REMARK INTER:                  -4.138
REMARK INTRA:                  -0.009
REMARK UNBOUND:                -0.009
REMARK SMILES CCCC(=O)[O-]
REMARK SMILES IDX 3 1 4 2 5 3 6 4 2 5 1 6
REMARK H PARENT
REMARK Flexibility Score: inf
ROOT
ATOM      1  C   UNL     1     -18.480  -9.467  -9.879  1.00  0.00     0.052 C 
ENDROOT
BRANCH   1   2
ATOM      2  C   UNL     1     -18.763 -10.430 -10.990  1.00  0.00     0.041 C 
ATOM      3  O   UNL     1     -18.026 -11.436 -11.160  1.00  0.00    -0.550 OA
ATOM      4  O   UNL     1     -19.863 -10.235 -11.817  1.00  0.00    -0.550 OA
ENDBRANCH   1   2
BRANCH   1   5
ATOM      5  C   UNL     1     -17.001  -9.056  -9.846  1.00  0.00     0.003 C 
ATOM      6  C   UNL     1     -16.654  -8.235  -8.603  1.00  0.00     0.004 C 
ENDBRANCH   1   5
TORSDOF 2
ENDMDL
MODEL 2
REMARK VINA RESULT:    -3.703      3.153      4.106
REMARK INTER + INTRA:          -4.145
REMARK INTER:                  -4.117
REMARK INTRA:                  -0.028
REMARK UNBOUND:                -0.009
REMARK SMILES CCCC(=O)[O-]
REMARK SMILES IDX 3 1 4 2 5 3 6 4 2 5 1 6
REMARK H PARENT
REMARK Flexibility Score: inf
ROOT
ATOM      1  C   UNL     1     -17.241  -8.259  -8.142  1.00  0.00     0.052 C 
ENDROOT
BRANCH   1   2
ATOM      2  C   UNL     1     -17.011  -9.231  -7.026  1.00  0.00     0.041 C 
ATOM      3  O   UNL     1     -17.831 -10.164  -6.820  1.00  0.00    -0.550 OA
ATOM      4  O   UNL     1     -15.874  -9.126  -6.234  1.00  0.00    -0.550 OA
ENDBRANCH   1   2
BRANCH   1   5
ATOM      5  C   UNL     1     -16.764  -8.817  -9.490  1.00  0.00     0.003 C 
ATOM      6  C   UNL     1     -17.883  -9.524 -10.255  1.00  0.00     0.004 C 
ENDBRANCH   1   5
TORSDOF 2
ENDMDL
MODEL 3
REMARK VINA RESULT:    -3.700      1.393      2.131
REMARK INTER + INTRA:          -4.141
REMARK INTER:                  -4.134
REMARK INTRA:                  -0.007
REMARK UNBOUND:                -0.009
REMARK SMILES CCCC(=O)[O-]
REMARK SMILES IDX 3 1 4 2 5 3 6 4 2 5 1 6
REMARK H PARENT
REMARK Flexibility Score: inf
ROOT
ATOM      1  C   UNL     1     -16.886  -8.753  -9.501  1.00  0.00     0.052 C 
ENDROOT
BRANCH   1   2
ATOM      2  C   UNL     1     -18.112  -9.546  -9.832  1.00  0.00     0.041 C 
ATOM      3  O   UNL     1     -19.245  -9.150  -9.449  1.00  0.00    -0.550 OA
ATOM      4  O   UNL     1     -18.009 -10.704 -10.593  1.00  0.00    -0.550 OA
ENDBRANCH   1   2
BRANCH   1   5
ATOM      5  C   UNL     1     -16.837  -8.373  -8.015  1.00  0.00     0.003 C 
ATOM      6  C   UNL     1     -15.410  -8.353  -7.466  1.00  0.00     0.004 C 
ENDBRANCH   1   5
TORSDOF 2
ENDMDL
MODEL 4
REMARK VINA RESULT:    -3.698      0.076      1.323
REMARK INTER + INTRA:          -4.139
REMARK INTER:                  -4.132
REMARK INTRA:                  -0.007
REMARK UNBOUND:                -0.009
REMARK SMILES CCCC(=O)[O-]
REMARK SMILES IDX 3 1 4 2 5 3 6 4 2 5 1 6
REMARK H PARENT
REMARK Flexibility Score: inf
ROOT
ATOM      1  C   UNL     1     -18.496  -9.453  -9.833  1.00  0.00     0.052 C 
ENDROOT
BRANCH   1   2
ATOM      2  C   UNL     1     -18.811 -10.386 -10.961  1.00  0.00     0.041 C 
ATOM      3  O   UNL     1     -19.799 -10.165 -11.709  1.00  0.00    -0.550 OA
ATOM      4  O   UNL     1     -17.992 -11.481 -11.208  1.00  0.00    -0.550 OA
ENDBRANCH   1   2
BRANCH   1   5
ATOM      5  C   UNL     1     -17.015  -9.052  -9.821  1.00  0.00     0.003 C 
ATOM      6  C   UNL     1     -16.642  -8.234  -8.584  1.00  0.00     0.004 C 
ENDBRANCH   1   5
TORSDOF 2
ENDMDL
MODEL 5
REMARK VINA RESULT:    -3.528      2.383      2.955
REMARK INTER + INTRA:          -3.949
REMARK INTER:                  -3.911
REMARK INTRA:                  -0.038
REMARK UNBOUND:                -0.009
REMARK SMILES CCCC(=O)[O-]
REMARK SMILES IDX 3 1 4 2 5 3 6 4 2 5 1 6
REMARK H PARENT
REMARK Flexibility Score: inf
ROOT
ATOM      1  C   UNL     1     -17.053 -10.158  -9.942  1.00  0.00     0.052 C 
ENDROOT
BRANCH   1   2
ATOM      2  C   UNL     1     -15.874 -11.079  -9.893  1.00  0.00     0.041 C 
ATOM      3  O   UNL     1     -15.842 -12.107 -10.620  1.00  0.00    -0.550 OA
ATOM      4  O   UNL     1     -14.794 -10.785  -9.071  1.00  0.00    -0.550 OA
ENDBRANCH   1   2
BRANCH   1   5
ATOM      5  C   UNL     1     -16.670  -8.722  -9.559  1.00  0.00     0.003 C 
ATOM      6  C   UNL     1     -17.285  -8.292  -8.227  1.00  0.00     0.004 C 
ENDBRANCH   1   5
TORSDOF 2
ENDMDL
MODEL 6
REMARK VINA RESULT:    -3.488      3.324      3.945
REMARK INTER + INTRA:          -3.904
REMARK INTER:                  -3.859
REMARK INTRA:                  -0.045
REMARK UNBOUND:                -0.009
REMARK SMILES CCCC(=O)[O-]
REMARK SMILES IDX 3 1 4 2 5 3 6 4 2 5 1 6
REMARK H PARENT
REMARK Flexibility Score: inf
ROOT
ATOM      1  C   UNL     1     -15.910  -8.701  -8.281  1.00  0.00     0.052 C 
ENDROOT
BRANCH   1   2
ATOM      2  C   UNL     1     -15.450 -10.075  -7.902  1.00  0.00     0.041 C 
ATOM      3  O   UNL     1     -14.417 -10.565  -8.430  1.00  0.00    -0.550 OA
ATOM      4  O   UNL     1     -16.142 -10.800  -6.941  1.00  0.00    -0.550 OA
ENDBRANCH   1   2
BRANCH   1   5
ATOM      5  C   UNL     1     -16.775  -8.719  -9.548  1.00  0.00     0.003 C 
ATOM      6  C   UNL     1     -18.245  -9.008  -9.244  1.00  0.00     0.004 C 
ENDBRANCH   1   5
TORSDOF 2
ENDMDL
MODEL 7
REMARK VINA RESULT:    -3.487      3.673      4.424
REMARK INTER + INTRA:          -3.903
REMARK INTER:                  -3.843
REMARK INTRA:                  -0.060
REMARK UNBOUND:                -0.009
REMARK SMILES CCCC(=O)[O-]
REMARK SMILES IDX 3 1 4 2 5 3 6 4 2 5 1 6
REMARK H PARENT
REMARK Flexibility Score: inf
ROOT
ATOM      1  C   UNL     1     -17.429  -9.592  -7.211  1.00  0.00     0.052 C 
ENDROOT
BRANCH   1   2
ATOM      2  C   UNL     1     -16.135 -10.151  -6.705  1.00  0.00     0.041 C 
ATOM      3  O   UNL     1     -15.298  -9.399  -6.139  1.00  0.00    -0.550 OA
ATOM      4  O   UNL     1     -15.867 -11.508  -6.829  1.00  0.00    -0.550 OA
ENDBRANCH   1   2
BRANCH   1   5
ATOM      5  C   UNL     1     -17.209  -8.349  -8.085  1.00  0.00     0.003 C 
ATOM      6  C   UNL     1     -16.636  -8.698  -9.459  1.00  0.00     0.004 C 
ENDBRANCH   1   5
TORSDOF 2
ENDMDL
MODEL 8
REMARK VINA RESULT:    -3.441      2.102      3.965
REMARK INTER + INTRA:          -3.852
REMARK INTER:                  -3.844
REMARK INTRA:                  -0.008
REMARK UNBOUND:                -0.009
REMARK SMILES CCCC(=O)[O-]
REMARK SMILES IDX 3 1 4 2 5 3 6 4 2 5 1 6
REMARK H PARENT
REMARK Flexibility Score: inf
ROOT
ATOM      1  C   UNL     1     -19.385 -10.332 -11.906  1.00  0.00     0.052 C 
ENDROOT
BRANCH   1   2
ATOM      2  C   UNL     1     -18.345 -10.450 -10.835  1.00  0.00     0.041 C 
ATOM      3  O   UNL     1     -18.398  -9.711  -9.817  1.00  0.00    -0.550 OA
ATOM      4  O   UNL     1     -17.338 -11.400 -10.944  1.00  0.00    -0.550 OA
ENDBRANCH   1   2
BRANCH   1   5
ATOM      5  C   UNL     1     -19.722 -11.696 -12.525  1.00  0.00     0.003 C 
ATOM      6  C   UNL     1     -20.740 -11.584 -13.660  1.00  0.00     0.004 C 
ENDBRANCH   1   5
TORSDOF 2
ENDMDL
MODEL 9
REMARK VINA RESULT:    -3.422      3.577      4.254
REMARK INTER + INTRA:          -3.831
REMARK INTER:                  -3.814
REMARK INTRA:                  -0.017
REMARK UNBOUND:                -0.009
REMARK SMILES CCCC(=O)[O-]
REMARK SMILES IDX 3 1 4 2 5 3 6 4 2 5 1 6
REMARK H PARENT
REMARK Flexibility Score: inf
ROOT
ATOM      1  C   UNL     1     -15.517 -11.074  -9.705  1.00  0.00     0.052 C 
ENDROOT
BRANCH   1   2
ATOM      2  C   UNL     1     -14.771 -11.892  -8.697  1.00  0.00     0.041 C 
ATOM      3  O   UNL     1     -13.973 -11.337  -7.896  1.00  0.00    -0.550 OA
ATOM      4  O   UNL     1     -14.982 -13.263  -8.619  1.00  0.00    -0.550 OA
ENDBRANCH   1   2
BRANCH   1   5
ATOM      5  C   UNL     1     -16.552 -10.156  -9.040  1.00  0.00     0.003 C 
ATOM      6  C   UNL     1     -16.616  -8.778  -9.702  1.00  0.00     0.004 C 
ENDBRANCH   1   5
TORSDOF 2
ENDMDL
