MODEL 1
REMARK VINA RESULT:    -3.224      0.000      0.000
REMARK INTER + INTRA:          -4.392
REMARK INTER:                  -4.166
REMARK INTRA:                  -0.226
REMARK UNBOUND:                -0.226
REMARK SMILES CCCCCCC(=O)[O-]
REMARK SMILES IDX 5 1 6 2 7 3 8 4 9 5 4 6 3 7 2 8 1 9
REMARK H PARENT
REMARK Flexibility Score: inf
ROOT
ATOM      1  C   UNL     1      56.573  28.225  50.664  1.00  0.00     0.006 C 
ENDROOT
BRANCH   1   2
ATOM      2  C   UNL     1      57.730  27.232  50.511  1.00  0.00     0.053 C 
BRANCH   2   3
ATOM      3  C   UNL     1      58.835  27.837  49.703  1.00  0.00     0.041 C 
ATOM      4  O   UNL     1      58.754  29.032  49.314  1.00  0.00    -0.550 OA
ATOM      5  O   UNL     1      59.975  27.096  49.422  1.00  0.00    -0.550 OA
ENDBRANCH   2   3
ENDBRANCH   1   2
BRANCH   1   6
ATOM      6  C   UNL     1      55.318  27.528  51.206  1.00  0.00     0.000 C 
BRANCH   6   7
ATOM      7  C   UNL     1      54.129  27.718  50.252  1.00  0.00    -0.000 C 
BRANCH   7   8
ATOM      8  C   UNL     1      53.428  26.393  49.914  1.00  0.00    -0.003 C 
ATOM      9  C   UNL     1      54.413  25.252  49.660  1.00  0.00     0.004 C 
ENDBRANCH   7   8
ENDBRANCH   6   7
ENDBRANCH   1   6
TORSDOF 5
ENDMDL
MODEL 2
REMARK VINA RESULT:    -3.192      1.351      1.733
REMARK INTER + INTRA:          -4.351
REMARK INTER:                  -4.180
REMARK INTRA:                  -0.171
REMARK UNBOUND:                -0.226
REMARK SMILES CCCCCCC(=O)[O-]
REMARK SMILES IDX 5 1 6 2 7 3 8 4 9 5 4 6 3 7 2 8 1 9
REMARK H PARENT
REMARK Flexibility Score: inf
ROOT
ATOM      1  C   UNL     1      58.036  28.399  50.845  1.00  0.00     0.006 C 
ENDROOT
BRANCH   1   2
ATOM      2  C   UNL     1      58.858  28.322  49.554  1.00  0.00     0.053 C 
BRANCH   2   3
ATOM      3  C   UNL     1      59.787  27.150  49.594  1.00  0.00     0.041 C 
ATOM      4  O   UNL     1      59.328  25.977  49.586  1.00  0.00    -0.550 OA
ATOM      5  O   UNL     1      61.161  27.352  49.592  1.00  0.00    -0.550 OA
ENDBRANCH   2   3
ENDBRANCH   1   2
BRANCH   1   6
ATOM      6  C   UNL     1      56.536  28.269  50.551  1.00  0.00     0.000 C 
BRANCH   6   7
ATOM      7  C   UNL     1      56.077  26.809  50.673  1.00  0.00    -0.000 C 
BRANCH   7   8
ATOM      8  C   UNL     1      54.608  26.616  50.264  1.00  0.00    -0.003 C 
ATOM      9  C   UNL     1      54.354  25.266  49.592  1.00  0.00     0.004 C 
ENDBRANCH   7   8
ENDBRANCH   6   7
ENDBRANCH   1   6
TORSDOF 5
ENDMDL
MODEL 3
REMARK VINA RESULT:    -3.185      1.156      1.395
REMARK INTER + INTRA:          -4.342
REMARK INTER:                  -4.155
REMARK INTRA:                  -0.187
REMARK UNBOUND:                -0.226
REMARK SMILES CCCCCCC(=O)[O-]
REMARK SMILES IDX 5 1 6 2 7 3 8 4 9 5 4 6 3 7 2 8 1 9
REMARK H PARENT
REMARK Flexibility Score: inf
ROOT
ATOM      1  C   UNL     1      57.285  27.312  50.796  1.00  0.00     0.006 C 
ENDROOT
BRANCH   1   2
ATOM      2  C   UNL     1      58.398  28.036  50.031  1.00  0.00     0.053 C 
BRANCH   2   3
ATOM      3  C   UNL     1      59.505  27.086  49.696  1.00  0.00     0.041 C 
ATOM      4  O   UNL     1      60.668  27.518  49.482  1.00  0.00    -0.550 OA
ATOM      5  O   UNL     1      59.262  25.718  49.668  1.00  0.00    -0.550 OA
ENDBRANCH   2   3
ENDBRANCH   1   2
BRANCH   1   6
ATOM      6  C   UNL     1      55.989  28.133  50.787  1.00  0.00     0.000 C 
BRANCH   6   7
ATOM      7  C   UNL     1      54.797  27.272  50.344  1.00  0.00    -0.000 C 
BRANCH   7   8
ATOM      8  C   UNL     1      55.197  25.819  50.045  1.00  0.00    -0.003 C 
ATOM      9  C   UNL     1      54.014  24.959  49.600  1.00  0.00     0.004 C 
ENDBRANCH   7   8
ENDBRANCH   6   7
ENDBRANCH   1   6
TORSDOF 5
ENDMDL
MODEL 4
REMARK VINA RESULT:    -3.116     12.776     13.942
REMARK INTER + INTRA:          -4.253
REMARK INTER:                  -4.067
REMARK INTRA:                  -0.187
REMARK UNBOUND:                -0.226
REMARK SMILES CCCCCCC(=O)[O-]
REMARK SMILES IDX 5 1 6 2 7 3 8 4 9 5 4 6 3 7 2 8 1 9
REMARK H PARENT
REMARK Flexibility Score: inf
ROOT
ATOM      1  C   UNL     1      61.190  31.200  60.501  1.00  0.00     0.006 C 
ENDROOT
BRANCH   1   2
ATOM      2  C   UNL     1      61.468  30.498  61.833  1.00  0.00     0.053 C 
BRANCH   2   3
ATOM      3  C   UNL     1      62.560  29.487  61.674  1.00  0.00     0.041 C 
ATOM      4  O   UNL     1      63.763  29.856  61.626  1.00  0.00    -0.550 OA
ATOM      5  O   UNL     1      62.252  28.133  61.626  1.00  0.00    -0.550 OA
ENDBRANCH   2   3
ENDBRANCH   1   2
BRANCH   1   6
ATOM      6  C   UNL     1      61.397  32.716  60.624  1.00  0.00     0.000 C 
BRANCH   6   7
ATOM      7  C   UNL     1      62.875  33.086  60.430  1.00  0.00    -0.000 C 
BRANCH   7   8
ATOM      8  C   UNL     1      63.201  34.498  60.941  1.00  0.00    -0.003 C 
ATOM      9  C   UNL     1      64.584  34.586  61.589  1.00  0.00     0.004 C 
ENDBRANCH   7   8
ENDBRANCH   6   7
ENDBRANCH   1   6
TORSDOF 5
ENDMDL
MODEL 5
REMARK VINA RESULT:    -3.083     13.243     14.479
REMARK INTER + INTRA:          -4.211
REMARK INTER:                  -4.048
REMARK INTRA:                  -0.162
REMARK UNBOUND:                -0.226
REMARK SMILES CCCCCCC(=O)[O-]
REMARK SMILES IDX 5 1 6 2 7 3 8 4 9 5 4 6 3 7 2 8 1 9
REMARK H PARENT
REMARK Flexibility Score: inf
ROOT
ATOM      1  C   UNL     1      62.351  33.181  60.398  1.00  0.00     0.006 C 
ENDROOT
BRANCH   1   2
ATOM      2  C   UNL     1      61.166  32.228  60.582  1.00  0.00     0.053 C 
BRANCH   2   3
ATOM      3  C   UNL     1      61.627  30.923  61.149  1.00  0.00     0.041 C 
ATOM      4  O   UNL     1      61.179  30.517  62.253  1.00  0.00    -0.550 OA
ATOM      5  O   UNL     1      62.517  30.131  60.434  1.00  0.00    -0.550 OA
ENDBRANCH   2   3
ENDBRANCH   1   2
BRANCH   1   6
ATOM      6  C   UNL     1      61.906  34.644  60.530  1.00  0.00     0.000 C 
BRANCH   6   7
ATOM      7  C   UNL     1      62.984  35.484  61.232  1.00  0.00    -0.000 C 
BRANCH   7   8
ATOM      8  C   UNL     1      64.286  34.701  61.461  1.00  0.00    -0.003 C 
ATOM      9  C   UNL     1      65.494  35.613  61.678  1.00  0.00     0.004 C 
ENDBRANCH   7   8
ENDBRANCH   6   7
ENDBRANCH   1   6
TORSDOF 5
ENDMDL
MODEL 6
REMARK VINA RESULT:    -3.068      3.396      4.845
REMARK INTER + INTRA:          -4.191
REMARK INTER:                  -4.003
REMARK INTRA:                  -0.189
REMARK UNBOUND:                -0.226
REMARK SMILES CCCCCCC(=O)[O-]
REMARK SMILES IDX 5 1 6 2 7 3 8 4 9 5 4 6 3 7 2 8 1 9
REMARK H PARENT
REMARK Flexibility Score: inf
ROOT
ATOM      1  C   UNL     1      54.408  27.226  50.321  1.00  0.00     0.006 C 
ENDROOT
BRANCH   1   2
ATOM      2  C   UNL     1      55.014  25.850  50.026  1.00  0.00     0.053 C 
BRANCH   2   3
ATOM      3  C   UNL     1      54.179  24.769  50.636  1.00  0.00     0.041 C 
ATOM      4  O   UNL     1      53.432  24.059  49.912  1.00  0.00    -0.550 OA
ATOM      5  O   UNL     1      54.261  24.514  52.000  1.00  0.00    -0.550 OA
ENDBRANCH   2   3
ENDBRANCH   1   2
BRANCH   1   6
ATOM      6  C   UNL     1      55.502  28.249  50.651  1.00  0.00     0.000 C 
BRANCH   6   7
ATOM      7  C   UNL     1      56.892  27.595  50.625  1.00  0.00    -0.000 C 
BRANCH   7   8
ATOM      8  C   UNL     1      58.008  28.595  50.284  1.00  0.00    -0.003 C 
ATOM      9  C   UNL     1      59.184  27.942  49.557  1.00  0.00     0.004 C 
ENDBRANCH   7   8
ENDBRANCH   6   7
ENDBRANCH   1   6
TORSDOF 5
ENDMDL
MODEL 7
REMARK VINA RESULT:    -3.007      1.290      2.384
REMARK INTER + INTRA:          -4.112
REMARK INTER:                  -3.863
REMARK INTRA:                  -0.249
REMARK UNBOUND:                -0.226
REMARK SMILES CCCCCCC(=O)[O-]
REMARK SMILES IDX 5 1 6 2 7 3 8 4 9 5 4 6 3 7 2 8 1 9
REMARK H PARENT
REMARK Flexibility Score: inf
ROOT
ATOM      1  C   UNL     1      57.873  26.236  50.975  1.00  0.00     0.006 C 
ENDROOT
BRANCH   1   2
ATOM      2  C   UNL     1      58.910  26.016  49.869  1.00  0.00     0.053 C 
BRANCH   2   3
ATOM      3  C   UNL     1      59.625  27.294  49.561  1.00  0.00     0.041 C 
ATOM      4  O   UNL     1      60.881  27.314  49.481  1.00  0.00    -0.550 OA
ATOM      5  O   UNL     1      58.900  28.453  49.313  1.00  0.00    -0.550 OA
ENDBRANCH   2   3
ENDBRANCH   1   2
BRANCH   1   6
ATOM      6  C   UNL     1      56.581  25.463  50.679  1.00  0.00     0.000 C 
BRANCH   6   7
ATOM      7  C   UNL     1      55.447  26.420  50.282  1.00  0.00    -0.000 C 
BRANCH   7   8
ATOM      8  C   UNL     1      55.682  27.854  50.784  1.00  0.00    -0.003 C 
ATOM      9  C   UNL     1      54.451  28.746  50.620  1.00  0.00     0.004 C 
ENDBRANCH   7   8
ENDBRANCH   6   7
ENDBRANCH   1   6
TORSDOF 5
ENDMDL
MODEL 8
REMARK VINA RESULT:    -3.003     12.894     13.740
REMARK INTER + INTRA:          -4.106
REMARK INTER:                  -3.856
REMARK INTRA:                  -0.250
REMARK UNBOUND:                -0.226
REMARK SMILES CCCCCCC(=O)[O-]
REMARK SMILES IDX 5 1 6 2 7 3 8 4 9 5 4 6 3 7 2 8 1 9
REMARK H PARENT
REMARK Flexibility Score: inf
ROOT
ATOM      1  C   UNL     1      61.941  33.808  59.857  1.00  0.00     0.006 C 
ENDROOT
BRANCH   1   2
ATOM      2  C   UNL     1      62.665  34.677  60.891  1.00  0.00     0.053 C 
BRANCH   2   3
ATOM      3  C   UNL     1      64.046  34.157  61.135  1.00  0.00     0.041 C 
ATOM      4  O   UNL     1      64.827  34.773  61.907  1.00  0.00    -0.550 OA
ATOM      5  O   UNL     1      64.454  32.966  60.548  1.00  0.00    -0.550 OA
ENDBRANCH   2   3
ENDBRANCH   1   2
BRANCH   1   6
ATOM      6  C   UNL     1      60.884  32.920  60.528  1.00  0.00     0.000 C 
BRANCH   6   7
ATOM      7  C   UNL     1      61.228  31.433  60.358  1.00  0.00    -0.000 C 
BRANCH   7   8
ATOM      8  C   UNL     1      61.316  30.691  61.701  1.00  0.00    -0.003 C 
ATOM      9  C   UNL     1      62.445  29.661  61.733  1.00  0.00     0.004 C 
ENDBRANCH   7   8
ENDBRANCH   6   7
ENDBRANCH   1   6
TORSDOF 5
ENDMDL
MODEL 9
REMARK VINA RESULT:    -2.999      2.669      4.466
REMARK INTER + INTRA:          -4.101
REMARK INTER:                  -3.850
REMARK INTRA:                  -0.251
REMARK UNBOUND:                -0.226
REMARK SMILES CCCCCCC(=O)[O-]
REMARK SMILES IDX 5 1 6 2 7 3 8 4 9 5 4 6 3 7 2 8 1 9
REMARK H PARENT
REMARK Flexibility Score: inf
ROOT
ATOM      1  C   UNL     1      57.346  27.775  50.951  1.00  0.00     0.006 C 
ENDROOT
BRANCH   1   2
ATOM      2  C   UNL     1      55.899  28.240  50.756  1.00  0.00     0.053 C 
BRANCH   2   3
ATOM      3  C   UNL     1      55.039  27.100  50.312  1.00  0.00     0.041 C 
ATOM      4  O   UNL     1      53.844  27.303  49.970  1.00  0.00    -0.550 OA
ATOM      5  O   UNL     1      55.570  25.819  50.229  1.00  0.00    -0.550 OA
ENDBRANCH   2   3
ENDBRANCH   1   2
BRANCH   1   6
ATOM      6  C   UNL     1      58.300  28.540  50.024  1.00  0.00     0.000 C 
BRANCH   6   7
ATOM      7  C   UNL     1      59.412  27.619  49.500  1.00  0.00    -0.000 C 
BRANCH   7   8
ATOM      8  C   UNL     1      59.168  26.142  49.847  1.00  0.00    -0.003 C 
ATOM      9  C   UNL     1      60.457  25.396  50.194  1.00  0.00     0.004 C 
ENDBRANCH   7   8
ENDBRANCH   6   7
ENDBRANCH   1   6
TORSDOF 5
ENDMDL
