MODEL 1
REMARK VINA RESULT:    -3.723      0.000      0.000
REMARK INTER + INTRA:          -4.038
REMARK INTER:                  -3.941
REMARK INTRA:                  -0.098
REMARK UNBOUND:                -0.098
REMARK SMILES C=C(C)[C@H]1CC=C(C)C(=O)C1
REMARK SMILES IDX 8 1 7 2 6 3 5 4 4 5 11 6 9 7 10 8 2 9 1 10 3 11
REMARK H PARENT
REMARK Flexibility Score: inf
ROOT
ATOM      1  C   UNL     1      75.032  35.889  52.007  1.00  0.00     0.048 C 
ATOM      2  C   UNL     1      74.329  35.309  53.204  1.00  0.00    -0.012 C 
ATOM      3  C   UNL     1      73.818  36.125  54.140  1.00  0.00    -0.019 C 
ATOM      4  C   UNL     1      73.122  35.597  55.367  1.00  0.00     0.036 C 
ATOM      5  C   UNL     1      72.387  34.278  55.061  1.00  0.00     0.025 C 
ATOM      6  C   UNL     1      73.360  33.251  54.456  1.00  0.00     0.089 C 
ATOM      7  C   UNL     1      74.095  33.845  53.286  1.00  0.00     0.158 C 
ATOM      8  O   UNL     1      74.542  33.080  52.389  1.00  0.00    -0.295 OA
ENDROOT
BRANCH   5   9
ATOM      9  C   UNL     1      71.695  33.727  56.302  1.00  0.00    -0.077 C 
ATOM     10  C   UNL     1      72.283  32.761  57.026  1.00  0.00     0.008 C 
ATOM     11  C   UNL     1      70.351  34.246  56.749  1.00  0.00     0.039 C 
ENDBRANCH   5   9
TORSDOF 1
ENDMDL
MODEL 2
REMARK VINA RESULT:    -3.473     15.920     16.906
REMARK INTER + INTRA:          -3.774
REMARK INTER:                  -3.680
REMARK INTRA:                  -0.094
REMARK UNBOUND:                -0.098
REMARK SMILES C=C(C)[C@H]1CC=C(C)C(=O)C1
REMARK SMILES IDX 8 1 7 2 6 3 5 4 4 5 11 6 9 7 10 8 2 9 1 10 3 11
REMARK H PARENT
REMARK Flexibility Score: inf
ROOT
ATOM      1  C   UNL     1      87.911  32.772  66.633  1.00  0.00     0.048 C 
ATOM      2  C   UNL     1      86.733  31.920  66.247  1.00  0.00    -0.012 C 
ATOM      3  C   UNL     1      85.485  32.382  66.430  1.00  0.00    -0.019 C 
ATOM      4  C   UNL     1      84.270  31.563  66.080  1.00  0.00     0.036 C 
ATOM      5  C   UNL     1      84.547  30.656  64.866  1.00  0.00     0.025 C 
ATOM      6  C   UNL     1      85.786  29.779  65.125  1.00  0.00     0.089 C 
ATOM      7  C   UNL     1      86.952  30.626  65.553  1.00  0.00     0.158 C 
ATOM      8  O   UNL     1      88.123  30.208  65.347  1.00  0.00    -0.295 OA
ENDROOT
BRANCH   5   9
ATOM      9  C   UNL     1      83.329  29.810  64.515  1.00  0.00    -0.077 C 
ATOM     10  C   UNL     1      82.138  30.396  64.316  1.00  0.00     0.008 C 
ATOM     11  C   UNL     1      83.427  28.310  64.378  1.00  0.00     0.039 C 
ENDBRANCH   5   9
TORSDOF 1
ENDMDL
MODEL 3
REMARK VINA RESULT:    -3.403      1.497      2.121
REMARK INTER + INTRA:          -3.699
REMARK INTER:                  -3.612
REMARK INTRA:                  -0.087
REMARK UNBOUND:                -0.098
REMARK SMILES C=C(C)[C@H]1CC=C(C)C(=O)C1
REMARK SMILES IDX 8 1 7 2 6 3 5 4 4 5 11 6 9 7 10 8 2 9 1 10 3 11
REMARK H PARENT
REMARK Flexibility Score: inf
ROOT
ATOM      1  C   UNL     1      74.882  34.241  52.385  1.00  0.00     0.048 C 
ATOM      2  C   UNL     1      73.846  34.159  53.472  1.00  0.00    -0.012 C 
ATOM      3  C   UNL     1      73.001  33.116  53.513  1.00  0.00    -0.019 C 
ATOM      4  C   UNL     1      71.933  32.993  54.569  1.00  0.00     0.036 C 
ATOM      5  C   UNL     1      72.397  33.616  55.899  1.00  0.00     0.025 C 
ATOM      6  C   UNL     1      72.838  35.074  55.683  1.00  0.00     0.089 C 
ATOM      7  C   UNL     1      73.841  35.163  54.566  1.00  0.00     0.158 C 
ATOM      8  O   UNL     1      74.657  36.123  54.549  1.00  0.00    -0.295 OA
ENDROOT
BRANCH   5   9
ATOM      9  C   UNL     1      71.316  33.513  56.968  1.00  0.00    -0.077 C 
ATOM     10  C   UNL     1      71.521  32.762  58.062  1.00  0.00     0.008 C 
ATOM     11  C   UNL     1      70.005  34.246  56.833  1.00  0.00     0.039 C 
ENDBRANCH   5   9
TORSDOF 1
ENDMDL
MODEL 4
REMARK VINA RESULT:    -3.251     16.073     17.168
REMARK INTER + INTRA:          -3.538
REMARK INTER:                  -3.440
REMARK INTRA:                  -0.098
REMARK UNBOUND:                -0.098
REMARK SMILES C=C(C)[C@H]1CC=C(C)C(=O)C1
REMARK SMILES IDX 8 1 7 2 6 3 5 4 4 5 11 6 9 7 10 8 2 9 1 10 3 11
REMARK H PARENT
REMARK Flexibility Score: inf
ROOT
ATOM      1  C   UNL     1      83.333  29.217  64.364  1.00  0.00     0.048 C 
ATOM      2  C   UNL     1      84.368  30.177  64.883  1.00  0.00    -0.012 C 
ATOM      3  C   UNL     1      85.620  29.749  65.117  1.00  0.00    -0.019 C 
ATOM      4  C   UNL     1      86.690  30.662  65.654  1.00  0.00     0.036 C 
ATOM      5  C   UNL     1      86.489  32.105  65.153  1.00  0.00     0.025 C 
ATOM      6  C   UNL     1      85.073  32.599  65.499  1.00  0.00     0.089 C 
ATOM      7  C   UNL     1      84.039  31.618  65.019  1.00  0.00     0.158 C 
ATOM      8  O   UNL     1      82.874  32.029  64.765  1.00  0.00    -0.295 OA
ENDROOT
BRANCH   5   9
ATOM      9  C   UNL     1      87.556  33.041  65.707  1.00  0.00    -0.077 C 
ATOM     10  C   UNL     1      88.125  32.783  66.895  1.00  0.00     0.008 C 
ATOM     11  C   UNL     1      88.002  34.264  64.945  1.00  0.00     0.039 C 
ENDBRANCH   5   9
TORSDOF 1
ENDMDL
MODEL 5
REMARK VINA RESULT:    -3.233     15.722     16.843
REMARK INTER + INTRA:          -3.520
REMARK INTER:                  -3.422
REMARK INTRA:                  -0.098
REMARK UNBOUND:                -0.098
REMARK SMILES C=C(C)[C@H]1CC=C(C)C(=O)C1
REMARK SMILES IDX 8 1 7 2 6 3 5 4 4 5 11 6 9 7 10 8 2 9 1 10 3 11
REMARK H PARENT
REMARK Flexibility Score: inf
ROOT
ATOM      1  C   UNL     1      81.844  30.124  64.153  1.00  0.00     0.048 C 
ATOM      2  C   UNL     1      83.269  30.433  64.523  1.00  0.00    -0.012 C 
ATOM      3  C   UNL     1      83.633  31.700  64.784  1.00  0.00    -0.019 C 
ATOM      4  C   UNL     1      85.049  32.067  65.140  1.00  0.00     0.036 C 
ATOM      5  C   UNL     1      85.735  30.930  65.921  1.00  0.00     0.025 C 
ATOM      6  C   UNL     1      85.657  29.614  65.128  1.00  0.00     0.089 C 
ATOM      7  C   UNL     1      84.238  29.326  64.720  1.00  0.00     0.158 C 
ATOM      8  O   UNL     1      83.889  28.133  64.511  1.00  0.00    -0.295 OA
ENDROOT
BRANCH   5   9
ATOM      9  C   UNL     1      87.175  31.286  66.270  1.00  0.00    -0.077 C 
ATOM     10  C   UNL     1      88.125  30.337  66.254  1.00  0.00     0.008 C 
ATOM     11  C   UNL     1      87.572  32.695  66.633  1.00  0.00     0.039 C 
ENDBRANCH   5   9
TORSDOF 1
ENDMDL
MODEL 6
REMARK VINA RESULT:    -3.208      2.987      6.108
REMARK INTER + INTRA:          -3.493
REMARK INTER:                  -3.395
REMARK INTRA:                  -0.098
REMARK UNBOUND:                -0.098
REMARK SMILES C=C(C)[C@H]1CC=C(C)C(=O)C1
REMARK SMILES IDX 8 1 7 2 6 3 5 4 4 5 11 6 9 7 10 8 2 9 1 10 3 11
REMARK H PARENT
REMARK Flexibility Score: inf
ROOT
ATOM      1  C   UNL     1      73.526  35.354  52.995  1.00  0.00     0.048 C 
ATOM      2  C   UNL     1      74.881  35.113  52.388  1.00  0.00    -0.012 C 
ATOM      3  C   UNL     1      75.538  36.125  51.796  1.00  0.00    -0.019 C 
ATOM      4  C   UNL     1      76.887  35.935  51.156  1.00  0.00     0.036 C 
ATOM      5  C   UNL     1      77.706  34.862  51.899  1.00  0.00     0.025 C 
ATOM      6  C   UNL     1      76.911  33.547  51.985  1.00  0.00     0.089 C 
ATOM      7  C   UNL     1      75.540  33.793  52.551  1.00  0.00     0.158 C 
ATOM      8  O   UNL     1      74.940  32.853  53.138  1.00  0.00    -0.295 OA
ENDROOT
BRANCH   5   9
ATOM      9  C   UNL     1      79.066  34.649  51.247  1.00  0.00    -0.077 C 
ATOM     10  C   UNL     1      79.442  35.415  50.210  1.00  0.00     0.008 C 
ATOM     11  C   UNL     1      80.020  33.591  51.743  1.00  0.00     0.039 C 
ENDBRANCH   5   9
TORSDOF 1
ENDMDL
MODEL 7
REMARK VINA RESULT:    -2.809      2.571      4.150
REMARK INTER + INTRA:          -3.071
REMARK INTER:                  -2.984
REMARK INTRA:                  -0.087
REMARK UNBOUND:                -0.098
REMARK SMILES C=C(C)[C@H]1CC=C(C)C(=O)C1
REMARK SMILES IDX 8 1 7 2 6 3 5 4 4 5 11 6 9 7 10 8 2 9 1 10 3 11
REMARK H PARENT
REMARK Flexibility Score: inf
ROOT
ATOM      1  C   UNL     1      79.084  33.734  51.415  1.00  0.00     0.048 C 
ATOM      2  C   UNL     1      77.759  34.236  51.919  1.00  0.00    -0.012 C 
ATOM      3  C   UNL     1      77.530  35.557  51.997  1.00  0.00    -0.019 C 
ATOM      4  C   UNL     1      76.228  36.114  52.512  1.00  0.00     0.036 C 
ATOM      5  C   UNL     1      75.052  35.183  52.162  1.00  0.00     0.025 C 
ATOM      6  C   UNL     1      75.323  33.760  52.680  1.00  0.00     0.089 C 
ATOM      7  C   UNL     1      76.667  33.274  52.213  1.00  0.00     0.158 C 
ATOM      8  O   UNL     1      76.869  32.034  52.106  1.00  0.00    -0.295 OA
ENDROOT
BRANCH   5   9
ATOM      9  C   UNL     1      73.733  35.729  52.695  1.00  0.00    -0.077 C 
ATOM     10  C   UNL     1      72.774  36.122  51.842  1.00  0.00     0.008 C 
ATOM     11  C   UNL     1      73.469  35.837  54.176  1.00  0.00     0.039 C 
ENDBRANCH   5   9
TORSDOF 1
ENDMDL
MODEL 8
REMARK VINA RESULT:    -0.944     15.701     16.601
REMARK INTER + INTRA:          -1.097
REMARK INTER:                  -1.001
REMARK INTRA:                  -0.096
REMARK UNBOUND:                -0.098
REMARK SMILES C=C(C)[C@H]1CC=C(C)C(=O)C1
REMARK SMILES IDX 8 1 7 2 6 3 5 4 4 5 11 6 9 7 10 8 2 9 1 10 3 11
REMARK H PARENT
REMARK Flexibility Score: inf
ROOT
ATOM      1  C   UNL     1      88.125  33.542  65.764  1.00  0.00     0.048 C 
ATOM      2  C   UNL     1      87.090  32.537  65.340  1.00  0.00    -0.012 C 
ATOM      3  C   UNL     1      87.150  31.278  65.805  1.00  0.00    -0.019 C 
ATOM      4  C   UNL     1      86.151  30.227  65.399  1.00  0.00     0.036 C 
ATOM      5  C   UNL     1      84.766  30.850  65.143  1.00  0.00     0.025 C 
ATOM      6  C   UNL     1      84.873  31.984  64.108  1.00  0.00     0.089 C 
ATOM      7  C   UNL     1      85.938  32.967  64.509  1.00  0.00     0.158 C 
ATOM      8  O   UNL     1      85.860  34.157  64.101  1.00  0.00    -0.295 OA
ENDROOT
BRANCH   5   9
ATOM      9  C   UNL     1      83.753  29.796  64.712  1.00  0.00    -0.077 C 
ATOM     10  C   UNL     1      82.508  30.161  64.369  1.00  0.00     0.008 C 
ATOM     11  C   UNL     1      84.117  28.333  64.655  1.00  0.00     0.039 C 
ENDBRANCH   5   9
TORSDOF 1
ENDMDL
