MODEL 1
REMARK VINA RESULT:    -4.026      0.000      0.000
REMARK INTER + INTRA:          -6.401
REMARK INTER:                  -5.674
REMARK INTRA:                  -0.727
REMARK UNBOUND:                -0.727
REMARK SMILES CCCCCCCCC(=O)[O-]
REMARK SMILES IDX 6 1 7 2 8 3 9 4 10 5 11 6 5 7 4 8 3 9 2 10 1 11
REMARK H PARENT
REMARK Flexibility Score: inf
ROOT
ATOM      1  C   UNL     1      60.603  29.454  11.496  1.00  0.00     0.000 C 
ENDROOT
BRANCH   1   2
ATOM      2  C   UNL     1      61.642  28.874  10.522  1.00  0.00     0.006 C 
BRANCH   2   3
ATOM      3  C   UNL     1      62.573  29.946   9.941  1.00  0.00     0.053 C 
BRANCH   3   4
ATOM      4  C   UNL     1      64.004  29.594  10.207  1.00  0.00     0.041 C 
ATOM      5  O   UNL     1      64.544  29.922  11.295  1.00  0.00    -0.550 OA
ATOM      6  O   UNL     1      64.753  28.947   9.232  1.00  0.00    -0.550 OA
ENDBRANCH   3   4
ENDBRANCH   2   3
ENDBRANCH   1   2
BRANCH   1   7
ATOM      7  C   UNL     1      60.715  28.849  12.907  1.00  0.00     0.000 C 
BRANCH   7   8
ATOM      8  C   UNL     1      62.036  29.214  13.603  1.00  0.00    -0.000 C 
BRANCH   8   9
ATOM      9  C   UNL     1      61.953  30.548  14.365  1.00  0.00    -0.000 C 
BRANCH   9  10
ATOM     10  C   UNL     1      62.609  31.707  13.597  1.00  0.00    -0.003 C 
ATOM     11  C   UNL     1      61.595  32.732  13.089  1.00  0.00     0.004 C 
ENDBRANCH   9  10
ENDBRANCH   8   9
ENDBRANCH   7   8
ENDBRANCH   1   7
TORSDOF 7
ENDMDL
MODEL 2
REMARK VINA RESULT:    -4.017      2.559      3.895
REMARK INTER + INTRA:          -6.388
REMARK INTER:                  -5.509
REMARK INTRA:                  -0.879
REMARK UNBOUND:                -0.727
REMARK SMILES CCCCCCCCC(=O)[O-]
REMARK SMILES IDX 6 1 7 2 8 3 9 4 10 5 11 6 5 7 4 8 3 9 2 10 1 11
REMARK H PARENT
REMARK Flexibility Score: inf
ROOT
ATOM      1  C   UNL     1      63.864  30.532  13.519  1.00  0.00     0.000 C 
ENDROOT
BRANCH   1   2
ATOM      2  C   UNL     1      63.004  29.396  12.939  1.00  0.00     0.006 C 
BRANCH   2   3
ATOM      3  C   UNL     1      61.698  29.186  13.717  1.00  0.00     0.053 C 
BRANCH   3   4
ATOM      4  C   UNL     1      60.525  29.235  12.788  1.00  0.00     0.041 C 
ATOM      5  O   UNL     1      59.533  28.485  12.982  1.00  0.00    -0.550 OA
ATOM      6  O   UNL     1      60.549  30.074  11.681  1.00  0.00    -0.550 OA
ENDBRANCH   3   4
ENDBRANCH   2   3
ENDBRANCH   1   2
BRANCH   1   7
ATOM      7  C   UNL     1      63.770  31.825  12.689  1.00  0.00     0.000 C 
BRANCH   7   8
ATOM      8  C   UNL     1      63.126  32.981  13.472  1.00  0.00    -0.000 C 
BRANCH   8   9
ATOM      9  C   UNL     1      61.612  33.090  13.226  1.00  0.00    -0.000 C 
BRANCH   9  10
ATOM     10  C   UNL     1      60.785  32.701  14.463  1.00  0.00    -0.003 C 
ATOM     11  C   UNL     1      61.635  32.565  15.726  1.00  0.00     0.004 C 
ENDBRANCH   9  10
ENDBRANCH   8   9
ENDBRANCH   7   8
ENDBRANCH   1   7
TORSDOF 7
ENDMDL
MODEL 3
REMARK VINA RESULT:    -4.015      1.374      2.416
REMARK INTER + INTRA:          -6.385
REMARK INTER:                  -5.634
REMARK INTRA:                  -0.752
REMARK UNBOUND:                -0.727
REMARK SMILES CCCCCCCCC(=O)[O-]
REMARK SMILES IDX 6 1 7 2 8 3 9 4 10 5 11 6 5 7 4 8 3 9 2 10 1 11
REMARK H PARENT
REMARK Flexibility Score: inf
ROOT
ATOM      1  C   UNL     1      61.966  28.992  13.355  1.00  0.00     0.000 C 
ENDROOT
BRANCH   1   2
ATOM      2  C   UNL     1      60.625  28.970  12.602  1.00  0.00     0.006 C 
BRANCH   2   3
ATOM      3  C   UNL     1      60.641  29.839  11.338  1.00  0.00     0.053 C 
BRANCH   3   4
ATOM      4  C   UNL     1      61.759  29.424  10.433  1.00  0.00     0.041 C 
ATOM      5  O   UNL     1      61.764  28.275   9.921  1.00  0.00    -0.550 OA
ATOM      6  O   UNL     1      62.819  30.290  10.196  1.00  0.00    -0.550 OA
ENDBRANCH   3   4
ENDBRANCH   2   3
ENDBRANCH   1   2
BRANCH   1   7
ATOM      7  C   UNL     1      62.152  30.270  14.192  1.00  0.00     0.000 C 
BRANCH   7   8
ATOM      8  C   UNL     1      63.330  31.129  13.703  1.00  0.00    -0.000 C 
BRANCH   8   9
ATOM      9  C   UNL     1      62.869  32.432  13.028  1.00  0.00    -0.000 C 
BRANCH   9  10
ATOM     10  C   UNL     1      61.474  32.876  13.496  1.00  0.00    -0.003 C 
ATOM     11  C   UNL     1      61.526  33.905  14.625  1.00  0.00     0.004 C 
ENDBRANCH   9  10
ENDBRANCH   8   9
ENDBRANCH   7   8
ENDBRANCH   1   7
TORSDOF 7
ENDMDL
MODEL 4
REMARK VINA RESULT:    -4.006      1.537      2.346
REMARK INTER + INTRA:          -6.372
REMARK INTER:                  -5.613
REMARK INTRA:                  -0.759
REMARK UNBOUND:                -0.727
REMARK SMILES CCCCCCCCC(=O)[O-]
REMARK SMILES IDX 6 1 7 2 8 3 9 4 10 5 11 6 5 7 4 8 3 9 2 10 1 11
REMARK H PARENT
REMARK Flexibility Score: inf
ROOT
ATOM      1  C   UNL     1      62.114  29.778  13.847  1.00  0.00     0.000 C 
ENDROOT
BRANCH   1   2
ATOM      2  C   UNL     1      63.247  29.415  12.873  1.00  0.00     0.006 C 
BRANCH   2   3
ATOM      3  C   UNL     1      63.146  30.168  11.540  1.00  0.00     0.053 C 
BRANCH   3   4
ATOM      4  C   UNL     1      63.261  29.213  10.392  1.00  0.00     0.041 C 
ATOM      5  O   UNL     1      64.345  29.110   9.761  1.00  0.00    -0.550 OA
ATOM      6  O   UNL     1      62.156  28.475   9.989  1.00  0.00    -0.550 OA
ENDBRANCH   3   4
ENDBRANCH   2   3
ENDBRANCH   1   2
BRANCH   1   7
ATOM      7  C   UNL     1      61.000  30.601  13.177  1.00  0.00     0.000 C 
BRANCH   7   8
ATOM      8  C   UNL     1      60.717  31.920  13.914  1.00  0.00    -0.000 C 
BRANCH   8   9
ATOM      9  C   UNL     1      61.510  33.104  13.333  1.00  0.00    -0.000 C 
BRANCH   9  10
ATOM     10  C   UNL     1      62.750  33.450  14.173  1.00  0.00    -0.003 C 
ATOM     11  C   UNL     1      64.061  33.182  13.435  1.00  0.00     0.004 C 
ENDBRANCH   9  10
ENDBRANCH   8   9
ENDBRANCH   7   8
ENDBRANCH   1   7
TORSDOF 7
ENDMDL
MODEL 5
REMARK VINA RESULT:    -3.984      2.411      4.565
REMARK INTER + INTRA:          -6.342
REMARK INTER:                  -5.545
REMARK INTRA:                  -0.798
REMARK UNBOUND:                -0.727
REMARK SMILES CCCCCCCCC(=O)[O-]
REMARK SMILES IDX 6 1 7 2 8 3 9 4 10 5 11 6 5 7 4 8 3 9 2 10 1 11
REMARK H PARENT
REMARK Flexibility Score: inf
ROOT
ATOM      1  C   UNL     1      64.287  30.349  12.689  1.00  0.00     0.000 C 
ENDROOT
BRANCH   1   2
ATOM      2  C   UNL     1      63.334  29.220  13.113  1.00  0.00     0.006 C 
BRANCH   2   3
ATOM      3  C   UNL     1      62.069  29.740  13.807  1.00  0.00     0.053 C 
BRANCH   3   4
ATOM      4  C   UNL     1      60.917  29.755  12.851  1.00  0.00     0.041 C 
ATOM      5  O   UNL     1      60.707  30.764  12.130  1.00  0.00    -0.550 OA
ATOM      6  O   UNL     1      60.048  28.672  12.794  1.00  0.00    -0.550 OA
ENDBRANCH   3   4
ENDBRANCH   2   3
ENDBRANCH   1   2
BRANCH   1   7
ATOM      7  C   UNL     1      64.201  30.660  11.184  1.00  0.00     0.000 C 
BRANCH   7   8
ATOM      8  C   UNL     1      63.930  29.405  10.338  1.00  0.00    -0.000 C 
BRANCH   8   9
ATOM      9  C   UNL     1      62.738  29.584   9.381  1.00  0.00    -0.000 C 
BRANCH   9  10
ATOM     10  C   UNL     1      61.761  28.398   9.431  1.00  0.00    -0.003 C 
ATOM     11  C   UNL     1      60.320  28.803   9.120  1.00  0.00     0.004 C 
ENDBRANCH   9  10
ENDBRANCH   8   9
ENDBRANCH   7   8
ENDBRANCH   1   7
TORSDOF 7
ENDMDL
MODEL 6
REMARK VINA RESULT:    -3.981      1.876      2.413
REMARK INTER + INTRA:          -6.338
REMARK INTER:                  -5.570
REMARK INTRA:                  -0.767
REMARK UNBOUND:                -0.727
REMARK SMILES CCCCCCCCC(=O)[O-]
REMARK SMILES IDX 6 1 7 2 8 3 9 4 10 5 11 6 5 7 4 8 3 9 2 10 1 11
REMARK H PARENT
REMARK Flexibility Score: inf
ROOT
ATOM      1  C   UNL     1      63.944  29.847  12.479  1.00  0.00     0.000 C 
ENDROOT
BRANCH   1   2
ATOM      2  C   UNL     1      63.762  29.352  11.035  1.00  0.00     0.006 C 
BRANCH   2   3
ATOM      3  C   UNL     1      62.643  30.093  10.291  1.00  0.00     0.053 C 
BRANCH   3   4
ATOM      4  C   UNL     1      61.549  29.143   9.915  1.00  0.00     0.041 C 
ATOM      5  O   UNL     1      60.439  29.191  10.506  1.00  0.00    -0.550 OA
ATOM      6  O   UNL     1      61.773  28.173   8.946  1.00  0.00    -0.550 OA
ENDBRANCH   3   4
ENDBRANCH   2   3
ENDBRANCH   1   2
BRANCH   1   7
ATOM      7  C   UNL     1      62.877  29.284  13.435  1.00  0.00     0.000 C 
BRANCH   7   8
ATOM      8  C   UNL     1      62.168  30.385  14.241  1.00  0.00    -0.000 C 
BRANCH   8   9
ATOM      9  C   UNL     1      60.984  31.005  13.478  1.00  0.00    -0.000 C 
BRANCH   9  10
ATOM     10  C   UNL     1      61.298  32.414  12.950  1.00  0.00    -0.003 C 
ATOM     11  C   UNL     1      62.460  33.080  13.687  1.00  0.00     0.004 C 
ENDBRANCH   9  10
ENDBRANCH   8   9
ENDBRANCH   7   8
ENDBRANCH   1   7
TORSDOF 7
ENDMDL
MODEL 7
REMARK VINA RESULT:    -3.962      2.039      3.174
REMARK INTER + INTRA:          -6.311
REMARK INTER:                  -5.559
REMARK INTRA:                  -0.752
REMARK UNBOUND:                -0.727
REMARK SMILES CCCCCCCCC(=O)[O-]
REMARK SMILES IDX 6 1 7 2 8 3 9 4 10 5 11 6 5 7 4 8 3 9 2 10 1 11
REMARK H PARENT
REMARK Flexibility Score: inf
ROOT
ATOM      1  C   UNL     1      64.544  30.302  11.600  1.00  0.00     0.000 C 
ENDROOT
BRANCH   1   2
ATOM      2  C   UNL     1      63.608  29.377  10.805  1.00  0.00     0.006 C 
BRANCH   2   3
ATOM      3  C   UNL     1      62.736  30.139   9.799  1.00  0.00     0.053 C 
BRANCH   3   4
ATOM      4  C   UNL     1      61.463  29.394   9.542  1.00  0.00     0.041 C 
ATOM      5  O   UNL     1      61.499  28.207   9.125  1.00  0.00    -0.550 OA
ATOM      6  O   UNL     1      60.240  30.028   9.716  1.00  0.00    -0.550 OA
ENDBRANCH   3   4
ENDBRANCH   2   3
ENDBRANCH   1   2
BRANCH   1   7
ATOM      7  C   UNL     1      64.395  30.127  13.122  1.00  0.00     0.000 C 
BRANCH   7   8
ATOM      8  C   UNL     1      63.157  29.296  13.500  1.00  0.00    -0.000 C 
BRANCH   8   9
ATOM      9  C   UNL     1      61.982  30.170  13.973  1.00  0.00    -0.000 C 
BRANCH   9  10
ATOM     10  C   UNL     1      60.673  29.843  13.237  1.00  0.00    -0.003 C 
ATOM     11  C   UNL     1      60.470  28.344  13.022  1.00  0.00     0.004 C 
ENDBRANCH   9  10
ENDBRANCH   8   9
ENDBRANCH   7   8
ENDBRANCH   1   7
TORSDOF 7
ENDMDL
MODEL 8
REMARK VINA RESULT:    -3.862     13.653     15.075
REMARK INTER + INTRA:          -6.170
REMARK INTER:                  -5.532
REMARK INTRA:                  -0.638
REMARK UNBOUND:                -0.727
REMARK SMILES CCCCCCCCC(=O)[O-]
REMARK SMILES IDX 6 1 7 2 8 3 9 4 10 5 11 6 5 7 4 8 3 9 2 10 1 11
REMARK H PARENT
REMARK Flexibility Score: inf
ROOT
ATOM      1  C   UNL     1      62.448  29.314  25.265  1.00  0.00     0.000 C 
ENDROOT
BRANCH   1   2
ATOM      2  C   UNL     1      61.240  28.475  25.712  1.00  0.00     0.006 C 
BRANCH   2   3
ATOM      3  C   UNL     1      61.586  27.490  26.837  1.00  0.00     0.053 C 
BRANCH   3   4
ATOM      4  C   UNL     1      62.096  28.227  28.036  1.00  0.00     0.041 C 
ATOM      5  O   UNL     1      61.423  29.166  28.536  1.00  0.00    -0.550 OA
ATOM      6  O   UNL     1      63.338  27.909  28.571  1.00  0.00    -0.550 OA
ENDBRANCH   3   4
ENDBRANCH   2   3
ENDBRANCH   1   2
BRANCH   1   7
ATOM      7  C   UNL     1      63.270  28.624  24.161  1.00  0.00     0.000 C 
BRANCH   7   8
ATOM      8  C   UNL     1      64.784  28.827  24.340  1.00  0.00    -0.000 C 
BRANCH   8   9
ATOM      9  C   UNL     1      65.282  28.365  25.720  1.00  0.00    -0.000 C 
BRANCH   9  10
ATOM     10  C   UNL     1      65.532  26.849  25.779  1.00  0.00    -0.003 C 
ATOM     11  C   UNL     1      66.232  26.314  24.530  1.00  0.00     0.004 C 
ENDBRANCH   9  10
ENDBRANCH   8   9
ENDBRANCH   7   8
ENDBRANCH   1   7
TORSDOF 7
ENDMDL
MODEL 9
REMARK VINA RESULT:    -3.845      2.259      4.390
REMARK INTER + INTRA:          -6.146
REMARK INTER:                  -5.532
REMARK INTRA:                  -0.615
REMARK UNBOUND:                -0.727
REMARK SMILES CCCCCCCCC(=O)[O-]
REMARK SMILES IDX 6 1 7 2 8 3 9 4 10 5 11 6 5 7 4 8 3 9 2 10 1 11
REMARK H PARENT
REMARK Flexibility Score: inf
ROOT
ATOM      1  C   UNL     1      60.989  28.668  13.379  1.00  0.00     0.000 C 
ENDROOT
BRANCH   1   2
ATOM      2  C   UNL     1      62.310  29.419  13.614  1.00  0.00     0.006 C 
BRANCH   2   3
ATOM      3  C   UNL     1      62.203  30.476  14.721  1.00  0.00     0.053 C 
BRANCH   3   4
ATOM      4  C   UNL     1      61.676  31.762  14.165  1.00  0.00     0.041 C 
ATOM      5  O   UNL     1      60.509  32.142  14.445  1.00  0.00    -0.550 OA
ATOM      6  O   UNL     1      62.456  32.515  13.297  1.00  0.00    -0.550 OA
ENDBRANCH   3   4
ENDBRANCH   2   3
ENDBRANCH   1   2
BRANCH   1   7
ATOM      7  C   UNL     1      60.333  29.034  12.036  1.00  0.00     0.000 C 
BRANCH   7   8
ATOM      8  C   UNL     1      61.315  29.707  11.064  1.00  0.00    -0.000 C 
BRANCH   8   9
ATOM      9  C   UNL     1      61.548  28.877   9.790  1.00  0.00    -0.000 C 
BRANCH   9  10
ATOM     10  C   UNL     1      62.960  29.068   9.213  1.00  0.00    -0.003 C 
ATOM     11  C   UNL     1      63.985  29.470  10.272  1.00  0.00     0.004 C 
ENDBRANCH   9  10
ENDBRANCH   8   9
ENDBRANCH   7   8
ENDBRANCH   1   7
TORSDOF 7
ENDMDL
