MODEL 1
REMARK VINA RESULT:    -4.156      0.000      0.000
REMARK INTER + INTRA:          -4.277
REMARK INTER:                  -4.277
REMARK INTRA:                   0.000
REMARK UNBOUND:                 0.000
REMARK SMILES C=C1[C@H](O)C[C@]23C[C@H]1C(C)(C)[C@@H]2CC[C@H]3C
REMARK SMILES IDX 16 1 15 2 14 3 13 4 12 5 6 6 7 7 8 8 9 9 10 10 11 11 2 12
REMARK SMILES IDX 1 13 3 14 5 15 4 16
REMARK H PARENT 4 17
REMARK Flexibility Score: inf
ROOT
ATOM      1  C   UNL     1     136.105 124.109 143.798  1.00  0.00     0.008 C 
ATOM      2  C   UNL     1     135.519 124.772 142.539  1.00  0.00    -0.008 C 
ATOM      3  C   UNL     1     133.988 124.495 142.379  1.00  0.00     0.004 C 
ATOM      4  C   UNL     1     133.805 123.534 141.177  1.00  0.00     0.005 C 
ATOM      5  C   UNL     1     135.221 123.053 140.941  1.00  0.00     0.002 C 
ATOM      6  C   UNL     1     136.114 124.258 141.206  1.00  0.00    -0.020 C 
ATOM      7  C   UNL     1     137.474 123.578 141.083  1.00  0.00     0.016 C 
ATOM      8  C   UNL     1     137.288 122.871 139.711  1.00  0.00     0.023 C 
ATOM      9  C   UNL     1     135.799 122.338 139.702  1.00  0.00    -0.025 C 
ATOM     10  C   UNL     1     134.977 122.634 138.421  1.00  0.00     0.012 C 
ATOM     11  C   UNL     1     135.805 120.804 139.904  1.00  0.00     0.012 C 
ATOM     12  C   UNL     1     137.508 123.925 138.650  1.00  0.00    -0.045 C 
ATOM     13  C   UNL     1     138.109 123.614 137.490  1.00  0.00     0.011 C 
ATOM     14  C   UNL     1     136.989 125.329 138.898  1.00  0.00     0.140 C 
ATOM     15  C   UNL     1     136.019 125.414 140.119  1.00  0.00     0.044 C 
ENDROOT
BRANCH  14  16
ATOM     16  O   UNL     1     138.080 126.188 139.112  1.00  0.00    -0.389 OA
ATOM     17  H   UNL     1     138.536 125.884 139.939  1.00  0.00     0.211 HD
ENDBRANCH  14  16
TORSDOF 1
ENDMDL
MODEL 2
REMARK VINA RESULT:    -4.011      1.609      4.322
REMARK INTER + INTRA:          -4.128
REMARK INTER:                  -4.128
REMARK INTRA:                   0.000
REMARK UNBOUND:                 0.000
REMARK SMILES C=C1[C@H](O)C[C@]23C[C@H]1C(C)(C)[C@@H]2CC[C@H]3C
REMARK SMILES IDX 16 1 15 2 14 3 13 4 12 5 6 6 7 7 8 8 9 9 10 10 11 11 2 12
REMARK SMILES IDX 1 13 3 14 5 15 4 16
REMARK H PARENT 4 17
REMARK Flexibility Score: inf
ROOT
ATOM      1  C   UNL     1     136.238 124.873 138.369  1.00  0.00     0.008 C 
ATOM      2  C   UNL     1     136.473 123.741 139.383  1.00  0.00    -0.008 C 
ATOM      3  C   UNL     1     135.551 122.506 139.121  1.00  0.00     0.004 C 
ATOM      4  C   UNL     1     134.506 122.446 140.264  1.00  0.00     0.005 C 
ATOM      5  C   UNL     1     134.664 123.807 140.906  1.00  0.00     0.002 C 
ATOM      6  C   UNL     1     136.154 124.117 140.851  1.00  0.00    -0.020 C 
ATOM      7  C   UNL     1     136.119 125.548 141.378  1.00  0.00     0.016 C 
ATOM      8  C   UNL     1     135.286 125.329 142.672  1.00  0.00     0.023 C 
ATOM      9  C   UNL     1     134.165 124.281 142.287  1.00  0.00    -0.025 C 
ATOM     10  C   UNL     1     133.966 123.101 143.274  1.00  0.00     0.012 C 
ATOM     11  C   UNL     1     132.807 125.012 142.160  1.00  0.00     0.012 C 
ATOM     12  C   UNL     1     136.237 124.770 143.707  1.00  0.00    -0.045 C 
ATOM     13  C   UNL     1     136.118 125.109 145.000  1.00  0.00     0.011 C 
ATOM     14  C   UNL     1     137.295 123.777 143.264  1.00  0.00     0.140 C 
ATOM     15  C   UNL     1     137.059 123.237 141.818  1.00  0.00     0.044 C 
ENDROOT
BRANCH  14  16
ATOM     16  O   UNL     1     138.556 124.395 143.327  1.00  0.00    -0.389 OA
ATOM     17  H   UNL     1     138.442 125.246 143.824  1.00  0.00     0.211 HD
ENDBRANCH  14  16
TORSDOF 1
ENDMDL
MODEL 3
REMARK VINA RESULT:    -3.404      1.640      2.573
REMARK INTER + INTRA:          -3.504
REMARK INTER:                  -3.504
REMARK INTRA:                   0.000
REMARK UNBOUND:                 0.000
REMARK SMILES C=C1[C@H](O)C[C@]23C[C@H]1C(C)(C)[C@@H]2CC[C@H]3C
REMARK SMILES IDX 16 1 15 2 14 3 13 4 12 5 6 6 7 7 8 8 9 9 10 10 11 11 2 12
REMARK SMILES IDX 1 13 3 14 5 15 4 16
REMARK H PARENT 4 17
REMARK Flexibility Score: inf
ROOT
ATOM      1  C   UNL     1     133.185 122.276 142.243  1.00  0.00     0.008 C 
ATOM      2  C   UNL     1     134.242 123.374 142.456  1.00  0.00    -0.008 C 
ATOM      3  C   UNL     1     133.622 124.809 142.431  1.00  0.00     0.004 C 
ATOM      4  C   UNL     1     134.092 125.503 141.128  1.00  0.00     0.005 C 
ATOM      5  C   UNL     1     134.652 124.341 140.336  1.00  0.00     0.002 C 
ATOM      6  C   UNL     1     135.331 123.438 141.356  1.00  0.00    -0.020 C 
ATOM      7  C   UNL     1     135.691 122.272 140.441  1.00  0.00     0.016 C 
ATOM      8  C   UNL     1     136.406 123.049 139.300  1.00  0.00     0.023 C 
ATOM      9  C   UNL     1     135.570 124.377 139.096  1.00  0.00    -0.025 C 
ATOM     10  C   UNL     1     136.389 125.691 139.013  1.00  0.00     0.012 C 
ATOM     11  C   UNL     1     134.742 124.263 137.794  1.00  0.00     0.012 C 
ATOM     12  C   UNL     1     137.806 123.343 139.790  1.00  0.00    -0.045 C 
ATOM     13  C   UNL     1     138.846 123.326 138.942  1.00  0.00     0.011 C 
ATOM     14  C   UNL     1     138.006 123.709 141.249  1.00  0.00     0.140 C 
ATOM     15  C   UNL     1     136.667 124.026 141.988  1.00  0.00     0.044 C 
ENDROOT
BRANCH  14  16
ATOM     16  O   UNL     1     138.656 122.649 141.902  1.00  0.00    -0.389 OA
ATOM     17  H   UNL     1     138.846 122.947 142.829  1.00  0.00     0.211 HD
ENDBRANCH  14  16
TORSDOF 1
ENDMDL
MODEL 4
REMARK VINA RESULT:    -2.237      1.794      4.179
REMARK INTER + INTRA:          -2.302
REMARK INTER:                  -2.302
REMARK INTRA:                   0.000
REMARK UNBOUND:                 0.000
REMARK SMILES C=C1[C@H](O)C[C@]23C[C@H]1C(C)(C)[C@@H]2CC[C@H]3C
REMARK SMILES IDX 16 1 15 2 14 3 13 4 12 5 6 6 7 7 8 8 9 9 10 10 11 11 2 12
REMARK SMILES IDX 1 13 3 14 5 15 4 16
REMARK H PARENT 4 17
REMARK Flexibility Score: inf
ROOT
ATOM      1  C   UNL     1     134.880 122.254 138.149  1.00  0.00     0.008 C 
ATOM      2  C   UNL     1     135.230 123.675 138.625  1.00  0.00    -0.008 C 
ATOM      3  C   UNL     1     136.312 124.354 137.723  1.00  0.00     0.004 C 
ATOM      4  C   UNL     1     137.622 124.446 138.546  1.00  0.00     0.005 C 
ATOM      5  C   UNL     1     137.326 123.528 139.713  1.00  0.00     0.002 C 
ATOM      6  C   UNL     1     135.854 123.742 140.041  1.00  0.00    -0.020 C 
ATOM      7  C   UNL     1     135.686 122.659 141.101  1.00  0.00     0.016 C 
ATOM      8  C   UNL     1     136.882 123.014 142.028  1.00  0.00     0.023 C 
ATOM      9  C   UNL     1     138.068 123.419 141.062  1.00  0.00    -0.025 C 
ATOM     10  C   UNL     1     138.823 124.725 141.421  1.00  0.00     0.012 C 
ATOM     11  C   UNL     1     139.109 122.276 141.026  1.00  0.00     0.012 C 
ATOM     12  C   UNL     1     136.435 124.181 142.879  1.00  0.00    -0.045 C 
ATOM     13  C   UNL     1     136.833 124.289 144.157  1.00  0.00     0.011 C 
ATOM     14  C   UNL     1     135.572 125.256 142.247  1.00  0.00     0.140 C 
ATOM     15  C   UNL     1     135.509 125.152 140.690  1.00  0.00     0.044 C 
ENDROOT
BRANCH  14  16
ATOM     16  O   UNL     1     134.270 125.164 142.769  1.00  0.00    -0.389 OA
ATOM     17  H   UNL     1     134.355 125.076 143.754  1.00  0.00     0.211 HD
ENDBRANCH  14  16
TORSDOF 1
ENDMDL
MODEL 5
REMARK VINA RESULT:    -2.073      1.797      3.198
REMARK INTER + INTRA:          -2.134
REMARK INTER:                  -2.134
REMARK INTRA:                   0.000
REMARK UNBOUND:                 0.000
REMARK SMILES C=C1[C@H](O)C[C@]23C[C@H]1C(C)(C)[C@@H]2CC[C@H]3C
REMARK SMILES IDX 16 1 15 2 14 3 13 4 12 5 6 6 7 7 8 8 9 9 10 10 11 11 2 12
REMARK SMILES IDX 1 13 3 14 5 15 4 16
REMARK H PARENT 4 17
REMARK Flexibility Score: inf
ROOT
ATOM      1  C   UNL     1     133.452 125.594 141.965  1.00  0.00     0.008 C 
ATOM      2  C   UNL     1     134.200 124.256 141.836  1.00  0.00    -0.008 C 
ATOM      3  C   UNL     1     135.176 124.002 143.031  1.00  0.00     0.004 C 
ATOM      4  C   UNL     1     136.624 124.130 142.494  1.00  0.00     0.005 C 
ATOM      5  C   UNL     1     136.402 124.774 141.142  1.00  0.00     0.002 C 
ATOM      6  C   UNL     1     135.123 124.153 140.596  1.00  0.00    -0.020 C 
ATOM      7  C   UNL     1     134.963 125.002 139.340  1.00  0.00     0.016 C 
ATOM      8  C   UNL     1     136.383 124.836 138.730  1.00  0.00     0.023 C 
ATOM      9  C   UNL     1     137.383 124.879 139.955  1.00  0.00    -0.025 C 
ATOM     10  C   UNL     1     138.465 123.769 139.992  1.00  0.00     0.012 C 
ATOM     11  C   UNL     1     138.116 126.242 139.967  1.00  0.00     0.012 C 
ATOM     12  C   UNL     1     136.402 123.488 138.045  1.00  0.00    -0.045 C 
ATOM     13  C   UNL     1     137.087 123.308 136.905  1.00  0.00     0.011 C 
ATOM     14  C   UNL     1     135.675 122.327 138.699  1.00  0.00     0.140 C 
ATOM     15  C   UNL     1     135.246 122.626 140.171  1.00  0.00     0.044 C 
ENDROOT
BRANCH  14  16
ATOM     16  O   UNL     1     134.534 122.016 137.939  1.00  0.00    -0.389 OA
ATOM     17  H   UNL     1     133.809 122.625 138.235  1.00  0.00     0.211 HD
ENDBRANCH  14  16
TORSDOF 1
ENDMDL
MODEL 6
REMARK VINA RESULT:    -1.553      1.511      3.087
REMARK INTER + INTRA:          -1.599
REMARK INTER:                  -1.599
REMARK INTRA:                   0.000
REMARK UNBOUND:                 0.000
REMARK SMILES C=C1[C@H](O)C[C@]23C[C@H]1C(C)(C)[C@@H]2CC[C@H]3C
REMARK SMILES IDX 16 1 15 2 14 3 13 4 12 5 6 6 7 7 8 8 9 9 10 10 11 11 2 12
REMARK SMILES IDX 1 13 3 14 5 15 4 16
REMARK H PARENT 4 17
REMARK Flexibility Score: inf
ROOT
ATOM      1  C   UNL     1     138.750 121.510 141.518  1.00  0.00     0.008 C 
ATOM      2  C   UNL     1     138.565 123.006 141.213  1.00  0.00    -0.008 C 
ATOM      3  C   UNL     1     138.573 123.882 142.509  1.00  0.00     0.004 C 
ATOM      4  C   UNL     1     137.132 124.406 142.733  1.00  0.00     0.005 C 
ATOM      5  C   UNL     1     136.332 123.544 141.779  1.00  0.00     0.002 C 
ATOM      6  C   UNL     1     137.212 123.365 140.550  1.00  0.00    -0.020 C 
ATOM      7  C   UNL     1     136.348 122.371 139.781  1.00  0.00     0.016 C 
ATOM      8  C   UNL     1     134.988 123.123 139.821  1.00  0.00     0.023 C 
ATOM      9  C   UNL     1     134.893 123.761 141.266  1.00  0.00    -0.025 C 
ATOM     10  C   UNL     1     134.469 125.251 141.327  1.00  0.00     0.012 C 
ATOM     11  C   UNL     1     133.879 122.955 142.112  1.00  0.00     0.012 C 
ATOM     12  C   UNL     1     135.053 124.187 138.747  1.00  0.00    -0.045 C 
ATOM     13  C   UNL     1     133.961 124.509 138.036  1.00  0.00     0.011 C 
ATOM     14  C   UNL     1     136.362 124.920 138.526  1.00  0.00     0.140 C 
ATOM     15  C   UNL     1     137.402 124.672 139.665  1.00  0.00     0.044 C 
ENDROOT
BRANCH  14  16
ATOM     16  O   UNL     1     136.913 124.513 137.299  1.00  0.00    -0.389 OA
ATOM     17  H   UNL     1     136.771 123.533 137.225  1.00  0.00     0.211 HD
ENDBRANCH  14  16
TORSDOF 1
ENDMDL
MODEL 7
REMARK VINA RESULT:    -1.507      1.608      2.050
REMARK INTER + INTRA:          -1.551
REMARK INTER:                  -1.551
REMARK INTRA:                   0.000
REMARK UNBOUND:                 0.000
REMARK SMILES C=C1[C@H](O)C[C@]23C[C@H]1C(C)(C)[C@@H]2CC[C@H]3C
REMARK SMILES IDX 16 1 15 2 14 3 13 4 12 5 6 6 7 7 8 8 9 9 10 10 11 11 2 12
REMARK SMILES IDX 1 13 3 14 5 15 4 16
REMARK H PARENT 4 17
REMARK Flexibility Score: inf
ROOT
ATOM      1  C   UNL     1     134.736 126.003 143.187  1.00  0.00     0.008 C 
ATOM      2  C   UNL     1     133.991 125.139 142.154  1.00  0.00    -0.008 C 
ATOM      3  C   UNL     1     133.493 123.786 142.759  1.00  0.00     0.004 C 
ATOM      4  C   UNL     1     134.347 122.650 142.142  1.00  0.00     0.005 C 
ATOM      5  C   UNL     1     135.483 123.422 141.503  1.00  0.00     0.002 C 
ATOM      6  C   UNL     1     134.854 124.692 140.948  1.00  0.00    -0.020 C 
ATOM      7  C   UNL     1     136.123 125.407 140.494  1.00  0.00     0.016 C 
ATOM      8  C   UNL     1     136.772 124.274 139.651  1.00  0.00     0.023 C 
ATOM      9  C   UNL     1     136.502 122.936 140.451  1.00  0.00    -0.025 C 
ATOM     10  C   UNL     1     135.961 121.743 139.621  1.00  0.00     0.012 C 
ATOM     11  C   UNL     1     137.813 122.473 141.128  1.00  0.00     0.012 C 
ATOM     12  C   UNL     1     136.067 124.274 138.314  1.00  0.00    -0.045 C 
ATOM     13  C   UNL     1     136.740 124.001 137.185  1.00  0.00     0.011 C 
ATOM     14  C   UNL     1     134.574 124.537 138.277  1.00  0.00     0.140 C 
ATOM     15  C   UNL     1     133.908 124.478 139.688  1.00  0.00     0.044 C 
ENDROOT
BRANCH  14  16
ATOM     16  O   UNL     1     134.346 125.803 137.710  1.00  0.00    -0.389 OA
ATOM     17  H   UNL     1     134.799 125.815 136.827  1.00  0.00     0.211 HD
ENDBRANCH  14  16
TORSDOF 1
ENDMDL
