MODEL 1
REMARK VINA RESULT:    -2.199      0.000      0.000
REMARK INTER + INTRA:          -3.313
REMARK INTER:                  -2.970
REMARK INTRA:                  -0.342
REMARK UNBOUND:                -0.342
REMARK SMILES C=C1C(=O)O[C@H]2[C@H]1CCC(C)=CCC[C@@]1(C)O[C@@H]21
REMARK SMILES IDX 6 1 7 2 2 3 1 4 3 5 4 6 5 7 8 8 9 9 10 10 11 11 12 12 18 14
REMARK SMILES IDX 15 15 17 16 16 17 14 18 13 19
REMARK H PARENT
REMARK Flexibility Score: 70.00
ROOT
ATOM      1  C   UNL     1     128.053 143.134 128.260  1.00  0.00     0.216 C 
ATOM      2  C   UNL     1     129.151 143.544 127.202  1.00  0.00     0.070 C 
ATOM      3  C   UNL     1     128.332 143.972 126.017  1.00  0.00     0.037 C 
ATOM      4  C   UNL     1     128.799 144.562 124.917  1.00  0.00     0.021 C 
ATOM      5  C   UNL     1     126.950 143.689 126.297  1.00  0.00     0.334 C 
ATOM      6  O   UNL     1     125.988 143.875 125.506  1.00  0.00    -0.247 OA
ATOM      7  O   UNL     1     126.806 143.183 127.567  1.00  0.00    -0.455 OA
ENDROOT
BRANCH   2   8
ATOM      8  C   UNL     1     130.080 142.351 126.822  1.00  0.00     0.017 C 
BRANCH   8   9
ATOM      9  C   UNL     1     131.458 142.273 127.534  1.00  0.00     0.031 C 
BRANCH   9  10
ATOM     10  C   UNL     1     131.688 141.129 128.513  1.00  0.00    -0.077 C 
ATOM     11  C   UNL     1     132.166 139.801 127.980  1.00  0.00     0.039 C 
ATOM     12  C   UNL     1     131.398 141.209 129.831  1.00  0.00    -0.028 CG0
ATOM     13  G   UNL     1     131.024 142.474 130.554  1.00  0.00     0.000 G0
ENDBRANCH   9  10
ENDBRANCH   8   9
ENDBRANCH   2   8
BRANCH   1  14
ATOM     14  C   UNL     1     127.959 144.094 129.459  1.00  0.00     0.192 C 
ATOM     15  C   UNL     1     128.667 143.784 130.744  1.00  0.00     0.096 C 
ATOM     16  O   UNL     1     129.202 144.676 129.798  1.00  0.00    -0.362 OA
ATOM     17  C   UNL     1     128.149 144.517 131.984  1.00  0.00     0.045 C 
BRANCH  15  18
ATOM     18  C   UNL     1     129.518 142.498 130.988  1.00  0.00     0.042 C 
BRANCH  18  19
ATOM     19  C   UNL     1     131.014 142.454 130.587  1.00  0.00     0.030 CG0
ATOM     20  G   UNL     1     131.392 141.213 129.825  1.00  0.00     0.000 G0
ENDBRANCH  18  19
ENDBRANCH  15  18
ENDBRANCH   1  14
TORSDOF 0
ENDMDL
MODEL 2
REMARK VINA RESULT:    -2.193     16.197     17.241
REMARK INTER + INTRA:          -3.304
REMARK INTER:                  -2.993
REMARK INTRA:                  -0.311
REMARK UNBOUND:                -0.342
REMARK SMILES C=C1C(=O)O[C@H]2[C@H]1CCC(C)=CCC[C@@]1(C)O[C@@H]21
REMARK SMILES IDX 6 1 7 2 2 3 1 4 3 5 4 6 5 7 8 8 9 9 10 10 11 11 12 12 18 14
REMARK SMILES IDX 15 15 17 16 16 17 14 18 13 19
REMARK H PARENT
REMARK Flexibility Score: 70.00
ROOT
ATOM      1  C   UNL     1     129.924 126.944 129.269  1.00  0.00     0.216 C 
ATOM      2  C   UNL     1     129.088 125.739 128.683  1.00  0.00     0.070 C 
ATOM      3  C   UNL     1     129.372 125.820 127.209  1.00  0.00     0.037 C 
ATOM      4  C   UNL     1     129.022 124.914 126.296  1.00  0.00     0.021 C 
ATOM      5  C   UNL     1     130.137 127.011 126.961  1.00  0.00     0.334 C 
ATOM      6  O   UNL     1     130.512 127.421 125.831  1.00  0.00    -0.247 OA
ATOM      7  O   UNL     1     130.420 127.660 128.139  1.00  0.00    -0.455 OA
ENDROOT
BRANCH   2   8
ATOM      8  C   UNL     1     127.560 125.895 128.953  1.00  0.00     0.017 C 
BRANCH   8   9
ATOM      9  C   UNL     1     126.963 125.073 130.128  1.00  0.00     0.031 C 
BRANCH   9  10
ATOM     10  C   UNL     1     126.451 125.838 131.342  1.00  0.00    -0.077 C 
ATOM     11  C   UNL     1     125.028 126.338 131.338  1.00  0.00     0.039 C 
ATOM     12  C   UNL     1     127.233 126.178 132.391  1.00  0.00    -0.028 CG0
ATOM     13  G   UNL     1     128.633 125.674 132.618  1.00  0.00     0.000 G0
ENDBRANCH   9  10
ENDBRANCH   8   9
ENDBRANCH   2   8
BRANCH   1  14
ATOM     14  C   UNL     1     131.133 126.504 130.112  1.00  0.00     0.192 C 
ATOM     15  C   UNL     1     131.029 126.402 131.605  1.00  0.00     0.096 C 
ATOM     16  O   UNL     1     130.926 125.272 130.774  1.00  0.00    -0.362 OA
ATOM     17  C   UNL     1     132.355 126.426 132.370  1.00  0.00     0.045 C 
BRANCH  15  18
ATOM     18  C   UNL     1     129.739 126.739 132.418  1.00  0.00     0.042 C 
BRANCH  18  19
ATOM     19  C   UNL     1     128.639 125.669 132.629  1.00  0.00     0.030 CG0
ATOM     20  G   UNL     1     127.247 126.188 132.387  1.00  0.00     0.000 G0
ENDBRANCH  18  19
ENDBRANCH  15  18
ENDBRANCH   1  14
TORSDOF 0
ENDMDL
MODEL 3
REMARK VINA RESULT:    -2.168     15.716     18.661
REMARK INTER + INTRA:          -3.270
REMARK INTER:                  -2.940
REMARK INTRA:                  -0.330
REMARK UNBOUND:                -0.342
REMARK SMILES C=C1C(=O)O[C@H]2[C@H]1CCC(C)=CCC[C@@]1(C)O[C@@H]21
REMARK SMILES IDX 6 1 7 2 2 3 1 4 3 5 4 6 5 7 8 8 9 9 10 10 11 11 12 12 18 14
REMARK SMILES IDX 15 15 17 16 16 17 14 18 13 19
REMARK H PARENT
REMARK Flexibility Score: 70.00
ROOT
ATOM      1  C   UNL     1     138.816 127.124 129.055  1.00  0.00     0.216 C 
ATOM      2  C   UNL     1     140.391 127.087 128.948  1.00  0.00     0.070 C 
ATOM      3  C   UNL     1     140.625 126.213 127.748  1.00  0.00     0.037 C 
ATOM      4  C   UNL     1     141.798 126.007 127.149  1.00  0.00     0.021 C 
ATOM      5  C   UNL     1     139.358 125.684 127.321  1.00  0.00     0.334 C 
ATOM      6  O   UNL     1     139.183 124.875 126.371  1.00  0.00    -0.247 OA
ATOM      7  O   UNL     1     138.338 126.186 128.092  1.00  0.00    -0.455 OA
ENDROOT
BRANCH   2   8
ATOM      8  C   UNL     1     141.054 126.464 130.215  1.00  0.00     0.017 C 
BRANCH   8   9
ATOM      9  C   UNL     1     141.471 127.442 131.347  1.00  0.00     0.031 C 
BRANCH   9  10
ATOM     10  C   UNL     1     140.701 127.379 132.659  1.00  0.00    -0.077 C 
ATOM     11  C   UNL     1     141.068 126.319 133.668  1.00  0.00     0.039 C 
ATOM     12  C   UNL     1     139.637 128.166 132.935  1.00  0.00    -0.028 CG0
ATOM     13  G   UNL     1     139.201 129.343 132.106  1.00  0.00     0.000 G0
ENDBRANCH   9  10
ENDBRANCH   8   9
ENDBRANCH   2   8
BRANCH   1  14
ATOM     14  C   UNL     1     138.206 128.495 128.716  1.00  0.00     0.192 C 
ATOM     15  C   UNL     1     137.768 129.429 129.806  1.00  0.00     0.096 C 
ATOM     16  O   UNL     1     139.004 129.578 129.151  1.00  0.00    -0.362 OA
ATOM     17  C   UNL     1     136.773 130.516 129.393  1.00  0.00     0.045 C 
BRANCH  15  18
ATOM     18  C   UNL     1     137.867 129.104 131.330  1.00  0.00     0.042 C 
BRANCH  18  19
ATOM     19  C   UNL     1     139.185 129.355 132.105  1.00  0.00     0.030 CG0
ATOM     20  G   UNL     1     139.634 128.172 132.918  1.00  0.00     0.000 G0
ENDBRANCH  18  19
ENDBRANCH  15  18
ENDBRANCH   1  14
TORSDOF 0
ENDMDL
MODEL 4
REMARK VINA RESULT:    -2.159     17.831     20.364
REMARK INTER + INTRA:          -3.259
REMARK INTER:                  -2.924
REMARK INTRA:                  -0.335
REMARK UNBOUND:                -0.342
REMARK SMILES C=C1C(=O)O[C@H]2[C@H]1CCC(C)=CCC[C@@]1(C)O[C@@H]21
REMARK SMILES IDX 6 1 7 2 2 3 1 4 3 5 4 6 5 7 8 8 9 9 10 10 11 11 12 12 18 14
REMARK SMILES IDX 15 15 17 16 16 17 14 18 13 19
REMARK H PARENT
REMARK Flexibility Score: 70.00
ROOT
ATOM      1  C   UNL     1     141.860 126.314 128.686  1.00  0.00     0.216 C 
ATOM      2  C   UNL     1     142.538 127.634 129.226  1.00  0.00     0.070 C 
ATOM      3  C   UNL     1     143.795 127.125 129.874  1.00  0.00     0.037 C 
ATOM      4  C   UNL     1     144.793 127.876 130.339  1.00  0.00     0.021 C 
ATOM      5  C   UNL     1     143.763 125.688 129.853  1.00  0.00     0.334 C 
ATOM      6  O   UNL     1     144.633 124.926 130.353  1.00  0.00    -0.247 OA
ATOM      7  O   UNL     1     142.640 125.237 129.201  1.00  0.00    -0.455 OA
ENDROOT
BRANCH   2   8
ATOM      8  C   UNL     1     141.645 128.371 130.271  1.00  0.00     0.017 C 
BRANCH   8   9
ATOM      9  C   UNL     1     140.451 129.198 129.723  1.00  0.00     0.031 C 
BRANCH   9  10
ATOM     10  C   UNL     1     139.048 128.638 129.922  1.00  0.00    -0.077 C 
ATOM     11  C   UNL     1     138.429 128.699 131.296  1.00  0.00     0.039 C 
ATOM     12  C   UNL     1     138.358 128.000 128.950  1.00  0.00    -0.028 CG0
ATOM     13  G   UNL     1     138.764 127.944 127.502  1.00  0.00     0.000 G0
ENDBRANCH   9  10
ENDBRANCH   8   9
ENDBRANCH   2   8
BRANCH   1  14
ATOM     14  C   UNL     1     141.862 126.203 127.151  1.00  0.00     0.192 C 
ATOM     15  C   UNL     1     140.584 126.318 126.374  1.00  0.00     0.096 C 
ATOM     16  O   UNL     1     141.472 127.400 126.510  1.00  0.00    -0.362 OA
ATOM     17  C   UNL     1     140.610 125.738 124.958  1.00  0.00     0.045 C 
BRANCH  15  18
ATOM     18  C   UNL     1     139.181 126.535 127.022  1.00  0.00     0.042 C 
BRANCH  18  19
ATOM     19  C   UNL     1     138.742 127.942 127.498  1.00  0.00     0.030 CG0
ATOM     20  G   UNL     1     138.348 127.987 128.950  1.00  0.00     0.000 G0
ENDBRANCH  18  19
ENDBRANCH  15  18
ENDBRANCH   1  14
TORSDOF 0
ENDMDL
MODEL 5
REMARK VINA RESULT:    -2.090     19.977     21.997
REMARK INTER + INTRA:          -3.165
REMARK INTER:                  -2.832
REMARK INTRA:                  -0.333
REMARK UNBOUND:                -0.342
REMARK SMILES C=C1C(=O)O[C@H]2[C@H]1CCC(C)=CCC[C@@]1(C)O[C@@H]21
REMARK SMILES IDX 6 1 7 2 2 3 1 4 3 5 4 6 5 7 8 8 9 9 10 10 11 11 12 12 18 14
REMARK SMILES IDX 15 15 17 16 16 17 14 18 13 19
REMARK H PARENT
REMARK Flexibility Score: 70.00
ROOT
ATOM      1  C   UNL     1     138.901 127.163 140.035  1.00  0.00     0.216 C 
ATOM      2  C   UNL     1     139.871 125.933 139.835  1.00  0.00     0.070 C 
ATOM      3  C   UNL     1     140.591 125.856 141.151  1.00  0.00     0.037 C 
ATOM      4  C   UNL     1     141.406 124.875 141.539  1.00  0.00     0.021 C 
ATOM      5  C   UNL     1     140.207 126.992 141.944  1.00  0.00     0.334 C 
ATOM      6  O   UNL     1     140.653 127.275 143.087  1.00  0.00    -0.247 OA
ATOM      7  O   UNL     1     139.265 127.747 141.285  1.00  0.00    -0.455 OA
ENDROOT
BRANCH   2   8
ATOM      8  C   UNL     1     140.882 126.162 138.671  1.00  0.00     0.017 C 
BRANCH   8   9
ATOM      9  C   UNL     1     140.426 125.746 137.245  1.00  0.00     0.031 C 
BRANCH   9  10
ATOM     10  C   UNL     1     140.146 126.853 136.237  1.00  0.00    -0.077 C 
ATOM     11  C   UNL     1     141.310 127.517 135.545  1.00  0.00     0.039 C 
ATOM     12  C   UNL     1     138.909 127.342 135.995  1.00  0.00    -0.028 CG0
ATOM     13  G   UNL     1     137.630 126.735 136.503  1.00  0.00     0.000 G0
ENDBRANCH   9  10
ENDBRANCH   8   9
ENDBRANCH   2   8
BRANCH   1  14
ATOM     14  C   UNL     1     137.415 126.772 140.117  1.00  0.00     0.192 C 
ATOM     15  C   UNL     1     136.502 126.985 138.946  1.00  0.00     0.096 C 
ATOM     16  O   UNL     1     137.069 125.729 139.227  1.00  0.00    -0.362 OA
ATOM     17  C   UNL     1     135.006 127.016 139.263  1.00  0.00     0.045 C 
BRANCH  15  18
ATOM     18  C   UNL     1     136.949 127.618 137.590  1.00  0.00     0.042 C 
BRANCH  18  19
ATOM     19  C   UNL     1     137.622 126.748 136.499  1.00  0.00     0.030 CG0
ATOM     20  G   UNL     1     138.911 127.329 135.983  1.00  0.00     0.000 G0
ENDBRANCH  18  19
ENDBRANCH  15  18
ENDBRANCH   1  14
TORSDOF 0
ENDMDL
MODEL 6
REMARK VINA RESULT:    -2.076     17.537     20.588
REMARK INTER + INTRA:          -3.146
REMARK INTER:                  -2.794
REMARK INTRA:                  -0.352
REMARK UNBOUND:                -0.342
REMARK SMILES C=C1C(=O)O[C@H]2[C@H]1CCC(C)=CCC[C@@]1(C)O[C@@H]21
REMARK SMILES IDX 6 1 7 2 2 3 1 4 3 5 4 6 5 7 8 8 9 9 10 10 11 11 12 12 18 14
REMARK SMILES IDX 15 15 17 16 16 17 14 18 13 19
REMARK H PARENT
REMARK Flexibility Score: 70.00
ROOT
ATOM      1  C   UNL     1     141.735 126.167 128.697  1.00  0.00     0.216 C 
ATOM      2  C   UNL     1     141.967 127.575 129.374  1.00  0.00     0.070 C 
ATOM      3  C   UNL     1     142.405 127.210 130.764  1.00  0.00     0.037 C 
ATOM      4  C   UNL     1     142.878 128.055 131.680  1.00  0.00     0.021 C 
ATOM      5  C   UNL     1     142.283 125.786 130.918  1.00  0.00     0.334 C 
ATOM      6  O   UNL     1     142.520 125.138 131.971  1.00  0.00    -0.247 OA
ATOM      7  O   UNL     1     141.871 125.205 129.742  1.00  0.00    -0.455 OA
ENDROOT
BRANCH   2   8
ATOM      8  C   UNL     1     140.664 128.430 129.418  1.00  0.00     0.017 C 
BRANCH   8   9
ATOM      9  C   UNL     1     140.310 129.246 128.146  1.00  0.00     0.031 C 
BRANCH   9  10
ATOM     10  C   UNL     1     139.121 128.785 127.313  1.00  0.00    -0.077 C 
ATOM     11  C   UNL     1     137.728 129.090 127.806  1.00  0.00     0.039 C 
ATOM     12  C   UNL     1     139.242 128.032 126.197  1.00  0.00    -0.028 CG0
ATOM     13  G   UNL     1     140.541 127.729 125.501  1.00  0.00     0.000 G0
ENDBRANCH   9  10
ENDBRANCH   8   9
ENDBRANCH   2   8
BRANCH   1  14
ATOM     14  C   UNL     1     142.769 125.826 127.610  1.00  0.00     0.192 C 
ATOM     15  C   UNL     1     142.396 125.868 126.158  1.00  0.00     0.096 C 
ATOM     16  O   UNL     1     143.082 126.927 126.780  1.00  0.00    -0.362 OA
ATOM     17  C   UNL     1     143.305 125.081 125.212  1.00  0.00     0.045 C 
BRANCH  15  18
ATOM     18  C   UNL     1     140.971 126.229 125.630  1.00  0.00     0.042 C 
BRANCH  18  19
ATOM     19  C   UNL     1     140.539 127.709 125.478  1.00  0.00     0.030 CG0
ATOM     20  G   UNL     1     139.257 128.034 126.196  1.00  0.00     0.000 G0
ENDBRANCH  18  19
ENDBRANCH  15  18
ENDBRANCH   1  14
TORSDOF 0
ENDMDL
MODEL 7
REMARK VINA RESULT:    -2.037     14.872     16.427
REMARK INTER + INTRA:          -3.094
REMARK INTER:                  -2.761
REMARK INTRA:                  -0.333
REMARK UNBOUND:                -0.342
REMARK SMILES C=C1C(=O)O[C@H]2[C@H]1CCC(C)=CCC[C@@]1(C)O[C@@H]21
REMARK SMILES IDX 6 1 7 2 2 3 1 4 3 5 4 6 5 7 8 8 9 9 10 10 11 11 12 12 18 14
REMARK SMILES IDX 15 15 17 16 16 17 14 18 13 19
REMARK H PARENT
REMARK Flexibility Score: 70.00
ROOT
ATOM      1  C   UNL     1     130.121 126.259 129.497  1.00  0.00     0.216 C 
ATOM      2  C   UNL     1     130.697 127.685 129.136  1.00  0.00     0.070 C 
ATOM      3  C   UNL     1     130.243 127.880 127.717  1.00  0.00     0.037 C 
ATOM      4  C   UNL     1     130.343 129.008 127.014  1.00  0.00     0.021 C 
ATOM      5  C   UNL     1     129.631 126.660 127.266  1.00  0.00     0.334 C 
ATOM      6  O   UNL     1     129.179 126.449 126.109  1.00  0.00    -0.247 OA
ATOM      7  O   UNL     1     129.594 125.732 128.280  1.00  0.00    -0.455 OA
ENDROOT
BRANCH   2   8
ATOM      8  C   UNL     1     132.253 127.733 129.224  1.00  0.00     0.017 C 
BRANCH   8   9
ATOM      9  C   UNL     1     132.871 128.140 130.589  1.00  0.00     0.031 C 
BRANCH   9  10
ATOM     10  C   UNL     1     133.615 127.072 131.380  1.00  0.00    -0.077 C 
ATOM     11  C   UNL     1     135.043 126.756 131.010  1.00  0.00     0.039 C 
ATOM     12  C   UNL     1     133.034 126.319 132.340  1.00  0.00    -0.028 CG0
ATOM     13  G   UNL     1     131.665 126.565 132.915  1.00  0.00     0.000 G0
ENDBRANCH   9  10
ENDBRANCH   8   9
ENDBRANCH   2   8
BRANCH   1  14
ATOM     14  C   UNL     1     128.977 126.296 130.525  1.00  0.00     0.192 C 
ATOM     15  C   UNL     1     129.227 125.943 131.961  1.00  0.00     0.096 C 
ATOM     16  O   UNL     1     129.164 127.279 131.524  1.00  0.00    -0.362 OA
ATOM     17  C   UNL     1     127.993 125.555 132.777  1.00  0.00     0.045 C 
BRANCH  15  18
ATOM     18  C   UNL     1     130.615 125.503 132.526  1.00  0.00     0.042 C 
BRANCH  18  19
ATOM     19  C   UNL     1     131.670 126.559 132.938  1.00  0.00     0.030 CG0
ATOM     20  G   UNL     1     133.028 126.312 132.340  1.00  0.00     0.000 G0
ENDBRANCH  18  19
ENDBRANCH  15  18
ENDBRANCH   1  14
TORSDOF 0
ENDMDL
MODEL 8
REMARK VINA RESULT:    -1.962     16.778     19.162
REMARK INTER + INTRA:          -2.993
REMARK INTER:                  -2.670
REMARK INTRA:                  -0.323
REMARK UNBOUND:                -0.342
REMARK SMILES C=C1C(=O)O[C@H]2[C@H]1CCC(C)=CCC[C@@]1(C)O[C@@H]21
REMARK SMILES IDX 6 1 7 2 2 3 1 4 3 5 4 6 5 7 8 8 9 9 10 10 11 11 12 12 18 14
REMARK SMILES IDX 15 15 17 16 16 17 14 18 13 19
REMARK H PARENT
REMARK Flexibility Score: 70.00
ROOT
ATOM      1  C   UNL     1     139.003 127.976 128.857  1.00  0.00     0.216 C 
ATOM      2  C   UNL     1     139.601 127.926 130.319  1.00  0.00     0.070 C 
ATOM      3  C   UNL     1     138.462 128.424 131.163  1.00  0.00     0.037 C 
ATOM      4  C   UNL     1     138.416 128.414 132.496  1.00  0.00     0.021 C 
ATOM      5  C   UNL     1     137.407 128.859 130.289  1.00  0.00     0.334 C 
ATOM      6  O   UNL     1     136.319 129.378 130.653  1.00  0.00    -0.247 OA
ATOM      7  O   UNL     1     137.739 128.627 128.976  1.00  0.00    -0.455 OA
ENDROOT
BRANCH   2   8
ATOM      8  C   UNL     1     140.845 128.852 130.479  1.00  0.00     0.017 C 
BRANCH   8   9
ATOM      9  C   UNL     1     142.237 128.220 130.199  1.00  0.00     0.031 C 
BRANCH   9  10
ATOM     10  C   UNL     1     142.991 128.685 128.960  1.00  0.00    -0.077 C 
ATOM     11  C   UNL     1     143.752 129.986 129.019  1.00  0.00     0.039 C 
ATOM     12  C   UNL     1     142.941 128.040 127.774  1.00  0.00    -0.028 CG0
ATOM     13  G   UNL     1     142.331 126.681 127.559  1.00  0.00     0.000 G0
ENDBRANCH   9  10
ENDBRANCH   8   9
ENDBRANCH   2   8
BRANCH   1  14
ATOM     14  C   UNL     1     138.759 126.587 128.242  1.00  0.00     0.192 C 
ATOM     15  C   UNL     1     139.720 126.013 127.243  1.00  0.00     0.096 C 
ATOM     16  O   UNL     1     139.749 125.643 128.599  1.00  0.00    -0.362 OA
ATOM     17  C   UNL     1     139.172 124.890 126.360  1.00  0.00     0.045 C 
BRANCH  15  18
ATOM     18  C   UNL     1     141.000 126.749 126.735  1.00  0.00     0.042 C 
BRANCH  18  19
ATOM     19  C   UNL     1     142.318 126.686 127.546  1.00  0.00     0.030 CG0
ATOM     20  G   UNL     1     142.947 128.035 127.770  1.00  0.00     0.000 G0
ENDBRANCH  18  19
ENDBRANCH  15  18
ENDBRANCH   1  14
TORSDOF 0
ENDMDL
MODEL 9
REMARK VINA RESULT:    -1.920     17.578     20.459
REMARK INTER + INTRA:          -2.936
REMARK INTER:                  -2.714
REMARK INTRA:                  -0.223
REMARK UNBOUND:                -0.342
REMARK SMILES C=C1C(=O)O[C@H]2[C@H]1CCC(C)=CCC[C@@]1(C)O[C@@H]21
REMARK SMILES IDX 6 1 7 2 2 3 1 4 3 5 4 6 5 7 8 8 9 9 10 10 11 11 12 12 18 14
REMARK SMILES IDX 15 15 17 16 16 17 14 18 13 19
REMARK H PARENT
REMARK Flexibility Score: 70.00
ROOT
ATOM      1  C   UNL     1     140.717 127.555 128.895  1.00  0.00     0.216 C 
ATOM      2  C   UNL     1     140.427 127.370 130.437  1.00  0.00     0.070 C 
ATOM      3  C   UNL     1     139.663 128.615 130.786  1.00  0.00     0.037 C 
ATOM      4  C   UNL     1     139.050 128.856 131.946  1.00  0.00     0.021 C 
ATOM      5  C   UNL     1     139.657 129.480 129.638  1.00  0.00     0.334 C 
ATOM      6  O   UNL     1     139.147 130.630 129.587  1.00  0.00    -0.247 OA
ATOM      7  O   UNL     1     140.287 128.877 128.574  1.00  0.00    -0.455 OA
ENDROOT
BRANCH   2   8
ATOM      8  C   UNL     1     141.738 127.279 131.276  1.00  0.00     0.017 C 
BRANCH   8   9
ATOM      9  C   UNL     1     142.674 126.071 130.997  1.00  0.00     0.031 C 
BRANCH   9  10
ATOM     10  C   UNL     1     143.889 126.305 130.109  1.00  0.00    -0.077 C 
ATOM     11  C   UNL     1     145.007 127.178 130.621  1.00  0.00     0.039 C 
ATOM     12  C   UNL     1     143.982 125.846 128.840  1.00  0.00    -0.028 CG0
ATOM     13  G   UNL     1     143.024 124.873 128.206  1.00  0.00     0.000 G0
ENDBRANCH   9  10
ENDBRANCH   8   9
ENDBRANCH   2   8
BRANCH   1  14
ATOM     14  C   UNL     1     139.936 126.579 127.998  1.00  0.00     0.192 C 
ATOM     15  C   UNL     1     140.659 125.593 127.129  1.00  0.00     0.096 C 
ATOM     16  O   UNL     1     140.110 125.227 128.371  1.00  0.00    -0.362 OA
ATOM     17  C   UNL     1     139.855 125.017 125.962  1.00  0.00     0.045 C 
BRANCH  15  18
ATOM     18  C   UNL     1     142.214 125.479 127.040  1.00  0.00     0.042 C 
BRANCH  18  19
ATOM     19  C   UNL     1     143.029 124.876 128.211  1.00  0.00     0.030 CG0
ATOM     20  G   UNL     1     143.974 125.857 128.848  1.00  0.00     0.000 G0
ENDBRANCH  18  19
ENDBRANCH  15  18
ENDBRANCH   1  14
TORSDOF 0
ENDMDL
