MODEL 1
REMARK VINA RESULT:    -4.096      0.000      0.000
REMARK INTER + INTRA:          -6.175
REMARK INTER:                  -5.532
REMARK INTRA:                  -0.643
REMARK UNBOUND:                -0.643
REMARK SMILES CCCCCCCC(=O)[O-]
REMARK SMILES IDX 5 1 6 2 7 3 8 4 9 5 10 6 4 7 3 8 2 9 1 10
REMARK H PARENT
REMARK Flexibility Score: inf
ROOT
ATOM      1  C   UNL     1      13.847  14.989 161.528  1.00  0.00     0.000 C 
ENDROOT
BRANCH   1   2
ATOM      2  C   UNL     1      12.651  14.027 161.412  1.00  0.00     0.006 C 
BRANCH   2   3
ATOM      3  C   UNL     1      12.669  12.922 162.475  1.00  0.00     0.053 C 
BRANCH   3   4
ATOM      4  C   UNL     1      11.399  12.934 163.264  1.00  0.00     0.041 C 
ATOM      5  O   UNL     1      10.291  13.062 162.680  1.00  0.00    -0.550 OA
ATOM      6  O   UNL     1      11.442  12.855 164.650  1.00  0.00    -0.550 OA
ENDBRANCH   3   4
ENDBRANCH   2   3
ENDBRANCH   1   2
BRANCH   1   7
ATOM      7  C   UNL     1      14.242  15.370 162.970  1.00  0.00     0.000 C 
BRANCH   7   8
ATOM      8  C   UNL     1      13.554  16.632 163.522  1.00  0.00    -0.000 C 
BRANCH   8   9
ATOM      9  C   UNL     1      12.365  16.310 164.439  1.00  0.00    -0.003 C 
ATOM     10  C   UNL     1      11.040  16.640 163.757  1.00  0.00     0.004 C 
ENDBRANCH   8   9
ENDBRANCH   7   8
ENDBRANCH   1   7
TORSDOF 6
ENDMDL
MODEL 2
REMARK VINA RESULT:    -4.011      2.394      3.838
REMARK INTER + INTRA:          -6.060
REMARK INTER:                  -5.483
REMARK INTRA:                  -0.577
REMARK UNBOUND:                -0.643
REMARK SMILES CCCCCCCC(=O)[O-]
REMARK SMILES IDX 5 1 6 2 7 3 8 4 9 5 10 6 4 7 3 8 2 9 1 10
REMARK H PARENT
REMARK Flexibility Score: inf
ROOT
ATOM      1  C   UNL     1      13.757  13.867 162.950  1.00  0.00     0.000 C 
ENDROOT
BRANCH   1   2
ATOM      2  C   UNL     1      13.923  14.999 161.921  1.00  0.00     0.006 C 
BRANCH   2   3
ATOM      3  C   UNL     1      12.948  14.882 160.744  1.00  0.00     0.053 C 
BRANCH   3   4
ATOM      4  C   UNL     1      11.891  15.937 160.833  1.00  0.00     0.041 C 
ATOM      5  O   UNL     1      11.587  16.616 159.818  1.00  0.00    -0.550 OA
ATOM      6  O   UNL     1      11.278  16.205 162.050  1.00  0.00    -0.550 OA
ENDBRANCH   3   4
ENDBRANCH   2   3
ENDBRANCH   1   2
BRANCH   1   7
ATOM      7  C   UNL     1      12.752  12.765 162.554  1.00  0.00     0.000 C 
BRANCH   7   8
ATOM      8  C   UNL     1      11.409  12.806 163.304  1.00  0.00    -0.000 C 
BRANCH   8   9
ATOM      9  C   UNL     1      10.199  12.829 162.359  1.00  0.00    -0.003 C 
ATOM     10  C   UNL     1      10.458  11.988 161.113  1.00  0.00     0.004 C 
ENDBRANCH   8   9
ENDBRANCH   7   8
ENDBRANCH   1   7
TORSDOF 6
ENDMDL
MODEL 3
REMARK VINA RESULT:    -4.010      2.334      3.490
REMARK INTER + INTRA:          -6.060
REMARK INTER:                  -5.454
REMARK INTRA:                  -0.606
REMARK UNBOUND:                -0.643
REMARK SMILES CCCCCCCC(=O)[O-]
REMARK SMILES IDX 5 1 6 2 7 3 8 4 9 5 10 6 4 7 3 8 2 9 1 10
REMARK H PARENT
REMARK Flexibility Score: inf
ROOT
ATOM      1  C   UNL     1      11.164  12.802 162.815  1.00  0.00     0.000 C 
ENDROOT
BRANCH   1   2
ATOM      2  C   UNL     1      12.482  12.711 162.025  1.00  0.00     0.006 C 
BRANCH   2   3
ATOM      3  C   UNL     1      13.646  13.425 162.723  1.00  0.00     0.053 C 
BRANCH   3   4
ATOM      4  C   UNL     1      13.903  14.754 162.085  1.00  0.00     0.041 C 
ATOM      5  O   UNL     1      14.371  15.703 162.767  1.00  0.00    -0.550 OA
ATOM      6  O   UNL     1      13.577  14.958 160.751  1.00  0.00    -0.550 OA
ENDBRANCH   3   4
ENDBRANCH   2   3
ENDBRANCH   1   2
BRANCH   1   7
ATOM      7  C   UNL     1       9.997  13.475 162.062  1.00  0.00     0.000 C 
BRANCH   7   8
ATOM      8  C   UNL     1      10.124  14.999 161.890  1.00  0.00    -0.000 C 
BRANCH   8   9
ATOM      9  C   UNL     1      10.457  15.722 163.203  1.00  0.00    -0.003 C 
ATOM     10  C   UNL     1      10.900  17.159 162.942  1.00  0.00     0.004 C 
ENDBRANCH   8   9
ENDBRANCH   7   8
ENDBRANCH   1   7
TORSDOF 6
ENDMDL
MODEL 4
REMARK VINA RESULT:    -3.939      1.866      2.928
REMARK INTER + INTRA:          -5.964
REMARK INTER:                  -5.291
REMARK INTRA:                  -0.673
REMARK UNBOUND:                -0.643
REMARK SMILES CCCCCCCC(=O)[O-]
REMARK SMILES IDX 5 1 6 2 7 3 8 4 9 5 10 6 4 7 3 8 2 9 1 10
REMARK H PARENT
REMARK Flexibility Score: inf
ROOT
ATOM      1  C   UNL     1      11.588  13.268 164.393  1.00  0.00     0.000 C 
ENDROOT
BRANCH   1   2
ATOM      2  C   UNL     1      11.353  13.040 162.889  1.00  0.00     0.006 C 
BRANCH   2   3
ATOM      3  C   UNL     1      12.619  13.243 162.050  1.00  0.00     0.053 C 
BRANCH   3   4
ATOM      4  C   UNL     1      12.415  14.336 161.049  1.00  0.00     0.041 C 
ATOM      5  O   UNL     1      11.253  14.741 160.781  1.00  0.00    -0.550 OA
ATOM      6  O   UNL     1      13.504  14.873 160.374  1.00  0.00    -0.550 OA
ENDBRANCH   3   4
ENDBRANCH   2   3
ENDBRANCH   1   2
BRANCH   1   7
ATOM      7  C   UNL     1      12.062  14.685 164.773  1.00  0.00     0.000 C 
BRANCH   7   8
ATOM      8  C   UNL     1      11.117  15.824 164.353  1.00  0.00    -0.000 C 
BRANCH   8   9
ATOM      9  C   UNL     1      11.852  16.993 163.681  1.00  0.00    -0.003 C 
ATOM     10  C   UNL     1      13.362  16.778 163.704  1.00  0.00     0.004 C 
ENDBRANCH   8   9
ENDBRANCH   7   8
ENDBRANCH   1   7
TORSDOF 6
ENDMDL
MODEL 5
REMARK VINA RESULT:    -3.879      1.699      2.868
REMARK INTER + INTRA:          -5.882
REMARK INTER:                  -5.338
REMARK INTRA:                  -0.544
REMARK UNBOUND:                -0.643
REMARK SMILES CCCCCCCC(=O)[O-]
REMARK SMILES IDX 5 1 6 2 7 3 8 4 9 5 10 6 4 7 3 8 2 9 1 10
REMARK H PARENT
REMARK Flexibility Score: inf
ROOT
ATOM      1  C   UNL     1      11.790  14.660 164.194  1.00  0.00     0.000 C 
ENDROOT
BRANCH   1   2
ATOM      2  C   UNL     1      11.619  13.156 163.912  1.00  0.00     0.006 C 
BRANCH   2   3
ATOM      3  C   UNL     1      11.608  12.827 162.415  1.00  0.00     0.053 C 
BRANCH   3   4
ATOM      4  C   UNL     1      10.207  12.611 161.937  1.00  0.00     0.041 C 
ATOM      5  O   UNL     1       9.397  13.574 161.892  1.00  0.00    -0.550 OA
ATOM      6  O   UNL     1       9.781  11.336 161.589  1.00  0.00    -0.550 OA
ENDBRANCH   3   4
ENDBRANCH   2   3
ENDBRANCH   1   2
BRANCH   1   7
ATOM      7  C   UNL     1      12.415  15.473 163.041  1.00  0.00     0.000 C 
BRANCH   7   8
ATOM      8  C   UNL     1      13.878  15.896 163.259  1.00  0.00    -0.000 C 
BRANCH   8   9
ATOM      9  C   UNL     1      14.877  14.992 162.522  1.00  0.00    -0.003 C 
ATOM     10  C   UNL     1      15.329  13.835 163.409  1.00  0.00     0.004 C 
ENDBRANCH   8   9
ENDBRANCH   7   8
ENDBRANCH   1   7
TORSDOF 6
ENDMDL
MODEL 6
REMARK VINA RESULT:    -3.875      1.665      3.602
REMARK INTER + INTRA:          -5.877
REMARK INTER:                  -5.405
REMARK INTRA:                  -0.472
REMARK UNBOUND:                -0.643
REMARK SMILES CCCCCCCC(=O)[O-]
REMARK SMILES IDX 5 1 6 2 7 3 8 4 9 5 10 6 4 7 3 8 2 9 1 10
REMARK H PARENT
REMARK Flexibility Score: inf
ROOT
ATOM      1  C   UNL     1      14.396  14.430 163.214  1.00  0.00     0.000 C 
ENDROOT
BRANCH   1   2
ATOM      2  C   UNL     1      13.704  15.729 162.764  1.00  0.00     0.006 C 
BRANCH   2   3
ATOM      3  C   UNL     1      13.110  16.524 163.932  1.00  0.00     0.053 C 
BRANCH   3   4
ATOM      4  C   UNL     1      11.798  15.940 164.351  1.00  0.00     0.041 C 
ATOM      5  O   UNL     1      11.714  15.271 165.415  1.00  0.00    -0.550 OA
ATOM      6  O   UNL     1      10.681  16.090 163.541  1.00  0.00    -0.550 OA
ENDBRANCH   3   4
ENDBRANCH   2   3
ENDBRANCH   1   2
BRANCH   1   7
ATOM      7  C   UNL     1      13.657  13.130 162.833  1.00  0.00     0.000 C 
BRANCH   7   8
ATOM      8  C   UNL     1      12.523  13.301 161.807  1.00  0.00    -0.000 C 
BRANCH   8   9
ATOM      9  C   UNL     1      11.184  12.729 162.296  1.00  0.00    -0.003 C 
ATOM     10  C   UNL     1      10.475  11.963 161.183  1.00  0.00     0.004 C 
ENDBRANCH   8   9
ENDBRANCH   7   8
ENDBRANCH   1   7
TORSDOF 6
ENDMDL
MODEL 7
REMARK VINA RESULT:    -3.862      1.294      1.543
REMARK INTER + INTRA:          -5.860
REMARK INTER:                  -5.252
REMARK INTRA:                  -0.608
REMARK UNBOUND:                -0.643
REMARK SMILES CCCCCCCC(=O)[O-]
REMARK SMILES IDX 5 1 6 2 7 3 8 4 9 5 10 6 4 7 3 8 2 9 1 10
REMARK H PARENT
REMARK Flexibility Score: inf
ROOT
ATOM      1  C   UNL     1      13.360  14.454 162.008  1.00  0.00     0.000 C 
ENDROOT
BRANCH   1   2
ATOM      2  C   UNL     1      12.999  13.128 162.700  1.00  0.00     0.006 C 
BRANCH   2   3
ATOM      3  C   UNL     1      11.588  13.132 163.299  1.00  0.00     0.053 C 
BRANCH   3   4
ATOM      4  C   UNL     1      10.558  13.121 162.214  1.00  0.00     0.041 C 
ATOM      5  O   UNL     1       9.750  14.080 162.099  1.00  0.00    -0.550 OA
ATOM      6  O   UNL     1      10.457  12.028 161.363  1.00  0.00    -0.550 OA
ENDBRANCH   3   4
ENDBRANCH   2   3
ENDBRANCH   1   2
BRANCH   1   7
ATOM      7  C   UNL     1      14.253  15.401 162.835  1.00  0.00     0.000 C 
BRANCH   7   8
ATOM      8  C   UNL     1      13.498  16.483 163.628  1.00  0.00    -0.000 C 
BRANCH   8   9
ATOM      9  C   UNL     1      12.156  16.865 162.987  1.00  0.00    -0.003 C 
ATOM     10  C   UNL     1      11.026  16.825 164.011  1.00  0.00     0.004 C 
ENDBRANCH   8   9
ENDBRANCH   7   8
ENDBRANCH   1   7
TORSDOF 6
ENDMDL
MODEL 8
REMARK VINA RESULT:    -3.834      2.537      3.964
REMARK INTER + INTRA:          -5.821
REMARK INTER:                  -5.320
REMARK INTRA:                  -0.501
REMARK UNBOUND:                -0.643
REMARK SMILES CCCCCCCC(=O)[O-]
REMARK SMILES IDX 5 1 6 2 7 3 8 4 9 5 10 6 4 7 3 8 2 9 1 10
REMARK H PARENT
REMARK Flexibility Score: inf
ROOT
ATOM      1  C   UNL     1      10.560  13.128 161.966  1.00  0.00     0.000 C 
ENDROOT
BRANCH   1   2
ATOM      2  C   UNL     1       9.808  14.462 161.812  1.00  0.00     0.006 C 
BRANCH   2   3
ATOM      3  C   UNL     1      10.641  15.671 162.254  1.00  0.00     0.053 C 
BRANCH   3   4
ATOM      4  C   UNL     1      11.224  16.368 161.066  1.00  0.00     0.041 C 
ATOM      5  O   UNL     1      10.992  17.591 160.872  1.00  0.00    -0.550 OA
ATOM      6  O   UNL     1      11.982  15.656 160.145  1.00  0.00    -0.550 OA
ENDBRANCH   3   4
ENDBRANCH   2   3
ENDBRANCH   1   2
BRANCH   1   7
ATOM      7  C   UNL     1      11.718  13.145 162.985  1.00  0.00     0.000 C 
BRANCH   7   8
ATOM      8  C   UNL     1      13.122  12.966 162.380  1.00  0.00    -0.000 C 
BRANCH   8   9
ATOM      9  C   UNL     1      14.215  13.681 163.188  1.00  0.00    -0.003 C 
ATOM     10  C   UNL     1      14.434  15.102 162.679  1.00  0.00     0.004 C 
ENDBRANCH   8   9
ENDBRANCH   7   8
ENDBRANCH   1   7
TORSDOF 6
ENDMDL
MODEL 9
REMARK VINA RESULT:    -3.800      1.862      2.695
REMARK INTER + INTRA:          -5.775
REMARK INTER:                  -5.180
REMARK INTRA:                  -0.595
REMARK UNBOUND:                -0.643
REMARK SMILES CCCCCCCC(=O)[O-]
REMARK SMILES IDX 5 1 6 2 7 3 8 4 9 5 10 6 4 7 3 8 2 9 1 10
REMARK H PARENT
REMARK Flexibility Score: inf
ROOT
ATOM      1  C   UNL     1       9.677  14.644 161.876  1.00  0.00     0.000 C 
ENDROOT
BRANCH   1   2
ATOM      2  C   UNL     1      10.128  13.173 161.919  1.00  0.00     0.006 C 
BRANCH   2   3
ATOM      3  C   UNL     1      11.650  13.013 161.830  1.00  0.00     0.053 C 
BRANCH   3   4
ATOM      4  C   UNL     1      12.268  13.112 163.189  1.00  0.00     0.041 C 
ATOM      5  O   UNL     1      11.580  12.873 164.216  1.00  0.00    -0.550 OA
ATOM      6  O   UNL     1      13.590  13.517 163.323  1.00  0.00    -0.550 OA
ENDBRANCH   3   4
ENDBRANCH   2   3
ENDBRANCH   1   2
BRANCH   1   7
ATOM      7  C   UNL     1      10.438  15.532 160.871  1.00  0.00     0.000 C 
BRANCH   7   8
ATOM      8  C   UNL     1      11.204  16.713 161.493  1.00  0.00    -0.000 C 
BRANCH   8   9
ATOM      9  C   UNL     1      11.159  16.710 163.028  1.00  0.00    -0.003 C 
ATOM     10  C   UNL     1      12.557  16.872 163.618  1.00  0.00     0.004 C 
ENDBRANCH   8   9
ENDBRANCH   7   8
ENDBRANCH   1   7
TORSDOF 6
ENDMDL
