MODEL 1
REMARK VINA RESULT:    -7.881      0.000      0.000
REMARK INTER + INTRA:          -7.881
REMARK INTER:                  -7.881
REMARK INTRA:                   0.000
REMARK UNBOUND:                 0.000
REMARK SMILES C[C@H]1C(=O)CC[C@H]2[C@]1(C)CC[C@H]1[C@@]2(C)CC[C@@]2(C)[C@H]3CC(C)(C)CC[C@@]3(C)CC[C@@]12C
REMARK SMILES IDX 1 1 2 2 3 3 4 4 5 5 6 6 7 7 8 8 10 9 11 10 12 11 13 12 15 13
REMARK SMILES IDX 16 14 17 15 30 16 29 17 28 18 26 19 19 20 20 21 21 22 24 23
REMARK SMILES IDX 25 24 22 25 23 26 27 27 31 28 18 29 14 30 9 31
REMARK H PARENT
REMARK Flexibility Score: inf
ROOT
ATOM      1  C   UNL     1     104.161  94.125  82.278  1.00  0.00     0.016 C 
ATOM      2  C   UNL     1     104.359  93.155  83.467  1.00  0.00     0.059 C 
ATOM      3  C   UNL     1     103.505  93.629  84.602  1.00  0.00     0.136 C 
ATOM      4  O   UNL     1     104.006  94.096  85.615  1.00  0.00    -0.299 OA
ATOM      5  C   UNL     1     102.031  93.476  84.475  1.00  0.00     0.076 C 
ATOM      6  C   UNL     1     101.726  91.998  84.284  1.00  0.00     0.012 C 
ATOM      7  C   UNL     1     102.488  91.335  83.070  1.00  0.00     0.002 C 
ATOM      8  C   UNL     1     104.062  91.633  83.131  1.00  0.00    -0.020 C 
ATOM      9  C   UNL     1     104.707  90.746  84.236  1.00  0.00     0.008 C 
ATOM     10  C   UNL     1     104.368  89.242  84.135  1.00  0.00     0.005 C 
ATOM     11  C   UNL     1     102.829  89.003  84.121  1.00  0.00     0.002 C 
ATOM     12  C   UNL     1     102.132  89.776  82.928  1.00  0.00    -0.026 C 
ATOM     13  C   UNL     1     100.579  89.534  82.975  1.00  0.00     0.008 C 
ATOM     14  C   UNL     1     100.072  88.931  84.297  1.00  0.00     0.008 C 
ATOM     15  C   UNL     1     100.699  87.531  84.696  1.00  0.00    -0.024 C 
ATOM     16  C   UNL     1     102.301  87.526  84.419  1.00  0.00    -0.024 C 
ATOM     17  C   UNL     1     102.620  86.582  83.235  1.00  0.00     0.008 C 
ATOM     18  C   UNL     1     102.251  85.129  83.525  1.00  0.00     0.007 C 
ATOM     19  C   UNL     1     100.737  84.912  83.865  1.00  0.00    -0.029 C 
ATOM     20  C   UNL     1      99.912  86.279  84.020  1.00  0.00     0.002 C 
ATOM     21  C   UNL     1      99.142  86.586  82.689  1.00  0.00     0.011 C 
ATOM     22  C   UNL     1      98.101  85.486  82.303  1.00  0.00    -0.035 C 
ATOM     23  C   UNL     1      98.606  84.069  82.687  1.00  0.00     0.007 C 
ATOM     24  C   UNL     1     100.134  84.018  82.723  1.00  0.00     0.007 C 
ATOM     25  C   UNL     1      96.751  85.753  83.011  1.00  0.00     0.011 C 
ATOM     26  C   UNL     1      97.855  85.554  80.778  1.00  0.00     0.011 C 
ATOM     27  C   UNL     1     100.642  84.074  85.172  1.00  0.00     0.011 C 
ATOM     28  C   UNL     1     103.117  87.000  85.654  1.00  0.00     0.012 C 
ATOM     29  C   UNL     1     100.387  87.476  86.233  1.00  0.00     0.012 C 
ATOM     30  C   UNL     1     102.605  89.273  81.514  1.00  0.00     0.012 C 
ATOM     31  C   UNL     1     104.811  91.336  81.796  1.00  0.00     0.012 C 
ENDROOT
TORSDOF 0
ENDMDL
MODEL 2
REMARK VINA RESULT:    -7.413      3.287      6.840
REMARK INTER + INTRA:          -7.413
REMARK INTER:                  -7.413
REMARK INTRA:                   0.000
REMARK UNBOUND:                 0.000
REMARK SMILES C[C@H]1C(=O)CC[C@H]2[C@]1(C)CC[C@H]1[C@@]2(C)CC[C@@]2(C)[C@H]3CC(C)(C)CC[C@@]3(C)CC[C@@]12C
REMARK SMILES IDX 1 1 2 2 3 3 4 4 5 5 6 6 7 7 8 8 10 9 11 10 12 11 13 12 15 13
REMARK SMILES IDX 16 14 17 15 30 16 29 17 28 18 26 19 19 20 20 21 21 22 24 23
REMARK SMILES IDX 25 24 22 25 23 26 27 27 31 28 18 29 14 30 9 31
REMARK H PARENT
REMARK Flexibility Score: inf
ROOT
ATOM      1  C   UNL     1     102.619  85.777  83.582  1.00  0.00     0.016 C 
ATOM      2  C   UNL     1     101.679  86.754  84.328  1.00  0.00     0.059 C 
ATOM      3  C   UNL     1     101.696  88.063  83.601  1.00  0.00     0.136 C 
ATOM      4  O   UNL     1     102.215  89.053  84.097  1.00  0.00    -0.299 OA
ATOM      5  C   UNL     1     101.026  88.131  82.275  1.00  0.00     0.076 C 
ATOM      6  C   UNL     1      99.565  87.753  82.466  1.00  0.00     0.012 C 
ATOM      7  C   UNL     1      99.347  86.351  83.158  1.00  0.00     0.002 C 
ATOM      8  C   UNL     1     100.195  86.227  84.514  1.00  0.00    -0.020 C 
ATOM      9  C   UNL     1      99.504  87.070  85.626  1.00  0.00     0.008 C 
ATOM     10  C   UNL     1      97.998  86.782  85.811  1.00  0.00     0.005 C 
ATOM     11  C   UNL     1      97.213  86.956  84.477  1.00  0.00     0.002 C 
ATOM     12  C   UNL     1      97.788  86.017  83.339  1.00  0.00    -0.026 C 
ATOM     13  C   UNL     1      96.989  86.252  82.005  1.00  0.00     0.008 C 
ATOM     14  C   UNL     1      96.120  87.521  82.003  1.00  0.00     0.008 C 
ATOM     15  C   UNL     1      95.015  87.595  83.138  1.00  0.00    -0.024 C 
ATOM     16  C   UNL     1      95.625  87.089  84.557  1.00  0.00    -0.024 C 
ATOM     17  C   UNL     1      94.982  85.737  84.945  1.00  0.00     0.008 C 
ATOM     18  C   UNL     1      93.473  85.842  85.163  1.00  0.00     0.007 C 
ATOM     19  C   UNL     1      92.686  86.361  83.911  1.00  0.00    -0.029 C 
ATOM     20  C   UNL     1      93.633  86.851  82.714  1.00  0.00     0.002 C 
ATOM     21  C   UNL     1      93.763  85.714  81.642  1.00  0.00     0.011 C 
ATOM     22  C   UNL     1      92.400  85.315  80.989  1.00  0.00    -0.035 C 
ATOM     23  C   UNL     1      91.237  85.390  82.015  1.00  0.00     0.007 C 
ATOM     24  C   UNL     1      91.746  85.192  83.443  1.00  0.00     0.007 C 
ATOM     25  C   UNL     1      92.084  86.247  79.795  1.00  0.00     0.011 C 
ATOM     26  C   UNL     1      92.519  83.873  80.444  1.00  0.00     0.011 C 
ATOM     27  C   UNL     1      91.750  87.518  84.366  1.00  0.00     0.011 C 
ATOM     28  C   UNL     1      95.319  88.092  85.728  1.00  0.00     0.012 C 
ATOM     29  C   UNL     1      94.703  89.133  83.168  1.00  0.00     0.012 C 
ATOM     30  C   UNL     1      97.631  84.486  83.672  1.00  0.00     0.012 C 
ATOM     31  C   UNL     1     100.322  84.767  85.044  1.00  0.00     0.012 C 
ENDROOT
TORSDOF 0
ENDMDL
MODEL 3
REMARK VINA RESULT:    -7.368      8.247     11.739
REMARK INTER + INTRA:          -7.368
REMARK INTER:                  -7.368
REMARK INTRA:                   0.000
REMARK UNBOUND:                 0.000
REMARK SMILES C[C@H]1C(=O)CC[C@H]2[C@]1(C)CC[C@H]1[C@@]2(C)CC[C@@]2(C)[C@H]3CC(C)(C)CC[C@@]3(C)CC[C@@]12C
REMARK SMILES IDX 1 1 2 2 3 3 4 4 5 5 6 6 7 7 8 8 10 9 11 10 12 11 13 12 15 13
REMARK SMILES IDX 16 14 17 15 30 16 29 17 28 18 26 19 19 20 20 21 21 22 24 23
REMARK SMILES IDX 25 24 22 25 23 26 27 27 31 28 18 29 14 30 9 31
REMARK H PARENT
REMARK Flexibility Score: inf
ROOT
ATOM      1  C   UNL     1      90.273  88.800  89.076  1.00  0.00     0.016 C 
ATOM      2  C   UNL     1      89.392  88.638  87.815  1.00  0.00     0.059 C 
ATOM      3  C   UNL     1      89.334  89.961  87.115  1.00  0.00     0.136 C 
ATOM      4  O   UNL     1      88.298  90.611  87.080  1.00  0.00    -0.299 OA
ATOM      5  C   UNL     1      90.563  90.439  86.428  1.00  0.00     0.076 C 
ATOM      6  C   UNL     1      90.950  89.405  85.382  1.00  0.00     0.012 C 
ATOM      7  C   UNL     1      91.133  87.945  85.956  1.00  0.00     0.002 C 
ATOM      8  C   UNL     1      89.864  87.492  86.825  1.00  0.00    -0.020 C 
ATOM      9  C   UNL     1      88.686  87.147  85.866  1.00  0.00     0.008 C 
ATOM     10  C   UNL     1      89.044  86.158  84.736  1.00  0.00     0.005 C 
ATOM     11  C   UNL     1      90.255  86.662  83.896  1.00  0.00     0.002 C 
ATOM     12  C   UNL     1      91.531  86.901  84.802  1.00  0.00    -0.026 C 
ATOM     13  C   UNL     1      92.714  87.442  83.919  1.00  0.00     0.008 C 
ATOM     14  C   UNL     1      92.291  87.930  82.523  1.00  0.00     0.008 C 
ATOM     15  C   UNL     1      91.581  86.849  81.607  1.00  0.00    -0.024 C 
ATOM     16  C   UNL     1      90.508  85.987  82.472  1.00  0.00    -0.024 C 
ATOM     17  C   UNL     1      91.023  84.537  82.638  1.00  0.00     0.008 C 
ATOM     18  C   UNL     1      91.157  83.803  81.306  1.00  0.00     0.007 C 
ATOM     19  C   UNL     1      92.126  84.500  80.291  1.00  0.00    -0.029 C 
ATOM     20  C   UNL     1      92.643  85.937  80.780  1.00  0.00     0.002 C 
ATOM     21  C   UNL     1      94.071  85.800  81.411  1.00  0.00     0.011 C 
ATOM     22  C   UNL     1      95.146  85.263  80.410  1.00  0.00    -0.035 C 
ATOM     23  C   UNL     1      94.541  84.216  79.436  1.00  0.00     0.007 C 
ATOM     24  C   UNL     1      93.330  83.518  80.059  1.00  0.00     0.007 C 
ATOM     25  C   UNL     1      95.746  86.431  79.591  1.00  0.00     0.011 C 
ATOM     26  C   UNL     1      96.293  84.616  81.220  1.00  0.00     0.011 C 
ATOM     27  C   UNL     1      91.396  84.626  78.923  1.00  0.00     0.011 C 
ATOM     28  C   UNL     1      89.108  85.895  81.765  1.00  0.00     0.012 C 
ATOM     29  C   UNL     1      90.860  87.760  80.552  1.00  0.00     0.012 C 
ATOM     30  C   UNL     1      92.061  85.580  85.473  1.00  0.00     0.012 C 
ATOM     31  C   UNL     1      90.126  86.239  87.715  1.00  0.00     0.012 C 
ENDROOT
TORSDOF 0
ENDMDL
MODEL 4
REMARK VINA RESULT:    -7.240      6.167      9.071
REMARK INTER + INTRA:          -7.240
REMARK INTER:                  -7.240
REMARK INTRA:                   0.000
REMARK UNBOUND:                 0.000
REMARK SMILES C[C@H]1C(=O)CC[C@H]2[C@]1(C)CC[C@H]1[C@@]2(C)CC[C@@]2(C)[C@H]3CC(C)(C)CC[C@@]3(C)CC[C@@]12C
REMARK SMILES IDX 1 1 2 2 3 3 4 4 5 5 6 6 7 7 8 8 10 9 11 10 12 11 13 12 15 13
REMARK SMILES IDX 16 14 17 15 30 16 29 17 28 18 26 19 19 20 20 21 21 22 24 23
REMARK SMILES IDX 25 24 22 25 23 26 27 27 31 28 18 29 14 30 9 31
REMARK H PARENT
REMARK Flexibility Score: inf
ROOT
ATOM      1  C   UNL     1      98.413  87.703  88.671  1.00  0.00     0.016 C 
ATOM      2  C   UNL     1      96.982  88.281  88.573  1.00  0.00     0.059 C 
ATOM      3  C   UNL     1      97.067  89.632  87.934  1.00  0.00     0.136 C 
ATOM      4  O   UNL     1      96.839  90.649  88.575  1.00  0.00    -0.299 OA
ATOM      5  C   UNL     1      97.397  89.696  86.485  1.00  0.00     0.076 C 
ATOM      6  C   UNL     1      96.334  88.917  85.725  1.00  0.00     0.012 C 
ATOM      7  C   UNL     1      96.153  87.427  86.217  1.00  0.00     0.002 C 
ATOM      8  C   UNL     1      95.949  87.354  87.805  1.00  0.00    -0.020 C 
ATOM      9  C   UNL     1      94.505  87.821  88.156  1.00  0.00     0.008 C 
ATOM     10  C   UNL     1      93.387  87.115  87.357  1.00  0.00     0.005 C 
ATOM     11  C   UNL     1      93.609  87.251  85.821  1.00  0.00     0.002 C 
ATOM     12  C   UNL     1      95.013  86.664  85.384  1.00  0.00    -0.026 C 
ATOM     13  C   UNL     1      95.206  86.855  83.834  1.00  0.00     0.008 C 
ATOM     14  C   UNL     1      94.208  87.831  83.187  1.00  0.00     0.008 C 
ATOM     15  C   UNL     1      92.678  87.451  83.347  1.00  0.00    -0.024 C 
ATOM     16  C   UNL     1      92.374  86.940  84.859  1.00  0.00    -0.024 C 
ATOM     17  C   UNL     1      92.063  85.424  84.842  1.00  0.00     0.008 C 
ATOM     18  C   UNL     1      90.808  85.090  84.039  1.00  0.00     0.007 C 
ATOM     19  C   UNL     1      90.874  85.542  82.540  1.00  0.00    -0.029 C 
ATOM     20  C   UNL     1      92.165  86.427  82.192  1.00  0.00     0.002 C 
ATOM     21  C   UNL     1      93.265  85.523  81.534  1.00  0.00     0.011 C 
ATOM     22  C   UNL     1      92.809  84.864  80.192  1.00  0.00    -0.035 C 
ATOM     23  C   UNL     1      91.305  84.483  80.230  1.00  0.00     0.007 C 
ATOM     24  C   UNL     1      90.833  84.238  81.665  1.00  0.00     0.007 C 
ATOM     25  C   UNL     1      93.059  85.830  79.009  1.00  0.00     0.011 C 
ATOM     26  C   UNL     1      93.660  83.595  79.954  1.00  0.00     0.011 C 
ATOM     27  C   UNL     1      89.574  86.332  82.208  1.00  0.00     0.011 C 
ATOM     28  C   UNL     1      91.125  87.655  85.490  1.00  0.00     0.012 C 
ATOM     29  C   UNL     1      91.983  88.829  83.061  1.00  0.00     0.012 C 
ATOM     30  C   UNL     1      95.139  85.118  85.647  1.00  0.00     0.012 C 
ATOM     31  C   UNL     1      96.135  85.924  88.397  1.00  0.00     0.012 C 
ENDROOT
TORSDOF 0
ENDMDL
MODEL 5
REMARK VINA RESULT:    -7.151      8.498     13.911
REMARK INTER + INTRA:          -7.151
REMARK INTER:                  -7.151
REMARK INTRA:                   0.000
REMARK UNBOUND:                 0.000
REMARK SMILES C[C@H]1C(=O)CC[C@H]2[C@]1(C)CC[C@H]1[C@@]2(C)CC[C@@]2(C)[C@H]3CC(C)(C)CC[C@@]3(C)CC[C@@]12C
REMARK SMILES IDX 1 1 2 2 3 3 4 4 5 5 6 6 7 7 8 8 10 9 11 10 12 11 13 12 15 13
REMARK SMILES IDX 16 14 17 15 30 16 29 17 28 18 26 19 19 20 20 21 21 22 24 23
REMARK SMILES IDX 25 24 22 25 23 26 27 27 31 28 18 29 14 30 9 31
REMARK H PARENT
REMARK Flexibility Score: inf
ROOT
ATOM      1  C   UNL     1      85.822  84.097  77.291  1.00  0.00     0.016 C 
ATOM      2  C   UNL     1      85.838  84.455  78.795  1.00  0.00     0.059 C 
ATOM      3  C   UNL     1      85.863  83.179  79.578  1.00  0.00     0.136 C 
ATOM      4  O   UNL     1      84.895  82.825  80.238  1.00  0.00    -0.299 OA
ATOM      5  C   UNL     1      87.115  82.378  79.562  1.00  0.00     0.076 C 
ATOM      6  C   UNL     1      88.238  83.248  80.104  1.00  0.00     0.012 C 
ATOM      7  C   UNL     1      88.415  84.621  79.343  1.00  0.00     0.002 C 
ATOM      8  C   UNL     1      87.025  85.412  79.232  1.00  0.00    -0.020 C 
ATOM      9  C   UNL     1      86.679  86.034  80.617  1.00  0.00     0.008 C 
ATOM     10  C   UNL     1      87.815  86.867  81.252  1.00  0.00     0.005 C 
ATOM     11  C   UNL     1      89.129  86.041  81.376  1.00  0.00     0.002 C 
ATOM     12  C   UNL     1      89.607  85.494  79.969  1.00  0.00    -0.026 C 
ATOM     13  C   UNL     1      90.915  84.639  80.149  1.00  0.00     0.008 C 
ATOM     14  C   UNL     1      91.220  84.248  81.605  1.00  0.00     0.008 C 
ATOM     15  C   UNL     1      91.400  85.456  82.615  1.00  0.00    -0.024 C 
ATOM     16  C   UNL     1      90.267  86.591  82.351  1.00  0.00    -0.024 C 
ATOM     17  C   UNL     1      90.929  87.857  81.758  1.00  0.00     0.008 C 
ATOM     18  C   UNL     1      91.935  88.498  82.712  1.00  0.00     0.007 C 
ATOM     19  C   UNL     1      93.105  87.547  83.135  1.00  0.00    -0.029 C 
ATOM     20  C   UNL     1      92.919  86.036  82.631  1.00  0.00     0.002 C 
ATOM     21  C   UNL     1      93.758  85.806  81.327  1.00  0.00     0.011 C 
ATOM     22  C   UNL     1      95.294  86.016  81.528  1.00  0.00    -0.035 C 
ATOM     23  C   UNL     1      95.582  87.162  82.535  1.00  0.00     0.007 C 
ATOM     24  C   UNL     1      94.431  88.169  82.568  1.00  0.00     0.007 C 
ATOM     25  C   UNL     1      95.950  84.712  82.042  1.00  0.00     0.011 C 
ATOM     26  C   UNL     1      95.928  86.355  80.160  1.00  0.00     0.011 C 
ATOM     27  C   UNL     1      93.233  87.585  84.686  1.00  0.00     0.011 C 
ATOM     28  C   UNL     1      89.545  87.033  83.675  1.00  0.00     0.012 C 
ATOM     29  C   UNL     1      91.180  84.743  83.996  1.00  0.00     0.012 C 
ATOM     30  C   UNL     1      89.978  86.644  78.960  1.00  0.00     0.012 C 
ATOM     31  C   UNL     1      87.044  86.572  78.190  1.00  0.00     0.012 C 
ENDROOT
TORSDOF 0
ENDMDL
MODEL 6
REMARK VINA RESULT:    -7.099      2.783      7.305
REMARK INTER + INTRA:          -7.099
REMARK INTER:                  -7.099
REMARK INTRA:                   0.000
REMARK UNBOUND:                 0.000
REMARK SMILES C[C@H]1C(=O)CC[C@H]2[C@]1(C)CC[C@H]1[C@@]2(C)CC[C@@]2(C)[C@H]3CC(C)(C)CC[C@@]3(C)CC[C@@]12C
REMARK SMILES IDX 1 1 2 2 3 3 4 4 5 5 6 6 7 7 8 8 10 9 11 10 12 11 13 12 15 13
REMARK SMILES IDX 16 14 17 15 30 16 29 17 28 18 26 19 19 20 20 21 21 22 24 23
REMARK SMILES IDX 25 24 22 25 23 26 27 27 31 28 18 29 14 30 9 31
REMARK H PARENT
REMARK Flexibility Score: inf
ROOT
ATOM      1  C   UNL     1     100.621  83.914  86.753  1.00  0.00     0.016 C 
ATOM      2  C   UNL     1      99.452  84.764  86.200  1.00  0.00     0.059 C 
ATOM      3  C   UNL     1      99.042  85.737  87.261  1.00  0.00     0.136 C 
ATOM      4  O   UNL     1      97.966  85.630  87.833  1.00  0.00    -0.299 OA
ATOM      5  C   UNL     1      99.965  86.862  87.567  1.00  0.00     0.076 C 
ATOM      6  C   UNL     1     100.171  87.664  86.291  1.00  0.00     0.012 C 
ATOM      7  C   UNL     1     100.682  86.806  85.067  1.00  0.00     0.002 C 
ATOM      8  C   UNL     1      99.768  85.509  84.836  1.00  0.00    -0.020 C 
ATOM      9  C   UNL     1      98.423  85.943  84.184  1.00  0.00     0.008 C 
ATOM     10  C   UNL     1      98.571  86.826  82.925  1.00  0.00     0.005 C 
ATOM     11  C   UNL     1      99.432  88.092  83.212  1.00  0.00     0.002 C 
ATOM     12  C   UNL     1     100.869  87.707  83.751  1.00  0.00    -0.026 C 
ATOM     13  C   UNL     1     101.687  89.014  84.060  1.00  0.00     0.008 C 
ATOM     14  C   UNL     1     100.838  90.296  84.107  1.00  0.00     0.008 C 
ATOM     15  C   UNL     1     100.039  90.637  82.781  1.00  0.00    -0.024 C 
ATOM     16  C   UNL     1      99.361  89.294  82.164  1.00  0.00    -0.024 C 
ATOM     17  C   UNL     1     100.074  88.913  80.845  1.00  0.00     0.008 C 
ATOM     18  C   UNL     1      99.923  89.980  79.763  1.00  0.00     0.007 C 
ATOM     19  C   UNL     1     100.481  91.385  80.175  1.00  0.00    -0.029 C 
ATOM     20  C   UNL     1     100.934  91.472  81.711  1.00  0.00     0.002 C 
ATOM     21  C   UNL     1     102.487  91.286  81.817  1.00  0.00     0.011 C 
ATOM     22  C   UNL     1     103.300  92.383  81.056  1.00  0.00    -0.035 C 
ATOM     23  C   UNL     1     102.581  92.818  79.750  1.00  0.00     0.007 C 
ATOM     24  C   UNL     1     101.685  91.700  79.215  1.00  0.00     0.007 C 
ATOM     25  C   UNL     1     103.503  93.623  81.960  1.00  0.00     0.011 C 
ATOM     26  C   UNL     1     104.696  91.814  80.715  1.00  0.00     0.011 C 
ATOM     27  C   UNL     1      99.391  92.454  79.873  1.00  0.00     0.011 C 
ATOM     28  C   UNL     1      97.842  89.498  81.819  1.00  0.00     0.012 C 
ATOM     29  C   UNL     1      98.949  91.628  83.321  1.00  0.00     0.012 C 
ATOM     30  C   UNL     1     101.722  86.902  82.701  1.00  0.00     0.012 C 
ATOM     31  C   UNL     1     100.417  84.441  83.904  1.00  0.00     0.012 C 
ENDROOT
TORSDOF 0
ENDMDL
MODEL 7
REMARK VINA RESULT:    -6.942      4.063      8.675
REMARK INTER + INTRA:          -6.942
REMARK INTER:                  -6.942
REMARK INTRA:                   0.000
REMARK UNBOUND:                 0.000
REMARK SMILES C[C@H]1C(=O)CC[C@H]2[C@]1(C)CC[C@H]1[C@@]2(C)CC[C@@]2(C)[C@H]3CC(C)(C)CC[C@@]3(C)CC[C@@]12C
REMARK SMILES IDX 1 1 2 2 3 3 4 4 5 5 6 6 7 7 8 8 10 9 11 10 12 11 13 12 15 13
REMARK SMILES IDX 16 14 17 15 30 16 29 17 28 18 26 19 19 20 20 21 21 22 24 23
REMARK SMILES IDX 25 24 22 25 23 26 27 27 31 28 18 29 14 30 9 31
REMARK H PARENT
REMARK Flexibility Score: inf
ROOT
ATOM      1  C   UNL     1      92.132  83.958  79.539  1.00  0.00     0.016 C 
ATOM      2  C   UNL     1      92.808  85.341  79.383  1.00  0.00     0.059 C 
ATOM      3  C   UNL     1      91.990  86.347  80.131  1.00  0.00     0.136 C 
ATOM      4  O   UNL     1      91.353  87.207  79.539  1.00  0.00    -0.299 OA
ATOM      5  C   UNL     1      92.010  86.294  81.617  1.00  0.00     0.076 C 
ATOM      6  C   UNL     1      93.449  86.470  82.076  1.00  0.00     0.012 C 
ATOM      7  C   UNL     1      94.459  85.434  81.442  1.00  0.00     0.002 C 
ATOM      8  C   UNL     1      94.325  85.388  79.845  1.00  0.00    -0.020 C 
ATOM      9  C   UNL     1      94.990  86.659  79.240  1.00  0.00     0.008 C 
ATOM     10  C   UNL     1      96.429  86.930  79.731  1.00  0.00     0.005 C 
ATOM     11  C   UNL     1      96.498  87.008  81.285  1.00  0.00     0.002 C 
ATOM     12  C   UNL     1      95.959  85.680  81.957  1.00  0.00    -0.026 C 
ATOM     13  C   UNL     1      96.015  85.818  83.523  1.00  0.00     0.008 C 
ATOM     14  C   UNL     1      96.229  87.257  84.024  1.00  0.00     0.008 C 
ATOM     15  C   UNL     1      97.554  87.967  83.521  1.00  0.00    -0.024 C 
ATOM     16  C   UNL     1      97.796  87.664  81.942  1.00  0.00    -0.024 C 
ATOM     17  C   UNL     1      99.022  86.735  81.774  1.00  0.00     0.008 C 
ATOM     18  C   UNL     1     100.318  87.374  82.271  1.00  0.00     0.007 C 
ATOM     19  C   UNL     1     100.283  87.789  83.782  1.00  0.00    -0.029 C 
ATOM     20  C   UNL     1      98.838  87.629  84.459  1.00  0.00     0.002 C 
ATOM     21  C   UNL     1      98.774  86.281  85.257  1.00  0.00     0.011 C 
ATOM     22  C   UNL     1      99.816  86.194  86.419  1.00  0.00    -0.035 C 
ATOM     23  C   UNL     1     101.147  86.896  86.040  1.00  0.00     0.007 C 
ATOM     24  C   UNL     1     101.352  86.909  84.524  1.00  0.00     0.007 C 
ATOM     25  C   UNL     1      99.245  86.847  87.701  1.00  0.00     0.011 C 
ATOM     26  C   UNL     1     100.085  84.703  86.728  1.00  0.00     0.011 C 
ATOM     27  C   UNL     1     100.773  89.261  83.898  1.00  0.00     0.011 C 
ATOM     28  C   UNL     1      98.099  88.971  81.124  1.00  0.00     0.012 C 
ATOM     29  C   UNL     1      97.209  89.478  83.764  1.00  0.00     0.012 C 
ATOM     30  C   UNL     1      96.831  84.418  81.604  1.00  0.00     0.012 C 
ATOM     31  C   UNL     1      95.009  84.147  79.193  1.00  0.00     0.012 C 
ENDROOT
TORSDOF 0
ENDMDL
MODEL 8
REMARK VINA RESULT:    -6.923      2.910      5.582
REMARK INTER + INTRA:          -6.923
REMARK INTER:                  -6.923
REMARK INTRA:                   0.000
REMARK UNBOUND:                 0.000
REMARK SMILES C[C@H]1C(=O)CC[C@H]2[C@]1(C)CC[C@H]1[C@@]2(C)CC[C@@]2(C)[C@H]3CC(C)(C)CC[C@@]3(C)CC[C@@]12C
REMARK SMILES IDX 1 1 2 2 3 3 4 4 5 5 6 6 7 7 8 8 10 9 11 10 12 11 13 12 15 13
REMARK SMILES IDX 16 14 17 15 30 16 29 17 28 18 26 19 19 20 20 21 21 22 24 23
REMARK SMILES IDX 25 24 22 25 23 26 27 27 31 28 18 29 14 30 9 31
REMARK H PARENT
REMARK Flexibility Score: inf
ROOT
ATOM      1  C   UNL     1     100.904  92.369  84.108  1.00  0.00     0.016 C 
ATOM      2  C   UNL     1     101.171  90.967  83.511  1.00  0.00     0.059 C 
ATOM      3  C   UNL     1     101.466  90.029  84.640  1.00  0.00     0.136 C 
ATOM      4  O   UNL     1     102.588  89.568  84.800  1.00  0.00    -0.299 OA
ATOM      5  C   UNL     1     100.344  89.643  85.536  1.00  0.00     0.076 C 
ATOM      6  C   UNL     1      99.269  88.982  84.686  1.00  0.00     0.012 C 
ATOM      7  C   UNL     1      98.772  89.866  83.475  1.00  0.00     0.002 C 
ATOM      8  C   UNL     1     100.001  90.406  82.599  1.00  0.00    -0.020 C 
ATOM      9  C   UNL     1     100.562  89.239  81.733  1.00  0.00     0.008 C 
ATOM     10  C   UNL     1      99.500  88.482  80.906  1.00  0.00     0.005 C 
ATOM     11  C   UNL     1      98.350  87.942  81.807  1.00  0.00     0.002 C 
ATOM     12  C   UNL     1      97.648  89.110  82.613  1.00  0.00    -0.026 C 
ATOM     13  C   UNL     1      96.520  88.514  83.533  1.00  0.00     0.008 C 
ATOM     14  C   UNL     1      96.585  86.987  83.706  1.00  0.00     0.008 C 
ATOM     15  C   UNL     1      96.486  86.142  82.369  1.00  0.00    -0.024 C 
ATOM     16  C   UNL     1      97.394  86.817  81.201  1.00  0.00    -0.024 C 
ATOM     17  C   UNL     1      96.474  87.413  80.109  1.00  0.00     0.008 C 
ATOM     18  C   UNL     1      95.630  86.351  79.407  1.00  0.00     0.007 C 
ATOM     19  C   UNL     1      94.699  85.539  80.371  1.00  0.00    -0.029 C 
ATOM     20  C   UNL     1      94.949  85.857  81.923  1.00  0.00     0.002 C 
ATOM     21  C   UNL     1      93.881  86.885  82.432  1.00  0.00     0.011 C 
ATOM     22  C   UNL     1      92.411  86.365  82.321  1.00  0.00    -0.035 C 
ATOM     23  C   UNL     1      92.214  85.490  81.054  1.00  0.00     0.007 C 
ATOM     24  C   UNL     1      93.218  85.865  79.962  1.00  0.00     0.007 C 
ATOM     25  C   UNL     1      92.040  85.536  83.574  1.00  0.00     0.011 C 
ATOM     26  C   UNL     1      91.461  87.583  82.263  1.00  0.00     0.011 C 
ATOM     27  C   UNL     1      94.905  84.022  80.091  1.00  0.00     0.011 C 
ATOM     28  C   UNL     1      98.327  85.771  80.491  1.00  0.00     0.012 C 
ATOM     29  C   UNL     1      97.081  84.764  82.826  1.00  0.00     0.012 C 
ATOM     30  C   UNL     1      96.935  90.156  81.678  1.00  0.00     0.012 C 
ATOM     31  C   UNL     1      99.621  91.566  81.630  1.00  0.00     0.012 C 
ENDROOT
TORSDOF 0
ENDMDL
