MODEL 1
REMARK VINA RESULT:    -5.765      0.000      0.000
REMARK INTER + INTRA:          -5.765
REMARK INTER:                  -5.765
REMARK INTRA:                   0.000
REMARK UNBOUND:                 0.000
REMARK SMILES C=C1[C@@H]2CC[C@@H](C2)C1(C)C
REMARK SMILES IDX 9 1 8 2 6 3 5 4 4 5 3 6 7 7 2 8 1 9 10 10
REMARK H PARENT
REMARK Flexibility Score: inf
ROOT
ATOM      1  C   UNL     1       4.301   7.779  13.755  1.00  0.00     0.016 C 
ATOM      2  C   UNL     1       5.153   7.172  12.615  1.00  0.00    -0.012 C 
ATOM      3  C   UNL     1       6.700   7.246  12.869  1.00  0.00    -0.001 C 
ATOM      4  C   UNL     1       7.059   6.736  14.286  1.00  0.00     0.005 C 
ATOM      5  C   UNL     1       6.742   5.228  14.200  1.00  0.00     0.008 C 
ATOM      6  C   UNL     1       6.348   5.042  12.724  1.00  0.00     0.015 C 
ATOM      7  C   UNL     1       7.225   6.073  12.047  1.00  0.00     0.012 C 
ATOM      8  C   UNL     1       4.994   5.672  12.534  1.00  0.00    -0.068 C 
ATOM      9  C   UNL     1       3.847   5.001  12.378  1.00  0.00     0.008 C 
ATOM     10  C   UNL     1       4.770   7.854  11.283  1.00  0.00     0.016 C 
ENDROOT
TORSDOF 0
ENDMDL
MODEL 2
REMARK VINA RESULT:    -5.492      0.782      2.420
REMARK INTER + INTRA:          -5.492
REMARK INTER:                  -5.492
REMARK INTRA:                   0.000
REMARK UNBOUND:                 0.000
REMARK SMILES C=C1[C@@H]2CC[C@@H](C2)C1(C)C
REMARK SMILES IDX 9 1 8 2 6 3 5 4 4 5 3 6 7 7 2 8 1 9 10 10
REMARK H PARENT
REMARK Flexibility Score: inf
ROOT
ATOM      1  C   UNL     1       5.083   7.494  11.246  1.00  0.00     0.016 C 
ATOM      2  C   UNL     1       5.195   6.548  12.464  1.00  0.00    -0.012 C 
ATOM      3  C   UNL     1       6.448   5.603  12.422  1.00  0.00    -0.001 C 
ATOM      4  C   UNL     1       7.737   6.399  12.102  1.00  0.00     0.005 C 
ATOM      5  C   UNL     1       7.932   7.263  13.366  1.00  0.00     0.008 C 
ATOM      6  C   UNL     1       6.802   6.778  14.292  1.00  0.00     0.015 C 
ATOM      7  C   UNL     1       6.697   5.320  13.900  1.00  0.00     0.012 C 
ATOM      8  C   UNL     1       5.505   7.302  13.735  1.00  0.00    -0.068 C 
ATOM      9  C   UNL     1       4.790   8.304  14.259  1.00  0.00     0.008 C 
ATOM     10  C   UNL     1       3.886   5.737  12.592  1.00  0.00     0.016 C 
ENDROOT
TORSDOF 0
ENDMDL
MODEL 3
REMARK VINA RESULT:    -4.549      0.883      3.261
REMARK INTER + INTRA:          -4.549
REMARK INTER:                  -4.549
REMARK INTRA:                   0.000
REMARK UNBOUND:                 0.000
REMARK SMILES C=C1[C@@H]2CC[C@@H](C2)C1(C)C
REMARK SMILES IDX 9 1 8 2 6 3 5 4 4 5 3 6 7 7 2 8 1 9 10 10
REMARK H PARENT
REMARK Flexibility Score: inf
ROOT
ATOM      1  C   UNL     1       6.486   4.910  13.786  1.00  0.00     0.016 C 
ATOM      2  C   UNL     1       6.373   6.161  12.884  1.00  0.00    -0.012 C 
ATOM      3  C   UNL     1       5.056   6.214  12.032  1.00  0.00    -0.001 C 
ATOM      4  C   UNL     1       3.811   5.935  12.909  1.00  0.00     0.005 C 
ATOM      5  C   UNL     1       3.746   7.180  13.820  1.00  0.00     0.008 C 
ATOM      6  C   UNL     1       4.887   8.061  13.281  1.00  0.00     0.015 C 
ATOM      7  C   UNL     1       4.868   7.711  11.809  1.00  0.00     0.012 C 
ATOM      8  C   UNL     1       6.186   7.421  13.694  1.00  0.00    -0.068 C 
ATOM      9  C   UNL     1       6.997   7.876  14.656  1.00  0.00     0.008 C 
ATOM     10  C   UNL     1       7.626   6.247  11.985  1.00  0.00     0.016 C 
ENDROOT
TORSDOF 0
ENDMDL
MODEL 4
REMARK VINA RESULT:    -3.947      0.943      3.173
REMARK INTER + INTRA:          -3.947
REMARK INTER:                  -3.947
REMARK INTRA:                   0.000
REMARK UNBOUND:                 0.000
REMARK SMILES C=C1[C@@H]2CC[C@@H](C2)C1(C)C
REMARK SMILES IDX 9 1 8 2 6 3 5 4 4 5 3 6 7 7 2 8 1 9 10 10
REMARK H PARENT
REMARK Flexibility Score: inf
ROOT
ATOM      1  C   UNL     1       7.053   7.546  14.465  1.00  0.00     0.016 C 
ATOM      2  C   UNL     1       6.261   6.489  13.662  1.00  0.00    -0.012 C 
ATOM      3  C   UNL     1       4.710   6.734  13.643  1.00  0.00    -0.001 C 
ATOM      4  C   UNL     1       4.381   8.202  13.279  1.00  0.00     0.005 C 
ATOM      5  C   UNL     1       4.816   8.297  11.801  1.00  0.00     0.008 C 
ATOM      6  C   UNL     1       5.235   6.853  11.473  1.00  0.00     0.015 C 
ATOM      7  C   UNL     1       4.286   6.059  12.343  1.00  0.00     0.012 C 
ATOM      8  C   UNL     1       6.537   6.588  12.180  1.00  0.00    -0.068 C 
ATOM      9  C   UNL     1       7.734   6.511  11.588  1.00  0.00     0.008 C 
ATOM     10  C   UNL     1       6.600   5.085  14.208  1.00  0.00     0.016 C 
ENDROOT
TORSDOF 0
ENDMDL
MODEL 5
REMARK VINA RESULT:    -3.822      0.715      2.335
REMARK INTER + INTRA:          -3.822
REMARK INTER:                  -3.822
REMARK INTRA:                   0.000
REMARK UNBOUND:                 0.000
REMARK SMILES C=C1[C@@H]2CC[C@@H](C2)C1(C)C
REMARK SMILES IDX 9 1 8 2 6 3 5 4 4 5 3 6 7 7 2 8 1 9 10 10
REMARK H PARENT
REMARK Flexibility Score: inf
ROOT
ATOM      1  C   UNL     1       4.104   5.347  12.422  1.00  0.00     0.016 C 
ATOM      2  C   UNL     1       4.958   6.472  13.051  1.00  0.00    -0.012 C 
ATOM      3  C   UNL     1       6.162   5.950  13.913  1.00  0.00    -0.001 C 
ATOM      4  C   UNL     1       6.972   4.875  13.149  1.00  0.00     0.005 C 
ATOM      5  C   UNL     1       7.623   5.682  12.005  1.00  0.00     0.008 C 
ATOM      6  C   UNL     1       7.197   7.127  12.318  1.00  0.00     0.015 C 
ATOM      7  C   UNL     1       7.152   7.108  13.830  1.00  0.00     0.012 C 
ATOM      8  C   UNL     1       5.728   7.244  12.006  1.00  0.00    -0.068 C 
ATOM      9  C   UNL     1       5.213   7.879  10.947  1.00  0.00     0.008 C 
ATOM     10  C   UNL     1       4.039   7.400  13.875  1.00  0.00     0.016 C 
ENDROOT
TORSDOF 0
ENDMDL
MODEL 6
REMARK VINA RESULT:    -2.796      2.807      4.791
REMARK INTER + INTRA:          -2.796
REMARK INTER:                  -2.796
REMARK INTRA:                   0.000
REMARK UNBOUND:                 0.000
REMARK SMILES C=C1[C@@H]2CC[C@@H](C2)C1(C)C
REMARK SMILES IDX 9 1 8 2 6 3 5 4 4 5 3 6 7 7 2 8 1 9 10 10
REMARK H PARENT
REMARK Flexibility Score: inf
ROOT
ATOM      1  C   UNL     1       5.237   8.927  14.168  1.00  0.00     0.016 C 
ATOM      2  C   UNL     1       3.857   8.857  13.475  1.00  0.00    -0.012 C 
ATOM      3  C   UNL     1       2.956  10.119  13.723  1.00  0.00    -0.001 C 
ATOM      4  C   UNL     1       3.744  11.427  13.465  1.00  0.00     0.005 C 
ATOM      5  C   UNL     1       3.972  11.396  11.939  1.00  0.00     0.008 C 
ATOM      6  C   UNL     1       3.199  10.140  11.500  1.00  0.00     0.015 C 
ATOM      7  C   UNL     1       2.056  10.129  12.492  1.00  0.00     0.012 C 
ATOM      8  C   UNL     1       3.978   8.941  11.972  1.00  0.00    -0.068 C 
ATOM      9  C   UNL     1       4.696   8.131  11.186  1.00  0.00     0.008 C 
ATOM     10  C   UNL     1       3.139   7.562  13.913  1.00  0.00     0.016 C 
ENDROOT
TORSDOF 0
ENDMDL
