MODEL 1
REMARK VINA RESULT:    -5.393      0.000      0.000
REMARK INTER + INTRA:          -5.836
REMARK INTER:                  -5.709
REMARK INTRA:                  -0.128
REMARK UNBOUND:                -0.128
REMARK SMILES C=C(C)[C@@H]1CC=C(C)CC1
REMARK SMILES IDX 8 1 7 2 6 3 5 4 4 5 10 6 9 7 2 8 1 9 3 10
REMARK H PARENT
REMARK Flexibility Score: inf
ROOT
ATOM      1  C   UNL     1      17.373  24.401  72.013  1.00  0.00     0.039 C 
ATOM      2  C   UNL     1      17.102  22.964  71.665  1.00  0.00    -0.077 C 
ATOM      3  C   UNL     1      15.906  22.426  71.986  1.00  0.00    -0.027 C 
ATOM      4  C   UNL     1      15.518  21.011  71.633  1.00  0.00     0.035 C 
ATOM      5  C   UNL     1      16.745  20.114  71.397  1.00  0.00     0.018 C 
ATOM      6  C   UNL     1      17.732  20.818  70.453  1.00  0.00     0.013 C 
ATOM      7  C   UNL     1      18.225  22.126  71.085  1.00  0.00     0.031 C 
ENDROOT
BRANCH   5   8
ATOM      8  C   UNL     1      16.338  18.748  70.863  1.00  0.00    -0.077 C 
ATOM      9  C   UNL     1      16.205  18.554  69.540  1.00  0.00     0.008 C 
ATOM     10  C   UNL     1      16.086  17.583  71.789  1.00  0.00     0.039 C 
ENDBRANCH   5   8
TORSDOF 1
ENDMDL
MODEL 2
REMARK VINA RESULT:    -4.639     17.499     18.132
REMARK INTER + INTRA:          -5.038
REMARK INTER:                  -4.910
REMARK INTRA:                  -0.127
REMARK UNBOUND:                -0.128
REMARK SMILES C=C(C)[C@@H]1CC=C(C)CC1
REMARK SMILES IDX 8 1 7 2 6 3 5 4 4 5 10 6 9 7 2 8 1 9 3 10
REMARK H PARENT
REMARK Flexibility Score: inf
ROOT
ATOM      1  C   UNL     1       9.572  27.853  59.666  1.00  0.00     0.039 C 
ATOM      2  C   UNL     1      10.036  28.018  58.245  1.00  0.00    -0.077 C 
ATOM      3  C   UNL     1      10.361  29.251  57.800  1.00  0.00    -0.027 C 
ATOM      4  C   UNL     1      10.886  29.512  56.410  1.00  0.00     0.035 C 
ATOM      5  C   UNL     1      10.501  28.397  55.424  1.00  0.00     0.018 C 
ATOM      6  C   UNL     1      10.817  27.024  56.038  1.00  0.00     0.013 C 
ATOM      7  C   UNL     1      10.000  26.817  57.319  1.00  0.00     0.031 C 
ENDROOT
BRANCH   5   8
ATOM      8  C   UNL     1      11.192  28.581  54.080  1.00  0.00    -0.077 C 
ATOM      9  C   UNL     1      11.186  29.782  53.478  1.00  0.00     0.008 C 
ATOM     10  C   UNL     1      11.906  27.438  53.398  1.00  0.00     0.039 C 
ENDBRANCH   5   8
TORSDOF 1
ENDMDL
MODEL 3
REMARK VINA RESULT:    -4.476      9.561     12.209
REMARK INTER + INTRA:          -4.865
REMARK INTER:                  -4.736
REMARK INTRA:                  -0.129
REMARK UNBOUND:                -0.128
REMARK SMILES C=C(C)[C@@H]1CC=C(C)CC1
REMARK SMILES IDX 8 1 7 2 6 3 5 4 4 5 10 6 9 7 2 8 1 9 3 10
REMARK H PARENT
REMARK Flexibility Score: inf
ROOT
ATOM      1  C   UNL     1      15.322  15.304  58.744  1.00  0.00     0.039 C 
ATOM      2  C   UNL     1      16.465  15.854  59.553  1.00  0.00    -0.077 C 
ATOM      3  C   UNL     1      17.506  16.425  58.912  1.00  0.00    -0.027 C 
ATOM      4  C   UNL     1      18.673  17.052  59.634  1.00  0.00     0.035 C 
ATOM      5  C   UNL     1      18.833  16.507  61.063  1.00  0.00     0.018 C 
ATOM      6  C   UNL     1      17.477  16.530  61.786  1.00  0.00     0.013 C 
ATOM      7  C   UNL     1      16.472  15.632  61.053  1.00  0.00     0.031 C 
ENDROOT
BRANCH   5   8
ATOM      8  C   UNL     1      19.892  17.280  61.837  1.00  0.00    -0.077 C 
ATOM      9  C   UNL     1      19.562  17.932  62.964  1.00  0.00     0.008 C 
ATOM     10  C   UNL     1      21.328  17.328  61.373  1.00  0.00     0.039 C 
ENDBRANCH   5   8
TORSDOF 1
ENDMDL
MODEL 4
REMARK VINA RESULT:    -4.411      9.477     11.969
REMARK INTER + INTRA:          -4.796
REMARK INTER:                  -4.669
REMARK INTRA:                  -0.128
REMARK UNBOUND:                -0.128
REMARK SMILES C=C(C)[C@@H]1CC=C(C)CC1
REMARK SMILES IDX 8 1 7 2 6 3 5 4 4 5 10 6 9 7 2 8 1 9 3 10
REMARK H PARENT
REMARK Flexibility Score: inf
ROOT
ATOM      1  C   UNL     1      18.407  15.520  57.938  1.00  0.00     0.039 C 
ATOM      2  C   UNL     1      17.536  15.783  59.136  1.00  0.00    -0.077 C 
ATOM      3  C   UNL     1      18.116  15.964  60.341  1.00  0.00    -0.027 C 
ATOM      4  C   UNL     1      17.334  16.286  61.591  1.00  0.00     0.035 C 
ATOM      5  C   UNL     1      15.863  15.851  61.483  1.00  0.00     0.018 C 
ATOM      6  C   UNL     1      15.271  16.336  60.151  1.00  0.00     0.013 C 
ATOM      7  C   UNL     1      16.030  15.707  58.976  1.00  0.00     0.031 C 
ENDROOT
BRANCH   5   8
ATOM      8  C   UNL     1      15.049  16.348  62.671  1.00  0.00    -0.077 C 
ATOM      9  C   UNL     1      14.717  17.646  62.763  1.00  0.00     0.008 C 
ATOM     10  C   UNL     1      14.590  15.408  63.759  1.00  0.00     0.039 C 
ENDBRANCH   5   8
TORSDOF 1
ENDMDL
MODEL 5
REMARK VINA RESULT:    -4.410     16.831     17.641
REMARK INTER + INTRA:          -4.795
REMARK INTER:                  -4.672
REMARK INTRA:                  -0.123
REMARK UNBOUND:                -0.128
REMARK SMILES C=C(C)[C@@H]1CC=C(C)CC1
REMARK SMILES IDX 8 1 7 2 6 3 5 4 4 5 10 6 9 7 2 8 1 9 3 10
REMARK H PARENT
REMARK Flexibility Score: inf
ROOT
ATOM      1  C   UNL     1      10.939  28.616  53.592  1.00  0.00     0.039 C 
ATOM      2  C   UNL     1      11.014  28.834  55.078  1.00  0.00    -0.077 C 
ATOM      3  C   UNL     1      10.439  27.934  55.903  1.00  0.00    -0.027 C 
ATOM      4  C   UNL     1      10.506  28.036  57.407  1.00  0.00     0.035 C 
ATOM      5  C   UNL     1      10.779  29.473  57.880  1.00  0.00     0.018 C 
ATOM      6  C   UNL     1      11.957  30.067  57.092  1.00  0.00     0.013 C 
ATOM      7  C   UNL     1      11.618  30.125  55.598  1.00  0.00     0.031 C 
ENDROOT
BRANCH   5   8
ATOM      8  C   UNL     1      11.028  29.525  59.382  1.00  0.00    -0.077 C 
ATOM      9  C   UNL     1      10.034  29.240  60.239  1.00  0.00     0.008 C 
ATOM     10  C   UNL     1      12.383  29.882  59.943  1.00  0.00     0.039 C 
ENDBRANCH   5   8
TORSDOF 1
ENDMDL
MODEL 6
REMARK VINA RESULT:    -4.306      2.052      5.670
REMARK INTER + INTRA:          -4.685
REMARK INTER:                  -4.558
REMARK INTRA:                  -0.127
REMARK UNBOUND:                -0.128
REMARK SMILES C=C(C)[C@@H]1CC=C(C)CC1
REMARK SMILES IDX 8 1 7 2 6 3 5 4 4 5 10 6 9 7 2 8 1 9 3 10
REMARK H PARENT
REMARK Flexibility Score: inf
ROOT
ATOM      1  C   UNL     1      18.054  20.684  70.526  1.00  0.00     0.039 C 
ATOM      2  C   UNL     1      18.032  22.170  70.757  1.00  0.00    -0.077 C 
ATOM      3  C   UNL     1      17.298  22.664  71.777  1.00  0.00    -0.027 C 
ATOM      4  C   UNL     1      17.253  24.132  72.122  1.00  0.00     0.035 C 
ATOM      5  C   UNL     1      17.641  25.022  70.930  1.00  0.00     0.018 C 
ATOM      6  C   UNL     1      18.936  24.501  70.288  1.00  0.00     0.013 C 
ATOM      7  C   UNL     1      18.727  23.076  69.759  1.00  0.00     0.031 C 
ENDROOT
BRANCH   5   8
ATOM      8  C   UNL     1      17.771  26.481  71.346  1.00  0.00    -0.077 C 
ATOM      9  C   UNL     1      16.781  27.077  72.031  1.00  0.00     0.008 C 
ATOM     10  C   UNL     1      19.004  27.288  71.014  1.00  0.00     0.039 C 
ENDBRANCH   5   8
TORSDOF 1
ENDMDL
MODEL 7
REMARK VINA RESULT:    -4.270      9.576     12.181
REMARK INTER + INTRA:          -4.647
REMARK INTER:                  -4.525
REMARK INTRA:                  -0.121
REMARK UNBOUND:                -0.128
REMARK SMILES C=C(C)[C@@H]1CC=C(C)CC1
REMARK SMILES IDX 8 1 7 2 6 3 5 4 4 5 10 6 9 7 2 8 1 9 3 10
REMARK H PARENT
REMARK Flexibility Score: inf
ROOT
ATOM      1  C   UNL     1      18.557  15.491  57.729  1.00  0.00     0.039 C 
ATOM      2  C   UNL     1      17.658  15.718  58.913  1.00  0.00    -0.077 C 
ATOM      3  C   UNL     1      16.334  15.483  58.785  1.00  0.00    -0.027 C 
ATOM      4  C   UNL     1      15.359  15.630  59.926  1.00  0.00     0.035 C 
ATOM      5  C   UNL     1      15.889  16.562  61.028  1.00  0.00     0.018 C 
ATOM      6  C   UNL     1      17.329  16.173  61.393  1.00  0.00     0.013 C 
ATOM      7  C   UNL     1      18.244  16.327  60.172  1.00  0.00     0.031 C 
ENDROOT
BRANCH   5   8
ATOM      8  C   UNL     1      14.979  16.551  62.249  1.00  0.00    -0.077 C 
ATOM      9  C   UNL     1      14.589  17.708  62.809  1.00  0.00     0.008 C 
ATOM     10  C   UNL     1      14.487  15.257  62.852  1.00  0.00     0.039 C 
ENDBRANCH   5   8
TORSDOF 1
ENDMDL
MODEL 8
REMARK VINA RESULT:    -4.210      9.187     11.431
REMARK INTER + INTRA:          -4.583
REMARK INTER:                  -4.452
REMARK INTRA:                  -0.131
REMARK UNBOUND:                -0.128
REMARK SMILES C=C(C)[C@@H]1CC=C(C)CC1
REMARK SMILES IDX 8 1 7 2 6 3 5 4 4 5 10 6 9 7 2 8 1 9 3 10
REMARK H PARENT
REMARK Flexibility Score: inf
ROOT
ATOM      1  C   UNL     1      13.752  15.105  64.986  1.00  0.00     0.039 C 
ATOM      2  C   UNL     1      14.341  15.387  63.632  1.00  0.00    -0.077 C 
ATOM      3  C   UNL     1      14.524  14.364  62.770  1.00  0.00    -0.027 C 
ATOM      4  C   UNL     1      15.057  14.552  61.371  1.00  0.00     0.035 C 
ATOM      5  C   UNL     1      15.859  15.856  61.225  1.00  0.00     0.018 C 
ATOM      6  C   UNL     1      15.066  17.026  61.827  1.00  0.00     0.013 C 
ATOM      7  C   UNL     1      14.830  16.790  63.324  1.00  0.00     0.031 C 
ENDROOT
BRANCH   5   8
ATOM      8  C   UNL     1      16.227  16.120  59.771  1.00  0.00    -0.077 C 
ATOM      9  C   UNL     1      15.527  15.541  58.783  1.00  0.00     0.008 C 
ATOM     10  C   UNL     1      17.369  17.037  59.402  1.00  0.00     0.039 C 
ENDBRANCH   5   8
TORSDOF 1
ENDMDL
MODEL 9
REMARK VINA RESULT:    -4.050     16.981     17.547
REMARK INTER + INTRA:          -4.414
REMARK INTER:                  -4.284
REMARK INTRA:                  -0.130
REMARK UNBOUND:                -0.128
REMARK SMILES C=C(C)[C@@H]1CC=C(C)CC1
REMARK SMILES IDX 8 1 7 2 6 3 5 4 4 5 10 6 9 7 2 8 1 9 3 10
REMARK H PARENT
REMARK Flexibility Score: inf
ROOT
ATOM      1  C   UNL     1      11.262  29.993  53.738  1.00  0.00     0.039 C 
ATOM      2  C   UNL     1      10.970  29.482  55.122  1.00  0.00    -0.077 C 
ATOM      3  C   UNL     1      11.566  30.074  56.179  1.00  0.00    -0.027 C 
ATOM      4  C   UNL     1      11.298  29.668  57.608  1.00  0.00     0.035 C 
ATOM      5  C   UNL     1      10.756  28.233  57.713  1.00  0.00     0.018 C 
ATOM      6  C   UNL     1       9.610  28.033  56.710  1.00  0.00     0.013 C 
ATOM      7  C   UNL     1      10.120  28.235  55.277  1.00  0.00     0.031 C 
ENDROOT
BRANCH   5   8
ATOM      8  C   UNL     1      10.317  27.909  59.135  1.00  0.00    -0.077 C 
ATOM      9  C   UNL     1       9.151  27.280  59.353  1.00  0.00     0.008 C 
ATOM     10  C   UNL     1      11.174  28.270  60.325  1.00  0.00     0.039 C 
ENDBRANCH   5   8
TORSDOF 1
ENDMDL
