MODEL 1
REMARK VINA RESULT:    -4.603      0.000      0.000
REMARK INTER + INTRA:          -5.269
REMARK INTER:                  -5.141
REMARK INTRA:                  -0.127
REMARK UNBOUND:                -0.127
REMARK SMILES O=C([O-])C=Cc1ccccc1
REMARK SMILES IDX 4 1 5 2 2 3 1 4 3 5 6 6 7 7 11 8 8 9 10 10 9 11
REMARK H PARENT
REMARK Flexibility Score: inf
ROOT
ATOM      1  C   UNL     1      25.721   7.808  -4.458  1.00  0.00     0.025 C 
ATOM      2  C   UNL     1      25.122   6.753  -5.031  1.00  0.00     0.010 C 
ENDROOT
BRANCH   1   3
ATOM      3  C   UNL     1      24.962   8.992  -4.028  1.00  0.00     0.064 C 
ATOM      4  O   UNL     1      24.396   9.714  -4.891  1.00  0.00    -0.545 OA
ATOM      5  O   UNL     1      24.856   9.329  -2.683  1.00  0.00    -0.545 OA
ENDBRANCH   1   3
BRANCH   2   6
ATOM      6  C   UNL     1      25.823   5.523  -5.492  1.00  0.00    -0.026 A 
ATOM      7  C   UNL     1      26.426   5.404  -6.763  1.00  0.00     0.008 A 
ATOM      8  C   UNL     1      25.887   4.428  -4.612  1.00  0.00     0.008 A 
ATOM      9  C   UNL     1      27.069   4.218  -7.133  1.00  0.00     0.001 A 
ATOM     10  C   UNL     1      26.532   3.246  -4.988  1.00  0.00     0.001 A 
ATOM     11  C   UNL     1      27.123   3.141  -6.247  1.00  0.00     0.000 A 
ENDBRANCH   2   6
TORSDOF 2
ENDMDL
MODEL 2
REMARK VINA RESULT:    -4.564      0.277      1.485
REMARK INTER + INTRA:          -5.225
REMARK INTER:                  -5.095
REMARK INTRA:                  -0.129
REMARK UNBOUND:                -0.127
REMARK SMILES O=C([O-])C=Cc1ccccc1
REMARK SMILES IDX 4 1 5 2 2 3 1 4 3 5 6 6 7 7 11 8 8 9 10 10 9 11
REMARK H PARENT
REMARK Flexibility Score: inf
ROOT
ATOM      1  C   UNL     1      25.376   7.631  -4.226  1.00  0.00     0.025 C 
ATOM      2  C   UNL     1      25.013   6.772  -5.190  1.00  0.00     0.010 C 
ENDROOT
BRANCH   1   3
ATOM      3  C   UNL     1      24.608   8.855  -3.948  1.00  0.00     0.064 C 
ATOM      4  O   UNL     1      23.908   9.370  -4.860  1.00  0.00    -0.545 OA
ATOM      5  O   UNL     1      24.639   9.454  -2.694  1.00  0.00    -0.545 OA
ENDBRANCH   1   3
BRANCH   2   6
ATOM      6  C   UNL     1      25.739   5.517  -5.529  1.00  0.00    -0.026 A 
ATOM      7  C   UNL     1      25.820   4.409  -4.658  1.00  0.00     0.008 A 
ATOM      8  C   UNL     1      26.373   5.436  -6.782  1.00  0.00     0.008 A 
ATOM      9  C   UNL     1      26.519   3.258  -5.039  1.00  0.00     0.001 A 
ATOM     10  C   UNL     1      27.069   4.283  -7.157  1.00  0.00     0.001 A 
ATOM     11  C   UNL     1      27.142   3.195  -6.287  1.00  0.00     0.000 A 
ENDBRANCH   2   6
TORSDOF 2
ENDMDL
MODEL 3
REMARK VINA RESULT:    -4.245      1.101      1.939
REMARK INTER + INTRA:          -4.868
REMARK INTER:                  -4.726
REMARK INTRA:                  -0.143
REMARK UNBOUND:                -0.127
REMARK SMILES O=C([O-])C=Cc1ccccc1
REMARK SMILES IDX 4 1 5 2 2 3 1 4 3 5 6 6 7 7 11 8 8 9 10 10 9 11
REMARK H PARENT
REMARK Flexibility Score: inf
ROOT
ATOM      1  C   UNL     1      25.631   7.167  -4.988  1.00  0.00     0.025 C 
ATOM      2  C   UNL     1      25.544   5.832  -4.882  1.00  0.00     0.010 C 
ENDROOT
BRANCH   1   3
ATOM      3  C   UNL     1      25.126   8.062  -3.935  1.00  0.00     0.064 C 
ATOM      4  O   UNL     1      25.835   9.028  -3.548  1.00  0.00    -0.545 OA
ATOM      5  O   UNL     1      23.876   7.862  -3.360  1.00  0.00    -0.545 OA
ENDBRANCH   1   3
BRANCH   2   6
ATOM      6  C   UNL     1      26.031   4.865  -5.904  1.00  0.00    -0.026 A 
ATOM      7  C   UNL     1      26.397   3.535  -5.600  1.00  0.00     0.008 A 
ATOM      8  C   UNL     1      26.127   5.301  -7.238  1.00  0.00     0.008 A 
ATOM      9  C   UNL     1      26.847   2.677  -6.609  1.00  0.00     0.001 A 
ATOM     10  C   UNL     1      26.577   4.438  -8.241  1.00  0.00     0.001 A 
ATOM     11  C   UNL     1      26.936   3.127  -7.927  1.00  0.00     0.000 A 
ENDBRANCH   2   6
TORSDOF 2
ENDMDL
MODEL 4
REMARK VINA RESULT:    -4.213      5.133      6.676
REMARK INTER + INTRA:          -4.834
REMARK INTER:                  -4.700
REMARK INTRA:                  -0.133
REMARK UNBOUND:                -0.127
REMARK SMILES O=C([O-])C=Cc1ccccc1
REMARK SMILES IDX 4 1 5 2 2 3 1 4 3 5 6 6 7 7 11 8 8 9 10 10 9 11
REMARK H PARENT
REMARK Flexibility Score: inf
ROOT
ATOM      1  C   UNL     1      26.750   0.894  -7.143  1.00  0.00     0.025 C 
ATOM      2  C   UNL     1      27.420   2.049  -7.018  1.00  0.00     0.010 C 
ENDROOT
BRANCH   1   3
ATOM      3  C   UNL     1      27.419  -0.351  -7.553  1.00  0.00     0.064 C 
ATOM      4  O   UNL     1      26.727  -1.362  -7.842  1.00  0.00    -0.545 OA
ATOM      5  O   UNL     1      28.805  -0.431  -7.630  1.00  0.00    -0.545 OA
ENDBRANCH   1   3
BRANCH   2   6
ATOM      6  C   UNL     1      26.813   3.345  -6.609  1.00  0.00    -0.026 A 
ATOM      7  C   UNL     1      26.719   4.462  -7.467  1.00  0.00     0.008 A 
ATOM      8  C   UNL     1      26.307   3.456  -5.301  1.00  0.00     0.008 A 
ATOM      9  C   UNL     1      26.136   5.653  -7.018  1.00  0.00     0.001 A 
ATOM     10  C   UNL     1      25.725   4.648  -4.860  1.00  0.00     0.001 A 
ATOM     11  C   UNL     1      25.639   5.745  -5.717  1.00  0.00     0.000 A 
ENDBRANCH   2   6
TORSDOF 2
ENDMDL
MODEL 5
REMARK VINA RESULT:    -4.076     15.255     15.841
REMARK INTER + INTRA:          -4.680
REMARK INTER:                  -4.533
REMARK INTRA:                  -0.147
REMARK UNBOUND:                -0.127
REMARK SMILES O=C([O-])C=Cc1ccccc1
REMARK SMILES IDX 4 1 5 2 2 3 1 4 3 5 6 6 7 7 11 8 8 9 10 10 9 11
REMARK H PARENT
REMARK Flexibility Score: inf
ROOT
ATOM      1  C   UNL     1      31.008  12.913   7.936  1.00  0.00     0.025 C 
ATOM      2  C   UNL     1      30.315  11.785   8.150  1.00  0.00     0.010 C 
ENDROOT
BRANCH   1   3
ATOM      3  C   UNL     1      32.407  12.890   7.483  1.00  0.00     0.064 C 
ATOM      4  O   UNL     1      33.191  12.011   7.930  1.00  0.00    -0.545 OA
ATOM      5  O   UNL     1      32.882  13.823   6.567  1.00  0.00    -0.545 OA
ENDBRANCH   1   3
BRANCH   2   6
ATOM      6  C   UNL     1      28.900  11.729   8.608  1.00  0.00    -0.026 A 
ATOM      7  C   UNL     1      28.237  10.525   8.934  1.00  0.00     0.008 A 
ATOM      8  C   UNL     1      28.191  12.939   8.721  1.00  0.00     0.008 A 
ATOM      9  C   UNL     1      26.904  10.543   9.359  1.00  0.00     0.001 A 
ATOM     10  C   UNL     1      26.860  12.950   9.147  1.00  0.00     0.001 A 
ATOM     11  C   UNL     1      26.217  11.753   9.466  1.00  0.00     0.000 A 
ENDBRANCH   2   6
TORSDOF 2
ENDMDL
MODEL 6
REMARK VINA RESULT:    -4.049     14.840     15.770
REMARK INTER + INTRA:          -4.649
REMARK INTER:                  -4.509
REMARK INTRA:                  -0.140
REMARK UNBOUND:                -0.127
REMARK SMILES O=C([O-])C=Cc1ccccc1
REMARK SMILES IDX 4 1 5 2 2 3 1 4 3 5 6 6 7 7 11 8 8 9 10 10 9 11
REMARK H PARENT
REMARK Flexibility Score: inf
ROOT
ATOM      1  C   UNL     1      27.984  10.864   9.524  1.00  0.00     0.025 C 
ATOM      2  C   UNL     1      28.765  11.065   8.451  1.00  0.00     0.010 C 
ENDROOT
BRANCH   1   3
ATOM      3  C   UNL     1      26.584  10.431   9.394  1.00  0.00     0.064 C 
ATOM      4  O   UNL     1      25.682  11.291   9.213  1.00  0.00    -0.545 OA
ATOM      5  O   UNL     1      26.237   9.086   9.466  1.00  0.00    -0.545 OA
ENDBRANCH   1   3
BRANCH   2   6
ATOM      6  C   UNL     1      30.187  11.503   8.504  1.00  0.00    -0.026 A 
ATOM      7  C   UNL     1      31.153  11.114   7.551  1.00  0.00     0.008 A 
ATOM      8  C   UNL     1      30.582  12.347   9.557  1.00  0.00     0.008 A 
ATOM      9  C   UNL     1      32.475  11.561   7.659  1.00  0.00     0.001 A 
ATOM     10  C   UNL     1      31.904  12.791   9.659  1.00  0.00     0.001 A 
ATOM     11  C   UNL     1      32.849  12.399   8.710  1.00  0.00     0.000 A 
ENDBRANCH   2   6
TORSDOF 2
ENDMDL
MODEL 7
REMARK VINA RESULT:    -4.044      5.538      7.186
REMARK INTER + INTRA:          -4.644
REMARK INTER:                  -4.514
REMARK INTRA:                  -0.130
REMARK UNBOUND:                -0.127
REMARK SMILES O=C([O-])C=Cc1ccccc1
REMARK SMILES IDX 4 1 5 2 2 3 1 4 3 5 6 6 7 7 11 8 8 9 10 10 9 11
REMARK H PARENT
REMARK Flexibility Score: inf
ROOT
ATOM      1  C   UNL     1      27.018   0.713  -7.617  1.00  0.00     0.025 C 
ATOM      2  C   UNL     1      27.655   1.874  -7.830  1.00  0.00     0.010 C 
ENDROOT
BRANCH   1   3
ATOM      3  C   UNL     1      27.745  -0.560  -7.497  1.00  0.00     0.064 C 
ATOM      4  O   UNL     1      27.102  -1.629  -7.328  1.00  0.00    -0.545 OA
ATOM      5  O   UNL     1      29.133  -0.605  -7.569  1.00  0.00    -0.545 OA
ENDBRANCH   1   3
BRANCH   2   6
ATOM      6  C   UNL     1      26.989   3.199  -7.963  1.00  0.00    -0.026 A 
ATOM      7  C   UNL     1      26.887   4.126  -6.903  1.00  0.00     0.008 A 
ATOM      8  C   UNL     1      26.436   3.541  -9.211  1.00  0.00     0.008 A 
ATOM      9  C   UNL     1      26.247   5.355  -7.095  1.00  0.00     0.001 A 
ATOM     10  C   UNL     1      25.798   4.771  -9.396  1.00  0.00     0.001 A 
ATOM     11  C   UNL     1      25.704   5.677  -8.340  1.00  0.00     0.000 A 
ENDBRANCH   2   6
TORSDOF 2
ENDMDL
MODEL 8
REMARK VINA RESULT:    -3.976      2.972      5.472
REMARK INTER + INTRA:          -4.568
REMARK INTER:                  -4.429
REMARK INTRA:                  -0.139
REMARK UNBOUND:                -0.127
REMARK SMILES O=C([O-])C=Cc1ccccc1
REMARK SMILES IDX 4 1 5 2 2 3 1 4 3 5 6 6 7 7 11 8 8 9 10 10 9 11
REMARK H PARENT
REMARK Flexibility Score: inf
ROOT
ATOM      1  C   UNL     1      25.797   5.914  -5.915  1.00  0.00     0.025 C 
ATOM      2  C   UNL     1      25.375   6.258  -4.690  1.00  0.00     0.010 C 
ENDROOT
BRANCH   1   3
ATOM      3  C   UNL     1      25.837   4.511  -6.356  1.00  0.00     0.064 C 
ATOM      4  O   UNL     1      24.803   3.799  -6.256  1.00  0.00    -0.545 OA
ATOM      5  O   UNL     1      26.997   3.955  -6.884  1.00  0.00    -0.545 OA
ENDBRANCH   1   3
BRANCH   2   6
ATOM      6  C   UNL     1      25.307   7.653  -4.173  1.00  0.00    -0.026 A 
ATOM      7  C   UNL     1      24.250   8.132  -3.369  1.00  0.00     0.008 A 
ATOM      8  C   UNL     1      26.353   8.534  -4.504  1.00  0.00     0.008 A 
ATOM      9  C   UNL     1      24.248   9.456  -2.917  1.00  0.00     0.001 A 
ATOM     10  C   UNL     1      26.346   9.855  -4.049  1.00  0.00     0.001 A 
ATOM     11  C   UNL     1      25.295  10.316  -3.255  1.00  0.00     0.000 A 
ENDBRANCH   2   6
TORSDOF 2
ENDMDL
MODEL 9
REMARK VINA RESULT:    -3.945     10.633     12.525
REMARK INTER + INTRA:          -4.534
REMARK INTER:                  -4.400
REMARK INTRA:                  -0.134
REMARK UNBOUND:                -0.127
REMARK SMILES O=C([O-])C=Cc1ccccc1
REMARK SMILES IDX 4 1 5 2 2 3 1 4 3 5 6 6 7 7 11 8 8 9 10 10 9 11
REMARK H PARENT
REMARK Flexibility Score: inf
ROOT
ATOM      1  C   UNL     1      32.911  -4.273  -7.104  1.00  0.00     0.025 C 
ATOM      2  C   UNL     1      31.682  -4.437  -6.593  1.00  0.00     0.010 C 
ENDROOT
BRANCH   1   3
ATOM      3  C   UNL     1      33.955  -5.299  -6.958  1.00  0.00     0.064 C 
ATOM      4  O   UNL     1      34.017  -5.976  -5.898  1.00  0.00    -0.545 OA
ATOM      5  O   UNL     1      34.877  -5.537  -7.972  1.00  0.00    -0.545 OA
ENDBRANCH   1   3
BRANCH   2   6
ATOM      6  C   UNL     1      30.576  -3.445  -6.700  1.00  0.00    -0.026 A 
ATOM      7  C   UNL     1      30.749  -2.145  -7.223  1.00  0.00     0.008 A 
ATOM      8  C   UNL     1      29.297  -3.828  -6.258  1.00  0.00     0.008 A 
ATOM      9  C   UNL     1      29.666  -1.261  -7.296  1.00  0.00     0.001 A 
ATOM     10  C   UNL     1      28.220  -2.940  -6.333  1.00  0.00     0.001 A 
ATOM     11  C   UNL     1      28.404  -1.658  -6.852  1.00  0.00     0.000 A 
ENDBRANCH   2   6
TORSDOF 2
ENDMDL
