MODEL 1
REMARK VINA RESULT:    -2.804      0.000      0.000
REMARK INTER + INTRA:          -3.407
REMARK INTER:                  -3.132
REMARK INTRA:                  -0.275
REMARK UNBOUND:                -0.275
REMARK SMILES CC(=O)O[C@H]1C[C@@H]2CC[C@@]1(C)C2(C)C
REMARK SMILES IDX 4 1 2 2 1 3 3 4 5 5 6 6 10 7 7 8 9 9 12 10 11 11 8 12 13 13
REMARK SMILES IDX 14 14
REMARK H PARENT
REMARK Flexibility Score: inf
ROOT
ATOM      1  O   UNL     1      22.113  80.839 100.839  1.00  0.00    -0.462 OA
ENDROOT
BRANCH   1   2
ATOM      2  C   UNL     1      21.502  80.592 102.074  1.00  0.00     0.302 C 
ATOM      3  C   UNL     1      21.570  79.224 102.661  1.00  0.00     0.139 C 
ATOM      4  O   UNL     1      20.939  81.520 102.715  1.00  0.00    -0.253 OA
ENDBRANCH   1   2
BRANCH   1   5
ATOM      5  C   UNL     1      21.700  80.231  99.613  1.00  0.00     0.183 C 
ATOM      6  C   UNL     1      20.158  80.204  99.512  1.00  0.00     0.050 C 
ATOM      7  C   UNL     1      22.094  81.068  98.353  1.00  0.00     0.010 C 
ATOM      8  C   UNL     1      19.875  80.985  98.204  1.00  0.00    -0.001 C 
ATOM      9  C   UNL     1      21.865  80.122  97.141  1.00  0.00     0.011 C 
ATOM     10  C   UNL     1      20.941  82.091  98.209  1.00  0.00    -0.024 C 
ATOM     11  C   UNL     1      23.511  81.661  98.379  1.00  0.00     0.016 C 
ATOM     12  C   UNL     1      20.327  80.062  97.045  1.00  0.00     0.005 C 
ATOM     13  C   UNL     1      20.967  82.948  96.905  1.00  0.00     0.012 C 
ATOM     14  C   UNL     1      20.782  83.112  99.378  1.00  0.00     0.012 C 
ENDBRANCH   1   5
TORSDOF 2
ENDMDL
MODEL 2
REMARK VINA RESULT:    -2.701     22.595     23.993
REMARK INTER + INTRA:          -3.292
REMARK INTER:                  -2.988
REMARK INTRA:                  -0.304
REMARK UNBOUND:                -0.275
REMARK SMILES CC(=O)O[C@H]1C[C@@H]2CC[C@@]1(C)C2(C)C
REMARK SMILES IDX 4 1 2 2 1 3 3 4 5 5 6 6 10 7 7 8 9 9 12 10 11 11 8 12 13 13
REMARK SMILES IDX 14 14
REMARK H PARENT
REMARK Flexibility Score: inf
ROOT
ATOM      1  O   UNL     1      37.287  64.908  96.914  1.00  0.00    -0.462 OA
ENDROOT
BRANCH   1   2
ATOM      2  C   UNL     1      36.874  64.278  95.736  1.00  0.00     0.302 C 
ATOM      3  C   UNL     1      37.860  63.482  94.949  1.00  0.00     0.139 C 
ATOM      4  O   UNL     1      35.674  64.334  95.357  1.00  0.00    -0.253 OA
ENDBRANCH   1   2
BRANCH   1   5
ATOM      5  C   UNL     1      36.959  64.438  98.224  1.00  0.00     0.183 C 
ATOM      6  C   UNL     1      37.270  62.930  98.354  1.00  0.00     0.050 C 
ATOM      7  C   UNL     1      37.865  65.055  99.339  1.00  0.00     0.010 C 
ATOM      8  C   UNL     1      38.270  62.875  99.536  1.00  0.00    -0.001 C 
ATOM      9  C   UNL     1      37.169  64.694 100.682  1.00  0.00     0.011 C 
ATOM     10  C   UNL     1      39.117  64.144  99.349  1.00  0.00    -0.024 C 
ATOM     11  C   UNL     1      38.138  66.560  99.202  1.00  0.00     0.016 C 
ATOM     12  C   UNL     1      37.447  63.183 100.812  1.00  0.00     0.005 C 
ATOM     13  C   UNL     1      40.125  64.406 100.511  1.00  0.00     0.012 C 
ATOM     14  C   UNL     1      39.972  64.141  98.044  1.00  0.00     0.012 C 
ENDBRANCH   1   5
TORSDOF 2
ENDMDL
MODEL 3
REMARK VINA RESULT:    -2.486     22.798     24.139
REMARK INTER + INTRA:          -3.052
REMARK INTER:                  -2.702
REMARK INTRA:                  -0.350
REMARK UNBOUND:                -0.275
REMARK SMILES CC(=O)O[C@H]1C[C@@H]2CC[C@@]1(C)C2(C)C
REMARK SMILES IDX 4 1 2 2 1 3 3 4 5 5 6 6 10 7 7 8 9 9 12 10 11 11 8 12 13 13
REMARK SMILES IDX 14 14
REMARK H PARENT
REMARK Flexibility Score: inf
ROOT
ATOM      1  O   UNL     1      37.642  63.449  96.528  1.00  0.00    -0.462 OA
ENDROOT
BRANCH   1   2
ATOM      2  C   UNL     1      36.541  63.580  95.675  1.00  0.00     0.302 C 
ATOM      3  C   UNL     1      35.218  63.040  96.101  1.00  0.00     0.139 C 
ATOM      4  O   UNL     1      36.642  64.188  94.576  1.00  0.00    -0.253 OA
ENDBRANCH   1   2
BRANCH   1   5
ATOM      5  C   UNL     1      38.310  64.556  97.140  1.00  0.00     0.183 C 
ATOM      6  C   UNL     1      37.297  65.461  97.878  1.00  0.00     0.050 C 
ATOM      7  C   UNL     1      39.268  64.127  98.299  1.00  0.00     0.010 C 
ATOM      8  C   UNL     1      37.822  65.463  99.336  1.00  0.00    -0.001 C 
ATOM      9  C   UNL     1      40.125  65.385  98.611  1.00  0.00     0.011 C 
ATOM     10  C   UNL     1      38.340  64.030  99.534  1.00  0.00    -0.024 C 
ATOM     11  C   UNL     1      40.125  62.885  98.012  1.00  0.00     0.016 C 
ATOM     12  C   UNL     1      39.119  66.311  99.325  1.00  0.00     0.005 C 
ATOM     13  C   UNL     1      39.064  63.805 100.898  1.00  0.00     0.012 C 
ATOM     14  C   UNL     1      37.222  62.944  99.468  1.00  0.00     0.012 C 
ENDBRANCH   1   5
TORSDOF 2
ENDMDL
MODEL 4
REMARK VINA RESULT:    -2.479      1.648      2.837
REMARK INTER + INTRA:          -3.044
REMARK INTER:                  -2.777
REMARK INTRA:                  -0.267
REMARK UNBOUND:                -0.275
REMARK SMILES CC(=O)O[C@H]1C[C@@H]2CC[C@@]1(C)C2(C)C
REMARK SMILES IDX 4 1 2 2 1 3 3 4 5 5 6 6 10 7 7 8 9 9 12 10 11 11 8 12 13 13
REMARK SMILES IDX 14 14
REMARK H PARENT
REMARK Flexibility Score: inf
ROOT
ATOM      1  O   UNL     1      20.235  80.205  99.958  1.00  0.00    -0.462 OA
ENDROOT
BRANCH   1   2
ATOM      2  C   UNL     1      20.240  78.841 100.265  1.00  0.00     0.302 C 
ATOM      3  C   UNL     1      19.888  77.852  99.206  1.00  0.00     0.139 C 
ATOM      4  O   UNL     1      20.584  78.435 101.408  1.00  0.00    -0.253 OA
ENDBRANCH   1   2
BRANCH   1   5
ATOM      5  C   UNL     1      21.416  80.962  99.677  1.00  0.00     0.183 C 
ATOM      6  C   UNL     1      22.296  80.229  98.639  1.00  0.00     0.050 C 
ATOM      7  C   UNL     1      21.117  82.315  98.953  1.00  0.00     0.010 C 
ATOM      8  C   UNL     1      22.418  81.259  97.488  1.00  0.00    -0.001 C 
ATOM      9  C   UNL     1      22.444  83.122  99.026  1.00  0.00     0.011 C 
ATOM     10  C   UNL     1      21.034  81.927  97.457  1.00  0.00    -0.024 C 
ATOM     11  C   UNL     1      19.918  83.100  99.505  1.00  0.00     0.016 C 
ATOM     12  C   UNL     1      23.343  82.384  98.013  1.00  0.00     0.005 C 
ATOM     13  C   UNL     1      20.935  83.125  96.461  1.00  0.00     0.012 C 
ATOM     14  C   UNL     1      19.877  80.958  97.063  1.00  0.00     0.012 C 
ENDBRANCH   1   5
TORSDOF 2
ENDMDL
MODEL 5
REMARK VINA RESULT:    -2.418      1.404      2.424
REMARK INTER + INTRA:          -2.976
REMARK INTER:                  -2.677
REMARK INTRA:                  -0.298
REMARK UNBOUND:                -0.275
REMARK SMILES CC(=O)O[C@H]1C[C@@H]2CC[C@@]1(C)C2(C)C
REMARK SMILES IDX 4 1 2 2 1 3 3 4 5 5 6 6 10 7 7 8 9 9 12 10 11 11 8 12 13 13
REMARK SMILES IDX 14 14
REMARK H PARENT
REMARK Flexibility Score: inf
ROOT
ATOM      1  O   UNL     1      21.773  79.921 101.103  1.00  0.00    -0.462 OA
ENDROOT
BRANCH   1   2
ATOM      2  C   UNL     1      21.304  78.973 102.018  1.00  0.00     0.302 C 
ATOM      3  C   UNL     1      20.397  77.888 101.547  1.00  0.00     0.139 C 
ATOM      4  O   UNL     1      21.675  78.996 103.223  1.00  0.00    -0.253 OA
ENDBRANCH   1   2
BRANCH   1   5
ATOM      5  C   UNL     1      20.934  80.876 100.448  1.00  0.00     0.183 C 
ATOM      6  C   UNL     1      21.394  82.316 100.773  1.00  0.00     0.050 C 
ATOM      7  C   UNL     1      21.064  80.837  98.890  1.00  0.00     0.010 C 
ATOM      8  C   UNL     1      21.686  82.918  99.375  1.00  0.00    -0.001 C 
ATOM      9  C   UNL     1      19.876  81.685  98.356  1.00  0.00     0.011 C 
ATOM     10  C   UNL     1      22.287  81.739  98.595  1.00  0.00    -0.024 C 
ATOM     11  C   UNL     1      21.110  79.431  98.274  1.00  0.00     0.016 C 
ATOM     12  C   UNL     1      20.308  83.125  98.699  1.00  0.00     0.005 C 
ATOM     13  C   UNL     1      22.542  82.046  97.086  1.00  0.00     0.012 C 
ATOM     14  C   UNL     1      23.655  81.244  99.159  1.00  0.00     0.012 C 
ENDBRANCH   1   5
TORSDOF 2
ENDMDL
MODEL 6
REMARK VINA RESULT:    -2.141      1.668      2.551
REMARK INTER + INTRA:          -2.667
REMARK INTER:                  -2.425
REMARK INTRA:                  -0.242
REMARK UNBOUND:                -0.275
REMARK SMILES CC(=O)O[C@H]1C[C@@H]2CC[C@@]1(C)C2(C)C
REMARK SMILES IDX 4 1 2 2 1 3 3 4 5 5 6 6 10 7 7 8 9 9 12 10 11 11 8 12 13 13
REMARK SMILES IDX 14 14
REMARK H PARENT
REMARK Flexibility Score: inf
ROOT
ATOM      1  O   UNL     1      21.118  79.465 100.171  1.00  0.00    -0.462 OA
ENDROOT
BRANCH   1   2
ATOM      2  C   UNL     1      20.510  78.396 100.837  1.00  0.00     0.302 C 
ATOM      3  C   UNL     1      20.551  78.345 102.326  1.00  0.00     0.139 C 
ATOM      4  O   UNL     1      19.891  77.503 100.199  1.00  0.00    -0.253 OA
ENDBRANCH   1   2
BRANCH   1   5
ATOM      5  C   UNL     1      20.393  80.525  99.541  1.00  0.00     0.183 C 
ATOM      6  C   UNL     1      20.578  81.848 100.319  1.00  0.00     0.050 C 
ATOM      7  C   UNL     1      20.955  80.896  98.130  1.00  0.00     0.010 C 
ATOM      8  C   UNL     1      21.178  82.802  99.256  1.00  0.00    -0.001 C 
ATOM      9  C   UNL     1      19.875  81.807  97.483  1.00  0.00     0.011 C 
ATOM     10  C   UNL     1      22.102  81.890  98.435  1.00  0.00    -0.024 C 
ATOM     11  C   UNL     1      21.329  79.701  97.241  1.00  0.00     0.016 C 
ATOM     12  C   UNL     1      20.029  83.125  98.269  1.00  0.00     0.005 C 
ATOM     13  C   UNL     1      22.731  82.587  97.188  1.00  0.00     0.012 C 
ATOM     14  C   UNL     1      23.305  81.319  99.248  1.00  0.00     0.012 C 
ENDBRANCH   1   5
TORSDOF 2
ENDMDL
