MODEL 1
REMARK VINA RESULT:    -5.449      0.000      0.000
REMARK INTER + INTRA:          -6.407
REMARK INTER:                  -6.245
REMARK INTRA:                  -0.162
REMARK UNBOUND:                -0.162
REMARK SMILES CC=Cc1ccc(O)c(OC)c1
REMARK SMILES IDX 4 1 12 2 9 3 7 4 6 5 5 6 3 7 1 8 2 9 10 10 11 11 8 12
REMARK H PARENT 8 13
REMARK Flexibility Score: inf
ROOT
ATOM      1  C   UNL     1     -10.191  -6.029  -5.768  1.00  0.00    -0.022 A 
ATOM      2  C   UNL     1      -9.942  -5.598  -7.086  1.00  0.00     0.058 A 
ATOM      3  C   UNL     1     -10.777  -4.639  -7.699  1.00  0.00     0.161 A 
ATOM      4  C   UNL     1     -11.859  -4.107  -6.976  1.00  0.00     0.157 A 
ATOM      5  C   UNL     1     -12.094  -4.523  -5.663  1.00  0.00     0.051 A 
ATOM      6  C   UNL     1     -11.265  -5.471  -5.062  1.00  0.00     0.012 A 
ENDROOT
BRANCH   1   7
ATOM      7  C   UNL     1      -9.334  -7.029  -5.081  1.00  0.00     0.003 C 
ATOM      8  C   UNL     1      -8.367  -9.261  -4.697  1.00  0.00     0.035 C 
ATOM      9  C   UNL     1      -9.240  -8.311  -5.451  1.00  0.00    -0.030 C 
ENDBRANCH   1   7
BRANCH   3  10
ATOM     10  O   UNL     1     -10.558  -4.194  -9.012  1.00  0.00    -0.493 OA
ATOM     11  C   UNL     1     -11.035  -4.852 -10.182  1.00  0.00     0.278 C 
ENDBRANCH   3  10
BRANCH   4  12
ATOM     12  O   UNL     1     -12.710  -3.159  -7.545  1.00  0.00    -0.504 OA
ATOM     13  H   UNL     1     -13.124  -2.411  -7.002  1.00  0.00     0.293 HD
ENDBRANCH   4  12
TORSDOF 3
ENDMDL
MODEL 2
REMARK VINA RESULT:    -5.347      1.296      2.877
REMARK INTER + INTRA:          -6.290
REMARK INTER:                  -6.148
REMARK INTRA:                  -0.142
REMARK UNBOUND:                -0.162
REMARK SMILES CC=Cc1ccc(O)c(OC)c1
REMARK SMILES IDX 4 1 12 2 9 3 7 4 6 5 5 6 3 7 1 8 2 9 10 10 11 11 8 12
REMARK H PARENT 8 13
REMARK Flexibility Score: inf
ROOT
ATOM      1  C   UNL     1      -9.979  -6.345  -6.237  1.00  0.00    -0.022 A 
ATOM      2  C   UNL     1     -11.050  -6.095  -5.356  1.00  0.00     0.058 A 
ATOM      3  C   UNL     1     -12.006  -5.099  -5.649  1.00  0.00     0.161 A 
ATOM      4  C   UNL     1     -11.888  -4.361  -6.841  1.00  0.00     0.157 A 
ATOM      5  C   UNL     1     -10.835  -4.622  -7.723  1.00  0.00     0.051 A 
ATOM      6  C   UNL     1      -9.893  -5.608  -7.427  1.00  0.00     0.012 A 
ENDROOT
BRANCH   1   7
ATOM      7  C   UNL     1      -8.956  -7.387  -5.974  1.00  0.00     0.003 C 
ATOM      8  C   UNL     1      -8.041  -9.404  -4.895  1.00  0.00     0.035 C 
ATOM      9  C   UNL     1      -9.127  -8.402  -5.119  1.00  0.00    -0.030 C 
ENDBRANCH   1   7
BRANCH   3  10
ATOM     10  O   UNL     1     -13.080  -4.824  -4.789  1.00  0.00    -0.493 OA
ATOM     11  C   UNL     1     -13.417  -5.596  -3.640  1.00  0.00     0.278 C 
ENDBRANCH   3  10
BRANCH   4  12
ATOM     12  O   UNL     1     -12.809  -3.367  -7.168  1.00  0.00    -0.504 OA
ATOM     13  H   UNL     1     -13.137  -2.690  -6.490  1.00  0.00     0.293 HD
ENDBRANCH   4  12
TORSDOF 3
ENDMDL
MODEL 3
REMARK VINA RESULT:    -4.966      9.673     12.758
REMARK INTER + INTRA:          -5.853
REMARK INTER:                  -5.711
REMARK INTRA:                  -0.142
REMARK UNBOUND:                -0.162
REMARK SMILES CC=Cc1ccc(O)c(OC)c1
REMARK SMILES IDX 4 1 12 2 9 3 7 4 6 5 5 6 3 7 1 8 2 9 10 10 11 11 8 12
REMARK H PARENT 8 13
REMARK Flexibility Score: inf
ROOT
ATOM      1  C   UNL     1      -2.180 -12.513  -4.582  1.00  0.00    -0.022 A 
ATOM      2  C   UNL     1      -1.103 -12.689  -5.473  1.00  0.00     0.058 A 
ATOM      3  C   UNL     1       0.151 -13.134  -5.007  1.00  0.00     0.161 A 
ATOM      4  C   UNL     1       0.317 -13.413  -3.638  1.00  0.00     0.157 A 
ATOM      5  C   UNL     1      -0.757 -13.255  -2.758  1.00  0.00     0.051 A 
ATOM      6  C   UNL     1      -1.996 -12.815  -3.225  1.00  0.00     0.012 A 
ENDROOT
BRANCH   1   7
ATOM      7  C   UNL     1      -3.520 -12.055  -5.030  1.00  0.00     0.003 C 
ATOM      8  C   UNL     1      -5.098 -10.637  -6.282  1.00  0.00     0.035 C 
ATOM      9  C   UNL     1      -3.715 -11.050  -5.892  1.00  0.00    -0.030 C 
ENDBRANCH   1   7
BRANCH   3  10
ATOM     10  O   UNL     1       1.245 -13.314  -5.869  1.00  0.00    -0.493 OA
ATOM     11  C   UNL     1       1.143 -13.514  -7.276  1.00  0.00     0.278 C 
ENDBRANCH   3  10
BRANCH   4  12
ATOM     12  O   UNL     1       1.540 -13.853  -3.134  1.00  0.00    -0.504 OA
ATOM     13  H   UNL     1       1.624 -14.293  -2.226  1.00  0.00     0.293 HD
ENDBRANCH   4  12
TORSDOF 3
ENDMDL
MODEL 4
REMARK VINA RESULT:    -4.536      3.545      5.690
REMARK INTER + INTRA:          -5.361
REMARK INTER:                  -5.200
REMARK INTRA:                  -0.160
REMARK UNBOUND:                -0.162
REMARK SMILES CC=Cc1ccc(O)c(OC)c1
REMARK SMILES IDX 4 1 12 2 9 3 7 4 6 5 5 6 3 7 1 8 2 9 10 10 11 11 8 12
REMARK H PARENT 8 13
REMARK Flexibility Score: inf
ROOT
ATOM      1  C   UNL     1     -10.386  -7.357  -5.871  1.00  0.00    -0.022 A 
ATOM      2  C   UNL     1      -9.128  -7.819  -5.435  1.00  0.00     0.058 A 
ATOM      3  C   UNL     1      -8.941  -9.174  -5.088  1.00  0.00     0.161 A 
ATOM      4  C   UNL     1     -10.022 -10.067  -5.193  1.00  0.00     0.157 A 
ATOM      5  C   UNL     1     -11.264  -9.611  -5.642  1.00  0.00     0.051 A 
ATOM      6  C   UNL     1     -11.444  -8.270  -5.984  1.00  0.00     0.012 A 
ENDROOT
BRANCH   1   7
ATOM      7  C   UNL     1     -10.627  -5.943  -6.255  1.00  0.00     0.003 C 
ATOM      8  C   UNL     1     -10.697  -4.022  -7.794  1.00  0.00     0.035 C 
ATOM      9  C   UNL     1     -10.448  -5.464  -7.491  1.00  0.00    -0.030 C 
ENDBRANCH   1   7
BRANCH   3  10
ATOM     10  O   UNL     1      -7.702  -9.663  -4.646  1.00  0.00    -0.493 OA
ATOM     11  C   UNL     1      -6.682 -10.178  -5.497  1.00  0.00     0.278 C 
ENDBRANCH   3  10
BRANCH   4  12
ATOM     12  O   UNL     1      -9.880 -11.413  -4.858  1.00  0.00    -0.504 OA
ATOM     13  H   UNL     1      -9.828 -11.728  -3.896  1.00  0.00     0.293 HD
ENDBRANCH   4  12
TORSDOF 3
ENDMDL
MODEL 5
REMARK VINA RESULT:    -4.477      2.759      4.550
REMARK INTER + INTRA:          -5.292
REMARK INTER:                  -5.134
REMARK INTRA:                  -0.159
REMARK UNBOUND:                -0.162
REMARK SMILES CC=Cc1ccc(O)c(OC)c1
REMARK SMILES IDX 4 1 12 2 9 3 7 4 6 5 5 6 3 7 1 8 2 9 10 10 11 11 8 12
REMARK H PARENT 8 13
REMARK Flexibility Score: inf
ROOT
ATOM      1  C   UNL     1     -11.233  -5.231  -7.454  1.00  0.00    -0.022 A 
ATOM      2  C   UNL     1     -11.087  -6.553  -6.989  1.00  0.00     0.058 A 
ATOM      3  C   UNL     1     -11.735  -6.977  -5.810  1.00  0.00     0.161 A 
ATOM      4  C   UNL     1     -12.543  -6.067  -5.104  1.00  0.00     0.157 A 
ATOM      5  C   UNL     1     -12.701  -4.761  -5.575  1.00  0.00     0.051 A 
ATOM      6  C   UNL     1     -12.058  -4.348  -6.742  1.00  0.00     0.012 A 
ENDROOT
BRANCH   1   7
ATOM      7  C   UNL     1     -10.577  -4.744  -8.693  1.00  0.00     0.003 C 
ATOM      8  C   UNL     1     -10.386  -4.344 -11.116  1.00  0.00     0.035 C 
ATOM      9  C   UNL     1     -11.118  -4.844  -9.913  1.00  0.00    -0.030 C 
ENDBRANCH   1   7
BRANCH   3  10
ATOM     10  O   UNL     1     -11.605  -8.285  -5.319  1.00  0.00    -0.493 OA
ATOM     11  C   UNL     1     -11.773  -9.465  -6.100  1.00  0.00     0.278 C 
ENDBRANCH   3  10
BRANCH   4  12
ATOM     12  O   UNL     1     -13.199  -6.444  -3.933  1.00  0.00    -0.504 OA
ATOM     13  H   UNL     1     -13.251  -5.838  -3.123  1.00  0.00     0.293 HD
ENDBRANCH   4  12
TORSDOF 3
ENDMDL
MODEL 6
REMARK VINA RESULT:    -4.426      5.825      7.452
REMARK INTER + INTRA:          -5.235
REMARK INTER:                  -5.047
REMARK INTRA:                  -0.188
REMARK UNBOUND:                -0.162
REMARK SMILES CC=Cc1ccc(O)c(OC)c1
REMARK SMILES IDX 4 1 12 2 9 3 7 4 6 5 5 6 3 7 1 8 2 9 10 10 11 11 8 12
REMARK H PARENT 8 13
REMARK Flexibility Score: inf
ROOT
ATOM      1  C   UNL     1      -6.833 -11.869  -7.082  1.00  0.00    -0.022 A 
ATOM      2  C   UNL     1      -8.143 -12.043  -6.594  1.00  0.00     0.058 A 
ATOM      3  C   UNL     1      -8.663 -11.183  -5.603  1.00  0.00     0.161 A 
ATOM      4  C   UNL     1      -7.861 -10.137  -5.112  1.00  0.00     0.157 A 
ATOM      5  C   UNL     1      -6.568  -9.954  -5.609  1.00  0.00     0.051 A 
ATOM      6  C   UNL     1      -6.060 -10.808  -6.589  1.00  0.00     0.012 A 
ENDROOT
BRANCH   1   7
ATOM      7  C   UNL     1      -6.250 -12.744  -8.130  1.00  0.00     0.003 C 
ATOM      8  C   UNL     1      -4.437 -13.939  -9.294  1.00  0.00     0.035 C 
ATOM      9  C   UNL     1      -4.952 -13.063  -8.198  1.00  0.00    -0.030 C 
ENDBRANCH   1   7
BRANCH   3  10
ATOM     10  O   UNL     1      -9.962 -11.334  -5.093  1.00  0.00    -0.493 OA
ATOM     11  C   UNL     1     -11.139 -10.817  -5.707  1.00  0.00     0.278 C 
ENDBRANCH   3  10
BRANCH   4  12
ATOM     12  O   UNL     1      -8.334  -9.265  -4.131  1.00  0.00    -0.504 OA
ATOM     13  H   UNL     1      -9.275  -9.327  -3.762  1.00  0.00     0.293 HD
ENDBRANCH   4  12
TORSDOF 3
ENDMDL
MODEL 7
REMARK VINA RESULT:    -4.422      6.632      7.837
REMARK INTER + INTRA:          -5.230
REMARK INTER:                  -5.040
REMARK INTRA:                  -0.190
REMARK UNBOUND:                -0.162
REMARK SMILES CC=Cc1ccc(O)c(OC)c1
REMARK SMILES IDX 4 1 12 2 9 3 7 4 6 5 5 6 3 7 1 8 2 9 10 10 11 11 8 12
REMARK H PARENT 8 13
REMARK Flexibility Score: inf
ROOT
ATOM      1  C   UNL     1      -8.299 -11.521  -6.023  1.00  0.00    -0.022 A 
ATOM      2  C   UNL     1      -7.544 -12.233  -6.976  1.00  0.00     0.058 A 
ATOM      3  C   UNL     1      -6.211 -11.867  -7.259  1.00  0.00     0.161 A 
ATOM      4  C   UNL     1      -5.635 -10.785  -6.570  1.00  0.00     0.157 A 
ATOM      5  C   UNL     1      -6.378 -10.089  -5.613  1.00  0.00     0.051 A 
ATOM      6  C   UNL     1      -7.696 -10.456  -5.338  1.00  0.00     0.012 A 
ENDROOT
BRANCH   1   7
ATOM      7  C   UNL     1      -9.701 -11.876  -5.688  1.00  0.00     0.003 C 
ATOM      8  C   UNL     1     -11.959 -11.473  -4.790  1.00  0.00     0.035 C 
ATOM      9  C   UNL     1     -10.567 -11.035  -5.112  1.00  0.00    -0.030 C 
ENDBRANCH   1   7
BRANCH   3  10
ATOM     10  O   UNL     1      -5.436 -12.555  -8.206  1.00  0.00    -0.493 OA
ATOM     11  C   UNL     1      -4.694 -13.741  -7.939  1.00  0.00     0.278 C 
ENDBRANCH   3  10
BRANCH   4  12
ATOM     12  O   UNL     1      -4.322 -10.388  -6.821  1.00  0.00    -0.504 OA
ATOM     13  H   UNL     1      -3.577 -10.528  -6.148  1.00  0.00     0.293 HD
ENDBRANCH   4  12
TORSDOF 3
ENDMDL
MODEL 8
REMARK VINA RESULT:    -4.404      3.689      5.738
REMARK INTER + INTRA:          -5.210
REMARK INTER:                  -5.036
REMARK INTRA:                  -0.173
REMARK UNBOUND:                -0.162
REMARK SMILES CC=Cc1ccc(O)c(OC)c1
REMARK SMILES IDX 4 1 12 2 9 3 7 4 6 5 5 6 3 7 1 8 2 9 10 10 11 11 8 12
REMARK H PARENT 8 13
REMARK Flexibility Score: inf
ROOT
ATOM      1  C   UNL     1     -10.552  -7.305  -5.896  1.00  0.00    -0.022 A 
ATOM      2  C   UNL     1     -11.430  -8.397  -6.047  1.00  0.00     0.058 A 
ATOM      3  C   UNL     1     -11.034  -9.696  -5.665  1.00  0.00     0.161 A 
ATOM      4  C   UNL     1      -9.753  -9.893  -5.118  1.00  0.00     0.157 A 
ATOM      5  C   UNL     1      -8.890  -8.807  -4.953  1.00  0.00     0.051 A 
ATOM      6  C   UNL     1      -9.287  -7.524  -5.332  1.00  0.00     0.012 A 
ENDROOT
BRANCH   1   7
ATOM      7  C   UNL     1     -10.929  -5.921  -6.276  1.00  0.00     0.003 C 
ATOM      8  C   UNL     1     -10.826  -3.863  -7.626  1.00  0.00     0.035 C 
ATOM      9  C   UNL     1     -10.405  -5.263  -7.317  1.00  0.00    -0.030 C 
ENDBRANCH   1   7
BRANCH   3  10
ATOM     10  O   UNL     1     -11.884 -10.805  -5.808  1.00  0.00    -0.493 OA
ATOM     11  C   UNL     1     -12.904 -11.169  -4.882  1.00  0.00     0.278 C 
ENDBRANCH   3  10
BRANCH   4  12
ATOM     12  O   UNL     1      -9.321 -11.161  -4.730  1.00  0.00    -0.504 OA
ATOM     13  H   UNL     1      -8.373 -11.480  -4.887  1.00  0.00     0.293 HD
ENDBRANCH   4  12
TORSDOF 3
ENDMDL
MODEL 9
REMARK VINA RESULT:    -4.400      5.313      8.028
REMARK INTER + INTRA:          -5.205
REMARK INTER:                  -5.047
REMARK INTRA:                  -0.158
REMARK UNBOUND:                -0.162
REMARK SMILES CC=Cc1ccc(O)c(OC)c1
REMARK SMILES IDX 4 1 12 2 9 3 7 4 6 5 5 6 3 7 1 8 2 9 10 10 11 11 8 12
REMARK H PARENT 8 13
REMARK Flexibility Score: inf
ROOT
ATOM      1  C   UNL     1      -4.979 -11.248  -6.262  1.00  0.00    -0.022 A 
ATOM      2  C   UNL     1      -6.049 -10.613  -5.602  1.00  0.00     0.058 A 
ATOM      3  C   UNL     1      -7.385 -10.928  -5.928  1.00  0.00     0.161 A 
ATOM      4  C   UNL     1      -7.642 -11.895  -6.916  1.00  0.00     0.157 A 
ATOM      5  C   UNL     1      -6.580 -12.538  -7.558  1.00  0.00     0.051 A 
ATOM      6  C   UNL     1      -5.261 -12.222  -7.231  1.00  0.00     0.012 A 
ENDROOT
BRANCH   1   7
ATOM      7  C   UNL     1      -3.559 -10.954  -5.945  1.00  0.00     0.003 C 
ATOM      8  C   UNL     1      -1.376 -11.349  -4.874  1.00  0.00     0.035 C 
ATOM      9  C   UNL     1      -2.795 -11.722  -5.159  1.00  0.00    -0.030 C 
ENDBRANCH   1   7
BRANCH   3  10
ATOM     10  O   UNL     1      -8.472 -10.308  -5.292  1.00  0.00    -0.493 OA
ATOM     11  C   UNL     1      -8.514  -8.936  -4.911  1.00  0.00     0.278 C 
ENDBRANCH   3  10
BRANCH   4  12
ATOM     12  O   UNL     1      -8.948 -12.235  -7.271  1.00  0.00    -0.504 OA
ATOM     13  H   UNL     1      -9.155 -12.820  -8.071  1.00  0.00     0.293 HD
ENDBRANCH   4  12
TORSDOF 3
ENDMDL
