MODEL 1
REMARK VINA RESULT:    -3.659      0.000      0.000
REMARK INTER + INTRA:          -5.508
REMARK INTER:                  -5.156
REMARK INTRA:                  -0.352
REMARK UNBOUND:                -0.352
REMARK SMILES C=CCCCCCCC(=O)[O-]
REMARK SMILES IDX 6 1 7 2 8 3 9 4 10 5 11 6 5 7 4 8 3 9 2 10 1 11
REMARK H PARENT
REMARK Flexibility Score: inf
ROOT
ATOM      1  C   UNL     1      62.199  32.913  60.623  1.00  0.00     0.000 C 
ENDROOT
BRANCH   1   2
ATOM      2  C   UNL     1      61.067  31.915  60.926  1.00  0.00     0.006 C 
BRANCH   2   3
ATOM      3  C   UNL     1      61.557  30.721  61.758  1.00  0.00     0.053 C 
BRANCH   3   4
ATOM      4  C   UNL     1      62.720  30.033  61.112  1.00  0.00     0.041 C 
ATOM      5  O   UNL     1      63.832  29.982  61.701  1.00  0.00    -0.550 OA
ATOM      6  O   UNL     1      62.565  29.416  59.876  1.00  0.00    -0.550 OA
ENDBRANCH   3   4
ENDBRANCH   2   3
ENDBRANCH   1   2
BRANCH   1   7
ATOM      7  C   UNL     1      61.692  34.358  60.485  1.00  0.00     0.000 C 
BRANCH   7   8
ATOM      8  C   UNL     1      62.751  35.397  60.889  1.00  0.00     0.004 C 
BRANCH   8   9
ATOM      9  C   UNL     1      64.089  34.743  61.255  1.00  0.00     0.027 C 
BRANCH   9  10
ATOM     10  C   UNL     1      65.060  35.747  61.821  1.00  0.00    -0.035 C 
ATOM     11  C   UNL     1      64.700  37.005  62.085  1.00  0.00     0.004 C 
ENDBRANCH   9  10
ENDBRANCH   8   9
ENDBRANCH   7   8
ENDBRANCH   1   7
TORSDOF 7
ENDMDL
MODEL 2
REMARK VINA RESULT:    -3.545      1.004      1.809
REMARK INTER + INTRA:          -5.348
REMARK INTER:                  -4.930
REMARK INTRA:                  -0.418
REMARK UNBOUND:                -0.352
REMARK SMILES C=CCCCCCCC(=O)[O-]
REMARK SMILES IDX 6 1 7 2 8 3 9 4 10 5 11 6 5 7 4 8 3 9 2 10 1 11
REMARK H PARENT
REMARK Flexibility Score: inf
ROOT
ATOM      1  C   UNL     1      61.118  31.845  60.994  1.00  0.00     0.000 C 
ENDROOT
BRANCH   1   2
ATOM      2  C   UNL     1      61.804  30.597  61.576  1.00  0.00     0.006 C 
BRANCH   2   3
ATOM      3  C   UNL     1      63.320  30.604  61.334  1.00  0.00     0.053 C 
BRANCH   3   4
ATOM      4  C   UNL     1      63.877  29.216  61.246  1.00  0.00     0.041 C 
ATOM      5  O   UNL     1      63.116  28.221  61.377  1.00  0.00    -0.550 OA
ATOM      6  O   UNL     1      65.227  29.023  60.983  1.00  0.00    -0.550 OA
ENDBRANCH   3   4
ENDBRANCH   2   3
ENDBRANCH   1   2
BRANCH   1   7
ATOM      7  C   UNL     1      62.125  32.889  60.484  1.00  0.00     0.000 C 
BRANCH   7   8
ATOM      8  C   UNL     1      61.541  34.311  60.460  1.00  0.00     0.004 C 
BRANCH   8   9
ATOM      9  C   UNL     1      62.608  35.376  60.742  1.00  0.00     0.027 C 
BRANCH   9  10
ATOM     10  C   UNL     1      63.920  34.753  61.142  1.00  0.00    -0.035 C 
ATOM     11  C   UNL     1      64.830  35.422  61.855  1.00  0.00     0.004 C 
ENDBRANCH   9  10
ENDBRANCH   8   9
ENDBRANCH   7   8
ENDBRANCH   1   7
TORSDOF 7
ENDMDL
MODEL 3
REMARK VINA RESULT:    -3.473     13.514     14.517
REMARK INTER + INTRA:          -5.247
REMARK INTER:                  -4.812
REMARK INTRA:                  -0.434
REMARK UNBOUND:                -0.352
REMARK SMILES C=CCCCCCCC(=O)[O-]
REMARK SMILES IDX 6 1 7 2 8 3 9 4 10 5 11 6 5 7 4 8 3 9 2 10 1 11
REMARK H PARENT
REMARK Flexibility Score: inf
ROOT
ATOM      1  C   UNL     1      56.028  28.762  50.771  1.00  0.00     0.000 C 
ENDROOT
BRANCH   1   2
ATOM      2  C   UNL     1      54.878  27.912  50.202  1.00  0.00     0.006 C 
BRANCH   2   3
ATOM      3  C   UNL     1      55.323  26.479  49.880  1.00  0.00     0.053 C 
BRANCH   3   4
ATOM      4  C   UNL     1      54.158  25.544  49.777  1.00  0.00     0.041 C 
ATOM      5  O   UNL     1      53.576  25.377  48.673  1.00  0.00    -0.550 OA
ATOM      6  O   UNL     1      53.737  24.830  50.893  1.00  0.00    -0.550 OA
ENDBRANCH   3   4
ENDBRANCH   2   3
ENDBRANCH   1   2
BRANCH   1   7
ATOM      7  C   UNL     1      57.398  28.084  50.613  1.00  0.00     0.000 C 
BRANCH   7   8
ATOM      8  C   UNL     1      58.417  28.974  49.882  1.00  0.00     0.004 C 
BRANCH   8   9
ATOM      9  C   UNL     1      59.488  28.148  49.158  1.00  0.00     0.027 C 
BRANCH   9  10
ATOM     10  C   UNL     1      59.402  26.689  49.523  1.00  0.00    -0.035 C 
ATOM     11  C   UNL     1      60.479  25.988  49.887  1.00  0.00     0.004 C 
ENDBRANCH   9  10
ENDBRANCH   8   9
ENDBRANCH   7   8
ENDBRANCH   1   7
TORSDOF 7
ENDMDL
MODEL 4
REMARK VINA RESULT:    -3.470     12.422     14.416
REMARK INTER + INTRA:          -5.241
REMARK INTER:                  -4.881
REMARK INTRA:                  -0.361
REMARK UNBOUND:                -0.352
REMARK SMILES C=CCCCCCCC(=O)[O-]
REMARK SMILES IDX 6 1 7 2 8 3 9 4 10 5 11 6 5 7 4 8 3 9 2 10 1 11
REMARK H PARENT
REMARK Flexibility Score: inf
ROOT
ATOM      1  C   UNL     1      57.871  28.043  51.307  1.00  0.00     0.000 C 
ENDROOT
BRANCH   1   2
ATOM      2  C   UNL     1      58.523  29.211  50.547  1.00  0.00     0.006 C 
BRANCH   2   3
ATOM      3  C   UNL     1      59.136  28.763  49.213  1.00  0.00     0.053 C 
BRANCH   3   4
ATOM      4  C   UNL     1      60.256  27.788  49.414  1.00  0.00     0.041 C 
ATOM      5  O   UNL     1      60.051  26.553  49.281  1.00  0.00    -0.550 OA
ATOM      6  O   UNL     1      61.532  28.247  49.714  1.00  0.00    -0.550 OA
ENDBRANCH   3   4
ENDBRANCH   2   3
ENDBRANCH   1   2
BRANCH   1   7
ATOM      7  C   UNL     1      56.669  27.447  50.556  1.00  0.00     0.000 C 
BRANCH   7   8
ATOM      8  C   UNL     1      55.454  28.391  50.541  1.00  0.00     0.004 C 
BRANCH   8   9
ATOM      9  C   UNL     1      54.215  27.724  49.929  1.00  0.00     0.027 C 
BRANCH   9  10
ATOM     10  C   UNL     1      54.455  26.264  49.647  1.00  0.00    -0.035 C 
ATOM     11  C   UNL     1      53.568  25.520  48.980  1.00  0.00     0.004 C 
ENDBRANCH   9  10
ENDBRANCH   8   9
ENDBRANCH   7   8
ENDBRANCH   1   7
TORSDOF 7
ENDMDL
MODEL 5
REMARK VINA RESULT:    -3.418      1.694      2.165
REMARK INTER + INTRA:          -5.168
REMARK INTER:                  -4.803
REMARK INTRA:                  -0.365
REMARK UNBOUND:                -0.352
REMARK SMILES C=CCCCCCCC(=O)[O-]
REMARK SMILES IDX 6 1 7 2 8 3 9 4 10 5 11 6 5 7 4 8 3 9 2 10 1 11
REMARK H PARENT
REMARK Flexibility Score: inf
ROOT
ATOM      1  C   UNL     1      61.265  32.214  60.755  1.00  0.00     0.000 C 
ENDROOT
BRANCH   1   2
ATOM      2  C   UNL     1      61.067  31.065  61.759  1.00  0.00     0.006 C 
BRANCH   2   3
ATOM      3  C   UNL     1      62.290  30.139  61.824  1.00  0.00     0.053 C 
BRANCH   3   4
ATOM      4  C   UNL     1      61.967  28.756  61.346  1.00  0.00     0.041 C 
ATOM      5  O   UNL     1      62.792  27.820  61.514  1.00  0.00    -0.550 OA
ATOM      6  O   UNL     1      60.740  28.495  60.749  1.00  0.00    -0.550 OA
ENDBRANCH   3   4
ENDBRANCH   2   3
ENDBRANCH   1   2
BRANCH   1   7
ATOM      7  C   UNL     1      62.717  32.716  60.709  1.00  0.00     0.000 C 
BRANCH   7   8
ATOM      8  C   UNL     1      62.811  34.246  60.584  1.00  0.00     0.004 C 
BRANCH   8   9
ATOM      9  C   UNL     1      61.467  34.875  60.194  1.00  0.00     0.027 C 
BRANCH   9  10
ATOM     10  C   UNL     1      61.319  36.262  60.763  1.00  0.00    -0.035 C 
ATOM     11  C   UNL     1      62.376  36.987  61.138  1.00  0.00     0.004 C 
ENDBRANCH   9  10
ENDBRANCH   8   9
ENDBRANCH   7   8
ENDBRANCH   1   7
TORSDOF 7
ENDMDL
MODEL 6
REMARK VINA RESULT:    -3.374     13.157     14.161
REMARK INTER + INTRA:          -5.106
REMARK INTER:                  -4.490
REMARK INTRA:                  -0.617
REMARK UNBOUND:                -0.352
REMARK SMILES C=CCCCCCCC(=O)[O-]
REMARK SMILES IDX 6 1 7 2 8 3 9 4 10 5 11 6 5 7 4 8 3 9 2 10 1 11
REMARK H PARENT
REMARK Flexibility Score: inf
ROOT
ATOM      1  C   UNL     1      58.057  28.870  50.652  1.00  0.00     0.000 C 
ENDROOT
BRANCH   1   2
ATOM      2  C   UNL     1      56.561  28.533  50.520  1.00  0.00     0.006 C 
BRANCH   2   3
ATOM      3  C   UNL     1      56.325  27.034  50.289  1.00  0.00     0.053 C 
BRANCH   3   4
ATOM      4  C   UNL     1      54.940  26.759  49.790  1.00  0.00     0.041 C 
ATOM      5  O   UNL     1      54.603  25.588  49.473  1.00  0.00    -0.550 OA
ATOM      6  O   UNL     1      54.011  27.789  49.710  1.00  0.00    -0.550 OA
ENDBRANCH   3   4
ENDBRANCH   2   3
ENDBRANCH   1   2
BRANCH   1   7
ATOM      7  C   UNL     1      58.758  28.995  49.290  1.00  0.00     0.000 C 
BRANCH   7   8
ATOM      8  C   UNL     1      59.965  28.051  49.157  1.00  0.00     0.004 C 
BRANCH   8   9
ATOM      9  C   UNL     1      60.154  27.180  50.405  1.00  0.00     0.027 C 
BRANCH   9  10
ATOM     10  C   UNL     1      60.184  25.714  50.058  1.00  0.00    -0.035 C 
ATOM     11  C   UNL     1      59.219  24.878  50.447  1.00  0.00     0.004 C 
ENDBRANCH   9  10
ENDBRANCH   8   9
ENDBRANCH   7   8
ENDBRANCH   1   7
TORSDOF 7
ENDMDL
MODEL 7
REMARK VINA RESULT:    -3.370     12.126     13.950
REMARK INTER + INTRA:          -5.101
REMARK INTER:                  -4.672
REMARK INTRA:                  -0.430
REMARK UNBOUND:                -0.352
REMARK SMILES C=CCCCCCCC(=O)[O-]
REMARK SMILES IDX 6 1 7 2 8 3 9 4 10 5 11 6 5 7 4 8 3 9 2 10 1 11
REMARK H PARENT
REMARK Flexibility Score: inf
ROOT
ATOM      1  C   UNL     1      58.786  29.262  50.759  1.00  0.00     0.000 C 
ENDROOT
BRANCH   1   2
ATOM      2  C   UNL     1      58.960  28.704  49.336  1.00  0.00     0.006 C 
BRANCH   2   3
ATOM      3  C   UNL     1      60.233  27.856  49.199  1.00  0.00     0.053 C 
BRANCH   3   4
ATOM      4  C   UNL     1      60.073  26.506  49.826  1.00  0.00     0.041 C 
ATOM      5  O   UNL     1      60.983  26.036  50.559  1.00  0.00    -0.550 OA
ATOM      6  O   UNL     1      58.902  25.782  49.632  1.00  0.00    -0.550 OA
ENDBRANCH   3   4
ENDBRANCH   2   3
ENDBRANCH   1   2
BRANCH   1   7
ATOM      7  C   UNL     1      57.388  28.987  51.335  1.00  0.00     0.000 C 
BRANCH   7   8
ATOM      8  C   UNL     1      56.530  28.106  50.410  1.00  0.00     0.004 C 
BRANCH   8   9
ATOM      9  C   UNL     1      55.046  28.492  50.462  1.00  0.00     0.027 C 
BRANCH   9  10
ATOM     10  C   UNL     1      54.178  27.436  49.830  1.00  0.00    -0.035 C 
ATOM     11  C   UNL     1      54.626  26.199  49.599  1.00  0.00     0.004 C 
ENDBRANCH   9  10
ENDBRANCH   8   9
ENDBRANCH   7   8
ENDBRANCH   1   7
TORSDOF 7
ENDMDL
MODEL 8
REMARK VINA RESULT:    -3.331     12.615     13.973
REMARK INTER + INTRA:          -5.046
REMARK INTER:                  -4.665
REMARK INTRA:                  -0.381
REMARK UNBOUND:                -0.352
REMARK SMILES C=CCCCCCCC(=O)[O-]
REMARK SMILES IDX 6 1 7 2 8 3 9 4 10 5 11 6 5 7 4 8 3 9 2 10 1 11
REMARK H PARENT
REMARK Flexibility Score: inf
ROOT
ATOM      1  C   UNL     1      57.808  28.797  50.371  1.00  0.00     0.000 C 
ENDROOT
BRANCH   1   2
ATOM      2  C   UNL     1      59.027  28.876  49.436  1.00  0.00     0.006 C 
BRANCH   2   3
ATOM      3  C   UNL     1      59.748  27.526  49.311  1.00  0.00     0.053 C 
BRANCH   3   4
ATOM      4  C   UNL     1      61.091  27.549  49.975  1.00  0.00     0.041 C 
ATOM      5  O   UNL     1      61.225  27.103  51.145  1.00  0.00    -0.550 OA
ATOM      6  O   UNL     1      62.199  28.028  49.288  1.00  0.00    -0.550 OA
ENDBRANCH   3   4
ENDBRANCH   2   3
ENDBRANCH   1   2
BRANCH   1   7
ATOM      7  C   UNL     1      57.205  27.384  50.439  1.00  0.00     0.000 C 
BRANCH   7   8
ATOM      8  C   UNL     1      55.671  27.389  50.333  1.00  0.00     0.004 C 
BRANCH   8   9
ATOM      9  C   UNL     1      55.088  28.800  50.489  1.00  0.00     0.027 C 
BRANCH   9  10
ATOM     10  C   UNL     1      53.629  28.840  50.118  1.00  0.00    -0.035 C 
ATOM     11  C   UNL     1      52.973  27.748  49.717  1.00  0.00     0.004 C 
ENDBRANCH   9  10
ENDBRANCH   8   9
ENDBRANCH   7   8
ENDBRANCH   1   7
TORSDOF 7
ENDMDL
MODEL 9
REMARK VINA RESULT:    -3.198      1.559      1.994
REMARK INTER + INTRA:          -4.859
REMARK INTER:                  -4.296
REMARK INTRA:                  -0.564
REMARK UNBOUND:                -0.352
REMARK SMILES C=CCCCCCCC(=O)[O-]
REMARK SMILES IDX 6 1 7 2 8 3 9 4 10 5 11 6 5 7 4 8 3 9 2 10 1 11
REMARK H PARENT
REMARK Flexibility Score: inf
ROOT
ATOM      1  C   UNL     1      61.941  33.598  60.200  1.00  0.00     0.000 C 
ENDROOT
BRANCH   1   2
ATOM      2  C   UNL     1      63.402  33.254  59.861  1.00  0.00     0.006 C 
BRANCH   2   3
ATOM      3  C   UNL     1      64.159  32.691  61.073  1.00  0.00     0.053 C 
BRANCH   3   4
ATOM      4  C   UNL     1      64.238  31.196  61.033  1.00  0.00     0.041 C 
ATOM      5  O   UNL     1      63.309  30.501  61.524  1.00  0.00    -0.550 OA
ATOM      6  O   UNL     1      65.318  30.571  60.424  1.00  0.00    -0.550 OA
ENDBRANCH   3   4
ENDBRANCH   2   3
ENDBRANCH   1   2
BRANCH   1   7
ATOM      7  C   UNL     1      61.767  35.057  60.653  1.00  0.00     0.000 C 
BRANCH   7   8
ATOM      8  C   UNL     1      62.992  35.927  60.328  1.00  0.00     0.004 C 
BRANCH   8   9
ATOM      9  C   UNL     1      63.289  36.941  61.439  1.00  0.00     0.027 C 
BRANCH   9  10
ATOM     10  C   UNL     1      64.656  36.724  62.036  1.00  0.00    -0.035 C 
ATOM     11  C   UNL     1      65.605  36.041  61.393  1.00  0.00     0.004 C 
ENDBRANCH   9  10
ENDBRANCH   8   9
ENDBRANCH   7   8
ENDBRANCH   1   7
TORSDOF 7
ENDMDL
