MODEL 1
REMARK VINA RESULT:    -4.104      0.000      0.000
REMARK INTER + INTRA:          -7.872
REMARK INTER:                  -6.983
REMARK INTRA:                  -0.889
REMARK UNBOUND:                -0.889
REMARK SMILES CCCCCCCCCCCCCC(=O)[O-]
REMARK SMILES IDX 8 1 9 2 10 3 11 4 12 5 13 6 14 7 15 8 16 9 7 10 6 11 5 12
REMARK SMILES IDX 4 13 3 14 2 15 1 16
REMARK H PARENT
REMARK Flexibility Score: inf
ROOT
ATOM      1  C   UNL     1       1.869  25.042  21.270  1.00  0.00     0.000 C 
ENDROOT
BRANCH   1   2
ATOM      2  C   UNL     1       2.182  23.647  21.840  1.00  0.00     0.000 C 
BRANCH   2   3
ATOM      3  C   UNL     1       2.473  23.679  23.348  1.00  0.00     0.000 C 
BRANCH   3   4
ATOM      4  C   UNL     1       1.703  22.596  24.124  1.00  0.00     0.000 C 
BRANCH   4   5
ATOM      5  C   UNL     1       0.878  23.176  25.285  1.00  0.00     0.006 C 
BRANCH   5   6
ATOM      6  C   UNL     1       1.056  24.692  25.434  1.00  0.00     0.053 C 
BRANCH   6   7
ATOM      7  C   UNL     1      -0.081  25.277  26.210  1.00  0.00     0.041 C 
ATOM      8  O   UNL     1      -0.062  26.491  26.545  1.00  0.00    -0.550 OA
ATOM      9  O   UNL     1      -1.138  24.470  26.611  1.00  0.00    -0.550 OA
ENDBRANCH   6   7
ENDBRANCH   5   6
ENDBRANCH   4   5
ENDBRANCH   3   4
ENDBRANCH   2   3
ENDBRANCH   1   2
BRANCH   1  10
ATOM     10  C   UNL     1       2.212  26.181  22.249  1.00  0.00     0.000 C 
BRANCH  10  11
ATOM     11  C   UNL     1       1.015  27.031  22.714  1.00  0.00    -0.000 C 
BRANCH  11  12
ATOM     12  C   UNL     1       0.775  28.262  21.826  1.00  0.00    -0.000 C 
BRANCH  12  13
ATOM     13  C   UNL     1      -0.357  28.044  20.808  1.00  0.00    -0.000 C 
BRANCH  13  14
ATOM     14  C   UNL     1      -1.236  29.290  20.621  1.00  0.00    -0.000 C 
BRANCH  14  15
ATOM     15  C   UNL     1      -0.430  30.443  20.010  1.00  0.00    -0.003 C 
ATOM     16  C   UNL     1      -1.339  31.601  19.609  1.00  0.00     0.004 C 
ENDBRANCH  14  15
ENDBRANCH  13  14
ENDBRANCH  12  13
ENDBRANCH  11  12
ENDBRANCH  10  11
ENDBRANCH   1  10
TORSDOF 12
ENDMDL
MODEL 2
REMARK VINA RESULT:    -3.909      4.502      6.070
REMARK INTER + INTRA:          -7.540
REMARK INTER:                  -6.136
REMARK INTRA:                  -1.404
REMARK UNBOUND:                -0.889
REMARK SMILES CCCCCCCCCCCCCC(=O)[O-]
REMARK SMILES IDX 8 1 9 2 10 3 11 4 12 5 13 6 14 7 15 8 16 9 7 10 6 11 5 12
REMARK SMILES IDX 4 13 3 14 2 15 1 16
REMARK H PARENT
REMARK Flexibility Score: inf
ROOT
ATOM      1  C   UNL     1       1.424  22.072  22.604  1.00  0.00     0.000 C 
ENDROOT
BRANCH   1   2
ATOM      2  C   UNL     1       2.283  23.021  21.749  1.00  0.00     0.000 C 
BRANCH   2   3
ATOM      3  C   UNL     1       2.004  24.502  22.052  1.00  0.00     0.000 C 
BRANCH   3   4
ATOM      4  C   UNL     1       3.133  25.165  22.862  1.00  0.00     0.000 C 
BRANCH   4   5
ATOM      5  C   UNL     1       4.307  24.209  23.129  1.00  0.00     0.006 C 
BRANCH   5   6
ATOM      6  C   UNL     1       4.763  24.230  24.593  1.00  0.00     0.053 C 
BRANCH   6   7
ATOM      7  C   UNL     1       6.256  24.272  24.674  1.00  0.00     0.041 C 
ATOM      8  O   UNL     1       6.861  25.376  24.664  1.00  0.00    -0.550 OA
ATOM      9  O   UNL     1       6.984  23.089  24.706  1.00  0.00    -0.550 OA
ENDBRANCH   6   7
ENDBRANCH   5   6
ENDBRANCH   4   5
ENDBRANCH   3   4
ENDBRANCH   2   3
ENDBRANCH   1   2
BRANCH   1  10
ATOM     10  C   UNL     1       1.033  22.680  23.964  1.00  0.00     0.000 C 
BRANCH  10  11
ATOM     11  C   UNL     1       1.900  22.235  25.157  1.00  0.00    -0.000 C 
BRANCH  11  12
ATOM     12  C   UNL     1       1.289  22.615  26.516  1.00  0.00    -0.000 C 
BRANCH  12  13
ATOM     13  C   UNL     1      -0.218  22.903  26.425  1.00  0.00    -0.000 C 
BRANCH  13  14
ATOM     14  C   UNL     1      -0.605  24.250  27.055  1.00  0.00    -0.000 C 
BRANCH  14  15
ATOM     15  C   UNL     1       0.444  25.323  26.741  1.00  0.00    -0.003 C 
ATOM     16  C   UNL     1       0.213  25.932  25.361  1.00  0.00     0.004 C 
ENDBRANCH  14  15
ENDBRANCH  13  14
ENDBRANCH  12  13
ENDBRANCH  11  12
ENDBRANCH  10  11
ENDBRANCH   1  10
TORSDOF 12
ENDMDL
MODEL 3
REMARK VINA RESULT:    -3.885      2.996      6.414
REMARK INTER + INTRA:          -7.500
REMARK INTER:                  -6.657
REMARK INTRA:                  -0.843
REMARK UNBOUND:                -0.889
REMARK SMILES CCCCCCCCCCCCCC(=O)[O-]
REMARK SMILES IDX 8 1 9 2 10 3 11 4 12 5 13 6 14 7 15 8 16 9 7 10 6 11 5 12
REMARK SMILES IDX 4 13 3 14 2 15 1 16
REMARK H PARENT
REMARK Flexibility Score: inf
ROOT
ATOM      1  C   UNL     1       2.649  23.711  21.862  1.00  0.00     0.000 C 
ENDROOT
BRANCH   1   2
ATOM      2  C   UNL     1       2.490  25.032  22.636  1.00  0.00     0.000 C 
BRANCH   2   3
ATOM      3  C   UNL     1       1.878  26.148  21.776  1.00  0.00     0.000 C 
BRANCH   3   4
ATOM      4  C   UNL     1       1.023  27.130  22.598  1.00  0.00     0.000 C 
BRANCH   4   5
ATOM      5  C   UNL     1       0.753  28.446  21.850  1.00  0.00     0.006 C 
BRANCH   5   6
ATOM      6  C   UNL     1      -0.465  28.357  20.923  1.00  0.00     0.053 C 
BRANCH   6   7
ATOM      7  C   UNL     1      -0.787  29.703  20.354  1.00  0.00     0.041 C 
ATOM      8  O   UNL     1      -1.985  30.078  20.251  1.00  0.00    -0.550 OA
ATOM      9  O   UNL     1       0.233  30.523  19.887  1.00  0.00    -0.550 OA
ENDBRANCH   6   7
ENDBRANCH   5   6
ENDBRANCH   4   5
ENDBRANCH   3   4
ENDBRANCH   2   3
ENDBRANCH   1   2
BRANCH   1  10
ATOM     10  C   UNL     1       1.830  22.557  22.469  1.00  0.00     0.000 C 
BRANCH  10  11
ATOM     11  C   UNL     1       1.093  22.892  23.780  1.00  0.00    -0.000 C 
BRANCH  11  12
ATOM     12  C   UNL     1       1.962  22.667  25.028  1.00  0.00    -0.000 C 
BRANCH  12  13
ATOM     13  C   UNL     1       1.469  23.470  26.243  1.00  0.00    -0.000 C 
BRANCH  13  14
ATOM     14  C   UNL     1      -0.047  23.351  26.459  1.00  0.00    -0.000 C 
BRANCH  14  15
ATOM     15  C   UNL     1      -0.687  24.735  26.620  1.00  0.00    -0.003 C 
ATOM     16  C   UNL     1       0.123  25.806  25.894  1.00  0.00     0.004 C 
ENDBRANCH  14  15
ENDBRANCH  13  14
ENDBRANCH  12  13
ENDBRANCH  11  12
ENDBRANCH  10  11
ENDBRANCH   1  10
TORSDOF 12
ENDMDL
MODEL 4
REMARK VINA RESULT:    -3.647      4.117      6.827
REMARK INTER + INTRA:          -7.094
REMARK INTER:                  -5.923
REMARK INTRA:                  -1.171
REMARK UNBOUND:                -0.889
REMARK SMILES CCCCCCCCCCCCCC(=O)[O-]
REMARK SMILES IDX 8 1 9 2 10 3 11 4 12 5 13 6 14 7 15 8 16 9 7 10 6 11 5 12
REMARK SMILES IDX 4 13 3 14 2 15 1 16
REMARK H PARENT
REMARK Flexibility Score: inf
ROOT
ATOM      1  C   UNL     1       0.300  22.790  26.308  1.00  0.00     0.000 C 
ENDROOT
BRANCH   1   2
ATOM      2  C   UNL     1      -0.368  23.916  27.117  1.00  0.00     0.000 C 
BRANCH   2   3
ATOM      3  C   UNL     1       0.132  25.310  26.707  1.00  0.00     0.000 C 
BRANCH   3   4
ATOM      4  C   UNL     1       0.136  25.516  25.182  1.00  0.00     0.000 C 
BRANCH   4   5
ATOM      5  C   UNL     1       1.535  25.350  24.568  1.00  0.00     0.006 C 
BRANCH   5   6
ATOM      6  C   UNL     1       1.614  24.169  23.592  1.00  0.00     0.053 C 
BRANCH   6   7
ATOM      7  C   UNL     1       2.280  24.588  22.320  1.00  0.00     0.041 C 
ATOM      8  O   UNL     1       2.234  25.789  21.945  1.00  0.00    -0.550 OA
ATOM      9  O   UNL     1       2.907  23.642  21.518  1.00  0.00    -0.550 OA
ENDBRANCH   6   7
ENDBRANCH   5   6
ENDBRANCH   4   5
ENDBRANCH   3   4
ENDBRANCH   2   3
ENDBRANCH   1   2
BRANCH   1  10
ATOM     10  C   UNL     1       1.340  22.001  27.125  1.00  0.00     0.000 C 
BRANCH  10  11
ATOM     11  C   UNL     1       2.799  22.151  26.653  1.00  0.00    -0.000 C 
BRANCH  11  12
ATOM     12  C   UNL     1       3.424  23.496  27.060  1.00  0.00    -0.000 C 
BRANCH  12  13
ATOM     13  C   UNL     1       4.868  23.652  26.557  1.00  0.00    -0.000 C 
BRANCH  13  14
ATOM     14  C   UNL     1       4.944  23.990  25.061  1.00  0.00    -0.000 C 
BRANCH  14  15
ATOM     15  C   UNL     1       6.207  24.801  24.746  1.00  0.00    -0.003 C 
ATOM     16  C   UNL     1       6.668  25.599  25.963  1.00  0.00     0.004 C 
ENDBRANCH  14  15
ENDBRANCH  13  14
ENDBRANCH  12  13
ENDBRANCH  11  12
ENDBRANCH  10  11
ENDBRANCH   1  10
TORSDOF 12
ENDMDL
MODEL 5
REMARK VINA RESULT:    -3.627      3.223      4.034
REMARK INTER + INTRA:          -7.062
REMARK INTER:                  -6.293
REMARK INTRA:                  -0.769
REMARK UNBOUND:                -0.889
REMARK SMILES CCCCCCCCCCCCCC(=O)[O-]
REMARK SMILES IDX 8 1 9 2 10 3 11 4 12 5 13 6 14 7 15 8 16 9 7 10 6 11 5 12
REMARK SMILES IDX 4 13 3 14 2 15 1 16
REMARK H PARENT
REMARK Flexibility Score: inf
ROOT
ATOM      1  C   UNL     1       1.666  22.516  22.892  1.00  0.00     0.000 C 
ENDROOT
BRANCH   1   2
ATOM      2  C   UNL     1       1.142  22.935  24.278  1.00  0.00     0.000 C 
BRANCH   2   3
ATOM      3  C   UNL     1       2.058  22.466  25.419  1.00  0.00     0.000 C 
BRANCH   3   4
ATOM      4  C   UNL     1       2.890  23.611  26.022  1.00  0.00     0.000 C 
BRANCH   4   5
ATOM      5  C   UNL     1       4.323  23.178  26.371  1.00  0.00     0.006 C 
BRANCH   5   6
ATOM      6  C   UNL     1       5.364  24.252  26.030  1.00  0.00     0.053 C 
BRANCH   6   7
ATOM      7  C   UNL     1       6.085  23.897  24.768  1.00  0.00     0.041 C 
ATOM      8  O   UNL     1       7.078  23.123  24.802  1.00  0.00    -0.550 OA
ATOM      9  O   UNL     1       5.695  24.462  23.561  1.00  0.00    -0.550 OA
ENDBRANCH   6   7
ENDBRANCH   5   6
ENDBRANCH   4   5
ENDBRANCH   3   4
ENDBRANCH   2   3
ENDBRANCH   1   2
BRANCH   1  10
ATOM     10  C   UNL     1       2.281  23.687  22.104  1.00  0.00     0.000 C 
BRANCH  10  11
ATOM     11  C   UNL     1       2.233  25.054  22.812  1.00  0.00    -0.000 C 
BRANCH  11  12
ATOM     12  C   UNL     1       1.869  26.208  21.863  1.00  0.00    -0.000 C 
BRANCH  12  13
ATOM     13  C   UNL     1       0.924  27.231  22.513  1.00  0.00    -0.000 C 
BRANCH  13  14
ATOM     14  C   UNL     1       0.784  28.519  21.687  1.00  0.00    -0.000 C 
BRANCH  14  15
ATOM     15  C   UNL     1      -0.504  28.499  20.855  1.00  0.00    -0.003 C 
ATOM     16  C   UNL     1      -0.869  29.900  20.370  1.00  0.00     0.004 C 
ENDBRANCH  14  15
ENDBRANCH  13  14
ENDBRANCH  12  13
ENDBRANCH  11  12
ENDBRANCH  10  11
ENDBRANCH   1  10
TORSDOF 12
ENDMDL
MODEL 6
REMARK VINA RESULT:    -3.587      3.769      5.373
REMARK INTER + INTRA:          -6.992
REMARK INTER:                  -5.742
REMARK INTRA:                  -1.250
REMARK UNBOUND:                -0.889
REMARK SMILES CCCCCCCCCCCCCC(=O)[O-]
REMARK SMILES IDX 8 1 9 2 10 3 11 4 12 5 13 6 14 7 15 8 16 9 7 10 6 11 5 12
REMARK SMILES IDX 4 13 3 14 2 15 1 16
REMARK H PARENT
REMARK Flexibility Score: inf
ROOT
ATOM      1  C   UNL     1       3.316  22.944  27.125  1.00  0.00     0.000 C 
ENDROOT
BRANCH   1   2
ATOM      2  C   UNL     1       2.430  21.721  26.829  1.00  0.00     0.000 C 
BRANCH   2   3
ATOM      3  C   UNL     1       1.112  22.102  26.137  1.00  0.00     0.000 C 
BRANCH   3   4
ATOM      4  C   UNL     1       0.066  22.662  27.117  1.00  0.00     0.000 C 
BRANCH   4   5
ATOM      5  C   UNL     1      -0.226  24.153  26.878  1.00  0.00     0.006 C 
BRANCH   5   6
ATOM      6  C   UNL     1       0.492  24.703  25.640  1.00  0.00     0.053 C 
BRANCH   6   7
ATOM      7  C   UNL     1       0.306  26.184  25.544  1.00  0.00     0.041 C 
ATOM      8  O   UNL     1       0.570  26.788  24.471  1.00  0.00    -0.550 OA
ATOM      9  O   UNL     1      -0.107  26.907  26.656  1.00  0.00    -0.550 OA
ENDBRANCH   6   7
ENDBRANCH   5   6
ENDBRANCH   4   5
ENDBRANCH   3   4
ENDBRANCH   2   3
ENDBRANCH   1   2
BRANCH   1  10
ATOM     10  C   UNL     1       4.608  22.965  26.288  1.00  0.00     0.000 C 
BRANCH  10  11
ATOM     11  C   UNL     1       5.012  24.345  25.734  1.00  0.00    -0.000 C 
BRANCH  11  12
ATOM     12  C   UNL     1       4.835  24.453  24.210  1.00  0.00    -0.000 C 
BRANCH  12  13
ATOM     13  C   UNL     1       3.575  23.730  23.709  1.00  0.00    -0.000 C 
BRANCH  13  14
ATOM     14  C   UNL     1       3.089  24.256  22.350  1.00  0.00    -0.000 C 
BRANCH  14  15
ATOM     15  C   UNL     1       1.787  23.564  21.928  1.00  0.00    -0.003 C 
ATOM     16  C   UNL     1       1.487  22.362  22.820  1.00  0.00     0.004 C 
ENDBRANCH  14  15
ENDBRANCH  13  14
ENDBRANCH  12  13
ENDBRANCH  11  12
ENDBRANCH  10  11
ENDBRANCH   1  10
TORSDOF 12
ENDMDL
MODEL 7
REMARK VINA RESULT:    -3.491      3.058      7.016
REMARK INTER + INTRA:          -6.829
REMARK INTER:                  -5.841
REMARK INTRA:                  -0.988
REMARK UNBOUND:                -0.889
REMARK SMILES CCCCCCCCCCCCCC(=O)[O-]
REMARK SMILES IDX 8 1 9 2 10 3 11 4 12 5 13 6 14 7 15 8 16 9 7 10 6 11 5 12
REMARK SMILES IDX 4 13 3 14 2 15 1 16
REMARK H PARENT
REMARK Flexibility Score: inf
ROOT
ATOM      1  C   UNL     1       1.949  23.406  22.339  1.00  0.00     0.000 C 
ENDROOT
BRANCH   1   2
ATOM      2  C   UNL     1       2.551  24.805  22.563  1.00  0.00     0.000 C 
BRANCH   2   3
ATOM      3  C   UNL     1       1.857  25.887  21.722  1.00  0.00     0.000 C 
BRANCH   3   4
ATOM      4  C   UNL     1       1.101  26.914  22.583  1.00  0.00     0.000 C 
BRANCH   4   5
ATOM      5  C   UNL     1       0.842  28.233  21.835  1.00  0.00     0.006 C 
BRANCH   5   6
ATOM      6  C   UNL     1      -0.428  28.183  20.976  1.00  0.00     0.053 C 
BRANCH   6   7
ATOM      7  C   UNL     1      -0.728  29.535  20.410  1.00  0.00     0.041 C 
ATOM      8  O   UNL     1      -1.920  29.925  20.298  1.00  0.00    -0.550 OA
ATOM      9  O   UNL     1       0.306  30.344  19.955  1.00  0.00    -0.550 OA
ENDBRANCH   6   7
ENDBRANCH   5   6
ENDBRANCH   4   5
ENDBRANCH   3   4
ENDBRANCH   2   3
ENDBRANCH   1   2
BRANCH   1  10
ATOM     10  C   UNL     1       1.570  22.698  23.653  1.00  0.00     0.000 C 
BRANCH  10  11
ATOM     11  C   UNL     1       1.047  23.620  24.770  1.00  0.00    -0.000 C 
BRANCH  11  12
ATOM     12  C   UNL     1       0.493  22.844  25.976  1.00  0.00    -0.000 C 
BRANCH  12  13
ATOM     13  C   UNL     1       1.566  22.563  27.041  1.00  0.00    -0.000 C 
BRANCH  13  14
ATOM     14  C   UNL     1       2.626  23.672  27.124  1.00  0.00    -0.000 C 
BRANCH  14  15
ATOM     15  C   UNL     1       4.029  23.108  26.871  1.00  0.00    -0.003 C 
ATOM     16  C   UNL     1       4.616  23.651  25.571  1.00  0.00     0.004 C 
ENDBRANCH  14  15
ENDBRANCH  13  14
ENDBRANCH  12  13
ENDBRANCH  11  12
ENDBRANCH  10  11
ENDBRANCH   1  10
TORSDOF 12
ENDMDL
MODEL 8
REMARK VINA RESULT:    -3.408      3.843      6.204
REMARK INTER + INTRA:          -6.689
REMARK INTER:                  -5.559
REMARK INTRA:                  -1.130
REMARK UNBOUND:                -0.889
REMARK SMILES CCCCCCCCCCCCCC(=O)[O-]
REMARK SMILES IDX 8 1 9 2 10 3 11 4 12 5 13 6 14 7 15 8 16 9 7 10 6 11 5 12
REMARK SMILES IDX 4 13 3 14 2 15 1 16
REMARK H PARENT
REMARK Flexibility Score: inf
ROOT
ATOM      1  C   UNL     1       2.258  24.304  22.583  1.00  0.00     0.000 C 
ENDROOT
BRANCH   1   2
ATOM      2  C   UNL     1       1.817  22.865  22.906  1.00  0.00     0.000 C 
BRANCH   2   3
ATOM      3  C   UNL     1       1.012  22.775  24.212  1.00  0.00     0.000 C 
BRANCH   3   4
ATOM      4  C   UNL     1       1.910  22.752  25.462  1.00  0.00     0.000 C 
BRANCH   4   5
ATOM      5  C   UNL     1       1.414  23.706  26.561  1.00  0.00     0.006 C 
BRANCH   5   6
ATOM      6  C   UNL     1       0.031  24.292  26.253  1.00  0.00     0.053 C 
BRANCH   6   7
ATOM      7  C   UNL     1       0.127  25.769  26.034  1.00  0.00     0.041 C 
ATOM      8  O   UNL     1      -0.335  26.569  26.890  1.00  0.00    -0.550 OA
ATOM      9  O   UNL     1       0.679  26.264  24.859  1.00  0.00    -0.550 OA
ENDBRANCH   6   7
ENDBRANCH   5   6
ENDBRANCH   4   5
ENDBRANCH   3   4
ENDBRANCH   2   3
ENDBRANCH   1   2
BRANCH   1  10
ATOM     10  C   UNL     1       3.788  24.470  22.550  1.00  0.00     0.000 C 
BRANCH  10  11
ATOM     11  C   UNL     1       4.498  24.301  23.907  1.00  0.00    -0.000 C 
BRANCH  11  12
ATOM     12  C   UNL     1       6.028  24.417  23.800  1.00  0.00    -0.000 C 
BRANCH  12  13
ATOM     13  C   UNL     1       6.675  24.905  25.106  1.00  0.00    -0.000 C 
BRANCH  13  14
ATOM     14  C   UNL     1       5.926  24.422  26.358  1.00  0.00    -0.000 C 
BRANCH  14  15
ATOM     15  C   UNL     1       6.325  22.985  26.714  1.00  0.00    -0.003 C 
ATOM     16  C   UNL     1       5.108  22.161  27.125  1.00  0.00     0.004 C 
ENDBRANCH  14  15
ENDBRANCH  13  14
ENDBRANCH  12  13
ENDBRANCH  11  12
ENDBRANCH  10  11
ENDBRANCH   1  10
TORSDOF 12
ENDMDL
MODEL 9
REMARK VINA RESULT:    -3.371      4.453      5.981
REMARK INTER + INTRA:          -6.624
REMARK INTER:                  -5.468
REMARK INTRA:                  -1.156
REMARK UNBOUND:                -0.889
REMARK SMILES CCCCCCCCCCCCCC(=O)[O-]
REMARK SMILES IDX 8 1 9 2 10 3 11 4 12 5 13 6 14 7 15 8 16 9 7 10 6 11 5 12
REMARK SMILES IDX 4 13 3 14 2 15 1 16
REMARK H PARENT
REMARK Flexibility Score: inf
ROOT
ATOM      1  C   UNL     1       0.433  22.589  26.167  1.00  0.00     0.000 C 
ENDROOT
BRANCH   1   2
ATOM      2  C   UNL     1       1.264  21.716  27.125  1.00  0.00     0.000 C 
BRANCH   2   3
ATOM      3  C   UNL     1       2.767  21.764  26.810  1.00  0.00     0.000 C 
BRANCH   3   4
ATOM      4  C   UNL     1       3.357  23.180  26.941  1.00  0.00     0.000 C 
BRANCH   4   5
ATOM      5  C   UNL     1       4.575  23.398  26.029  1.00  0.00     0.006 C 
BRANCH   5   6
ATOM      6  C   UNL     1       5.637  24.300  26.670  1.00  0.00     0.053 C 
BRANCH   6   7
ATOM      7  C   UNL     1       6.212  25.233  25.652  1.00  0.00     0.041 C 
ATOM      8  O   UNL     1       6.255  24.899  24.439  1.00  0.00    -0.550 OA
ATOM      9  O   UNL     1       6.752  26.450  26.049  1.00  0.00    -0.550 OA
ENDBRANCH   6   7
ENDBRANCH   5   6
ENDBRANCH   4   5
ENDBRANCH   3   4
ENDBRANCH   2   3
ENDBRANCH   1   2
BRANCH   1  10
ATOM     10  C   UNL     1      -0.733  23.308  26.871  1.00  0.00     0.000 C 
BRANCH  10  11
ATOM     11  C   UNL     1      -0.669  24.847  26.843  1.00  0.00    -0.000 C 
BRANCH  11  12
ATOM     12  C   UNL     1       0.672  25.381  26.314  1.00  0.00    -0.000 C 
BRANCH  12  13
ATOM     13  C   UNL     1       0.671  25.570  24.788  1.00  0.00    -0.000 C 
BRANCH  13  14
ATOM     14  C   UNL     1       1.981  25.108  24.131  1.00  0.00    -0.000 C 
BRANCH  14  15
ATOM     15  C   UNL     1       1.705  24.388  22.805  1.00  0.00    -0.003 C 
ATOM     16  C   UNL     1       2.975  23.750  22.249  1.00  0.00     0.004 C 
ENDBRANCH  14  15
ENDBRANCH  13  14
ENDBRANCH  12  13
ENDBRANCH  11  12
ENDBRANCH  10  11
ENDBRANCH   1  10
TORSDOF 12
ENDMDL
