MODEL 1
REMARK VINA RESULT:    -4.085      0.000      0.000
REMARK INTER + INTRA:          -4.763
REMARK INTER:                  -4.682
REMARK INTRA:                  -0.080
REMARK UNBOUND:                -0.080
REMARK SMILES COc1cc(C(=O)[O-])ccc1O
REMARK SMILES IDX 5 1 9 2 4 3 10 4 3 5 11 6 6 7 7 8 8 9 2 10 1 11 12 12
REMARK H PARENT 12 13
REMARK Flexibility Score: inf
ROOT
ATOM      1  C   UNL     1     -34.727  -3.872  14.142  1.00  0.00     0.001 A 
ATOM      2  C   UNL     1     -33.389  -4.179  13.849  1.00  0.00     0.014 A 
ATOM      3  C   UNL     1     -35.748  -4.671  13.597  1.00  0.00     0.060 A 
ATOM      4  C   UNL     1     -33.077  -5.264  13.028  1.00  0.00     0.051 A 
ATOM      5  C   UNL     1     -35.438  -5.768  12.767  1.00  0.00     0.161 A 
ATOM      6  C   UNL     1     -34.090  -6.059  12.487  1.00  0.00     0.157 A 
ENDROOT
BRANCH   1   7
ATOM      7  C   UNL     1     -35.053  -2.720  15.014  1.00  0.00     0.072 C 
ATOM      8  O   UNL     1     -36.026  -1.967  14.744  1.00  0.00    -0.545 OA
ATOM      9  O   UNL     1     -34.288  -2.453  16.143  1.00  0.00    -0.545 OA
ENDBRANCH   1   7
BRANCH   5  10
ATOM     10  O   UNL     1     -36.436  -6.584  12.209  1.00  0.00    -0.493 OA
ATOM     11  C   UNL     1     -37.666  -6.908  12.847  1.00  0.00     0.278 C 
ENDBRANCH   5  10
BRANCH   6  12
ATOM     12  O   UNL     1     -33.740  -7.134  11.670  1.00  0.00    -0.504 OA
ATOM     13  H   UNL     1     -33.883  -7.121  10.668  1.00  0.00     0.293 HD
ENDBRANCH   6  12
TORSDOF 3
ENDMDL
MODEL 2
REMARK VINA RESULT:    -3.974      2.033      3.579
REMARK INTER + INTRA:          -4.636
REMARK INTER:                  -4.535
REMARK INTRA:                  -0.101
REMARK UNBOUND:                -0.080
REMARK SMILES COc1cc(C(=O)[O-])ccc1O
REMARK SMILES IDX 5 1 9 2 4 3 10 4 3 5 11 6 6 7 7 8 8 9 2 10 1 11 12 12
REMARK H PARENT 12 13
REMARK Flexibility Score: inf
ROOT
ATOM      1  C   UNL     1     -37.718  -4.182  14.927  1.00  0.00     0.001 A 
ATOM      2  C   UNL     1     -38.905  -4.676  14.364  1.00  0.00     0.014 A 
ATOM      3  C   UNL     1     -36.500  -4.813  14.617  1.00  0.00     0.060 A 
ATOM      4  C   UNL     1     -38.876  -5.778  13.507  1.00  0.00     0.051 A 
ATOM      5  C   UNL     1     -36.464  -5.926  13.753  1.00  0.00     0.161 A 
ATOM      6  C   UNL     1     -37.665  -6.404  13.198  1.00  0.00     0.157 A 
ENDROOT
BRANCH   1   7
ATOM      7  C   UNL     1     -37.755  -3.013  15.834  1.00  0.00     0.072 C 
ATOM      8  O   UNL     1     -36.790  -2.204  15.878  1.00  0.00    -0.545 OA
ATOM      9  O   UNL     1     -38.855  -2.791  16.653  1.00  0.00    -0.545 OA
ENDBRANCH   1   7
BRANCH   5  10
ATOM     10  O   UNL     1     -35.262  -6.576  13.425  1.00  0.00    -0.493 OA
ATOM     11  C   UNL     1     -34.358  -6.142  12.415  1.00  0.00     0.278 C 
ENDBRANCH   5  10
BRANCH   6  12
ATOM     12  O   UNL     1     -37.675  -7.503  12.339  1.00  0.00    -0.504 OA
ATOM     13  H   UNL     1     -37.815  -7.407  11.341  1.00  0.00     0.293 HD
ENDBRANCH   6  12
TORSDOF 3
ENDMDL
MODEL 3
REMARK VINA RESULT:    -3.963      1.665      2.015
REMARK INTER + INTRA:          -4.622
REMARK INTER:                  -4.531
REMARK INTRA:                  -0.091
REMARK UNBOUND:                -0.080
REMARK SMILES COc1cc(C(=O)[O-])ccc1O
REMARK SMILES IDX 5 1 9 2 4 3 10 4 3 5 11 6 6 7 7 8 8 9 2 10 1 11 12 12
REMARK H PARENT 12 13
REMARK Flexibility Score: inf
ROOT
ATOM      1  C   UNL     1     -34.127  -4.374  13.671  1.00  0.00     0.001 A 
ATOM      2  C   UNL     1     -33.540  -5.383  12.892  1.00  0.00     0.014 A 
ATOM      3  C   UNL     1     -35.524  -4.209  13.638  1.00  0.00     0.060 A 
ATOM      4  C   UNL     1     -34.333  -6.212  12.096  1.00  0.00     0.051 A 
ATOM      5  C   UNL     1     -36.329  -5.043  12.836  1.00  0.00     0.161 A 
ATOM      6  C   UNL     1     -35.720  -6.049  12.064  1.00  0.00     0.157 A 
ENDROOT
BRANCH   1   7
ATOM      7  C   UNL     1     -33.282  -3.497  14.514  1.00  0.00     0.072 C 
ATOM      8  O   UNL     1     -32.438  -2.724  13.989  1.00  0.00    -0.545 OA
ATOM      9  O   UNL     1     -33.409  -3.517  15.897  1.00  0.00    -0.545 OA
ENDBRANCH   1   7
BRANCH   5  10
ATOM     10  O   UNL     1     -37.726  -4.902  12.783  1.00  0.00    -0.493 OA
ATOM     11  C   UNL     1     -38.601  -5.104  13.888  1.00  0.00     0.278 C 
ENDBRANCH   5  10
BRANCH   6  12
ATOM     12  O   UNL     1     -36.479  -6.896  11.256  1.00  0.00    -0.504 OA
ATOM     13  H   UNL     1     -36.127  -7.269  10.383  1.00  0.00     0.293 HD
ENDBRANCH   6  12
TORSDOF 3
ENDMDL
MODEL 4
REMARK VINA RESULT:    -3.958      1.221      4.196
REMARK INTER + INTRA:          -4.617
REMARK INTER:                  -4.541
REMARK INTRA:                  -0.075
REMARK UNBOUND:                -0.080
REMARK SMILES COc1cc(C(=O)[O-])ccc1O
REMARK SMILES IDX 5 1 9 2 4 3 10 4 3 5 11 6 6 7 7 8 8 9 2 10 1 11 12 12
REMARK H PARENT 12 13
REMARK Flexibility Score: inf
ROOT
ATOM      1  C   UNL     1     -35.405  -5.368  13.228  1.00  0.00     0.001 A 
ATOM      2  C   UNL     1     -34.073  -5.567  12.831  1.00  0.00     0.014 A 
ATOM      3  C   UNL     1     -35.723  -4.250  14.021  1.00  0.00     0.060 A 
ATOM      4  C   UNL     1     -33.079  -4.667  13.218  1.00  0.00     0.051 A 
ATOM      5  C   UNL     1     -34.722  -3.338  14.415  1.00  0.00     0.161 A 
ATOM      6  C   UNL     1     -33.394  -3.556  14.005  1.00  0.00     0.157 A 
ENDROOT
BRANCH   1   7
ATOM      7  C   UNL     1     -36.456  -6.325  12.815  1.00  0.00     0.072 C 
ATOM      8  O   UNL     1     -37.242  -6.821  13.666  1.00  0.00    -0.545 OA
ATOM      9  O   UNL     1     -36.589  -6.692  11.481  1.00  0.00    -0.545 OA
ENDBRANCH   1   7
BRANCH   5  10
ATOM     10  O   UNL     1     -35.010  -2.214  15.206  1.00  0.00    -0.493 OA
ATOM     11  C   UNL     1     -36.293  -1.908  15.741  1.00  0.00     0.278 C 
ENDBRANCH   5  10
BRANCH   6  12
ATOM     12  O   UNL     1     -32.374  -2.680  14.372  1.00  0.00    -0.504 OA
ATOM     13  H   UNL     1     -31.403  -2.853  14.142  1.00  0.00     0.293 HD
ENDBRANCH   6  12
TORSDOF 3
ENDMDL
MODEL 5
REMARK VINA RESULT:    -3.944      1.479      4.297
REMARK INTER + INTRA:          -4.601
REMARK INTER:                  -4.518
REMARK INTRA:                  -0.083
REMARK UNBOUND:                -0.080
REMARK SMILES COc1cc(C(=O)[O-])ccc1O
REMARK SMILES IDX 5 1 9 2 4 3 10 4 3 5 11 6 6 7 7 8 8 9 2 10 1 11 12 12
REMARK H PARENT 12 13
REMARK Flexibility Score: inf
ROOT
ATOM      1  C   UNL     1     -34.340  -4.939  13.438  1.00  0.00     0.001 A 
ATOM      2  C   UNL     1     -33.183  -4.182  13.681  1.00  0.00     0.014 A 
ATOM      3  C   UNL     1     -35.463  -4.757  14.266  1.00  0.00     0.060 A 
ATOM      4  C   UNL     1     -33.148  -3.262  14.730  1.00  0.00     0.051 A 
ATOM      5  C   UNL     1     -35.433  -3.830  15.327  1.00  0.00     0.161 A 
ATOM      6  C   UNL     1     -34.264  -3.081  15.553  1.00  0.00     0.157 A 
ENDROOT
BRANCH   1   7
ATOM      7  C   UNL     1     -34.372  -5.913  12.324  1.00  0.00     0.072 C 
ATOM      8  O   UNL     1     -33.573  -6.887  12.301  1.00  0.00    -0.545 OA
ATOM      9  O   UNL     1     -35.284  -5.766  11.286  1.00  0.00    -0.545 OA
ENDBRANCH   1   7
BRANCH   5  10
ATOM     10  O   UNL     1     -36.538  -3.627  16.170  1.00  0.00    -0.493 OA
ATOM     11  C   UNL     1     -37.875  -3.434  15.719  1.00  0.00     0.278 C 
ENDBRANCH   5  10
BRANCH   6  12
ATOM     12  O   UNL     1     -34.191  -2.153  16.591  1.00  0.00    -0.504 OA
ATOM     13  H   UNL     1     -33.529  -1.387  16.586  1.00  0.00     0.293 HD
ENDBRANCH   6  12
TORSDOF 3
ENDMDL
MODEL 6
REMARK VINA RESULT:    -3.928      2.874      4.623
REMARK INTER + INTRA:          -4.583
REMARK INTER:                  -4.483
REMARK INTRA:                  -0.100
REMARK UNBOUND:                -0.080
REMARK SMILES COc1cc(C(=O)[O-])ccc1O
REMARK SMILES IDX 5 1 9 2 4 3 10 4 3 5 11 6 6 7 7 8 8 9 2 10 1 11 12 12
REMARK H PARENT 12 13
REMARK Flexibility Score: inf
ROOT
ATOM      1  C   UNL     1     -37.267  -1.677  16.575  1.00  0.00     0.001 A 
ATOM      2  C   UNL     1     -38.227  -2.695  16.461  1.00  0.00     0.014 A 
ATOM      3  C   UNL     1     -36.136  -1.707  15.739  1.00  0.00     0.060 A 
ATOM      4  C   UNL     1     -38.061  -3.723  15.531  1.00  0.00     0.051 A 
ATOM      5  C   UNL     1     -35.963  -2.743  14.798  1.00  0.00     0.161 A 
ATOM      6  C   UNL     1     -36.937  -3.752  14.700  1.00  0.00     0.157 A 
ENDROOT
BRANCH   1   7
ATOM      7  C   UNL     1     -37.449  -0.590  17.563  1.00  0.00     0.072 C 
ATOM      8  O   UNL     1     -37.815  -0.848  18.741  1.00  0.00    -0.545 OA
ATOM      9  O   UNL     1     -37.218   0.733  17.204  1.00  0.00    -0.545 OA
ENDBRANCH   1   7
BRANCH   5  10
ATOM     10  O   UNL     1     -34.844  -2.799  13.951  1.00  0.00    -0.493 OA
ATOM     11  C   UNL     1     -33.578  -3.337  14.317  1.00  0.00     0.278 C 
ENDBRANCH   5  10
BRANCH   6  12
ATOM     12  O   UNL     1     -36.805  -4.795  13.783  1.00  0.00    -0.504 OA
ATOM     13  H   UNL     1     -35.905  -5.186  13.536  1.00  0.00     0.293 HD
ENDBRANCH   6  12
TORSDOF 3
ENDMDL
MODEL 7
REMARK VINA RESULT:    -3.846      1.536      2.689
REMARK INTER + INTRA:          -4.488
REMARK INTER:                  -4.405
REMARK INTRA:                  -0.083
REMARK UNBOUND:                -0.080
REMARK SMILES COc1cc(C(=O)[O-])ccc1O
REMARK SMILES IDX 5 1 9 2 4 3 10 4 3 5 11 6 6 7 7 8 8 9 2 10 1 11 12 12
REMARK H PARENT 12 13
REMARK Flexibility Score: inf
ROOT
ATOM      1  C   UNL     1     -34.634  -4.288  14.479  1.00  0.00     0.001 A 
ATOM      2  C   UNL     1     -35.691  -4.598  15.349  1.00  0.00     0.014 A 
ATOM      3  C   UNL     1     -34.565  -4.933  13.231  1.00  0.00     0.060 A 
ATOM      4  C   UNL     1     -36.660  -5.532  14.980  1.00  0.00     0.051 A 
ATOM      5  C   UNL     1     -35.540  -5.878  12.853  1.00  0.00     0.161 A 
ATOM      6  C   UNL     1     -36.592  -6.173  13.740  1.00  0.00     0.157 A 
ENDROOT
BRANCH   1   7
ATOM      7  C   UNL     1     -33.609  -3.296  14.875  1.00  0.00     0.072 C 
ATOM      8  O   UNL     1     -33.582  -2.836  16.048  1.00  0.00    -0.545 OA
ATOM      9  O   UNL     1     -32.663  -2.857  13.958  1.00  0.00    -0.545 OA
ENDBRANCH   1   7
BRANCH   5  10
ATOM     10  O   UNL     1     -35.497  -6.538  11.613  1.00  0.00    -0.493 OA
ATOM     11  C   UNL     1     -34.303  -6.831  10.895  1.00  0.00     0.278 C 
ENDBRANCH   5  10
BRANCH   6  12
ATOM     12  O   UNL     1     -37.577  -7.101  13.406  1.00  0.00    -0.504 OA
ATOM     13  H   UNL     1     -38.551  -6.843  13.304  1.00  0.00     0.293 HD
ENDBRANCH   6  12
TORSDOF 3
ENDMDL
MODEL 8
REMARK VINA RESULT:    -3.813      1.264      4.861
REMARK INTER + INTRA:          -4.451
REMARK INTER:                  -4.349
REMARK INTRA:                  -0.102
REMARK UNBOUND:                -0.080
REMARK SMILES COc1cc(C(=O)[O-])ccc1O
REMARK SMILES IDX 5 1 9 2 4 3 10 4 3 5 11 6 6 7 7 8 8 9 2 10 1 11 12 12
REMARK H PARENT 12 13
REMARK Flexibility Score: inf
ROOT
ATOM      1  C   UNL     1     -34.931  -4.949  12.991  1.00  0.00     0.001 A 
ATOM      2  C   UNL     1     -36.207  -4.364  12.962  1.00  0.00     0.014 A 
ATOM      3  C   UNL     1     -33.944  -4.395  13.826  1.00  0.00     0.060 A 
ATOM      4  C   UNL     1     -36.491  -3.248  13.751  1.00  0.00     0.051 A 
ATOM      5  C   UNL     1     -34.225  -3.269  14.626  1.00  0.00     0.161 A 
ATOM      6  C   UNL     1     -35.510  -2.699  14.582  1.00  0.00     0.157 A 
ENDROOT
BRANCH   1   7
ATOM      7  C   UNL     1     -34.635  -6.132  12.152  1.00  0.00     0.072 C 
ATOM      8  O   UNL     1     -35.427  -6.483  11.237  1.00  0.00    -0.545 OA
ATOM      9  O   UNL     1     -33.479  -6.872  12.362  1.00  0.00    -0.545 OA
ENDBRANCH   1   7
BRANCH   5  10
ATOM     10  O   UNL     1     -33.259  -2.695  15.469  1.00  0.00    -0.493 OA
ATOM     11  C   UNL     1     -32.813  -3.267  16.694  1.00  0.00     0.278 C 
ENDBRANCH   5  10
BRANCH   6  12
ATOM     12  O   UNL     1     -35.831  -1.584  15.356  1.00  0.00    -0.504 OA
ATOM     13  H   UNL     1     -35.413  -1.417  16.263  1.00  0.00     0.293 HD
ENDBRANCH   6  12
TORSDOF 3
ENDMDL
MODEL 9
REMARK VINA RESULT:    -3.784      2.920      6.028
REMARK INTER + INTRA:          -4.417
REMARK INTER:                  -4.320
REMARK INTRA:                  -0.098
REMARK UNBOUND:                -0.080
REMARK SMILES COc1cc(C(=O)[O-])ccc1O
REMARK SMILES IDX 5 1 9 2 4 3 10 4 3 5 11 6 6 7 7 8 8 9 2 10 1 11 12 12
REMARK H PARENT 12 13
REMARK Flexibility Score: inf
ROOT
ATOM      1  C   UNL     1     -36.785  -3.110  14.745  1.00  0.00     0.001 A 
ATOM      2  C   UNL     1     -37.961  -3.547  15.375  1.00  0.00     0.014 A 
ATOM      3  C   UNL     1     -36.099  -2.000  15.271  1.00  0.00     0.060 A 
ATOM      4  C   UNL     1     -38.442  -2.890  16.509  1.00  0.00     0.051 A 
ATOM      5  C   UNL     1     -36.580  -1.332  16.415  1.00  0.00     0.161 A 
ATOM      6  C   UNL     1     -37.760  -1.788  17.032  1.00  0.00     0.157 A 
ENDROOT
BRANCH   1   7
ATOM      7  C   UNL     1     -36.280  -3.811  13.543  1.00  0.00     0.072 C 
ATOM      8  O   UNL     1     -36.999  -3.921  12.515  1.00  0.00    -0.545 OA
ATOM      9  O   UNL     1     -35.003  -4.360  13.533  1.00  0.00    -0.545 OA
ENDBRANCH   1   7
BRANCH   5  10
ATOM     10  O   UNL     1     -35.917  -0.222  16.963  1.00  0.00    -0.493 OA
ATOM     11  C   UNL     1     -34.769  -0.298  17.803  1.00  0.00     0.278 C 
ENDBRANCH   5  10
BRANCH   6  12
ATOM     12  O   UNL     1     -38.271  -1.156  18.165  1.00  0.00    -0.504 OA
ATOM     13  H   UNL     1     -39.211  -1.325  18.501  1.00  0.00     0.293 HD
ENDBRANCH   6  12
TORSDOF 3
ENDMDL
