MODEL 1
REMARK VINA RESULT:    -4.185      0.000      0.000
REMARK INTER + INTRA:          -8.164
REMARK INTER:                  -7.121
REMARK INTRA:                  -1.043
REMARK UNBOUND:                -1.043
REMARK SMILES CC(=O)CCC[C@H](C)CCC[C@@H](C)CCCC(C)C
REMARK SMILES IDX 10 1 11 2 12 3 13 4 14 5 15 6 16 7 17 8 18 9 19 10 9 11 7 12
REMARK SMILES IDX 8 13 6 14 5 15 4 16 2 17 3 18 1 19
REMARK H PARENT
REMARK Flexibility Score: inf
ROOT
ATOM      1  C   UNL     1     167.667 165.918 168.549  1.00  0.00     0.001 C 
ENDROOT
BRANCH   1   2
ATOM      2  C   UNL     1     168.282 166.693 169.731  1.00  0.00     0.003 C 
BRANCH   2   3
ATOM      3  C   UNL     1     169.762 167.112 169.539  1.00  0.00    -0.014 C 
ATOM      4  C   UNL     1     170.125 167.095 168.046  1.00  0.00     0.007 C 
BRANCH   3   5
ATOM      5  C   UNL     1     170.132 168.467 170.198  1.00  0.00     0.003 C 
BRANCH   5   6
ATOM      6  C   UNL     1     171.200 168.373 171.303  1.00  0.00     0.001 C 
BRANCH   6   7
ATOM      7  C   UNL     1     172.397 169.285 170.978  1.00  0.00     0.003 C 
BRANCH   7   8
ATOM      8  C   UNL     1     172.845 169.257 169.497  1.00  0.00    -0.017 C 
ATOM      9  C   UNL     1     173.004 170.665 168.905  1.00  0.00     0.007 C 
ATOM     10  C   UNL     1     174.118 168.426 169.283  1.00  0.00     0.007 C 
ENDBRANCH   7   8
ENDBRANCH   6   7
ENDBRANCH   5   6
ENDBRANCH   3   5
ENDBRANCH   2   3
ENDBRANCH   1   2
BRANCH   1  11
ATOM     11  C   UNL     1     166.454 165.029 168.901  1.00  0.00     0.003 C 
BRANCH  11  12
ATOM     12  C   UNL     1     165.169 165.784 169.329  1.00  0.00    -0.014 C 
ATOM     13  C   UNL     1     164.376 166.171 168.070  1.00  0.00     0.007 C 
BRANCH  12  14
ATOM     14  C   UNL     1     164.308 164.939 170.305  1.00  0.00     0.004 C 
BRANCH  14  15
ATOM     15  C   UNL     1     162.787 165.054 170.059  1.00  0.00     0.008 C 
BRANCH  15  16
ATOM     16  C   UNL     1     162.136 163.691 169.779  1.00  0.00     0.075 C 
BRANCH  16  17
ATOM     17  C   UNL     1     161.010 163.833 168.789  1.00  0.00     0.129 C 
ATOM     18  O   UNL     1     159.901 163.411 169.075  1.00  0.00    -0.300 OA
ATOM     19  C   UNL     1     161.218 164.494 167.459  1.00  0.00     0.087 C 
ENDBRANCH  16  17
ENDBRANCH  15  16
ENDBRANCH  14  15
ENDBRANCH  12  14
ENDBRANCH  11  12
ENDBRANCH   1  11
TORSDOF 12
ENDMDL
MODEL 2
REMARK VINA RESULT:    -4.111      2.255      4.740
REMARK INTER + INTRA:          -8.038
REMARK INTER:                  -7.032
REMARK INTRA:                  -1.005
REMARK UNBOUND:                -1.043
REMARK SMILES CC(=O)CCC[C@H](C)CCC[C@@H](C)CCCC(C)C
REMARK SMILES IDX 10 1 11 2 12 3 13 4 14 5 15 6 16 7 17 8 18 9 19 10 9 11 7 12
REMARK SMILES IDX 8 13 6 14 5 15 4 16 2 17 3 18 1 19
REMARK H PARENT
REMARK Flexibility Score: inf
ROOT
ATOM      1  C   UNL     1     162.913 165.141 170.935  1.00  0.00     0.001 C 
ENDROOT
BRANCH   1   2
ATOM      2  C   UNL     1     164.160 165.911 170.457  1.00  0.00     0.003 C 
BRANCH   2   3
ATOM      3  C   UNL     1     164.923 165.256 169.277  1.00  0.00    -0.014 C 
ATOM      4  C   UNL     1     164.733 166.089 168.000  1.00  0.00     0.007 C 
BRANCH   3   5
ATOM      5  C   UNL     1     166.423 164.983 169.560  1.00  0.00     0.003 C 
BRANCH   5   6
ATOM      6  C   UNL     1     167.392 165.992 168.918  1.00  0.00     0.001 C 
BRANCH   6   7
ATOM      7  C   UNL     1     168.051 166.872 169.995  1.00  0.00     0.003 C 
BRANCH   7   8
ATOM      8  C   UNL     1     169.531 167.229 169.717  1.00  0.00    -0.017 C 
ATOM      9  C   UNL     1     170.499 166.497 170.657  1.00  0.00     0.007 C 
ATOM     10  C   UNL     1     169.923 167.009 168.249  1.00  0.00     0.007 C 
ENDBRANCH   7   8
ENDBRANCH   6   7
ENDBRANCH   5   6
ENDBRANCH   3   5
ENDBRANCH   2   3
ENDBRANCH   1   2
BRANCH   1  11
ATOM     11  C   UNL     1     162.531 163.910 170.085  1.00  0.00     0.003 C 
BRANCH  11  12
ATOM     12  C   UNL     1     161.193 164.016 169.309  1.00  0.00    -0.014 C 
ATOM     13  C   UNL     1     161.491 164.393 167.849  1.00  0.00     0.007 C 
BRANCH  12  14
ATOM     14  C   UNL     1     160.374 162.701 169.400  1.00  0.00     0.004 C 
BRANCH  14  15
ATOM     15  C   UNL     1     158.855 162.921 169.573  1.00  0.00     0.008 C 
BRANCH  15  16
ATOM     16  C   UNL     1     158.172 161.745 170.290  1.00  0.00     0.075 C 
BRANCH  16  17
ATOM     17  C   UNL     1     157.600 160.774 169.292  1.00  0.00     0.129 C 
ATOM     18  O   UNL     1     156.463 160.935 168.878  1.00  0.00    -0.300 OA
ATOM     19  C   UNL     1     158.403 159.613 168.782  1.00  0.00     0.087 C 
ENDBRANCH  16  17
ENDBRANCH  15  16
ENDBRANCH  14  15
ENDBRANCH  12  14
ENDBRANCH  11  12
ENDBRANCH   1  11
TORSDOF 12
ENDMDL
MODEL 3
REMARK VINA RESULT:    -4.064      3.500      7.976
REMARK INTER + INTRA:          -7.959
REMARK INTER:                  -5.610
REMARK INTRA:                  -2.349
REMARK UNBOUND:                -1.043
REMARK SMILES CC(=O)CCC[C@H](C)CCC[C@@H](C)CCCC(C)C
REMARK SMILES IDX 10 1 11 2 12 3 13 4 14 5 15 6 16 7 17 8 18 9 19 10 9 11 7 12
REMARK SMILES IDX 8 13 6 14 5 15 4 16 2 17 3 18 1 19
REMARK H PARENT
REMARK Flexibility Score: inf
ROOT
ATOM      1  C   UNL     1     168.265 166.033 170.680  1.00  0.00     0.001 C 
ENDROOT
BRANCH   1   2
ATOM      2  C   UNL     1     167.078 165.201 170.154  1.00  0.00     0.003 C 
BRANCH   2   3
ATOM      3  C   UNL     1     166.374 165.784 168.902  1.00  0.00    -0.014 C 
ATOM      4  C   UNL     1     166.733 164.951 167.661  1.00  0.00     0.007 C 
BRANCH   3   5
ATOM      5  C   UNL     1     164.838 165.947 169.050  1.00  0.00     0.003 C 
BRANCH   5   6
ATOM      6  C   UNL     1     164.335 165.992 170.504  1.00  0.00     0.001 C 
BRANCH   6   7
ATOM      7  C   UNL     1     164.249 167.445 171.003  1.00  0.00     0.003 C 
BRANCH   7   8
ATOM      8  C   UNL     1     164.947 167.703 172.360  1.00  0.00    -0.017 C 
ATOM      9  C   UNL     1     165.338 166.403 173.076  1.00  0.00     0.007 C 
ATOM     10  C   UNL     1     166.155 168.641 172.230  1.00  0.00     0.007 C 
ENDBRANCH   7   8
ENDBRANCH   6   7
ENDBRANCH   5   6
ENDBRANCH   3   5
ENDBRANCH   2   3
ENDBRANCH   1   2
BRANCH   1  11
ATOM     11  C   UNL     1     168.658 167.246 169.809  1.00  0.00     0.003 C 
BRANCH  11  12
ATOM     12  C   UNL     1     170.057 167.170 169.143  1.00  0.00    -0.014 C 
ATOM     13  C   UNL     1     169.881 166.822 167.655  1.00  0.00     0.007 C 
BRANCH  12  14
ATOM     14  C   UNL     1     170.851 168.490 169.328  1.00  0.00     0.004 C 
BRANCH  14  15
ATOM     15  C   UNL     1     172.157 168.326 170.135  1.00  0.00     0.008 C 
BRANCH  15  16
ATOM     16  C   UNL     1     172.077 168.994 171.517  1.00  0.00     0.075 C 
BRANCH  16  17
ATOM     17  C   UNL     1     171.146 168.233 172.423  1.00  0.00     0.129 C 
ATOM     18  O   UNL     1     171.411 167.081 172.727  1.00  0.00    -0.300 OA
ATOM     19  C   UNL     1     169.901 168.864 172.972  1.00  0.00     0.087 C 
ENDBRANCH  16  17
ENDBRANCH  15  16
ENDBRANCH  14  15
ENDBRANCH  12  14
ENDBRANCH  11  12
ENDBRANCH   1  11
TORSDOF 12
ENDMDL
MODEL 4
REMARK VINA RESULT:    -4.036      4.132      9.578
REMARK INTER + INTRA:          -7.911
REMARK INTER:                  -6.307
REMARK INTRA:                  -1.605
REMARK UNBOUND:                -1.043
REMARK SMILES CC(=O)CCC[C@H](C)CCC[C@@H](C)CCCC(C)C
REMARK SMILES IDX 10 1 11 2 12 3 13 4 14 5 15 6 16 7 17 8 18 9 19 10 9 11 7 12
REMARK SMILES IDX 8 13 6 14 5 15 4 16 2 17 3 18 1 19
REMARK H PARENT
REMARK Flexibility Score: inf
ROOT
ATOM      1  C   UNL     1     171.858 167.151 171.664  1.00  0.00     0.001 C 
ENDROOT
BRANCH   1   2
ATOM      2  C   UNL     1     171.026 166.509 170.535  1.00  0.00     0.003 C 
BRANCH   2   3
ATOM      3  C   UNL     1     170.085 167.483 169.781  1.00  0.00    -0.014 C 
ATOM      4  C   UNL     1     170.081 167.152 168.280  1.00  0.00     0.007 C 
BRANCH   3   5
ATOM      5  C   UNL     1     168.645 167.550 170.352  1.00  0.00     0.003 C 
BRANCH   5   6
ATOM      6  C   UNL     1     167.934 166.189 170.462  1.00  0.00     0.001 C 
BRANCH   6   7
ATOM      7  C   UNL     1     166.430 166.338 170.172  1.00  0.00     0.003 C 
BRANCH   7   8
ATOM      8  C   UNL     1     165.891 165.400 169.065  1.00  0.00    -0.017 C 
ATOM      9  C   UNL     1     164.557 165.885 168.482  1.00  0.00     0.007 C 
ATOM     10  C   UNL     1     166.919 165.155 167.951  1.00  0.00     0.007 C 
ENDBRANCH   7   8
ENDBRANCH   6   7
ENDBRANCH   5   6
ENDBRANCH   3   5
ENDBRANCH   2   3
ENDBRANCH   1   2
BRANCH   1  11
ATOM     11  C   UNL     1     172.355 168.585 171.384  1.00  0.00     0.003 C 
BRANCH  11  12
ATOM     12  C   UNL     1     173.727 168.695 170.669  1.00  0.00    -0.014 C 
ATOM     13  C   UNL     1     174.411 167.318 170.691  1.00  0.00     0.007 C 
BRANCH  12  14
ATOM     14  C   UNL     1     173.577 169.232 169.222  1.00  0.00     0.004 C 
BRANCH  14  15
ATOM     15  C   UNL     1     172.530 170.358 169.077  1.00  0.00     0.008 C 
BRANCH  15  16
ATOM     16  C   UNL     1     173.176 171.723 168.793  1.00  0.00     0.075 C 
BRANCH  16  17
ATOM     17  C   UNL     1     173.623 172.376 170.074  1.00  0.00     0.129 C 
ATOM     18  O   UNL     1     172.811 172.984 170.754  1.00  0.00    -0.300 OA
ATOM     19  C   UNL     1     175.046 172.288 170.542  1.00  0.00     0.087 C 
ENDBRANCH  16  17
ENDBRANCH  15  16
ENDBRANCH  14  15
ENDBRANCH  12  14
ENDBRANCH  11  12
ENDBRANCH   1  11
TORSDOF 12
ENDMDL
MODEL 5
REMARK VINA RESULT:    -4.010      5.010      7.425
REMARK INTER + INTRA:          -7.867
REMARK INTER:                  -6.149
REMARK INTRA:                  -1.718
REMARK UNBOUND:                -1.043
REMARK SMILES CC(=O)CCC[C@H](C)CCC[C@@H](C)CCCC(C)C
REMARK SMILES IDX 10 1 11 2 12 3 13 4 14 5 15 6 16 7 17 8 18 9 19 10 9 11 7 12
REMARK SMILES IDX 8 13 6 14 5 15 4 16 2 17 3 18 1 19
REMARK H PARENT
REMARK Flexibility Score: inf
ROOT
ATOM      1  C   UNL     1     164.352 167.747 172.401  1.00  0.00     0.001 C 
ENDROOT
BRANCH   1   2
ATOM      2  C   UNL     1     165.839 167.536 172.746  1.00  0.00     0.003 C 
BRANCH   2   3
ATOM      3  C   UNL     1     166.793 167.477 171.525  1.00  0.00    -0.014 C 
ATOM      4  C   UNL     1     167.891 168.542 171.663  1.00  0.00     0.007 C 
BRANCH   3   5
ATOM      5  C   UNL     1     167.394 166.073 171.252  1.00  0.00     0.003 C 
BRANCH   5   6
ATOM      6  C   UNL     1     166.463 165.113 170.491  1.00  0.00     0.001 C 
BRANCH   6   7
ATOM      7  C   UNL     1     166.136 165.668 169.093  1.00  0.00     0.003 C 
BRANCH   7   8
ATOM      8  C   UNL     1     164.649 166.036 168.877  1.00  0.00    -0.017 C 
ATOM      9  C   UNL     1     164.280 166.147 167.391  1.00  0.00     0.007 C 
ATOM     10  C   UNL     1     163.696 165.079 169.607  1.00  0.00     0.007 C 
ENDBRANCH   7   8
ENDBRANCH   6   7
ENDBRANCH   5   6
ENDBRANCH   3   5
ENDBRANCH   2   3
ENDBRANCH   1   2
BRANCH   1  11
ATOM     11  C   UNL     1     164.076 168.719 171.234  1.00  0.00     0.003 C 
BRANCH  11  12
ATOM     12  C   UNL     1     163.685 170.164 171.638  1.00  0.00    -0.014 C 
ATOM     13  C   UNL     1     164.965 170.957 171.949  1.00  0.00     0.007 C 
BRANCH  12  14
ATOM     14  C   UNL     1     162.840 170.857 170.538  1.00  0.00     0.004 C 
BRANCH  14  15
ATOM     15  C   UNL     1     163.598 171.963 169.770  1.00  0.00     0.008 C 
BRANCH  15  16
ATOM     16  C   UNL     1     163.251 171.978 168.274  1.00  0.00     0.075 C 
BRANCH  16  17
ATOM     17  C   UNL     1     163.027 173.387 167.793  1.00  0.00     0.129 C 
ATOM     18  O   UNL     1     163.533 173.752 166.743  1.00  0.00    -0.300 OA
ATOM     19  C   UNL     1     162.184 174.353 168.571  1.00  0.00     0.087 C 
ENDBRANCH  16  17
ENDBRANCH  15  16
ENDBRANCH  14  15
ENDBRANCH  12  14
ENDBRANCH  11  12
ENDBRANCH   1  11
TORSDOF 12
ENDMDL
MODEL 6
REMARK VINA RESULT:    -4.003      3.306      8.282
REMARK INTER + INTRA:          -7.855
REMARK INTER:                  -5.986
REMARK INTRA:                  -1.869
REMARK UNBOUND:                -1.043
REMARK SMILES CC(=O)CCC[C@H](C)CCC[C@@H](C)CCCC(C)C
REMARK SMILES IDX 10 1 11 2 12 3 13 4 14 5 15 6 16 7 17 8 18 9 19 10 9 11 7 12
REMARK SMILES IDX 8 13 6 14 5 15 4 16 2 17 3 18 1 19
REMARK H PARENT
REMARK Flexibility Score: inf
ROOT
ATOM      1  C   UNL     1     167.472 165.744 169.333  1.00  0.00     0.001 C 
ENDROOT
BRANCH   1   2
ATOM      2  C   UNL     1     166.255 165.149 168.597  1.00  0.00     0.003 C 
BRANCH   2   3
ATOM      3  C   UNL     1     164.912 165.880 168.855  1.00  0.00    -0.014 C 
ATOM      4  C   UNL     1     164.271 166.289 167.520  1.00  0.00     0.007 C 
BRANCH   3   5
ATOM      5  C   UNL     1     163.916 165.090 169.745  1.00  0.00     0.003 C 
BRANCH   5   6
ATOM      6  C   UNL     1     163.635 165.727 171.117  1.00  0.00     0.001 C 
BRANCH   6   7
ATOM      7  C   UNL     1     164.300 164.911 172.240  1.00  0.00     0.003 C 
BRANCH   7   8
ATOM      8  C   UNL     1     164.888 163.553 171.788  1.00  0.00    -0.017 C 
ATOM      9  C   UNL     1     166.375 163.411 172.141  1.00  0.00     0.007 C 
ATOM     10  C   UNL     1     164.082 162.359 172.319  1.00  0.00     0.007 C 
ENDBRANCH   7   8
ENDBRANCH   6   7
ENDBRANCH   5   6
ENDBRANCH   3   5
ENDBRANCH   2   3
ENDBRANCH   1   2
BRANCH   1  11
ATOM     11  C   UNL     1     167.137 166.660 170.530  1.00  0.00     0.003 C 
BRANCH  11  12
ATOM     12  C   UNL     1     168.260 167.637 170.964  1.00  0.00    -0.014 C 
ATOM     13  C   UNL     1     167.687 168.632 171.987  1.00  0.00     0.007 C 
BRANCH  12  14
ATOM     14  C   UNL     1     169.487 166.880 171.536  1.00  0.00     0.004 C 
BRANCH  14  15
ATOM     15  C   UNL     1     170.821 167.235 170.842  1.00  0.00     0.008 C 
BRANCH  15  16
ATOM     16  C   UNL     1     170.635 167.563 169.352  1.00  0.00     0.075 C 
BRANCH  16  17
ATOM     17  C   UNL     1     171.133 168.951 169.047  1.00  0.00     0.129 C 
ATOM     18  O   UNL     1     170.487 169.671 168.303  1.00  0.00    -0.300 OA
ATOM     19  C   UNL     1     172.403 169.475 169.648  1.00  0.00     0.087 C 
ENDBRANCH  16  17
ENDBRANCH  15  16
ENDBRANCH  14  15
ENDBRANCH  12  14
ENDBRANCH  11  12
ENDBRANCH   1  11
TORSDOF 12
ENDMDL
MODEL 7
REMARK VINA RESULT:    -3.992      1.836      3.087
REMARK INTER + INTRA:          -7.835
REMARK INTER:                  -6.033
REMARK INTRA:                  -1.802
REMARK UNBOUND:                -1.043
REMARK SMILES CC(=O)CCC[C@H](C)CCC[C@@H](C)CCCC(C)C
REMARK SMILES IDX 10 1 11 2 12 3 13 4 14 5 15 6 16 7 17 8 18 9 19 10 9 11 7 12
REMARK SMILES IDX 8 13 6 14 5 15 4 16 2 17 3 18 1 19
REMARK H PARENT
REMARK Flexibility Score: inf
ROOT
ATOM      1  C   UNL     1     167.847 165.728 170.594  1.00  0.00     0.001 C 
ENDROOT
BRANCH   1   2
ATOM      2  C   UNL     1     168.325 167.075 170.015  1.00  0.00     0.003 C 
BRANCH   2   3
ATOM      3  C   UNL     1     169.794 167.091 169.520  1.00  0.00    -0.014 C 
ATOM      4  C   UNL     1     169.836 166.927 167.993  1.00  0.00     0.007 C 
BRANCH   3   5
ATOM      5  C   UNL     1     170.609 168.328 169.981  1.00  0.00     0.003 C 
BRANCH   5   6
ATOM      6  C   UNL     1     171.419 168.118 171.273  1.00  0.00     0.001 C 
BRANCH   6   7
ATOM      7  C   UNL     1     172.112 166.744 171.261  1.00  0.00     0.003 C 
BRANCH   7   8
ATOM      8  C   UNL     1     171.775 165.842 172.472  1.00  0.00    -0.017 C 
ATOM      9  C   UNL     1     172.930 165.753 173.479  1.00  0.00     0.007 C 
ATOM     10  C   UNL     1     170.472 166.258 173.169  1.00  0.00     0.007 C 
ENDBRANCH   7   8
ENDBRANCH   6   7
ENDBRANCH   5   6
ENDBRANCH   3   5
ENDBRANCH   2   3
ENDBRANCH   1   2
BRANCH   1  11
ATOM     11  C   UNL     1     166.807 164.973 169.739  1.00  0.00     0.003 C 
BRANCH  11  12
ATOM     12  C   UNL     1     166.341 165.699 168.450  1.00  0.00    -0.014 C 
ATOM     13  C   UNL     1     166.855 164.921 167.227  1.00  0.00     0.007 C 
BRANCH  12  14
ATOM     14  C   UNL     1     164.799 165.862 168.412  1.00  0.00     0.004 C 
BRANCH  14  15
ATOM     15  C   UNL     1     164.119 165.710 169.791  1.00  0.00     0.008 C 
BRANCH  15  16
ATOM     16  C   UNL     1     162.996 164.662 169.776  1.00  0.00     0.075 C 
BRANCH  16  17
ATOM     17  C   UNL     1     163.130 163.722 170.944  1.00  0.00     0.129 C 
ATOM     18  O   UNL     1     162.489 162.683 170.957  1.00  0.00    -0.300 OA
ATOM     19  C   UNL     1     164.048 164.027 172.091  1.00  0.00     0.087 C 
ENDBRANCH  16  17
ENDBRANCH  15  16
ENDBRANCH  14  15
ENDBRANCH  12  14
ENDBRANCH  11  12
ENDBRANCH   1  11
TORSDOF 12
ENDMDL
MODEL 8
REMARK VINA RESULT:    -3.966      4.527      6.428
REMARK INTER + INTRA:          -7.791
REMARK INTER:                  -5.483
REMARK INTRA:                  -2.309
REMARK UNBOUND:                -1.043
REMARK SMILES CC(=O)CCC[C@H](C)CCC[C@@H](C)CCCC(C)C
REMARK SMILES IDX 10 1 11 2 12 3 13 4 14 5 15 6 16 7 17 8 18 9 19 10 9 11 7 12
REMARK SMILES IDX 8 13 6 14 5 15 4 16 2 17 3 18 1 19
REMARK H PARENT
REMARK Flexibility Score: inf
ROOT
ATOM      1  C   UNL     1     162.585 163.573 170.908  1.00  0.00     0.001 C 
ENDROOT
BRANCH   1   2
ATOM      2  C   UNL     1     162.355 164.448 172.156  1.00  0.00     0.003 C 
BRANCH   2   3
ATOM      3  C   UNL     1     162.166 165.961 171.870  1.00  0.00    -0.014 C 
ATOM      4  C   UNL     1     160.890 166.471 172.558  1.00  0.00     0.007 C 
BRANCH   3   5
ATOM      5  C   UNL     1     163.395 166.836 172.231  1.00  0.00     0.003 C 
BRANCH   5   6
ATOM      6  C   UNL     1     164.267 167.244 171.031  1.00  0.00     0.001 C 
BRANCH   6   7
ATOM      7  C   UNL     1     165.631 166.531 171.084  1.00  0.00     0.003 C 
BRANCH   7   8
ATOM      8  C   UNL     1     165.742 165.284 170.174  1.00  0.00    -0.017 C 
ATOM      9  C   UNL     1     165.883 165.650 168.690  1.00  0.00     0.007 C 
ATOM     10  C   UNL     1     166.866 164.335 170.613  1.00  0.00     0.007 C 
ENDBRANCH   7   8
ENDBRANCH   6   7
ENDBRANCH   5   6
ENDBRANCH   3   5
ENDBRANCH   2   3
ENDBRANCH   1   2
BRANCH   1  11
ATOM     11  C   UNL     1     162.424 164.299 169.554  1.00  0.00     0.003 C 
BRANCH  11  12
ATOM     12  C   UNL     1     161.121 163.987 168.774  1.00  0.00    -0.014 C 
ATOM     13  C   UNL     1     161.284 164.462 167.321  1.00  0.00     0.007 C 
BRANCH  12  14
ATOM     14  C   UNL     1     160.760 162.480 168.842  1.00  0.00     0.004 C 
BRANCH  14  15
ATOM     15  C   UNL     1     159.409 162.190 169.533  1.00  0.00     0.008 C 
BRANCH  15  16
ATOM     16  C   UNL     1     158.805 163.443 170.185  1.00  0.00     0.075 C 
BRANCH  16  17
ATOM     17  C   UNL     1     158.779 163.303 171.684  1.00  0.00     0.129 C 
ATOM     18  O   UNL     1     159.380 162.380 172.212  1.00  0.00    -0.300 OA
ATOM     19  C   UNL     1     158.040 164.281 172.548  1.00  0.00     0.087 C 
ENDBRANCH  16  17
ENDBRANCH  15  16
ENDBRANCH  14  15
ENDBRANCH  12  14
ENDBRANCH  11  12
ENDBRANCH   1  11
TORSDOF 12
ENDMDL
MODEL 9
REMARK VINA RESULT:    -3.961      8.549     10.769
REMARK INTER + INTRA:          -7.782
REMARK INTER:                  -4.979
REMARK INTRA:                  -2.803
REMARK UNBOUND:                -1.043
REMARK SMILES CC(=O)CCC[C@H](C)CCC[C@@H](C)CCCC(C)C
REMARK SMILES IDX 10 1 11 2 12 3 13 4 14 5 15 6 16 7 17 8 18 9 19 10 9 11 7 12
REMARK SMILES IDX 8 13 6 14 5 15 4 16 2 17 3 18 1 19
REMARK H PARENT
REMARK Flexibility Score: inf
ROOT
ATOM      1  C   UNL     1     161.283 171.039 171.562  1.00  0.00     0.001 C 
ENDROOT
BRANCH   1   2
ATOM      2  C   UNL     1     160.052 170.889 170.645  1.00  0.00     0.003 C 
BRANCH   2   3
ATOM      3  C   UNL     1     159.644 172.176 169.882  1.00  0.00    -0.014 C 
ATOM      4  C   UNL     1     158.971 171.807 168.551  1.00  0.00     0.007 C 
BRANCH   3   5
ATOM      5  C   UNL     1     158.770 173.157 170.707  1.00  0.00     0.003 C 
BRANCH   5   6
ATOM      6  C   UNL     1     159.317 174.593 170.788  1.00  0.00     0.001 C 
BRANCH   6   7
ATOM      7  C   UNL     1     160.148 174.785 172.069  1.00  0.00     0.003 C 
BRANCH   7   8
ATOM      8  C   UNL     1     161.680 174.701 171.862  1.00  0.00    -0.017 C 
ATOM      9  C   UNL     1     162.270 176.003 171.303  1.00  0.00     0.007 C 
ATOM     10  C   UNL     1     162.421 174.266 173.134  1.00  0.00     0.007 C 
ENDBRANCH   7   8
ENDBRANCH   6   7
ENDBRANCH   5   6
ENDBRANCH   3   5
ENDBRANCH   2   3
ENDBRANCH   1   2
BRANCH   1  11
ATOM     11  C   UNL     1     162.646 170.777 170.886  1.00  0.00     0.003 C 
BRANCH  11  12
ATOM     12  C   UNL     1     163.244 171.968 170.094  1.00  0.00    -0.014 C 
ATOM     13  C   UNL     1     164.606 172.338 170.703  1.00  0.00     0.007 C 
BRANCH  12  14
ATOM     14  C   UNL     1     163.367 171.645 168.582  1.00  0.00     0.004 C 
BRANCH  14  15
ATOM     15  C   UNL     1     163.173 172.870 167.662  1.00  0.00     0.008 C 
BRANCH  15  16
ATOM     16  C   UNL     1     162.223 173.913 168.270  1.00  0.00     0.075 C 
BRANCH  16  17
ATOM     17  C   UNL     1     161.705 174.845 167.207  1.00  0.00     0.129 C 
ATOM     18  O   UNL     1     162.302 174.939 166.146  1.00  0.00    -0.300 OA
ATOM     19  C   UNL     1     160.459 175.654 167.416  1.00  0.00     0.087 C 
ENDBRANCH  16  17
ENDBRANCH  15  16
ENDBRANCH  14  15
ENDBRANCH  12  14
ENDBRANCH  11  12
ENDBRANCH   1  11
TORSDOF 12
ENDMDL
