MODEL 1
REMARK VINA RESULT:    -2.932      0.000      0.000
REMARK INTER + INTRA:          -3.104
REMARK INTER:                  -3.532
REMARK INTRA:                   0.428
REMARK UNBOUND:                 0.428
REMARK SMILES O=c1c(O)c(-c2ccc(O)c(O)c2)oc2cc(O)cc(O)c12
REMARK SMILES IDX 5 1 3 2 2 3 1 4 22 5 20 6 19 7 17 8 16 9 15 10 14 11 6 12
REMARK SMILES IDX 7 13 8 14 9 15 13 16 11 17 10 18 12 20 4 22 21 24 18 26
REMARK H PARENT 10 19 12 21 4 23 21 25 18 27
REMARK Flexibility Score: inf
ROOT
ATOM      1  C   UNL     1      26.513 -18.871   0.916  1.00  0.00     0.180 A 
ATOM      2  C   UNL     1      27.592 -18.378   0.163  1.00  0.00     0.208 A 
ATOM      3  C   UNL     1      28.885 -18.434   0.708  1.00  0.00     0.238 A 
ATOM      4  O   UNL     1      29.855 -18.042   0.007  1.00  0.00    -0.285 OA
ATOM      5  C   UNL     1      29.080 -18.968   2.005  1.00  0.00     0.111 A 
ATOM      6  C   UNL     1      30.340 -19.038   2.671  1.00  0.00     0.134 A 
ATOM      7  C   UNL     1      30.436 -19.703   3.900  1.00  0.00     0.093 A 
ATOM      8  C   UNL     1      29.305 -20.246   4.515  1.00  0.00     0.123 A 
ATOM      9  C   UNL     1      28.061 -20.130   3.900  1.00  0.00     0.094 A 
ATOM     10  C   UNL     1      27.939 -19.504   2.658  1.00  0.00     0.146 A 
ATOM     11  O   UNL     1      26.736 -19.425   2.102  1.00  0.00    -0.452 OA
ENDROOT
BRANCH   1  12
ATOM     12  C   UNL     1      25.119 -18.822   0.419  1.00  0.00     0.025 A 
ATOM     13  C   UNL     1      24.784 -17.924  -0.608  1.00  0.00     0.016 A 
ATOM     14  C   UNL     1      23.479 -17.875  -1.107  1.00  0.00     0.051 A 
ATOM     15  C   UNL     1      22.495 -18.729  -0.599  1.00  0.00     0.157 A 
ATOM     16  C   UNL     1      24.133 -19.694   0.913  1.00  0.00     0.062 A 
ATOM     17  C   UNL     1      22.823 -19.647   0.412  1.00  0.00     0.158 A 
BRANCH  15  18
ATOM     18  O   UNL     1      21.202 -18.655  -1.115  1.00  0.00    -0.504 OA
ATOM     19  H   UNL     1      20.968 -19.011  -2.035  1.00  0.00     0.293 HD
ENDBRANCH  15  18
BRANCH  17  20
ATOM     20  O   UNL     1      21.850 -20.511   0.912  1.00  0.00    -0.504 OA
ATOM     21  H   UNL     1      21.151 -20.929   0.308  1.00  0.00     0.293 HD
ENDBRANCH  17  20
ENDBRANCH   1  12
BRANCH   2  22
ATOM     22  O   UNL     1      27.380 -17.876  -1.124  1.00  0.00    -0.502 OA
ATOM     23  H   UNL     1      27.764 -16.990  -1.433  1.00  0.00     0.293 HD
ENDBRANCH   2  22
BRANCH   6  24
ATOM     24  O   UNL     1      31.512 -18.450   2.187  1.00  0.00    -0.507 OA
ATOM     25  H   UNL     1      32.149 -18.887   1.537  1.00  0.00     0.293 HD
ENDBRANCH   6  24
BRANCH   8  26
ATOM     26  O   UNL     1      29.406 -20.893   5.744  1.00  0.00    -0.508 OA
ATOM     27  H   UNL     1      29.400 -21.904   5.813  1.00  0.00     0.293 HD
ENDBRANCH   8  26
TORSDOF 6
ENDMDL
MODEL 2
REMARK VINA RESULT:    -2.530      4.885      6.775
REMARK INTER + INTRA:          -2.620
REMARK INTER:                  -2.678
REMARK INTRA:                   0.057
REMARK UNBOUND:                 0.428
REMARK SMILES O=c1c(O)c(-c2ccc(O)c(O)c2)oc2cc(O)cc(O)c12
REMARK SMILES IDX 5 1 3 2 2 3 1 4 22 5 20 6 19 7 17 8 16 9 15 10 14 11 6 12
REMARK SMILES IDX 7 13 8 14 9 15 13 16 11 17 10 18 12 20 4 22 21 24 18 26
REMARK H PARENT 10 19 12 21 4 23 21 25 18 27
REMARK Flexibility Score: inf
ROOT
ATOM      1  C   UNL     1      29.969 -22.700   1.079  1.00  0.00     0.180 A 
ATOM      2  C   UNL     1      30.947 -22.248   1.981  1.00  0.00     0.208 A 
ATOM      3  C   UNL     1      30.863 -20.937   2.476  1.00  0.00     0.238 A 
ATOM      4  O   UNL     1      31.711 -20.555   3.326  1.00  0.00    -0.285 OA
ATOM      5  C   UNL     1      29.811 -20.089   2.051  1.00  0.00     0.111 A 
ATOM      6  C   UNL     1      29.651 -18.730   2.458  1.00  0.00     0.134 A 
ATOM      7  C   UNL     1      28.501 -18.027   2.077  1.00  0.00     0.093 A 
ATOM      8  C   UNL     1      27.539 -18.613   1.252  1.00  0.00     0.123 A 
ATOM      9  C   UNL     1      27.716 -19.919   0.801  1.00  0.00     0.094 A 
ATOM     10  C   UNL     1      28.834 -20.658   1.193  1.00  0.00     0.146 A 
ATOM     11  O   UNL     1      28.959 -21.904   0.750  1.00  0.00    -0.452 OA
ENDROOT
BRANCH   1  12
ATOM     12  C   UNL     1      30.006 -24.060   0.494  1.00  0.00     0.025 A 
ATOM     13  C   UNL     1      31.210 -24.550  -0.038  1.00  0.00     0.016 A 
ATOM     14  C   UNL     1      31.273 -25.838  -0.577  1.00  0.00     0.051 A 
ATOM     15  C   UNL     1      30.143 -26.660  -0.578  1.00  0.00     0.157 A 
ATOM     16  C   UNL     1      28.876 -24.896   0.509  1.00  0.00     0.062 A 
ATOM     17  C   UNL     1      28.938 -26.190  -0.029  1.00  0.00     0.158 A 
BRANCH  15  18
ATOM     18  O   UNL     1      30.236 -27.939  -1.125  1.00  0.00    -0.504 OA
ATOM     19  H   UNL     1      29.539 -28.304  -1.763  1.00  0.00     0.293 HD
ENDBRANCH  15  18
BRANCH  17  20
ATOM     20  O   UNL     1      27.812 -27.010  -0.015  1.00  0.00    -0.504 OA
ATOM     21  H   UNL     1      26.902 -26.666  -0.299  1.00  0.00     0.293 HD
ENDBRANCH  17  20
ENDBRANCH   1  12
BRANCH   2  22
ATOM     22  O   UNL     1      31.965 -23.108   2.404  1.00  0.00    -0.502 OA
ATOM     23  H   UNL     1      31.812 -24.096   2.564  1.00  0.00     0.293 HD
ENDBRANCH   2  22
BRANCH   6  24
ATOM     24  O   UNL     1      30.596 -18.023   3.206  1.00  0.00    -0.507 OA
ATOM     25  H   UNL     1      30.411 -17.577   4.092  1.00  0.00     0.293 HD
ENDBRANCH   6  24
BRANCH   8  26
ATOM     26  O   UNL     1      26.406 -17.901   0.864  1.00  0.00    -0.508 OA
ATOM     27  H   UNL     1      26.338 -16.898   1.000  1.00  0.00     0.293 HD
ENDBRANCH   8  26
TORSDOF 6
ENDMDL
MODEL 3
REMARK VINA RESULT:    -1.301      1.240      2.990
REMARK INTER + INTRA:          -1.139
REMARK INTER:                  -1.473
REMARK INTRA:                   0.334
REMARK UNBOUND:                 0.428
REMARK SMILES O=c1c(O)c(-c2ccc(O)c(O)c2)oc2cc(O)cc(O)c12
REMARK SMILES IDX 5 1 3 2 2 3 1 4 22 5 20 6 19 7 17 8 16 9 15 10 14 11 6 12
REMARK SMILES IDX 7 13 8 14 9 15 13 16 11 17 10 18 12 20 4 22 21 24 18 26
REMARK H PARENT 10 19 12 21 4 23 21 25 18 27
REMARK Flexibility Score: inf
ROOT
ATOM      1  C   UNL     1      26.590 -18.877   1.024  1.00  0.00     0.180 A 
ATOM      2  C   UNL     1      26.874 -19.287   2.337  1.00  0.00     0.208 A 
ATOM      3  C   UNL     1      28.214 -19.395   2.742  1.00  0.00     0.238 A 
ATOM      4  O   UNL     1      28.463 -19.710   3.935  1.00  0.00    -0.285 OA
ATOM      5  C   UNL     1      29.253 -19.107   1.823  1.00  0.00     0.111 A 
ATOM      6  C   UNL     1      30.646 -19.221   2.113  1.00  0.00     0.134 A 
ATOM      7  C   UNL     1      31.585 -18.785   1.170  1.00  0.00     0.093 A 
ATOM      8  C   UNL     1      31.182 -18.299  -0.076  1.00  0.00     0.123 A 
ATOM      9  C   UNL     1      29.827 -18.240  -0.391  1.00  0.00     0.094 A 
ATOM     10  C   UNL     1      28.865 -18.633   0.542  1.00  0.00     0.146 A 
ATOM     11  O   UNL     1      27.583 -18.551   0.206  1.00  0.00    -0.452 OA
ENDROOT
BRANCH   1  12
ATOM     12  C   UNL     1      25.203 -18.765   0.518  1.00  0.00     0.025 A 
ATOM     13  C   UNL     1      24.943 -17.980  -0.618  1.00  0.00     0.016 A 
ATOM     14  C   UNL     1      23.645 -17.876  -1.125  1.00  0.00     0.051 A 
ATOM     15  C   UNL     1      22.591 -18.566  -0.518  1.00  0.00     0.157 A 
ATOM     16  C   UNL     1      24.145 -19.474   1.114  1.00  0.00     0.062 A 
ATOM     17  C   UNL     1      22.842 -19.374   0.604  1.00  0.00     0.158 A 
BRANCH  15  18
ATOM     18  O   UNL     1      21.307 -18.442  -1.046  1.00  0.00    -0.504 OA
ATOM     19  H   UNL     1      21.022 -17.632  -1.584  1.00  0.00     0.293 HD
ENDBRANCH  15  18
BRANCH  17  20
ATOM     20  O   UNL     1      21.798 -20.075   1.205  1.00  0.00    -0.504 OA
ATOM     21  H   UNL     1      21.950 -20.972   1.653  1.00  0.00     0.293 HD
ENDBRANCH  17  20
ENDBRANCH   1  12
BRANCH   2  22
ATOM     22  O   UNL     1      25.834 -19.546   3.235  1.00  0.00    -0.502 OA
ATOM     23  H   UNL     1      25.854 -19.231   4.198  1.00  0.00     0.293 HD
ENDBRANCH   2  22
BRANCH   6  24
ATOM     24  O   UNL     1      31.155 -19.777   3.290  1.00  0.00    -0.507 OA
ATOM     25  H   UNL     1      32.013 -20.305   3.352  1.00  0.00     0.293 HD
ENDBRANCH   6  24
BRANCH   8  26
ATOM     26  O   UNL     1      32.124 -17.882  -1.015  1.00  0.00    -0.508 OA
ATOM     27  H   UNL     1      32.774 -17.131  -0.815  1.00  0.00     0.293 HD
ENDBRANCH   8  26
TORSDOF 6
ENDMDL
