MODEL 1
REMARK VINA RESULT:    -4.770      0.000      0.000
REMARK INTER + INTRA:          -4.770
REMARK INTER:                  -4.770
REMARK INTRA:                   0.000
REMARK UNBOUND:                 0.000
REMARK SMILES CC1=CC(=O)[C@@H]2C[C@H]1C2(C)C
REMARK SMILES IDX 1 1 2 2 3 3 4 4 5 5 6 6 7 7 8 8 9 9 10 10 11 11
REMARK H PARENT
REMARK Flexibility Score: inf
ROOT
ATOM      1  C   UNL     1     -10.314 -19.121  21.684  1.00  0.00     0.040 C 
ATOM      2  C   UNL     1     -10.597 -20.428  21.011  1.00  0.00    -0.066 C 
ATOM      3  C   UNL     1     -11.857 -20.766  20.620  1.00  0.00     0.047 C 
ATOM      4  C   UNL     1     -12.005 -22.087  19.929  1.00  0.00     0.159 C 
ATOM      5  O   UNL     1     -13.111 -22.493  19.486  1.00  0.00    -0.295 OA
ATOM      6  C   UNL     1     -10.719 -22.904  19.799  1.00  0.00     0.067 C 
ATOM      7  C   UNL     1     -10.071 -22.816  21.198  1.00  0.00     0.021 C 
ATOM      8  C   UNL     1      -9.482 -21.461  20.744  1.00  0.00     0.022 C 
ATOM      9  C   UNL     1      -9.590 -21.971  19.278  1.00  0.00    -0.019 C 
ATOM     10  C   UNL     1      -9.937 -20.941  18.165  1.00  0.00     0.012 C 
ATOM     11  C   UNL     1      -8.331 -22.760  18.833  1.00  0.00     0.012 C 
ENDROOT
TORSDOF 0
ENDMDL
MODEL 2
REMARK VINA RESULT:    -4.719      6.418      8.422
REMARK INTER + INTRA:          -4.719
REMARK INTER:                  -4.719
REMARK INTRA:                   0.000
REMARK UNBOUND:                 0.000
REMARK SMILES CC1=CC(=O)[C@@H]2C[C@H]1C2(C)C
REMARK SMILES IDX 1 1 2 2 3 3 4 4 5 5 6 6 7 7 8 8 9 9 10 10 11 11
REMARK H PARENT
REMARK Flexibility Score: inf
ROOT
ATOM      1  C   UNL     1      -5.753 -15.334  26.028  1.00  0.00     0.040 C 
ATOM      2  C   UNL     1      -6.130 -15.204  24.586  1.00  0.00    -0.066 C 
ATOM      3  C   UNL     1      -5.341 -14.528  23.704  1.00  0.00     0.047 C 
ATOM      4  C   UNL     1      -5.813 -14.496  22.282  1.00  0.00     0.159 C 
ATOM      5  O   UNL     1      -5.152 -13.937  21.368  1.00  0.00    -0.295 OA
ATOM      6  C   UNL     1      -7.149 -15.191  22.021  1.00  0.00     0.067 C 
ATOM      7  C   UNL     1      -8.063 -14.697  23.164  1.00  0.00     0.021 C 
ATOM      8  C   UNL     1      -7.435 -15.812  24.030  1.00  0.00     0.022 C 
ATOM      9  C   UNL     1      -7.128 -16.583  22.713  1.00  0.00    -0.019 C 
ATOM     10  C   UNL     1      -5.821 -17.424  22.642  1.00  0.00     0.012 C 
ATOM     11  C   UNL     1      -8.308 -17.483  22.266  1.00  0.00     0.012 C 
ENDROOT
TORSDOF 0
ENDMDL
MODEL 3
REMARK VINA RESULT:    -4.621      1.441      3.366
REMARK INTER + INTRA:          -4.621
REMARK INTER:                  -4.621
REMARK INTRA:                   0.000
REMARK UNBOUND:                 0.000
REMARK SMILES CC1=CC(=O)[C@@H]2C[C@H]1C2(C)C
REMARK SMILES IDX 1 1 2 2 3 3 4 4 5 5 6 6 7 7 8 8 9 9 10 10 11 11
REMARK H PARENT
REMARK Flexibility Score: inf
ROOT
ATOM      1  C   UNL     1      -9.774 -22.877  18.839  1.00  0.00     0.040 C 
ATOM      2  C   UNL     1     -10.868 -22.315  19.691  1.00  0.00    -0.066 C 
ATOM      3  C   UNL     1     -12.179 -22.571  19.421  1.00  0.00     0.047 C 
ATOM      4  C   UNL     1     -13.179 -21.977  20.365  1.00  0.00     0.159 C 
ATOM      5  O   UNL     1     -14.416 -22.174  20.245  1.00  0.00    -0.295 OA
ATOM      6  C   UNL     1     -12.590 -21.118  21.485  1.00  0.00     0.067 C 
ATOM      7  C   UNL     1     -11.554 -20.223  20.770  1.00  0.00     0.021 C 
ATOM      8  C   UNL     1     -10.570 -21.407  20.902  1.00  0.00     0.022 C 
ATOM      9  C   UNL     1     -11.401 -21.887  22.127  1.00  0.00    -0.019 C 
ATOM     10  C   UNL     1     -11.551 -23.418  22.359  1.00  0.00     0.012 C 
ATOM     11  C   UNL     1     -10.927 -21.239  23.453  1.00  0.00     0.012 C 
ENDROOT
TORSDOF 0
ENDMDL
MODEL 4
REMARK VINA RESULT:    -4.593      1.855      3.292
REMARK INTER + INTRA:          -4.593
REMARK INTER:                  -4.593
REMARK INTRA:                   0.000
REMARK UNBOUND:                 0.000
REMARK SMILES CC1=CC(=O)[C@@H]2C[C@H]1C2(C)C
REMARK SMILES IDX 1 1 2 2 3 3 4 4 5 5 6 6 7 7 8 8 9 9 10 10 11 11
REMARK H PARENT
REMARK Flexibility Score: inf
ROOT
ATOM      1  C   UNL     1     -12.989 -22.748  19.251  1.00  0.00     0.040 C 
ATOM      2  C   UNL     1     -11.614 -22.529  19.801  1.00  0.00    -0.066 C 
ATOM      3  C   UNL     1     -10.503 -22.832  19.074  1.00  0.00     0.047 C 
ATOM      4  C   UNL     1      -9.185 -22.537  19.724  1.00  0.00     0.159 C 
ATOM      5  O   UNL     1      -8.089 -22.736  19.139  1.00  0.00    -0.295 OA
ATOM      6  C   UNL     1      -9.267 -21.975  21.143  1.00  0.00     0.067 C 
ATOM      7  C   UNL     1     -10.307 -22.875  21.847  1.00  0.00     0.021 C 
ATOM      8  C   UNL     1     -11.388 -21.966  21.220  1.00  0.00     0.022 C 
ATOM      9  C   UNL     1     -10.322 -20.833  21.164  1.00  0.00    -0.019 C 
ATOM     10  C   UNL     1     -10.364 -19.843  19.965  1.00  0.00     0.012 C 
ATOM     11  C   UNL     1     -10.270 -20.006  22.474  1.00  0.00     0.012 C 
ENDROOT
TORSDOF 0
ENDMDL
MODEL 5
REMARK VINA RESULT:    -4.578     12.526     13.410
REMARK INTER + INTRA:          -4.578
REMARK INTER:                  -4.578
REMARK INTRA:                   0.000
REMARK UNBOUND:                 0.000
REMARK SMILES CC1=CC(=O)[C@@H]2C[C@H]1C2(C)C
REMARK SMILES IDX 1 1 2 2 3 3 4 4 5 5 6 6 7 7 8 8 9 9 10 10 11 11
REMARK H PARENT
REMARK Flexibility Score: inf
ROOT
ATOM      1  C   UNL     1     -20.178 -27.382  25.620  1.00  0.00     0.040 C 
ATOM      2  C   UNL     1     -19.535 -28.650  26.087  1.00  0.00    -0.066 C 
ATOM      3  C   UNL     1     -20.110 -29.424  27.050  1.00  0.00     0.047 C 
ATOM      4  C   UNL     1     -19.384 -30.684  27.408  1.00  0.00     0.159 C 
ATOM      5  O   UNL     1     -19.833 -31.501  28.254  1.00  0.00    -0.295 OA
ATOM      6  C   UNL     1     -18.062 -30.909  26.674  1.00  0.00     0.067 C 
ATOM      7  C   UNL     1     -17.349 -29.541  26.751  1.00  0.00     0.021 C 
ATOM      8  C   UNL     1     -18.185 -29.134  25.517  1.00  0.00     0.022 C 
ATOM      9  C   UNL     1     -18.286 -30.645  25.159  1.00  0.00    -0.019 C 
ATOM     10  C   UNL     1     -19.600 -31.159  24.505  1.00  0.00     0.012 C 
ATOM     11  C   UNL     1     -17.093 -31.127  24.293  1.00  0.00     0.012 C 
ENDROOT
TORSDOF 0
ENDMDL
MODEL 6
REMARK VINA RESULT:    -4.507     12.711     14.032
REMARK INTER + INTRA:          -4.507
REMARK INTER:                  -4.507
REMARK INTRA:                   0.000
REMARK UNBOUND:                 0.000
REMARK SMILES CC1=CC(=O)[C@@H]2C[C@H]1C2(C)C
REMARK SMILES IDX 1 1 2 2 3 3 4 4 5 5 6 6 7 7 8 8 9 9 10 10 11 11
REMARK H PARENT
REMARK Flexibility Score: inf
ROOT
ATOM      1  C   UNL     1     -17.079 -31.397  24.366  1.00  0.00     0.040 C 
ATOM      2  C   UNL     1     -18.312 -30.785  24.953  1.00  0.00    -0.066 C 
ATOM      3  C   UNL     1     -19.554 -31.138  24.520  1.00  0.00     0.047 C 
ATOM      4  C   UNL     1     -20.709 -30.477  25.209  1.00  0.00     0.159 C 
ATOM      5  O   UNL     1     -21.905 -30.749  24.925  1.00  0.00    -0.295 OA
ATOM      6  C   UNL     1     -20.332 -29.453  26.280  1.00  0.00     0.067 C 
ATOM      7  C   UNL     1     -19.221 -28.608  25.620  1.00  0.00     0.021 C 
ATOM      8  C   UNL     1     -18.238 -29.714  26.062  1.00  0.00     0.022 C 
ATOM      9  C   UNL     1     -19.241 -30.073  27.196  1.00  0.00    -0.019 C 
ATOM     10  C   UNL     1     -19.382 -31.567  27.607  1.00  0.00     0.012 C 
ATOM     11  C   UNL     1     -19.004 -29.238  28.480  1.00  0.00     0.012 C 
ENDROOT
TORSDOF 0
ENDMDL
MODEL 7
REMARK VINA RESULT:    -4.503      1.750      3.485
REMARK INTER + INTRA:          -4.503
REMARK INTER:                  -4.503
REMARK INTRA:                   0.000
REMARK UNBOUND:                 0.000
REMARK SMILES CC1=CC(=O)[C@@H]2C[C@H]1C2(C)C
REMARK SMILES IDX 1 1 2 2 3 3 4 4 5 5 6 6 7 7 8 8 9 9 10 10 11 11
REMARK H PARENT
REMARK Flexibility Score: inf
ROOT
ATOM      1  C   UNL     1      -9.585 -21.358  17.330  1.00  0.00     0.040 C 
ATOM      2  C   UNL     1      -9.954 -21.862  18.690  1.00  0.00    -0.066 C 
ATOM      3  C   UNL     1      -9.020 -22.398  19.525  1.00  0.00     0.047 C 
ATOM      4  C   UNL     1      -9.510 -22.837  20.871  1.00  0.00     0.159 C 
ATOM      5  O   UNL     1      -8.737 -23.311  21.745  1.00  0.00    -0.295 OA
ATOM      6  C   UNL     1     -11.010 -22.667  21.110  1.00  0.00     0.067 C 
ATOM      7  C   UNL     1     -11.662 -23.211  19.820  1.00  0.00     0.021 C 
ATOM      8  C   UNL     1     -11.408 -21.816  19.207  1.00  0.00     0.022 C 
ATOM      9  C   UNL     1     -11.426 -21.240  20.652  1.00  0.00    -0.019 C 
ATOM     10  C   UNL     1     -10.477 -20.053  20.983  1.00  0.00     0.012 C 
ATOM     11  C   UNL     1     -12.855 -20.864  21.120  1.00  0.00     0.012 C 
ENDROOT
TORSDOF 0
ENDMDL
MODEL 8
REMARK VINA RESULT:    -4.460      6.096      8.194
REMARK INTER + INTRA:          -4.460
REMARK INTER:                  -4.460
REMARK INTRA:                   0.000
REMARK UNBOUND:                 0.000
REMARK SMILES CC1=CC(=O)[C@@H]2C[C@H]1C2(C)C
REMARK SMILES IDX 1 1 2 2 3 3 4 4 5 5 6 6 7 7 8 8 9 9 10 10 11 11
REMARK H PARENT
REMARK Flexibility Score: inf
ROOT
ATOM      1  C   UNL     1      -8.556 -17.972  22.084  1.00  0.00     0.040 C 
ATOM      2  C   UNL     1      -7.822 -16.930  22.868  1.00  0.00    -0.066 C 
ATOM      3  C   UNL     1      -7.476 -17.135  24.170  1.00  0.00     0.047 C 
ATOM      4  C   UNL     1      -6.717 -16.029  24.835  1.00  0.00     0.159 C 
ATOM      5  O   UNL     1      -6.308 -16.115  26.023  1.00  0.00    -0.295 OA
ATOM      6  C   UNL     1      -6.472 -14.791  23.972  1.00  0.00     0.067 C 
ATOM      7  C   UNL     1      -7.838 -14.518  23.306  1.00  0.00     0.021 C 
ATOM      8  C   UNL     1      -7.436 -15.570  22.249  1.00  0.00     0.022 C 
ATOM      9  C   UNL     1      -5.950 -15.252  22.582  1.00  0.00    -0.019 C 
ATOM     10  C   UNL     1      -4.919 -16.417  22.529  1.00  0.00     0.012 C 
ATOM     11  C   UNL     1      -5.394 -14.075  21.740  1.00  0.00     0.012 C 
ENDROOT
TORSDOF 0
ENDMDL
MODEL 9
REMARK VINA RESULT:    -4.415      1.500      3.220
REMARK INTER + INTRA:          -4.415
REMARK INTER:                  -4.415
REMARK INTRA:                   0.000
REMARK UNBOUND:                 0.000
REMARK SMILES CC1=CC(=O)[C@@H]2C[C@H]1C2(C)C
REMARK SMILES IDX 1 1 2 2 3 3 4 4 5 5 6 6 7 7 8 8 9 9 10 10 11 11
REMARK H PARENT
REMARK Flexibility Score: inf
ROOT
ATOM      1  C   UNL     1      -9.659 -21.401  17.649  1.00  0.00     0.040 C 
ATOM      2  C   UNL     1     -10.111 -21.351  19.074  1.00  0.00    -0.066 C 
ATOM      3  C   UNL     1     -10.438 -22.486  19.755  1.00  0.00     0.047 C 
ATOM      4  C   UNL     1     -10.845 -22.307  21.185  1.00  0.00     0.159 C 
ATOM      5  O   UNL     1     -11.132 -23.281  21.929  1.00  0.00    -0.295 OA
ATOM      6  C   UNL     1     -10.886 -20.859  21.677  1.00  0.00     0.067 C 
ATOM      7  C   UNL     1     -11.615 -20.097  20.550  1.00  0.00     0.021 C 
ATOM      8  C   UNL     1     -10.246 -20.017  19.838  1.00  0.00     0.022 C 
ATOM      9  C   UNL     1      -9.575 -20.149  21.235  1.00  0.00    -0.019 C 
ATOM     10  C   UNL     1      -8.237 -20.936  21.337  1.00  0.00     0.012 C 
ATOM     11  C   UNL     1      -9.384 -18.777  21.931  1.00  0.00     0.012 C 
ENDROOT
TORSDOF 0
ENDMDL
