MODEL 1
REMARK VINA RESULT:    -2.908      0.000      0.000
REMARK INTER + INTRA:          -4.766
REMARK INTER:                  -4.098
REMARK INTRA:                  -0.667
REMARK UNBOUND:                -0.667
REMARK SMILES C=CCCCCCCC(=O)[O-]
REMARK SMILES IDX 6 1 7 2 8 3 9 4 10 5 11 6 5 7 4 8 3 9 2 10 1 11
REMARK H PARENT
REMARK Flexibility Score: inf
ROOT
ATOM      1  C   UNL     1     -24.237   3.073 -33.828  1.00  0.00     0.000 C 
ENDROOT
BRANCH   1   2
ATOM      2  C   UNL     1     -23.585   4.432 -33.534  1.00  0.00     0.006 C 
BRANCH   2   3
ATOM      3  C   UNL     1     -24.519   5.321 -32.706  1.00  0.00     0.053 C 
BRANCH   3   4
ATOM      4  C   UNL     1     -23.982   5.500 -31.322  1.00  0.00     0.041 C 
ATOM      5  O   UNL     1     -23.985   6.638 -30.783  1.00  0.00    -0.550 OA
ATOM      6  O   UNL     1     -23.430   4.420 -30.645  1.00  0.00    -0.550 OA
ENDBRANCH   3   4
ENDBRANCH   2   3
ENDBRANCH   1   2
BRANCH   1   7
ATOM      7  C   UNL     1     -23.780   2.464 -35.167  1.00  0.00     0.000 C 
BRANCH   7   8
ATOM      8  C   UNL     1     -24.255   3.221 -36.420  1.00  0.00     0.004 C 
BRANCH   8   9
ATOM      9  C   UNL     1     -25.783   3.213 -36.580  1.00  0.00     0.027 C 
BRANCH   9  10
ATOM     10  C   UNL     1     -26.314   4.605 -36.786  1.00  0.00    -0.035 C 
ATOM     11  C   UNL     1     -26.661   5.385 -35.758  1.00  0.00     0.004 C 
ENDBRANCH   9  10
ENDBRANCH   8   9
ENDBRANCH   7   8
ENDBRANCH   1   7
TORSDOF 7
ENDMDL
MODEL 2
REMARK VINA RESULT:    -2.897     13.725     14.677
REMARK INTER + INTRA:          -4.750
REMARK INTER:                  -4.124
REMARK INTRA:                  -0.626
REMARK UNBOUND:                -0.667
REMARK SMILES C=CCCCCCCC(=O)[O-]
REMARK SMILES IDX 6 1 7 2 8 3 9 4 10 5 11 6 5 7 4 8 3 9 2 10 1 11
REMARK H PARENT
REMARK Flexibility Score: inf
ROOT
ATOM      1  C   UNL     1     -34.900  -6.326 -30.805  1.00  0.00     0.000 C 
ENDROOT
BRANCH   1   2
ATOM      2  C   UNL     1     -34.113  -7.429 -31.529  1.00  0.00     0.006 C 
BRANCH   2   3
ATOM      3  C   UNL     1     -32.775  -7.696 -30.833  1.00  0.00     0.053 C 
BRANCH   3   4
ATOM      4  C   UNL     1     -32.500  -9.165 -30.771  1.00  0.00     0.041 C 
ATOM      5  O   UNL     1     -33.196  -9.969 -31.446  1.00  0.00    -0.550 OA
ATOM      6  O   UNL     1     -31.509  -9.651 -29.929  1.00  0.00    -0.550 OA
ENDBRANCH   3   4
ENDBRANCH   2   3
ENDBRANCH   1   2
BRANCH   1   7
ATOM      7  C   UNL     1     -34.746  -4.944 -31.466  1.00  0.00     0.000 C 
BRANCH   7   8
ATOM      8  C   UNL     1     -34.507  -4.975 -32.986  1.00  0.00     0.004 C 
BRANCH   8   9
ATOM      9  C   UNL     1     -33.445  -3.965 -33.446  1.00  0.00     0.027 C 
BRANCH   9  10
ATOM     10  C   UNL     1     -32.063  -4.553 -33.354  1.00  0.00    -0.035 C 
ATOM     11  C   UNL     1     -31.268  -4.321 -32.305  1.00  0.00     0.004 C 
ENDBRANCH   9  10
ENDBRANCH   8   9
ENDBRANCH   7   8
ENDBRANCH   1   7
TORSDOF 7
ENDMDL
MODEL 3
REMARK VINA RESULT:    -2.873      3.431      7.160
REMARK INTER + INTRA:          -4.716
REMARK INTER:                  -4.301
REMARK INTRA:                  -0.415
REMARK UNBOUND:                -0.667
REMARK SMILES C=CCCCCCCC(=O)[O-]
REMARK SMILES IDX 6 1 7 2 8 3 9 4 10 5 11 6 5 7 4 8 3 9 2 10 1 11
REMARK H PARENT
REMARK Flexibility Score: inf
ROOT
ATOM      1  C   UNL     1     -25.117   6.661 -29.977  1.00  0.00     0.000 C 
ENDROOT
BRANCH   1   2
ATOM      2  C   UNL     1     -23.815   6.272 -30.693  1.00  0.00     0.006 C 
BRANCH   2   3
ATOM      3  C   UNL     1     -23.887   4.836 -31.220  1.00  0.00     0.053 C 
BRANCH   3   4
ATOM      4  C   UNL     1     -24.003   4.829 -32.711  1.00  0.00     0.041 C 
ATOM      5  O   UNL     1     -23.151   4.219 -33.410  1.00  0.00    -0.550 OA
ATOM      6  O   UNL     1     -25.021   5.539 -33.333  1.00  0.00    -0.550 OA
ENDBRANCH   3   4
ENDBRANCH   2   3
ENDBRANCH   1   2
BRANCH   1   7
ATOM      7  C   UNL     1     -25.017   8.010 -29.240  1.00  0.00     0.000 C 
BRANCH   7   8
ATOM      8  C   UNL     1     -24.508   7.922 -27.790  1.00  0.00     0.004 C 
BRANCH   8   9
ATOM      9  C   UNL     1     -24.917   6.616 -27.092  1.00  0.00     0.027 C 
BRANCH   9  10
ATOM     10  C   UNL     1     -23.709   5.810 -26.700  1.00  0.00    -0.035 C 
ATOM     11  C   UNL     1     -23.107   5.972 -25.518  1.00  0.00     0.004 C 
ENDBRANCH   9  10
ENDBRANCH   8   9
ENDBRANCH   7   8
ENDBRANCH   1   7
TORSDOF 7
ENDMDL
MODEL 4
REMARK VINA RESULT:    -2.868     13.765     14.720
REMARK INTER + INTRA:          -4.709
REMARK INTER:                  -4.213
REMARK INTRA:                  -0.496
REMARK UNBOUND:                -0.667
REMARK SMILES C=CCCCCCCC(=O)[O-]
REMARK SMILES IDX 6 1 7 2 8 3 9 4 10 5 11 6 5 7 4 8 3 9 2 10 1 11
REMARK H PARENT
REMARK Flexibility Score: inf
ROOT
ATOM      1  C   UNL     1     -34.543  -5.399 -30.117  1.00  0.00     0.000 C 
ENDROOT
BRANCH   1   2
ATOM      2  C   UNL     1     -34.476  -4.032 -30.813  1.00  0.00     0.006 C 
BRANCH   2   3
ATOM      3  C   UNL     1     -33.329  -3.989 -31.827  1.00  0.00     0.053 C 
BRANCH   3   4
ATOM      4  C   UNL     1     -33.856  -3.750 -33.206  1.00  0.00     0.041 C 
ATOM      5  O   UNL     1     -34.416  -4.683 -33.841  1.00  0.00    -0.550 OA
ATOM      6  O   UNL     1     -33.684  -2.513 -33.812  1.00  0.00    -0.550 OA
ENDBRANCH   3   4
ENDBRANCH   2   3
ENDBRANCH   1   2
BRANCH   1   7
ATOM      7  C   UNL     1     -35.198  -6.487 -30.989  1.00  0.00     0.000 C 
BRANCH   7   8
ATOM      8  C   UNL     1     -34.227  -7.541 -31.548  1.00  0.00     0.004 C 
BRANCH   8   9
ATOM      9  C   UNL     1     -32.946  -7.679 -30.711  1.00  0.00     0.027 C 
BRANCH   9  10
ATOM     10  C   UNL     1     -32.708  -9.112 -30.319  1.00  0.00    -0.035 C 
ATOM     11  C   UNL     1     -31.995  -9.436 -29.235  1.00  0.00     0.004 C 
ENDBRANCH   9  10
ENDBRANCH   8   9
ENDBRANCH   7   8
ENDBRANCH   1   7
TORSDOF 7
ENDMDL
MODEL 5
REMARK VINA RESULT:    -2.827      7.027      8.700
REMARK INTER + INTRA:          -4.652
REMARK INTER:                  -3.976
REMARK INTRA:                  -0.676
REMARK UNBOUND:                -0.667
REMARK SMILES C=CCCCCCCC(=O)[O-]
REMARK SMILES IDX 6 1 7 2 8 3 9 4 10 5 11 6 5 7 4 8 3 9 2 10 1 11
REMARK H PARENT
REMARK Flexibility Score: inf
ROOT
ATOM      1  C   UNL     1     -20.925  -2.183 -30.017  1.00  0.00     0.000 C 
ENDROOT
BRANCH   1   2
ATOM      2  C   UNL     1     -21.174  -1.040 -31.011  1.00  0.00     0.006 C 
BRANCH   2   3
ATOM      3  C   UNL     1     -19.862  -0.573 -31.651  1.00  0.00     0.053 C 
BRANCH   3   4
ATOM      4  C   UNL     1     -20.127   0.473 -32.686  1.00  0.00     0.041 C 
ATOM      5  O   UNL     1     -20.130   0.169 -33.909  1.00  0.00    -0.550 OA
ATOM      6  O   UNL     1     -20.318   1.795 -32.306  1.00  0.00    -0.550 OA
ENDBRANCH   3   4
ENDBRANCH   2   3
ENDBRANCH   1   2
BRANCH   1   7
ATOM      7  C   UNL     1     -19.962  -3.254 -30.561  1.00  0.00     0.000 C 
BRANCH   7   8
ATOM      8  C   UNL     1     -20.645  -4.474 -31.205  1.00  0.00     0.004 C 
BRANCH   8   9
ATOM      9  C   UNL     1     -20.191  -4.719 -32.652  1.00  0.00     0.027 C 
BRANCH   9  10
ATOM     10  C   UNL     1     -19.040  -3.823 -33.018  1.00  0.00    -0.035 C 
ATOM     11  C   UNL     1     -18.952  -3.245 -34.220  1.00  0.00     0.004 C 
ENDBRANCH   9  10
ENDBRANCH   8   9
ENDBRANCH   7   8
ENDBRANCH   1   7
TORSDOF 7
ENDMDL
MODEL 6
REMARK VINA RESULT:    -2.825      5.225      7.982
REMARK INTER + INTRA:          -4.649
REMARK INTER:                  -3.896
REMARK INTRA:                  -0.752
REMARK UNBOUND:                -0.667
REMARK SMILES C=CCCCCCCC(=O)[O-]
REMARK SMILES IDX 6 1 7 2 8 3 9 4 10 5 11 6 5 7 4 8 3 9 2 10 1 11
REMARK H PARENT
REMARK Flexibility Score: inf
ROOT
ATOM      1  C   UNL     1     -26.189   7.919 -27.060  1.00  0.00     0.000 C 
ENDROOT
BRANCH   1   2
ATOM      2  C   UNL     1     -26.185   8.123 -28.582  1.00  0.00     0.006 C 
BRANCH   2   3
ATOM      3  C   UNL     1     -24.804   7.821 -29.172  1.00  0.00     0.053 C 
BRANCH   3   4
ATOM      4  C   UNL     1     -24.874   6.648 -30.097  1.00  0.00     0.041 C 
ATOM      5  O   UNL     1     -25.950   6.007 -30.229  1.00  0.00    -0.550 OA
ATOM      6  O   UNL     1     -23.737   6.229 -30.775  1.00  0.00    -0.550 OA
ENDBRANCH   3   4
ENDBRANCH   2   3
ENDBRANCH   1   2
BRANCH   1   7
ATOM      7  C   UNL     1     -24.803   8.125 -26.422  1.00  0.00     0.000 C 
BRANCH   7   8
ATOM      8  C   UNL     1     -24.359   7.008 -25.460  1.00  0.00     0.004 C 
BRANCH   8   9
ATOM      9  C   UNL     1     -23.522   5.922 -26.150  1.00  0.00     0.027 C 
BRANCH   9  10
ATOM     10  C   UNL     1     -24.317   4.657 -26.330  1.00  0.00    -0.035 C 
ATOM     11  C   UNL     1     -24.513   4.114 -27.535  1.00  0.00     0.004 C 
ENDBRANCH   9  10
ENDBRANCH   8   9
ENDBRANCH   7   8
ENDBRANCH   1   7
TORSDOF 7
ENDMDL
MODEL 7
REMARK VINA RESULT:    -2.805     13.911     14.797
REMARK INTER + INTRA:          -4.620
REMARK INTER:                  -4.075
REMARK INTRA:                  -0.545
REMARK UNBOUND:                -0.667
REMARK SMILES C=CCCCCCCC(=O)[O-]
REMARK SMILES IDX 6 1 7 2 8 3 9 4 10 5 11 6 5 7 4 8 3 9 2 10 1 11
REMARK H PARENT
REMARK Flexibility Score: inf
ROOT
ATOM      1  C   UNL     1     -34.268  -7.605 -31.539  1.00  0.00     0.000 C 
ENDROOT
BRANCH   1   2
ATOM      2  C   UNL     1     -32.848  -7.258 -31.071  1.00  0.00     0.006 C 
BRANCH   2   3
ATOM      3  C   UNL     1     -32.643  -7.650 -29.604  1.00  0.00     0.053 C 
BRANCH   3   4
ATOM      4  C   UNL     1     -32.168  -9.065 -29.502  1.00  0.00     0.041 C 
ATOM      5  O   UNL     1     -32.512  -9.780 -28.523  1.00  0.00    -0.550 OA
ATOM      6  O   UNL     1     -31.304  -9.580 -30.459  1.00  0.00    -0.550 OA
ENDBRANCH   3   4
ENDBRANCH   2   3
ENDBRANCH   1   2
BRANCH   1   7
ATOM      7  C   UNL     1     -35.228  -6.402 -31.495  1.00  0.00     0.000 C 
BRANCH   7   8
ATOM      8  C   UNL     1     -34.568  -5.036 -31.760  1.00  0.00     0.004 C 
BRANCH   8   9
ATOM      9  C   UNL     1     -34.478  -4.696 -33.255  1.00  0.00     0.027 C 
BRANCH   9  10
ATOM     10  C   UNL     1     -33.254  -3.871 -33.549  1.00  0.00    -0.035 C 
ATOM     11  C   UNL     1     -32.021  -4.344 -33.345  1.00  0.00     0.004 C 
ENDBRANCH   9  10
ENDBRANCH   8   9
ENDBRANCH   7   8
ENDBRANCH   1   7
TORSDOF 7
ENDMDL
MODEL 8
REMARK VINA RESULT:    -2.804     12.950     13.896
REMARK INTER + INTRA:          -4.619
REMARK INTER:                  -3.915
REMARK INTRA:                  -0.705
REMARK UNBOUND:                -0.667
REMARK SMILES C=CCCCCCCC(=O)[O-]
REMARK SMILES IDX 6 1 7 2 8 3 9 4 10 5 11 6 5 7 4 8 3 9 2 10 1 11
REMARK H PARENT
REMARK Flexibility Score: inf
ROOT
ATOM      1  C   UNL     1     -33.577  -4.813 -33.115  1.00  0.00     0.000 C 
ENDROOT
BRANCH   1   2
ATOM      2  C   UNL     1     -34.917  -5.562 -33.115  1.00  0.00     0.006 C 
BRANCH   2   3
ATOM      3  C   UNL     1     -35.285  -6.029 -31.703  1.00  0.00     0.053 C 
BRANCH   3   4
ATOM      4  C   UNL     1     -34.220  -6.923 -31.152  1.00  0.00     0.041 C 
ATOM      5  O   UNL     1     -33.997  -8.044 -31.682  1.00  0.00    -0.550 OA
ATOM      6  O   UNL     1     -33.509  -6.543 -30.022  1.00  0.00    -0.550 OA
ENDBRANCH   3   4
ENDBRANCH   2   3
ENDBRANCH   1   2
BRANCH   1   7
ATOM      7  C   UNL     1     -33.724  -3.319 -33.459  1.00  0.00     0.000 C 
BRANCH   7   8
ATOM      8  C   UNL     1     -33.315  -2.351 -32.334  1.00  0.00     0.004 C 
BRANCH   8   9
ATOM      9  C   UNL     1     -33.098  -3.056 -30.987  1.00  0.00     0.027 C 
BRANCH   9  10
ATOM     10  C   UNL     1     -34.262  -2.827 -30.062  1.00  0.00    -0.035 C 
ATOM     11  C   UNL     1     -34.660  -1.597 -29.723  1.00  0.00     0.004 C 
ENDBRANCH   9  10
ENDBRANCH   8   9
ENDBRANCH   7   8
ENDBRANCH   1   7
TORSDOF 7
ENDMDL
MODEL 9
REMARK VINA RESULT:    -2.798     13.012     13.840
REMARK INTER + INTRA:          -4.611
REMARK INTER:                  -3.868
REMARK INTRA:                  -0.742
REMARK UNBOUND:                -0.667
REMARK SMILES C=CCCCCCCC(=O)[O-]
REMARK SMILES IDX 6 1 7 2 8 3 9 4 10 5 11 6 5 7 4 8 3 9 2 10 1 11
REMARK H PARENT
REMARK Flexibility Score: inf
ROOT
ATOM      1  C   UNL     1     -33.333  -4.090 -29.860  1.00  0.00     0.000 C 
ENDROOT
BRANCH   1   2
ATOM      2  C   UNL     1     -32.669  -3.624 -31.164  1.00  0.00     0.006 C 
BRANCH   2   3
ATOM      3  C   UNL     1     -33.495  -2.523 -31.837  1.00  0.00     0.053 C 
BRANCH   3   4
ATOM      4  C   UNL     1     -33.685  -2.823 -33.290  1.00  0.00     0.041 C 
ATOM      5  O   UNL     1     -33.934  -3.999 -33.667  1.00  0.00    -0.550 OA
ATOM      6  O   UNL     1     -33.537  -1.816 -34.234  1.00  0.00    -0.550 OA
ENDBRANCH   3   4
ENDBRANCH   2   3
ENDBRANCH   1   2
BRANCH   1   7
ATOM      7  C   UNL     1     -34.857  -4.268 -29.992  1.00  0.00     0.000 C 
BRANCH   7   8
ATOM      8  C   UNL     1     -35.343  -5.728 -29.984  1.00  0.00     0.004 C 
BRANCH   8   9
ATOM      9  C   UNL     1     -35.457  -6.329 -31.393  1.00  0.00     0.027 C 
BRANCH   9  10
ATOM     10  C   UNL     1     -34.257  -7.176 -31.719  1.00  0.00    -0.035 C 
ATOM     11  C   UNL     1     -33.455  -7.657 -30.764  1.00  0.00     0.004 C 
ENDBRANCH   9  10
ENDBRANCH   8   9
ENDBRANCH   7   8
ENDBRANCH   1   7
TORSDOF 7
ENDMDL
