MODEL 1
REMARK VINA RESULT:    -4.266      0.000      0.000
REMARK INTER + INTRA:          -9.601
REMARK INTER:                  -7.509
REMARK INTRA:                  -2.093
REMARK UNBOUND:                -2.093
REMARK SMILES CCCCCCCCCCCCCCC(=O)[O-]
REMARK SMILES IDX 9 1 10 2 11 3 12 4 13 5 14 6 15 7 16 8 17 9 8 10 7 11 6 12
REMARK SMILES IDX 5 13 4 14 3 15 2 16 1 17
REMARK H PARENT
REMARK Flexibility Score: inf
ROOT
ATOM      1  C   UNL     1     -19.167  46.903  -6.080  1.00  0.00     0.000 C 
ENDROOT
BRANCH   1   2
ATOM      2  C   UNL     1     -18.313  47.741  -7.048  1.00  0.00     0.000 C 
BRANCH   2   3
ATOM      3  C   UNL     1     -17.728  46.906  -8.196  1.00  0.00     0.000 C 
BRANCH   3   4
ATOM      4  C   UNL     1     -16.198  47.034  -8.301  1.00  0.00     0.000 C 
BRANCH   4   5
ATOM      5  C   UNL     1     -15.458  46.040  -7.393  1.00  0.00     0.006 C 
BRANCH   5   6
ATOM      6  C   UNL     1     -14.364  46.710  -6.552  1.00  0.00     0.053 C 
BRANCH   6   7
ATOM      7  C   UNL     1     -14.703  46.632  -5.097  1.00  0.00     0.041 C 
ATOM      8  O   UNL     1     -13.958  45.995  -4.307  1.00  0.00    -0.550 OA
ATOM      9  O   UNL     1     -15.867  47.222  -4.622  1.00  0.00    -0.550 OA
ENDBRANCH   6   7
ENDBRANCH   5   6
ENDBRANCH   4   5
ENDBRANCH   3   4
ENDBRANCH   2   3
ENDBRANCH   1   2
BRANCH   1  10
ATOM     10  C   UNL     1     -18.916  45.389  -6.244  1.00  0.00     0.000 C 
BRANCH  10  11
ATOM     11  C   UNL     1     -20.200  44.572  -6.473  1.00  0.00    -0.000 C 
BRANCH  11  12
ATOM     12  C   UNL     1     -20.958  44.995  -7.742  1.00  0.00    -0.000 C 
BRANCH  12  13
ATOM     13  C   UNL     1     -20.279  44.498  -9.029  1.00  0.00    -0.000 C 
BRANCH  13  14
ATOM     14  C   UNL     1     -20.327  42.969  -9.173  1.00  0.00    -0.000 C 
BRANCH  14  15
ATOM     15  C   UNL     1     -18.954  42.413  -9.577  1.00  0.00    -0.000 C 
BRANCH  15  16
ATOM     16  C   UNL     1     -17.793  43.302  -9.104  1.00  0.00    -0.003 C 
ATOM     17  C   UNL     1     -17.060  42.722  -7.894  1.00  0.00     0.004 C 
ENDBRANCH  15  16
ENDBRANCH  14  15
ENDBRANCH  13  14
ENDBRANCH  12  13
ENDBRANCH  11  12
ENDBRANCH  10  11
ENDBRANCH   1  10
TORSDOF 13
ENDMDL
MODEL 2
REMARK VINA RESULT:    -4.187      2.838      5.289
REMARK INTER + INTRA:          -9.462
REMARK INTER:                  -7.197
REMARK INTRA:                  -2.266
REMARK UNBOUND:                -2.093
REMARK SMILES CCCCCCCCCCCCCCC(=O)[O-]
REMARK SMILES IDX 9 1 10 2 11 3 12 4 13 5 14 6 15 7 16 8 17 9 8 10 7 11 6 12
REMARK SMILES IDX 5 13 4 14 3 15 2 16 1 17
REMARK H PARENT
REMARK Flexibility Score: inf
ROOT
ATOM      1  C   UNL     1     -19.379  45.361  -5.974  1.00  0.00     0.000 C 
ENDROOT
BRANCH   1   2
ATOM      2  C   UNL     1     -18.717  43.984  -5.787  1.00  0.00     0.000 C 
BRANCH   2   3
ATOM      3  C   UNL     1     -17.250  43.966  -6.242  1.00  0.00     0.000 C 
BRANCH   3   4
ATOM      4  C   UNL     1     -16.961  42.852  -7.264  1.00  0.00     0.000 C 
BRANCH   4   5
ATOM      5  C   UNL     1     -17.255  43.285  -8.708  1.00  0.00     0.006 C 
BRANCH   5   6
ATOM      6  C   UNL     1     -18.570  42.702  -9.244  1.00  0.00     0.053 C 
BRANCH   6   7
ATOM      7  C   UNL     1     -19.491  43.799  -9.673  1.00  0.00     0.041 C 
ATOM      8  O   UNL     1     -19.192  44.529 -10.654  1.00  0.00    -0.550 OA
ATOM      9  O   UNL     1     -20.657  44.047  -8.960  1.00  0.00    -0.550 OA
ENDBRANCH   6   7
ENDBRANCH   5   6
ENDBRANCH   4   5
ENDBRANCH   3   4
ENDBRANCH   2   3
ENDBRANCH   1   2
BRANCH   1  10
ATOM     10  C   UNL     1     -18.369  46.518  -5.819  1.00  0.00     0.000 C 
BRANCH  10  11
ATOM     11  C   UNL     1     -18.397  47.521  -6.985  1.00  0.00    -0.000 C 
BRANCH  11  12
ATOM     12  C   UNL     1     -17.893  46.916  -8.306  1.00  0.00    -0.000 C 
BRANCH  12  13
ATOM     13  C   UNL     1     -16.497  47.429  -8.695  1.00  0.00    -0.000 C 
BRANCH  13  14
ATOM     14  C   UNL     1     -15.375  46.460  -8.290  1.00  0.00    -0.000 C 
BRANCH  14  15
ATOM     15  C   UNL     1     -14.533  47.046  -7.148  1.00  0.00    -0.000 C 
BRANCH  15  16
ATOM     16  C   UNL     1     -14.605  46.202  -5.866  1.00  0.00    -0.003 C 
ATOM     17  C   UNL     1     -14.833  47.049  -4.613  1.00  0.00     0.004 C 
ENDBRANCH  15  16
ENDBRANCH  14  15
ENDBRANCH  13  14
ENDBRANCH  12  13
ENDBRANCH  11  12
ENDBRANCH  10  11
ENDBRANCH   1  10
TORSDOF 13
ENDMDL
MODEL 3
REMARK VINA RESULT:    -4.181      1.747      3.089
REMARK INTER + INTRA:          -9.452
REMARK INTER:                  -7.176
REMARK INTRA:                  -2.276
REMARK UNBOUND:                -2.093
REMARK SMILES CCCCCCCCCCCCCCC(=O)[O-]
REMARK SMILES IDX 9 1 10 2 11 3 12 4 13 5 14 6 15 7 16 8 17 9 8 10 7 11 6 12
REMARK SMILES IDX 5 13 4 14 3 15 2 16 1 17
REMARK H PARENT
REMARK Flexibility Score: inf
ROOT
ATOM      1  C   UNL     1     -20.299  44.639  -6.979  1.00  0.00     0.000 C 
ENDROOT
BRANCH   1   2
ATOM      2  C   UNL     1     -19.998  45.948  -7.729  1.00  0.00     0.000 C 
BRANCH   2   3
ATOM      3  C   UNL     1     -19.520  47.069  -6.794  1.00  0.00     0.000 C 
BRANCH   3   4
ATOM      4  C   UNL     1     -18.227  47.741  -7.289  1.00  0.00     0.000 C 
BRANCH   4   5
ATOM      5  C   UNL     1     -17.633  47.041  -8.521  1.00  0.00     0.006 C 
BRANCH   5   6
ATOM      6  C   UNL     1     -16.321  47.685  -8.990  1.00  0.00     0.053 C 
BRANCH   6   7
ATOM      7  C   UNL     1     -15.153  46.848  -8.578  1.00  0.00     0.041 C 
ATOM      8  O   UNL     1     -14.403  46.334  -9.450  1.00  0.00    -0.550 OA
ATOM      9  O   UNL     1     -14.918  46.594  -7.233  1.00  0.00    -0.550 OA
ENDBRANCH   6   7
ENDBRANCH   5   6
ENDBRANCH   4   5
ENDBRANCH   3   4
ENDBRANCH   2   3
ENDBRANCH   1   2
BRANCH   1  10
ATOM     10  C   UNL     1     -19.675  44.619  -5.568  1.00  0.00     0.000 C 
BRANCH  10  11
ATOM     11  C   UNL     1     -18.462  43.680  -5.443  1.00  0.00    -0.000 C 
BRANCH  11  12
ATOM     12  C   UNL     1     -17.298  44.083  -6.362  1.00  0.00    -0.000 C 
BRANCH  12  13
ATOM     13  C   UNL     1     -16.888  42.956  -7.324  1.00  0.00    -0.000 C 
BRANCH  13  14
ATOM     14  C   UNL     1     -16.549  43.470  -8.732  1.00  0.00    -0.000 C 
BRANCH  14  15
ATOM     15  C   UNL     1     -17.807  43.527  -9.612  1.00  0.00    -0.000 C 
BRANCH  15  16
ATOM     16  C   UNL     1     -18.783  42.376  -9.325  1.00  0.00    -0.003 C 
ATOM     17  C   UNL     1     -20.114  42.532 -10.061  1.00  0.00     0.004 C 
ENDBRANCH  15  16
ENDBRANCH  14  15
ENDBRANCH  13  14
ENDBRANCH  12  13
ENDBRANCH  11  12
ENDBRANCH  10  11
ENDBRANCH   1  10
TORSDOF 13
ENDMDL
MODEL 4
REMARK VINA RESULT:    -4.161      2.349      3.259
REMARK INTER + INTRA:          -9.416
REMARK INTER:                  -7.260
REMARK INTRA:                  -2.156
REMARK UNBOUND:                -2.093
REMARK SMILES CCCCCCCCCCCCCCC(=O)[O-]
REMARK SMILES IDX 9 1 10 2 11 3 12 4 13 5 14 6 15 7 16 8 17 9 8 10 7 11 6 12
REMARK SMILES IDX 5 13 4 14 3 15 2 16 1 17
REMARK H PARENT
REMARK Flexibility Score: inf
ROOT
ATOM      1  C   UNL     1     -19.404  44.947  -5.673  1.00  0.00     0.000 C 
ENDROOT
BRANCH   1   2
ATOM      2  C   UNL     1     -18.235  43.948  -5.612  1.00  0.00     0.000 C 
BRANCH   2   3
ATOM      3  C   UNL     1     -16.956  44.494  -6.264  1.00  0.00     0.000 C 
BRANCH   3   4
ATOM      4  C   UNL     1     -16.832  46.022  -6.134  1.00  0.00     0.000 C 
BRANCH   4   5
ATOM      5  C   UNL     1     -16.354  46.688  -7.433  1.00  0.00     0.006 C 
BRANCH   5   6
ATOM      6  C   UNL     1     -17.514  47.220  -8.285  1.00  0.00     0.053 C 
BRANCH   6   7
ATOM      7  C   UNL     1     -17.003  47.763  -9.581  1.00  0.00     0.041 C 
ATOM      8  O   UNL     1     -17.245  47.160 -10.660  1.00  0.00    -0.550 OA
ATOM      9  O   UNL     1     -16.218  48.909  -9.595  1.00  0.00    -0.550 OA
ENDBRANCH   6   7
ENDBRANCH   5   6
ENDBRANCH   4   5
ENDBRANCH   3   4
ENDBRANCH   2   3
ENDBRANCH   1   2
BRANCH   1  10
ATOM     10  C   UNL     1     -20.461  44.543  -6.722  1.00  0.00     0.000 C 
BRANCH  10  11
ATOM     11  C   UNL     1     -20.532  45.499  -7.926  1.00  0.00    -0.000 C 
BRANCH  11  12
ATOM     12  C   UNL     1     -20.372  44.775  -9.273  1.00  0.00    -0.000 C 
BRANCH  12  13
ATOM     13  C   UNL     1     -20.555  43.254  -9.151  1.00  0.00    -0.000 C 
BRANCH  13  14
ATOM     14  C   UNL     1     -19.415  42.464  -9.813  1.00  0.00    -0.000 C 
BRANCH  14  15
ATOM     15  C   UNL     1     -18.050  42.920  -9.278  1.00  0.00    -0.000 C 
BRANCH  15  16
ATOM     16  C   UNL     1     -17.190  43.602 -10.353  1.00  0.00    -0.003 C 
ATOM     17  C   UNL     1     -15.778  43.927  -9.863  1.00  0.00     0.004 C 
ENDBRANCH  15  16
ENDBRANCH  14  15
ENDBRANCH  13  14
ENDBRANCH  12  13
ENDBRANCH  11  12
ENDBRANCH  10  11
ENDBRANCH   1  10
TORSDOF 13
ENDMDL
MODEL 5
REMARK VINA RESULT:    -4.147      1.246      2.499
REMARK INTER + INTRA:          -9.391
REMARK INTER:                  -7.199
REMARK INTRA:                  -2.192
REMARK UNBOUND:                -2.093
REMARK SMILES CCCCCCCCCCCCCCC(=O)[O-]
REMARK SMILES IDX 9 1 10 2 11 3 12 4 13 5 14 6 15 7 16 8 17 9 8 10 7 11 6 12
REMARK SMILES IDX 5 13 4 14 3 15 2 16 1 17
REMARK H PARENT
REMARK Flexibility Score: inf
ROOT
ATOM      1  C   UNL     1     -17.242  42.900  -7.384  1.00  0.00     0.000 C 
ENDROOT
BRANCH   1   2
ATOM      2  C   UNL     1     -16.328  43.438  -8.499  1.00  0.00     0.000 C 
BRANCH   2   3
ATOM      3  C   UNL     1     -16.661  44.885  -8.891  1.00  0.00     0.000 C 
BRANCH   3   4
ATOM      4  C   UNL     1     -15.447  45.824  -8.775  1.00  0.00     0.000 C 
BRANCH   4   5
ATOM      5  C   UNL     1     -15.579  46.818  -7.612  1.00  0.00     0.006 C 
BRANCH   5   6
ATOM      6  C   UNL     1     -14.693  46.449  -6.416  1.00  0.00     0.053 C 
BRANCH   6   7
ATOM      7  C   UNL     1     -15.327  46.897  -5.138  1.00  0.00     0.041 C 
ATOM      8  O   UNL     1     -16.564  47.130  -5.093  1.00  0.00    -0.550 OA
ATOM      9  O   UNL     1     -14.546  47.105  -4.009  1.00  0.00    -0.550 OA
ENDBRANCH   6   7
ENDBRANCH   5   6
ENDBRANCH   4   5
ENDBRANCH   3   4
ENDBRANCH   2   3
ENDBRANCH   1   2
BRANCH   1  10
ATOM     10  C   UNL     1     -17.440  43.926  -6.248  1.00  0.00     0.000 C 
BRANCH  10  11
ATOM     11  C   UNL     1     -18.915  44.263  -5.970  1.00  0.00    -0.000 C 
BRANCH  11  12
ATOM     12  C   UNL     1     -19.363  45.576  -6.634  1.00  0.00    -0.000 C 
BRANCH  12  13
ATOM     13  C   UNL     1     -20.613  45.398  -7.510  1.00  0.00    -0.000 C 
BRANCH  13  14
ATOM     14  C   UNL     1     -20.531  44.160  -8.417  1.00  0.00    -0.000 C 
BRANCH  14  15
ATOM     15  C   UNL     1     -20.129  44.554  -9.846  1.00  0.00    -0.000 C 
BRANCH  15  16
ATOM     16  C   UNL     1     -19.602  43.364 -10.663  1.00  0.00    -0.003 C 
ATOM     17  C   UNL     1     -19.855  42.020  -9.979  1.00  0.00     0.004 C 
ENDBRANCH  15  16
ENDBRANCH  14  15
ENDBRANCH  13  14
ENDBRANCH  12  13
ENDBRANCH  11  12
ENDBRANCH  10  11
ENDBRANCH   1  10
TORSDOF 13
ENDMDL
MODEL 6
REMARK VINA RESULT:    -4.108      2.422      3.489
REMARK INTER + INTRA:          -9.322
REMARK INTER:                  -6.977
REMARK INTRA:                  -2.345
REMARK UNBOUND:                -2.093
REMARK SMILES CCCCCCCCCCCCCCC(=O)[O-]
REMARK SMILES IDX 9 1 10 2 11 3 12 4 13 5 14 6 15 7 16 8 17 9 8 10 7 11 6 12
REMARK SMILES IDX 5 13 4 14 3 15 2 16 1 17
REMARK H PARENT
REMARK Flexibility Score: inf
ROOT
ATOM      1  C   UNL     1     -17.256  44.124  -6.498  1.00  0.00     0.000 C 
ENDROOT
BRANCH   1   2
ATOM      2  C   UNL     1     -17.126  42.958  -7.494  1.00  0.00     0.000 C 
BRANCH   2   3
ATOM      3  C   UNL     1     -16.779  43.430  -8.914  1.00  0.00     0.000 C 
BRANCH   3   4
ATOM      4  C   UNL     1     -16.388  44.918  -8.965  1.00  0.00     0.000 C 
BRANCH   4   5
ATOM      5  C   UNL     1     -16.669  45.556 -10.334  1.00  0.00     0.006 C 
BRANCH   5   6
ATOM      6  C   UNL     1     -17.596  46.775 -10.238  1.00  0.00     0.053 C 
BRANCH   6   7
ATOM      7  C   UNL     1     -16.996  47.818  -9.350  1.00  0.00     0.041 C 
ATOM      8  O   UNL     1     -15.955  48.430  -9.707  1.00  0.00    -0.550 OA
ATOM      9  O   UNL     1     -17.557  48.080  -8.107  1.00  0.00    -0.550 OA
ENDBRANCH   6   7
ENDBRANCH   5   6
ENDBRANCH   4   5
ENDBRANCH   3   4
ENDBRANCH   2   3
ENDBRANCH   1   2
BRANCH   1  10
ATOM     10  C   UNL     1     -18.364  43.875  -5.453  1.00  0.00     0.000 C 
BRANCH  10  11
ATOM     11  C   UNL     1     -19.707  44.536  -5.808  1.00  0.00    -0.000 C 
BRANCH  11  12
ATOM     12  C   UNL     1     -19.556  45.695  -6.807  1.00  0.00    -0.000 C 
BRANCH  12  13
ATOM     13  C   UNL     1     -20.526  45.581  -7.994  1.00  0.00    -0.000 C 
BRANCH  13  14
ATOM     14  C   UNL     1     -20.487  44.198  -8.662  1.00  0.00    -0.000 C 
BRANCH  14  15
ATOM     15  C   UNL     1     -20.249  44.326 -10.174  1.00  0.00    -0.000 C 
BRANCH  15  16
ATOM     16  C   UNL     1     -20.136  42.963 -10.873  1.00  0.00    -0.003 C 
ATOM     17  C   UNL     1     -19.863  41.818  -9.897  1.00  0.00     0.004 C 
ENDBRANCH  15  16
ENDBRANCH  14  15
ENDBRANCH  13  14
ENDBRANCH  12  13
ENDBRANCH  11  12
ENDBRANCH  10  11
ENDBRANCH   1  10
TORSDOF 13
ENDMDL
MODEL 7
REMARK VINA RESULT:    -4.045      2.085      4.172
REMARK INTER + INTRA:          -9.212
REMARK INTER:                  -6.793
REMARK INTRA:                  -2.419
REMARK UNBOUND:                -2.093
REMARK SMILES CCCCCCCCCCCCCCC(=O)[O-]
REMARK SMILES IDX 9 1 10 2 11 3 12 4 13 5 14 6 15 7 16 8 17 9 8 10 7 11 6 12
REMARK SMILES IDX 5 13 4 14 3 15 2 16 1 17
REMARK H PARENT
REMARK Flexibility Score: inf
ROOT
ATOM      1  C   UNL     1     -19.433  42.859  -9.706  1.00  0.00     0.000 C 
ENDROOT
BRANCH   1   2
ATOM      2  C   UNL     1     -18.139  42.658  -8.898  1.00  0.00     0.000 C 
BRANCH   2   3
ATOM      3  C   UNL     1     -17.035  43.652  -9.292  1.00  0.00     0.000 C 
BRANCH   3   4
ATOM      4  C   UNL     1     -17.195  44.174 -10.731  1.00  0.00     0.000 C 
BRANCH   4   5
ATOM      5  C   UNL     1     -17.311  45.705 -10.793  1.00  0.00     0.006 C 
BRANCH   5   6
ATOM      6  C   UNL     1     -17.207  46.361  -9.410  1.00  0.00     0.053 C 
BRANCH   6   7
ATOM      7  C   UNL     1     -15.940  47.149  -9.301  1.00  0.00     0.041 C 
ATOM      8  O   UNL     1     -15.973  48.408  -9.321  1.00  0.00    -0.550 OA
ATOM      9  O   UNL     1     -14.718  46.494  -9.226  1.00  0.00    -0.550 OA
ENDBRANCH   6   7
ENDBRANCH   5   6
ENDBRANCH   4   5
ENDBRANCH   3   4
ENDBRANCH   2   3
ENDBRANCH   1   2
BRANCH   1  10
ATOM     10  C   UNL     1     -20.560  43.479  -8.854  1.00  0.00     0.000 C 
BRANCH  10  11
ATOM     11  C   UNL     1     -20.521  45.017  -8.805  1.00  0.00    -0.000 C 
BRANCH  11  12
ATOM     12  C   UNL     1     -20.185  45.560  -7.406  1.00  0.00    -0.000 C 
BRANCH  12  13
ATOM     13  C   UNL     1     -20.221  44.469  -6.324  1.00  0.00    -0.000 C 
BRANCH  13  14
ATOM     14  C   UNL     1     -18.871  44.293  -5.612  1.00  0.00    -0.000 C 
BRANCH  14  15
ATOM     15  C   UNL     1     -17.926  45.460  -5.934  1.00  0.00    -0.000 C 
BRANCH  15  16
ATOM     16  C   UNL     1     -16.457  45.022  -6.033  1.00  0.00    -0.003 C 
ATOM     17  C   UNL     1     -15.480  46.154  -5.712  1.00  0.00     0.004 C 
ENDBRANCH  15  16
ENDBRANCH  14  15
ENDBRANCH  13  14
ENDBRANCH  12  13
ENDBRANCH  11  12
ENDBRANCH  10  11
ENDBRANCH   1  10
TORSDOF 13
ENDMDL
MODEL 8
REMARK VINA RESULT:    -4.039      1.389      3.419
REMARK INTER + INTRA:          -9.201
REMARK INTER:                  -6.784
REMARK INTRA:                  -2.417
REMARK UNBOUND:                -2.093
REMARK SMILES CCCCCCCCCCCCCCC(=O)[O-]
REMARK SMILES IDX 9 1 10 2 11 3 12 4 13 5 14 6 15 7 16 8 17 9 8 10 7 11 6 12
REMARK SMILES IDX 5 13 4 14 3 15 2 16 1 17
REMARK H PARENT
REMARK Flexibility Score: inf
ROOT
ATOM      1  C   UNL     1     -20.653  44.210  -7.923  1.00  0.00     0.000 C 
ENDROOT
BRANCH   1   2
ATOM      2  C   UNL     1     -20.334  45.694  -7.671  1.00  0.00     0.000 C 
BRANCH   2   3
ATOM      3  C   UNL     1     -19.257  45.893  -6.595  1.00  0.00     0.000 C 
BRANCH   3   4
ATOM      4  C   UNL     1     -18.633  44.565  -6.130  1.00  0.00     0.000 C 
BRANCH   4   5
ATOM      5  C   UNL     1     -17.132  44.693  -5.827  1.00  0.00     0.006 C 
BRANCH   5   6
ATOM      6  C   UNL     1     -16.651  46.150  -5.831  1.00  0.00     0.053 C 
BRANCH   6   7
ATOM      7  C   UNL     1     -15.157  46.207  -5.791  1.00  0.00     0.041 C 
ATOM      8  O   UNL     1     -14.503  46.424  -6.845  1.00  0.00    -0.550 OA
ATOM      9  O   UNL     1     -14.484  45.971  -4.599  1.00  0.00    -0.550 OA
ENDBRANCH   6   7
ENDBRANCH   5   6
ENDBRANCH   4   5
ENDBRANCH   3   4
ENDBRANCH   2   3
ENDBRANCH   1   2
BRANCH   1  10
ATOM     10  C   UNL     1     -20.469  43.818  -9.404  1.00  0.00     0.000 C 
BRANCH  10  11
ATOM     11  C   UNL     1     -19.777  42.457  -9.600  1.00  0.00    -0.000 C 
BRANCH  11  12
ATOM     12  C   UNL     1     -18.282  42.490  -9.242  1.00  0.00    -0.000 C 
BRANCH  12  13
ATOM     13  C   UNL     1     -17.500  43.525 -10.067  1.00  0.00    -0.000 C 
BRANCH  13  14
ATOM     14  C   UNL     1     -16.441  44.268  -9.237  1.00  0.00    -0.000 C 
BRANCH  14  15
ATOM     15  C   UNL     1     -16.173  45.665  -9.816  1.00  0.00    -0.000 C 
BRANCH  15  16
ATOM     16  C   UNL     1     -17.353  46.627  -9.613  1.00  0.00    -0.003 C 
ATOM     17  C   UNL     1     -16.927  47.967  -9.013  1.00  0.00     0.004 C 
ENDBRANCH  15  16
ENDBRANCH  14  15
ENDBRANCH  13  14
ENDBRANCH  12  13
ENDBRANCH  11  12
ENDBRANCH  10  11
ENDBRANCH   1  10
TORSDOF 13
ENDMDL
MODEL 9
REMARK VINA RESULT:    -4.030      1.039      3.209
REMARK INTER + INTRA:          -9.186
REMARK INTER:                  -7.106
REMARK INTRA:                  -2.080
REMARK UNBOUND:                -2.093
REMARK SMILES CCCCCCCCCCCCCCC(=O)[O-]
REMARK SMILES IDX 9 1 10 2 11 3 12 4 13 5 14 6 15 7 16 8 17 9 8 10 7 11 6 12
REMARK SMILES IDX 5 13 4 14 3 15 2 16 1 17
REMARK H PARENT
REMARK Flexibility Score: inf
ROOT
ATOM      1  C   UNL     1     -17.567  42.733  -8.393  1.00  0.00     0.000 C 
ENDROOT
BRANCH   1   2
ATOM      2  C   UNL     1     -16.490  43.833  -8.380  1.00  0.00     0.000 C 
BRANCH   2   3
ATOM      3  C   UNL     1     -16.975  45.144  -9.016  1.00  0.00     0.000 C 
BRANCH   3   4
ATOM      4  C   UNL     1     -15.841  46.170  -9.193  1.00  0.00     0.000 C 
BRANCH   4   5
ATOM      5  C   UNL     1     -15.719  47.126  -7.997  1.00  0.00     0.006 C 
BRANCH   5   6
ATOM      6  C   UNL     1     -14.491  46.828  -7.126  1.00  0.00     0.053 C 
BRANCH   6   7
ATOM      7  C   UNL     1     -14.911  46.495  -5.730  1.00  0.00     0.041 C 
ATOM      8  O   UNL     1     -14.546  47.222  -4.768  1.00  0.00    -0.550 OA
ATOM      9  O   UNL     1     -15.664  45.355  -5.483  1.00  0.00    -0.550 OA
ENDBRANCH   6   7
ENDBRANCH   5   6
ENDBRANCH   4   5
ENDBRANCH   3   4
ENDBRANCH   2   3
ENDBRANCH   1   2
BRANCH   1  10
ATOM     10  C   UNL     1     -18.571  42.916  -9.551  1.00  0.00     0.000 C 
BRANCH  10  11
ATOM     11  C   UNL     1     -20.020  43.134  -9.082  1.00  0.00    -0.000 C 
BRANCH  11  12
ATOM     12  C   UNL     1     -20.505  44.578  -9.294  1.00  0.00    -0.000 C 
BRANCH  12  13
ATOM     13  C   UNL     1     -20.659  45.349  -7.974  1.00  0.00    -0.000 C 
BRANCH  13  14
ATOM     14  C   UNL     1     -20.239  44.521  -6.750  1.00  0.00    -0.000 C 
BRANCH  14  15
ATOM     15  C   UNL     1     -19.205  45.279  -5.904  1.00  0.00    -0.000 C 
BRANCH  15  16
ATOM     16  C   UNL     1     -19.077  46.755  -6.309  1.00  0.00    -0.003 C 
ATOM     17  C   UNL     1     -18.343  47.594  -5.262  1.00  0.00     0.004 C 
ENDBRANCH  15  16
ENDBRANCH  14  15
ENDBRANCH  13  14
ENDBRANCH  12  13
ENDBRANCH  11  12
ENDBRANCH  10  11
ENDBRANCH   1  10
TORSDOF 13
ENDMDL
