MODEL 1
REMARK VINA RESULT:    -6.384      0.000      0.000
REMARK INTER + INTRA:          -6.384
REMARK INTER:                  -6.384
REMARK INTRA:                   0.000
REMARK UNBOUND:                 0.000
REMARK SMILES C=C1CCC[C@@]2(C)CC(=O)C(=C(C)C)C[C@H]12
REMARK SMILES IDX 13 1 12 2 11 3 15 4 16 5 2 6 1 7 3 8 4 9 5 10 6 11 8 12 9 13
REMARK SMILES IDX 10 14 7 15 14 16
REMARK H PARENT
REMARK Flexibility Score: inf
ROOT
ATOM      1  C   UNL     1     -15.124  13.625  -0.375  1.00  0.00     0.039 C 
ATOM      2  C   UNL     1     -14.301  13.916   0.859  1.00  0.00    -0.070 C 
ATOM      3  C   UNL     1     -13.953  12.932   1.741  1.00  0.00    -0.006 C 
ATOM      4  C   UNL     1     -13.176  13.252   3.011  1.00  0.00     0.047 C 
ATOM      5  C   UNL     1     -13.502  12.282   4.175  1.00  0.00     0.025 C 
ATOM      6  C   UNL     1     -12.721  12.529   5.465  1.00  0.00    -0.073 C 
ATOM      7  C   UNL     1     -11.801  13.500   5.616  1.00  0.00     0.008 C 
ATOM      8  C   UNL     1     -13.065  11.637   6.634  1.00  0.00     0.031 C 
ATOM      9  C   UNL     1     -12.971  10.164   6.225  1.00  0.00     0.005 C 
ATOM     10  C   UNL     1     -13.785   9.875   4.952  1.00  0.00     0.008 C 
ATOM     11  C   UNL     1     -13.384  10.785   3.752  1.00  0.00    -0.018 C 
ATOM     12  C   UNL     1     -14.375  10.518   2.592  1.00  0.00     0.088 C 
ATOM     13  C   UNL     1     -14.199  11.488   1.460  1.00  0.00     0.159 C 
ATOM     14  O   UNL     1     -14.248  11.050   0.279  1.00  0.00    -0.295 OA
ATOM     15  C   UNL     1     -11.944  10.428   3.288  1.00  0.00     0.012 C 
ATOM     16  C   UNL     1     -13.911  15.357   1.097  1.00  0.00     0.039 C 
ENDROOT
TORSDOF 0
ENDMDL
MODEL 2
REMARK VINA RESULT:    -5.448      1.967      5.534
REMARK INTER + INTRA:          -5.448
REMARK INTER:                  -5.448
REMARK INTRA:                   0.000
REMARK UNBOUND:                 0.000
REMARK SMILES C=C1CCC[C@@]2(C)CC(=O)C(=C(C)C)C[C@H]12
REMARK SMILES IDX 13 1 12 2 11 3 15 4 16 5 2 6 1 7 3 8 4 9 5 10 6 11 8 12 9 13
REMARK SMILES IDX 10 14 7 15 14 16
REMARK H PARENT
REMARK Flexibility Score: inf
ROOT
ATOM      1  C   UNL     1     -12.644  10.693   5.378  1.00  0.00     0.039 C 
ATOM      2  C   UNL     1     -12.817  10.983   3.904  1.00  0.00    -0.070 C 
ATOM      3  C   UNL     1     -13.310  12.178   3.459  1.00  0.00    -0.006 C 
ATOM      4  C   UNL     1     -13.536  12.432   1.975  1.00  0.00     0.047 C 
ATOM      5  C   UNL     1     -14.706  13.411   1.705  1.00  0.00     0.025 C 
ATOM      6  C   UNL     1     -14.954  13.737   0.232  1.00  0.00    -0.073 C 
ATOM      7  C   UNL     1     -14.224  13.238  -0.784  1.00  0.00     0.008 C 
ATOM      8  C   UNL     1     -16.127  14.641  -0.064  1.00  0.00     0.031 C 
ATOM      9  C   UNL     1     -16.027  15.928   0.760  1.00  0.00     0.005 C 
ATOM     10  C   UNL     1     -15.822  15.631   2.256  1.00  0.00     0.008 C 
ATOM     11  C   UNL     1     -14.582  14.727   2.534  1.00  0.00    -0.018 C 
ATOM     12  C   UNL     1     -14.578  14.366   4.039  1.00  0.00     0.088 C 
ATOM     13  C   UNL     1     -13.539  13.335   4.372  1.00  0.00     0.159 C 
ATOM     14  O   UNL     1     -12.861  13.481   5.425  1.00  0.00    -0.295 OA
ATOM     15  C   UNL     1     -13.283  15.507   2.190  1.00  0.00     0.012 C 
ATOM     16  C   UNL     1     -12.456   9.875   2.941  1.00  0.00     0.039 C 
ENDROOT
TORSDOF 0
ENDMDL
MODEL 3
REMARK VINA RESULT:    -4.771      1.827      3.004
REMARK INTER + INTRA:          -4.771
REMARK INTER:                  -4.771
REMARK INTRA:                   0.000
REMARK UNBOUND:                 0.000
REMARK SMILES C=C1CCC[C@@]2(C)CC(=O)C(=C(C)C)C[C@H]12
REMARK SMILES IDX 13 1 12 2 11 3 15 4 16 5 2 6 1 7 3 8 4 9 5 10 6 11 8 12 9 13
REMARK SMILES IDX 10 14 7 15 14 16
REMARK H PARENT
REMARK Flexibility Score: inf
ROOT
ATOM      1  C   UNL     1     -14.733  16.107   0.371  1.00  0.00     0.039 C 
ATOM      2  C   UNL     1     -14.342  14.654   0.513  1.00  0.00    -0.070 C 
ATOM      3  C   UNL     1     -14.273  14.043   1.734  1.00  0.00    -0.006 C 
ATOM      4  C   UNL     1     -13.818  12.596   1.865  1.00  0.00     0.047 C 
ATOM      5  C   UNL     1     -13.106  12.310   3.211  1.00  0.00     0.025 C 
ATOM      6  C   UNL     1     -12.662  10.862   3.417  1.00  0.00    -0.073 C 
ATOM      7  C   UNL     1     -12.868   9.876   2.524  1.00  0.00     0.008 C 
ATOM      8  C   UNL     1     -11.911  10.570   4.695  1.00  0.00     0.031 C 
ATOM      9  C   UNL     1     -12.708  11.063   5.905  1.00  0.00     0.005 C 
ATOM     10  C   UNL     1     -13.130  12.534   5.746  1.00  0.00     0.008 C 
ATOM     11  C   UNL     1     -13.936  12.799   4.439  1.00  0.00    -0.018 C 
ATOM     12  C   UNL     1     -14.157  14.327   4.310  1.00  0.00     0.088 C 
ATOM     13  C   UNL     1     -14.748  14.705   2.983  1.00  0.00     0.159 C 
ATOM     14  O   UNL     1     -15.659  15.575   2.956  1.00  0.00    -0.295 OA
ATOM     15  C   UNL     1     -15.315  12.087   4.524  1.00  0.00     0.012 C 
ATOM     16  C   UNL     1     -13.992  13.912  -0.757  1.00  0.00     0.039 C 
ENDROOT
TORSDOF 0
ENDMDL
MODEL 4
REMARK VINA RESULT:    -4.603      1.976      5.309
REMARK INTER + INTRA:          -4.603
REMARK INTER:                  -4.603
REMARK INTRA:                   0.000
REMARK UNBOUND:                 0.000
REMARK SMILES C=C1CCC[C@@]2(C)CC(=O)C(=C(C)C)C[C@H]12
REMARK SMILES IDX 13 1 12 2 11 3 15 4 16 5 2 6 1 7 3 8 4 9 5 10 6 11 8 12 9 13
REMARK SMILES IDX 10 14 7 15 14 16
REMARK H PARENT
REMARK Flexibility Score: inf
ROOT
ATOM      1  C   UNL     1     -13.628  11.960   7.517  1.00  0.00     0.039 C 
ATOM      2  C   UNL     1     -13.220  11.274   6.233  1.00  0.00    -0.070 C 
ATOM      3  C   UNL     1     -13.383  11.871   5.014  1.00  0.00    -0.006 C 
ATOM      4  C   UNL     1     -13.024  11.142   3.726  1.00  0.00     0.047 C 
ATOM      5  C   UNL     1     -13.900  11.579   2.526  1.00  0.00     0.025 C 
ATOM      6  C   UNL     1     -13.558  10.910   1.194  1.00  0.00    -0.073 C 
ATOM      7  C   UNL     1     -12.568  10.011   1.034  1.00  0.00     0.008 C 
ATOM      8  C   UNL     1     -14.436  11.272   0.020  1.00  0.00     0.031 C 
ATOM      9  C   UNL     1     -14.503  12.793  -0.146  1.00  0.00     0.005 C 
ATOM     10  C   UNL     1     -14.889  13.492   1.169  1.00  0.00     0.008 C 
ATOM     11  C   UNL     1     -13.943  13.129   2.354  1.00  0.00    -0.018 C 
ATOM     12  C   UNL     1     -14.526  13.755   3.644  1.00  0.00     0.088 C 
ATOM     13  C   UNL     1     -13.799  13.297   4.876  1.00  0.00     0.159 C 
ATOM     14  O   UNL     1     -13.539  14.144   5.771  1.00  0.00    -0.295 OA
ATOM     15  C   UNL     1     -12.530  13.721   2.090  1.00  0.00     0.012 C 
ATOM     16  C   UNL     1     -12.657   9.876   6.353  1.00  0.00     0.039 C 
ENDROOT
TORSDOF 0
ENDMDL
MODEL 5
REMARK VINA RESULT:    -4.441      3.560      6.262
REMARK INTER + INTRA:          -4.441
REMARK INTER:                  -4.441
REMARK INTRA:                   0.000
REMARK UNBOUND:                 0.000
REMARK SMILES C=C1CCC[C@@]2(C)CC(=O)C(=C(C)C)C[C@H]12
REMARK SMILES IDX 13 1 12 2 11 3 15 4 16 5 2 6 1 7 3 8 4 9 5 10 6 11 8 12 9 13
REMARK SMILES IDX 10 14 7 15 14 16
REMARK H PARENT
REMARK Flexibility Score: inf
ROOT
ATOM      1  C   UNL     1     -17.327  10.941   9.901  1.00  0.00     0.039 C 
ATOM      2  C   UNL     1     -16.882  10.624   8.491  1.00  0.00    -0.070 C 
ATOM      3  C   UNL     1     -15.666  11.024   8.013  1.00  0.00    -0.006 C 
ATOM      4  C   UNL     1     -15.258  10.750   6.572  1.00  0.00     0.047 C 
ATOM      5  C   UNL     1     -14.301  11.827   6.003  1.00  0.00     0.025 C 
ATOM      6  C   UNL     1     -13.824  11.583   4.572  1.00  0.00    -0.073 C 
ATOM      7  C   UNL     1     -14.178  10.516   3.830  1.00  0.00     0.008 C 
ATOM      8  C   UNL     1     -12.939  12.649   3.972  1.00  0.00     0.031 C 
ATOM      9  C   UNL     1     -11.748  12.932   4.892  1.00  0.00     0.005 C 
ATOM     10  C   UNL     1     -12.200  13.226   6.333  1.00  0.00     0.008 C 
ATOM     11  C   UNL     1     -13.081  12.091   6.940  1.00  0.00    -0.018 C 
ATOM     12  C   UNL     1     -13.606  12.573   8.314  1.00  0.00     0.088 C 
ATOM     13  C   UNL     1     -14.627  11.635   8.891  1.00  0.00     0.159 C 
ATOM     14  O   UNL     1     -14.571  11.368  10.122  1.00  0.00    -0.295 OA
ATOM     15  C   UNL     1     -12.218  10.814   7.139  1.00  0.00     0.012 C 
ATOM     16  C   UNL     1     -17.862   9.875   7.617  1.00  0.00     0.039 C 
ENDROOT
TORSDOF 0
ENDMDL
MODEL 6
REMARK VINA RESULT:    -3.984      1.686      5.396
REMARK INTER + INTRA:          -3.984
REMARK INTER:                  -3.984
REMARK INTRA:                   0.000
REMARK UNBOUND:                 0.000
REMARK SMILES C=C1CCC[C@@]2(C)CC(=O)C(=C(C)C)C[C@H]12
REMARK SMILES IDX 13 1 12 2 11 3 15 4 16 5 2 6 1 7 3 8 4 9 5 10 6 11 8 12 9 13
REMARK SMILES IDX 10 14 7 15 14 16
REMARK H PARENT
REMARK Flexibility Score: inf
ROOT
ATOM      1  C   UNL     1     -13.423  10.867   4.696  1.00  0.00     0.039 C 
ATOM      2  C   UNL     1     -14.372  11.972   4.292  1.00  0.00    -0.070 C 
ATOM      3  C   UNL     1     -14.201  12.681   3.136  1.00  0.00    -0.006 C 
ATOM      4  C   UNL     1     -15.131  13.831   2.773  1.00  0.00     0.047 C 
ATOM      5  C   UNL     1     -14.429  14.929   1.935  1.00  0.00     0.025 C 
ATOM      6  C   UNL     1     -15.324  16.091   1.506  1.00  0.00    -0.073 C 
ATOM      7  C   UNL     1     -16.634  16.184   1.804  1.00  0.00     0.008 C 
ATOM      8  C   UNL     1     -14.650  17.205   0.740  1.00  0.00     0.031 C 
ATOM      9  C   UNL     1     -13.892  16.640  -0.464  1.00  0.00     0.005 C 
ATOM     10  C   UNL     1     -12.947  15.496  -0.056  1.00  0.00     0.008 C 
ATOM     11  C   UNL     1     -13.676  14.343   0.699  1.00  0.00    -0.018 C 
ATOM     12  C   UNL     1     -12.606  13.343   1.199  1.00  0.00     0.088 C 
ATOM     13  C   UNL     1     -13.186  12.300   2.112  1.00  0.00     0.159 C 
ATOM     14  O   UNL     1     -12.807  11.106   1.978  1.00  0.00    -0.295 OA
ATOM     15  C   UNL     1     -14.644  13.615  -0.274  1.00  0.00     0.012 C 
ATOM     16  C   UNL     1     -15.503  12.286   5.245  1.00  0.00     0.039 C 
ENDROOT
TORSDOF 0
ENDMDL
MODEL 7
REMARK VINA RESULT:    -3.940      1.599      3.044
REMARK INTER + INTRA:          -3.940
REMARK INTER:                  -3.940
REMARK INTRA:                   0.000
REMARK UNBOUND:                 0.000
REMARK SMILES C=C1CCC[C@@]2(C)CC(=O)C(=C(C)C)C[C@H]12
REMARK SMILES IDX 13 1 12 2 11 3 15 4 16 5 2 6 1 7 3 8 4 9 5 10 6 11 8 12 9 13
REMARK SMILES IDX 10 14 7 15 14 16
REMARK H PARENT
REMARK Flexibility Score: inf
ROOT
ATOM      1  C   UNL     1     -14.571  13.794  -1.104  1.00  0.00     0.039 C 
ATOM      2  C   UNL     1     -14.458  12.677  -0.092  1.00  0.00    -0.070 C 
ATOM      3  C   UNL     1     -14.288  12.927   1.241  1.00  0.00    -0.006 C 
ATOM      4  C   UNL     1     -14.115  11.791   2.240  1.00  0.00     0.047 C 
ATOM      5  C   UNL     1     -13.239  12.187   3.454  1.00  0.00     0.025 C 
ATOM      6  C   UNL     1     -13.063  11.098   4.512  1.00  0.00    -0.073 C 
ATOM      7  C   UNL     1     -13.622   9.875   4.436  1.00  0.00     0.008 C 
ATOM      8  C   UNL     1     -12.163  11.438   5.677  1.00  0.00     0.031 C 
ATOM      9  C   UNL     1     -12.609  12.750   6.328  1.00  0.00     0.005 C 
ATOM     10  C   UNL     1     -12.751  13.879   5.293  1.00  0.00     0.008 C 
ATOM     11  C   UNL     1     -13.715  13.515   4.122  1.00  0.00    -0.018 C 
ATOM     12  C   UNL     1     -13.646  14.650   3.072  1.00  0.00     0.088 C 
ATOM     13  C   UNL     1     -14.384  14.302   1.811  1.00  0.00     0.159 C 
ATOM     14  O   UNL     1     -15.092  15.189   1.264  1.00  0.00    -0.295 OA
ATOM     15  C   UNL     1     -15.168  13.402   4.662  1.00  0.00     0.012 C 
ATOM     16  C   UNL     1     -14.503  11.263  -0.625  1.00  0.00     0.039 C 
ENDROOT
TORSDOF 0
ENDMDL
MODEL 8
REMARK VINA RESULT:    -3.459      1.655      4.881
REMARK INTER + INTRA:          -3.459
REMARK INTER:                  -3.459
REMARK INTRA:                   0.000
REMARK UNBOUND:                 0.000
REMARK SMILES C=C1CCC[C@@]2(C)CC(=O)C(=C(C)C)C[C@H]12
REMARK SMILES IDX 13 1 12 2 11 3 15 4 16 5 2 6 1 7 3 8 4 9 5 10 6 11 8 12 9 13
REMARK SMILES IDX 10 14 7 15 14 16
REMARK H PARENT
REMARK Flexibility Score: inf
ROOT
ATOM      1  C   UNL     1     -11.919  11.410   6.894  1.00  0.00     0.039 C 
ATOM      2  C   UNL     1     -12.797  12.404   6.170  1.00  0.00    -0.070 C 
ATOM      3  C   UNL     1     -13.145  12.236   4.859  1.00  0.00    -0.006 C 
ATOM      4  C   UNL     1     -13.980  13.277   4.126  1.00  0.00     0.047 C 
ATOM      5  C   UNL     1     -13.666  13.342   2.611  1.00  0.00     0.025 C 
ATOM      6  C   UNL     1     -14.504  14.342   1.815  1.00  0.00    -0.073 C 
ATOM      7  C   UNL     1     -15.462  15.120   2.353  1.00  0.00     0.008 C 
ATOM      8  C   UNL     1     -14.175  14.469   0.346  1.00  0.00     0.031 C 
ATOM      9  C   UNL     1     -14.203  13.093  -0.326  1.00  0.00     0.005 C 
ATOM     10  C   UNL     1     -13.331  12.074   0.429  1.00  0.00     0.008 C 
ATOM     11  C   UNL     1     -13.717  11.937   1.933  1.00  0.00    -0.018 C 
ATOM     12  C   UNL     1     -12.674  11.019   2.616  1.00  0.00     0.088 C 
ATOM     13  C   UNL     1     -12.840  10.984   4.108  1.00  0.00     0.159 C 
ATOM     14  O   UNL     1     -12.731   9.876   4.700  1.00  0.00    -0.295 OA
ATOM     15  C   UNL     1     -15.125  11.290   2.051  1.00  0.00     0.012 C 
ATOM     16  C   UNL     1     -13.245  13.618   6.951  1.00  0.00     0.039 C 
ENDROOT
TORSDOF 0
ENDMDL
