MODEL 1
REMARK VINA RESULT:    -3.331      0.000      0.000
REMARK INTER + INTRA:          -3.759
REMARK INTER:                  -3.720
REMARK INTRA:                  -0.039
REMARK UNBOUND:                -0.039
REMARK SMILES CCCC(=O)[O-]
REMARK SMILES IDX 3 1 4 2 5 3 6 4 2 5 1 6
REMARK H PARENT
REMARK Flexibility Score: inf
ROOT
ATOM      1  C   UNL     1    -104.591 -85.598  39.451  1.00  0.00     0.052 C 
ENDROOT
BRANCH   1   2
ATOM      2  C   UNL     1    -104.720 -86.306  38.136  1.00  0.00     0.041 C 
ATOM      3  O   UNL     1    -105.217 -85.714  37.142  1.00  0.00    -0.550 OA
ATOM      4  O   UNL     1    -104.322 -87.632  38.019  1.00  0.00    -0.550 OA
ENDBRANCH   1   2
BRANCH   1   5
ATOM      5  C   UNL     1    -105.542 -84.399  39.545  1.00  0.00     0.003 C 
ATOM      6  C   UNL     1    -104.796 -83.065  39.569  1.00  0.00     0.004 C 
ENDBRANCH   1   5
TORSDOF 2
ENDMDL
MODEL 2
REMARK VINA RESULT:    -3.313      0.070      1.324
REMARK INTER + INTRA:          -3.738
REMARK INTER:                  -3.700
REMARK INTRA:                  -0.038
REMARK UNBOUND:                -0.039
REMARK SMILES CCCC(=O)[O-]
REMARK SMILES IDX 3 1 4 2 5 3 6 4 2 5 1 6
REMARK H PARENT
REMARK Flexibility Score: inf
ROOT
ATOM      1  C   UNL     1    -104.593 -85.629  39.471  1.00  0.00     0.052 C 
ENDROOT
BRANCH   1   2
ATOM      2  C   UNL     1    -104.706 -86.334  38.154  1.00  0.00     0.041 C 
ATOM      3  O   UNL     1    -104.320 -87.527  38.037  1.00  0.00    -0.550 OA
ATOM      4  O   UNL     1    -105.205 -85.661  37.046  1.00  0.00    -0.550 OA
ENDBRANCH   1   2
BRANCH   1   5
ATOM      5  C   UNL     1    -105.524 -84.412  39.546  1.00  0.00     0.003 C 
ATOM      6  C   UNL     1    -104.755 -83.092  39.572  1.00  0.00     0.004 C 
ENDBRANCH   1   5
TORSDOF 2
ENDMDL
MODEL 3
REMARK VINA RESULT:    -3.192      1.990      3.295
REMARK INTER + INTRA:          -3.603
REMARK INTER:                  -3.597
REMARK INTRA:                  -0.006
REMARK UNBOUND:                -0.039
REMARK SMILES CCCC(=O)[O-]
REMARK SMILES IDX 3 1 4 2 5 3 6 4 2 5 1 6
REMARK H PARENT
REMARK Flexibility Score: inf
ROOT
ATOM      1  C   UNL     1    -105.028 -85.631  37.794  1.00  0.00     0.052 C 
ENDROOT
BRANCH   1   2
ATOM      2  C   UNL     1    -104.951 -85.270  39.247  1.00  0.00     0.041 C 
ATOM      3  O   UNL     1    -105.689 -84.364  39.716  1.00  0.00    -0.550 OA
ATOM      4  O   UNL     1    -104.038 -85.912  40.075  1.00  0.00    -0.550 OA
ENDBRANCH   1   2
BRANCH   1   5
ATOM      5  C   UNL     1    -104.912 -87.145  37.579  1.00  0.00     0.003 C 
ATOM      6  C   UNL     1    -105.315 -87.564  36.166  1.00  0.00     0.004 C 
ENDBRANCH   1   5
TORSDOF 2
ENDMDL
MODEL 4
REMARK VINA RESULT:    -3.170      1.403      1.411
REMARK INTER + INTRA:          -3.579
REMARK INTER:                  -3.519
REMARK INTRA:                  -0.060
REMARK UNBOUND:                -0.039
REMARK SMILES CCCC(=O)[O-]
REMARK SMILES IDX 3 1 4 2 5 3 6 4 2 5 1 6
REMARK H PARENT
REMARK Flexibility Score: inf
ROOT
ATOM      1  C   UNL     1    -104.486 -85.609  39.839  1.00  0.00     0.052 C 
ENDROOT
BRANCH   1   2
ATOM      2  C   UNL     1    -103.561 -85.866  38.688  1.00  0.00     0.041 C 
ATOM      3  O   UNL     1    -104.024 -86.060  37.533  1.00  0.00    -0.550 OA
ATOM      4  O   UNL     1    -102.190 -85.928  38.899  1.00  0.00    -0.550 OA
ENDBRANCH   1   2
BRANCH   1   5
ATOM      5  C   UNL     1    -105.477 -84.480  39.529  1.00  0.00     0.003 C 
ATOM      6  C   UNL     1    -104.817 -83.102  39.556  1.00  0.00     0.004 C 
ENDBRANCH   1   5
TORSDOF 2
ENDMDL
MODEL 5
REMARK VINA RESULT:    -3.069      2.773      3.419
REMARK INTER + INTRA:          -3.466
REMARK INTER:                  -3.455
REMARK INTRA:                  -0.011
REMARK UNBOUND:                -0.039
REMARK SMILES CCCC(=O)[O-]
REMARK SMILES IDX 3 1 4 2 5 3 6 4 2 5 1 6
REMARK H PARENT
REMARK Flexibility Score: inf
ROOT
ATOM      1  C   UNL     1    -103.342 -86.572  38.994  1.00  0.00     0.052 C 
ENDROOT
BRANCH   1   2
ATOM      2  C   UNL     1    -102.601 -85.269  39.012  1.00  0.00     0.041 C 
ATOM      3  O   UNL     1    -102.816 -84.429  39.927  1.00  0.00    -0.550 OA
ATOM      4  O   UNL     1    -101.701 -84.967  37.999  1.00  0.00    -0.550 OA
ENDBRANCH   1   2
BRANCH   1   5
ATOM      5  C   UNL     1    -104.702 -86.442  38.298  1.00  0.00     0.003 C 
ATOM      6  C   UNL     1    -104.957 -87.575  37.304  1.00  0.00     0.004 C 
ENDBRANCH   1   5
TORSDOF 2
ENDMDL
MODEL 6
REMARK VINA RESULT:    -3.008      2.253      3.379
REMARK INTER + INTRA:          -3.398
REMARK INTER:                  -3.390
REMARK INTRA:                  -0.008
REMARK UNBOUND:                -0.039
REMARK SMILES CCCC(=O)[O-]
REMARK SMILES IDX 3 1 4 2 5 3 6 4 2 5 1 6
REMARK H PARENT
REMARK Flexibility Score: inf
ROOT
ATOM      1  C   UNL     1    -104.939 -87.327  37.104  1.00  0.00     0.052 C 
ENDROOT
BRANCH   1   2
ATOM      2  C   UNL     1    -104.465 -86.716  38.388  1.00  0.00     0.041 C 
ATOM      3  O   UNL     1    -105.033 -85.691  38.851  1.00  0.00    -0.550 OA
ATOM      4  O   UNL     1    -103.373 -87.258  39.055  1.00  0.00    -0.550 OA
ENDBRANCH   1   2
BRANCH   1   5
ATOM      5  C   UNL     1    -105.152 -86.268  36.016  1.00  0.00     0.003 C 
ATOM      6  C   UNL     1    -105.801 -86.848  34.759  1.00  0.00     0.004 C 
ENDBRANCH   1   5
TORSDOF 2
ENDMDL
MODEL 7
REMARK VINA RESULT:    -2.997      1.932      2.381
REMARK INTER + INTRA:          -3.386
REMARK INTER:                  -3.314
REMARK INTRA:                  -0.072
REMARK UNBOUND:                -0.039
REMARK SMILES CCCC(=O)[O-]
REMARK SMILES IDX 3 1 4 2 5 3 6 4 2 5 1 6
REMARK H PARENT
REMARK Flexibility Score: inf
ROOT
ATOM      1  C   UNL     1    -103.925 -86.190  38.592  1.00  0.00     0.052 C 
ENDROOT
BRANCH   1   2
ATOM      2  C   UNL     1    -103.052 -85.204  37.875  1.00  0.00     0.041 C 
ATOM      3  O   UNL     1    -102.037 -84.723  38.446  1.00  0.00    -0.550 OA
ATOM      4  O   UNL     1    -103.379 -84.792  36.590  1.00  0.00    -0.550 OA
ENDBRANCH   1   2
BRANCH   1   5
ATOM      5  C   UNL     1    -104.575 -85.572  39.836  1.00  0.00     0.003 C 
ATOM      6  C   UNL     1    -105.480 -84.389  39.494  1.00  0.00     0.004 C 
ENDBRANCH   1   5
TORSDOF 2
ENDMDL
MODEL 8
REMARK VINA RESULT:    -2.942      2.240      3.213
REMARK INTER + INTRA:          -3.324
REMARK INTER:                  -3.260
REMARK INTRA:                  -0.064
REMARK UNBOUND:                -0.039
REMARK SMILES CCCC(=O)[O-]
REMARK SMILES IDX 3 1 4 2 5 3 6 4 2 5 1 6
REMARK H PARENT
REMARK Flexibility Score: inf
ROOT
ATOM      1  C   UNL     1    -105.163 -84.778  39.476  1.00  0.00     0.052 C 
ENDROOT
BRANCH   1   2
ATOM      2  C   UNL     1    -104.374 -83.574  39.057  1.00  0.00     0.041 C 
ATOM      3  O   UNL     1    -104.455 -83.141  37.877  1.00  0.00    -0.550 OA
ATOM      4  O   UNL     1    -103.522 -82.952  39.962  1.00  0.00    -0.550 OA
ENDBRANCH   1   2
BRANCH   1   5
ATOM      5  C   UNL     1    -104.703 -86.042  38.741  1.00  0.00     0.003 C 
ATOM      6  C   UNL     1    -103.365 -86.565  39.263  1.00  0.00     0.004 C 
ENDBRANCH   1   5
TORSDOF 2
ENDMDL
MODEL 9
REMARK VINA RESULT:    -2.815      2.779      3.280
REMARK INTER + INTRA:          -3.182
REMARK INTER:                  -3.111
REMARK INTRA:                  -0.072
REMARK UNBOUND:                -0.039
REMARK SMILES CCCC(=O)[O-]
REMARK SMILES IDX 3 1 4 2 5 3 6 4 2 5 1 6
REMARK H PARENT
REMARK Flexibility Score: inf
ROOT
ATOM      1  C   UNL     1    -103.681 -83.154  38.358  1.00  0.00     0.052 C 
ENDROOT
BRANCH   1   2
ATOM      2  C   UNL     1    -102.554 -83.866  39.043  1.00  0.00     0.041 C 
ATOM      3  O   UNL     1    -102.030 -84.882  38.515  1.00  0.00    -0.550 OA
ATOM      4  O   UNL     1    -102.106 -83.427  40.283  1.00  0.00    -0.550 OA
ENDBRANCH   1   2
BRANCH   1   5
ATOM      5  C   UNL     1    -104.936 -83.099  39.239  1.00  0.00     0.003 C 
ATOM      6  C   UNL     1    -105.455 -84.490  39.600  1.00  0.00     0.004 C 
ENDBRANCH   1   5
TORSDOF 2
ENDMDL
