MODEL 1
REMARK VINA RESULT:    -5.377      0.000      0.000
REMARK INTER + INTRA:         -11.470
REMARK INTER:                  -9.777
REMARK INTRA:                  -1.693
REMARK UNBOUND:                -1.693
REMARK SMILES CCCCCCCCCCCCCC[C@H](C)C(=O)[O-]
REMARK SMILES IDX 9 1 10 2 11 3 12 4 13 5 14 6 15 7 16 8 17 9 18 10 19 11 8 12
REMARK SMILES IDX 7 13 6 14 5 15 4 16 3 17 2 18 1 19
REMARK H PARENT
REMARK Flexibility Score: inf
ROOT
ATOM      1  C   UNL     1      15.173  16.472  38.386  1.00  0.00     0.000 C 
ENDROOT
BRANCH   1   2
ATOM      2  C   UNL     1      16.090  15.542  37.578  1.00  0.00     0.000 C 
BRANCH   2   3
ATOM      3  C   UNL     1      17.033  16.348  36.676  1.00  0.00     0.000 C 
BRANCH   3   4
ATOM      4  C   UNL     1      16.864  17.856  36.914  1.00  0.00     0.000 C 
BRANCH   4   5
ATOM      5  C   UNL     1      17.168  18.693  35.661  1.00  0.00     0.001 C 
BRANCH   5   6
ATOM      6  C   UNL     1      17.771  17.853  34.520  1.00  0.00     0.009 C 
BRANCH   6   7
ATOM      7  C   UNL     1      19.254  18.198  34.266  1.00  0.00     0.032 C 
ATOM      8  C   UNL     1      19.460  18.670  32.823  1.00  0.00     0.014 C 
BRANCH   7   9
ATOM      9  C   UNL     1      20.153  17.025  34.554  1.00  0.00     0.044 C 
ATOM     10  O   UNL     1      19.765  15.849  34.321  1.00  0.00    -0.550 OA
ATOM     11  O   UNL     1      21.421  17.236  35.079  1.00  0.00    -0.550 OA
ENDBRANCH   7   9
ENDBRANCH   6   7
ENDBRANCH   5   6
ENDBRANCH   4   5
ENDBRANCH   3   4
ENDBRANCH   2   3
ENDBRANCH   1   2
BRANCH   1  12
ATOM     12  C   UNL     1      13.698  16.380  37.952  1.00  0.00     0.000 C 
BRANCH  12  13
ATOM     13  C   UNL     1      13.466  15.742  36.569  1.00  0.00    -0.000 C 
BRANCH  13  14
ATOM     14  C   UNL     1      13.579  16.709  35.372  1.00  0.00    -0.000 C 
BRANCH  14  15
ATOM     15  C   UNL     1      13.119  18.150  35.655  1.00  0.00    -0.000 C 
BRANCH  15  16
ATOM     16  C   UNL     1      11.591  18.285  35.724  1.00  0.00    -0.000 C 
BRANCH  16  17
ATOM     17  C   UNL     1      11.005  18.605  34.344  1.00  0.00    -0.000 C 
BRANCH  17  18
ATOM     18  C   UNL     1       9.817  17.689  34.024  1.00  0.00    -0.003 C 
ATOM     19  C   UNL     1       9.448  16.826  35.226  1.00  0.00     0.004 C 
ENDBRANCH  17  18
ENDBRANCH  16  17
ENDBRANCH  15  16
ENDBRANCH  14  15
ENDBRANCH  13  14
ENDBRANCH  12  13
ENDBRANCH   1  12
TORSDOF 14
ENDMDL
MODEL 2
REMARK VINA RESULT:    -5.342      4.919      7.891
REMARK INTER + INTRA:         -11.408
REMARK INTER:                  -9.155
REMARK INTRA:                  -2.253
REMARK UNBOUND:                -1.693
REMARK SMILES CCCCCCCCCCCCCC[C@H](C)C(=O)[O-]
REMARK SMILES IDX 9 1 10 2 11 3 12 4 13 5 14 6 15 7 16 8 17 9 18 10 19 11 8 12
REMARK SMILES IDX 7 13 6 14 5 15 4 16 3 17 2 18 1 19
REMARK H PARENT
REMARK Flexibility Score: inf
ROOT
ATOM      1  C   UNL     1       9.803  18.898  32.044  1.00  0.00     0.000 C 
ENDROOT
BRANCH   1   2
ATOM      2  C   UNL     1       9.326  17.909  33.118  1.00  0.00     0.000 C 
BRANCH   2   3
ATOM      3  C   UNL     1       8.245  18.540  34.004  1.00  0.00     0.000 C 
BRANCH   3   4
ATOM      4  C   UNL     1       8.065  17.742  35.304  1.00  0.00     0.000 C 
BRANCH   4   5
ATOM      5  C   UNL     1       8.966  18.248  36.442  1.00  0.00     0.001 C 
BRANCH   5   6
ATOM      6  C   UNL     1      10.117  17.276  36.762  1.00  0.00     0.009 C 
BRANCH   6   7
ATOM      7  C   UNL     1      11.467  18.007  36.916  1.00  0.00     0.032 C 
ATOM      8  C   UNL     1      11.934  18.572  35.570  1.00  0.00     0.014 C 
BRANCH   7   9
ATOM      9  C   UNL     1      12.527  17.100  37.485  1.00  0.00     0.044 C 
ATOM     10  O   UNL     1      12.976  17.291  38.647  1.00  0.00    -0.550 OA
ATOM     11  O   UNL     1      13.013  16.044  36.728  1.00  0.00    -0.550 OA
ENDBRANCH   7   9
ENDBRANCH   6   7
ENDBRANCH   5   6
ENDBRANCH   4   5
ENDBRANCH   3   4
ENDBRANCH   2   3
ENDBRANCH   1   2
BRANCH   1  12
ATOM     12  C   UNL     1       9.042  18.747  30.714  1.00  0.00     0.000 C 
BRANCH  12  13
ATOM     13  C   UNL     1       8.339  20.026  30.217  1.00  0.00    -0.000 C 
BRANCH  13  14
ATOM     14  C   UNL     1       8.023  21.067  31.310  1.00  0.00    -0.000 C 
BRANCH  14  15
ATOM     15  C   UNL     1       8.643  22.458  31.082  1.00  0.00    -0.000 C 
BRANCH  15  16
ATOM     16  C   UNL     1       9.507  22.926  32.261  1.00  0.00    -0.000 C 
BRANCH  16  17
ATOM     17  C   UNL     1       8.955  22.400  33.590  1.00  0.00    -0.000 C 
BRANCH  17  18
ATOM     18  C   UNL     1      10.053  21.712  34.410  1.00  0.00    -0.003 C 
ATOM     19  C   UNL     1      11.413  21.853  33.737  1.00  0.00     0.004 C 
ENDBRANCH  17  18
ENDBRANCH  16  17
ENDBRANCH  15  16
ENDBRANCH  14  15
ENDBRANCH  13  14
ENDBRANCH  12  13
ENDBRANCH   1  12
TORSDOF 14
ENDMDL
MODEL 3
REMARK VINA RESULT:    -5.342      6.396      8.521
REMARK INTER + INTRA:         -11.406
REMARK INTER:                  -8.983
REMARK INTRA:                  -2.423
REMARK UNBOUND:                -1.693
REMARK SMILES CCCCCCCCCCCCCC[C@H](C)C(=O)[O-]
REMARK SMILES IDX 9 1 10 2 11 3 12 4 13 5 14 6 15 7 16 8 17 9 18 10 19 11 8 12
REMARK SMILES IDX 7 13 6 14 5 15 4 16 3 17 2 18 1 19
REMARK H PARENT
REMARK Flexibility Score: inf
ROOT
ATOM      1  C   UNL     1      10.191  18.922  33.446  1.00  0.00     0.000 C 
ENDROOT
BRANCH   1   2
ATOM      2  C   UNL     1       8.884  18.245  33.884  1.00  0.00     0.000 C 
BRANCH   2   3
ATOM      3  C   UNL     1       8.084  19.153  34.825  1.00  0.00     0.000 C 
BRANCH   3   4
ATOM      4  C   UNL     1       8.957  20.301  35.356  1.00  0.00     0.000 C 
BRANCH   4   5
ATOM      5  C   UNL     1       8.948  20.395  36.890  1.00  0.00     0.001 C 
BRANCH   5   6
ATOM      6  C   UNL     1       8.405  19.119  37.558  1.00  0.00     0.009 C 
BRANCH   6   7
ATOM      7  C   UNL     1       9.489  18.387  38.377  1.00  0.00     0.032 C 
ATOM      8  C   UNL     1      10.412  19.392  39.074  1.00  0.00     0.014 C 
BRANCH   7   9
ATOM      9  C   UNL     1      10.302  17.458  37.514  1.00  0.00     0.044 C 
ATOM     10  O   UNL     1       9.736  16.597  36.789  1.00  0.00    -0.550 OA
ATOM     11  O   UNL     1      11.687  17.550  37.512  1.00  0.00    -0.550 OA
ENDBRANCH   7   9
ENDBRANCH   6   7
ENDBRANCH   5   6
ENDBRANCH   4   5
ENDBRANCH   3   4
ENDBRANCH   2   3
ENDBRANCH   1   2
BRANCH   1  12
ATOM     12  C   UNL     1      10.292  19.093  31.919  1.00  0.00     0.000 C 
BRANCH  12  13
ATOM     13  C   UNL     1       8.973  18.876  31.152  1.00  0.00    -0.000 C 
BRANCH  13  14
ATOM     14  C   UNL     1       8.342  20.152  30.556  1.00  0.00    -0.000 C 
BRANCH  14  15
ATOM     15  C   UNL     1       7.911  21.208  31.590  1.00  0.00    -0.000 C 
BRANCH  15  16
ATOM     16  C   UNL     1       8.507  22.595  31.308  1.00  0.00    -0.000 C 
BRANCH  16  17
ATOM     17  C   UNL     1       9.294  23.111  32.518  1.00  0.00    -0.000 C 
BRANCH  17  18
ATOM     18  C   UNL     1      10.767  22.694  32.436  1.00  0.00    -0.003 C 
ATOM     19  C   UNL     1      11.367  22.515  33.827  1.00  0.00     0.004 C 
ENDBRANCH  17  18
ENDBRANCH  16  17
ENDBRANCH  15  16
ENDBRANCH  14  15
ENDBRANCH  13  14
ENDBRANCH  12  13
ENDBRANCH   1  12
TORSDOF 14
ENDMDL
MODEL 4
REMARK VINA RESULT:    -5.319      6.740      8.673
REMARK INTER + INTRA:         -11.365
REMARK INTER:                  -9.212
REMARK INTRA:                  -2.153
REMARK UNBOUND:                -1.693
REMARK SMILES CCCCCCCCCCCCCC[C@H](C)C(=O)[O-]
REMARK SMILES IDX 9 1 10 2 11 3 12 4 13 5 14 6 15 7 16 8 17 9 18 10 19 11 8 12
REMARK SMILES IDX 7 13 6 14 5 15 4 16 3 17 2 18 1 19
REMARK H PARENT
REMARK Flexibility Score: inf
ROOT
ATOM      1  C   UNL     1       9.768  18.567  33.414  1.00  0.00     0.000 C 
ENDROOT
BRANCH   1   2
ATOM      2  C   UNL     1       8.291  18.503  33.831  1.00  0.00     0.000 C 
BRANCH   2   3
ATOM      3  C   UNL     1       8.124  17.724  35.141  1.00  0.00     0.000 C 
BRANCH   3   4
ATOM      4  C   UNL     1       9.300  16.760  35.361  1.00  0.00     0.000 C 
BRANCH   4   5
ATOM      5  C   UNL     1       9.765  16.713  36.825  1.00  0.00     0.001 C 
BRANCH   5   6
ATOM      6  C   UNL     1      10.184  18.095  37.358  1.00  0.00     0.009 C 
BRANCH   6   7
ATOM      7  C   UNL     1       9.416  18.480  38.640  1.00  0.00     0.032 C 
ATOM      8  C   UNL     1       8.426  19.615  38.359  1.00  0.00     0.014 C 
BRANCH   7   9
ATOM      9  C   UNL     1      10.354  18.882  39.748  1.00  0.00     0.044 C 
ATOM     10  O   UNL     1      11.597  18.924  39.550  1.00  0.00    -0.550 OA
ATOM     11  O   UNL     1       9.848  19.211  40.998  1.00  0.00    -0.550 OA
ENDBRANCH   7   9
ENDBRANCH   6   7
ENDBRANCH   5   6
ENDBRANCH   4   5
ENDBRANCH   3   4
ENDBRANCH   2   3
ENDBRANCH   1   2
BRANCH   1  12
ATOM     12  C   UNL     1       9.954  18.950  31.934  1.00  0.00     0.000 C 
BRANCH  12  13
ATOM     13  C   UNL     1       8.652  19.024  31.113  1.00  0.00    -0.000 C 
BRANCH  13  14
ATOM     14  C   UNL     1       8.300  20.423  30.566  1.00  0.00    -0.000 C 
BRANCH  14  15
ATOM     15  C   UNL     1       8.052  21.498  31.640  1.00  0.00    -0.000 C 
BRANCH  15  16
ATOM     16  C   UNL     1       9.124  22.597  31.641  1.00  0.00    -0.000 C 
BRANCH  16  17
ATOM     17  C   UNL     1       9.904  22.602  32.961  1.00  0.00    -0.000 C 
BRANCH  17  18
ATOM     18  C   UNL     1       9.031  22.102  34.119  1.00  0.00    -0.003 C 
ATOM     19  C   UNL     1       9.855  21.914  35.388  1.00  0.00     0.004 C 
ENDBRANCH  17  18
ENDBRANCH  16  17
ENDBRANCH  15  16
ENDBRANCH  14  15
ENDBRANCH  13  14
ENDBRANCH  12  13
ENDBRANCH   1  12
TORSDOF 14
ENDMDL
MODEL 5
REMARK VINA RESULT:    -5.318      3.601      7.916
REMARK INTER + INTRA:         -11.363
REMARK INTER:                  -9.790
REMARK INTRA:                  -1.573
REMARK UNBOUND:                -1.693
REMARK SMILES CCCCCCCCCCCCCC[C@H](C)C(=O)[O-]
REMARK SMILES IDX 9 1 10 2 11 3 12 4 13 5 14 6 15 7 16 8 17 9 18 10 19 11 8 12
REMARK SMILES IDX 7 13 6 14 5 15 4 16 3 17 2 18 1 19
REMARK H PARENT
REMARK Flexibility Score: inf
ROOT
ATOM      1  C   UNL     1      17.256  16.650  36.261  1.00  0.00     0.000 C 
ENDROOT
BRANCH   1   2
ATOM      2  C   UNL     1      16.558  17.988  36.549  1.00  0.00     0.000 C 
BRANCH   2   3
ATOM      3  C   UNL     1      15.821  17.945  37.893  1.00  0.00     0.000 C 
BRANCH   3   4
ATOM      4  C   UNL     1      15.647  16.497  38.378  1.00  0.00     0.000 C 
BRANCH   4   5
ATOM      5  C   UNL     1      14.174  16.111  38.579  1.00  0.00     0.001 C 
BRANCH   5   6
ATOM      6  C   UNL     1      13.203  17.156  38.000  1.00  0.00     0.009 C 
BRANCH   6   7
ATOM      7  C   UNL     1      12.367  16.589  36.833  1.00  0.00     0.032 C 
ATOM      8  C   UNL     1      13.103  16.773  35.502  1.00  0.00     0.014 C 
BRANCH   7   9
ATOM      9  C   UNL     1      11.008  17.234  36.761  1.00  0.00     0.044 C 
ATOM     10  O   UNL     1       9.964  16.530  36.787  1.00  0.00    -0.550 OA
ATOM     11  O   UNL     1      10.901  18.615  36.665  1.00  0.00    -0.550 OA
ENDBRANCH   7   9
ENDBRANCH   6   7
ENDBRANCH   5   6
ENDBRANCH   4   5
ENDBRANCH   3   4
ENDBRANCH   2   3
ENDBRANCH   1   2
BRANCH   1  12
ATOM     12  C   UNL     1      18.381  16.776  35.218  1.00  0.00     0.000 C 
BRANCH  12  13
ATOM     13  C   UNL     1      19.105  18.136  35.203  1.00  0.00    -0.000 C 
BRANCH  13  14
ATOM     14  C   UNL     1      19.294  18.764  33.807  1.00  0.00    -0.000 C 
BRANCH  14  15
ATOM     15  C   UNL     1      19.125  17.790  32.628  1.00  0.00    -0.000 C 
BRANCH  15  16
ATOM     16  C   UNL     1      20.463  17.379  31.998  1.00  0.00    -0.000 C 
BRANCH  16  17
ATOM     17  C   UNL     1      21.618  18.209  32.571  1.00  0.00    -0.000 C 
BRANCH  17  18
ATOM     18  C   UNL     1      22.706  17.305  33.163  1.00  0.00    -0.003 C 
ATOM     19  C   UNL     1      22.123  16.345  34.195  1.00  0.00     0.004 C 
ENDBRANCH  17  18
ENDBRANCH  16  17
ENDBRANCH  15  16
ENDBRANCH  14  15
ENDBRANCH  13  14
ENDBRANCH  12  13
ENDBRANCH   1  12
TORSDOF 14
ENDMDL
MODEL 6
REMARK VINA RESULT:    -5.273      6.549      8.973
REMARK INTER + INTRA:         -11.282
REMARK INTER:                  -8.709
REMARK INTRA:                  -2.573
REMARK UNBOUND:                -1.693
REMARK SMILES CCCCCCCCCCCCCC[C@H](C)C(=O)[O-]
REMARK SMILES IDX 9 1 10 2 11 3 12 4 13 5 14 6 15 7 16 8 17 9 18 10 19 11 8 12
REMARK SMILES IDX 7 13 6 14 5 15 4 16 3 17 2 18 1 19
REMARK H PARENT
REMARK Flexibility Score: inf
ROOT
ATOM      1  C   UNL     1      10.975  19.652  32.655  1.00  0.00     0.000 C 
ENDROOT
BRANCH   1   2
ATOM      2  C   UNL     1       9.665  18.987  32.204  1.00  0.00     0.000 C 
BRANCH   2   3
ATOM      3  C   UNL     1       9.229  17.905  33.199  1.00  0.00     0.000 C 
BRANCH   3   4
ATOM      4  C   UNL     1       8.083  18.409  34.089  1.00  0.00     0.000 C 
BRANCH   4   5
ATOM      5  C   UNL     1       8.435  18.378  35.585  1.00  0.00     0.001 C 
BRANCH   5   6
ATOM      6  C   UNL     1       8.586  19.787  36.187  1.00  0.00     0.009 C 
BRANCH   6   7
ATOM      7  C   UNL     1       9.947  19.975  36.891  1.00  0.00     0.032 C 
ATOM      8  C   UNL     1      10.975  18.971  36.358  1.00  0.00     0.014 C 
BRANCH   7   9
ATOM      9  C   UNL     1       9.821  19.834  38.385  1.00  0.00     0.044 C 
ATOM     10  O   UNL     1       9.695  20.852  39.116  1.00  0.00    -0.550 OA
ATOM     11  O   UNL     1       9.842  18.573  38.966  1.00  0.00    -0.550 OA
ENDBRANCH   7   9
ENDBRANCH   6   7
ENDBRANCH   5   6
ENDBRANCH   4   5
ENDBRANCH   3   4
ENDBRANCH   2   3
ENDBRANCH   1   2
BRANCH   1  12
ATOM     12  C   UNL     1      10.753  21.039  33.286  1.00  0.00     0.000 C 
BRANCH  12  13
ATOM     13  C   UNL     1       9.398  21.696  32.954  1.00  0.00    -0.000 C 
BRANCH  13  14
ATOM     14  C   UNL     1       8.867  22.679  34.017  1.00  0.00    -0.000 C 
BRANCH  14  15
ATOM     15  C   UNL     1       9.933  23.234  34.979  1.00  0.00    -0.000 C 
BRANCH  15  16
ATOM     16  C   UNL     1      10.068  24.761  34.903  1.00  0.00    -0.000 C 
BRANCH  16  17
ATOM     17  C   UNL     1       9.714  25.275  33.503  1.00  0.00    -0.000 C 
BRANCH  17  18
ATOM     18  C   UNL     1      10.978  25.619  32.706  1.00  0.00    -0.003 C 
ATOM     19  C   UNL     1      11.215  24.611  31.587  1.00  0.00     0.004 C 
ENDBRANCH  17  18
ENDBRANCH  16  17
ENDBRANCH  15  16
ENDBRANCH  14  15
ENDBRANCH  13  14
ENDBRANCH  12  13
ENDBRANCH   1  12
TORSDOF 14
ENDMDL
MODEL 7
REMARK VINA RESULT:    -5.260      6.880      9.376
REMARK INTER + INTRA:         -11.258
REMARK INTER:                  -8.836
REMARK INTRA:                  -2.421
REMARK UNBOUND:                -1.693
REMARK SMILES CCCCCCCCCCCCCC[C@H](C)C(=O)[O-]
REMARK SMILES IDX 9 1 10 2 11 3 12 4 13 5 14 6 15 7 16 8 17 9 18 10 19 11 8 12
REMARK SMILES IDX 7 13 6 14 5 15 4 16 3 17 2 18 1 19
REMARK H PARENT
REMARK Flexibility Score: inf
ROOT
ATOM      1  C   UNL     1       8.245  20.274  31.791  1.00  0.00     0.000 C 
ENDROOT
BRANCH   1   2
ATOM      2  C   UNL     1       9.308  19.183  31.591  1.00  0.00     0.000 C 
BRANCH   2   3
ATOM      3  C   UNL     1       9.222  18.124  32.696  1.00  0.00     0.000 C 
BRANCH   3   4
ATOM      4  C   UNL     1       8.166  18.508  33.744  1.00  0.00     0.000 C 
BRANCH   4   5
ATOM      5  C   UNL     1       8.390  17.812  35.096  1.00  0.00     0.001 C 
BRANCH   5   6
ATOM      6  C   UNL     1       8.100  18.736  36.293  1.00  0.00     0.009 C 
BRANCH   6   7
ATOM      7  C   UNL     1       9.365  19.007  37.135  1.00  0.00     0.032 C 
ATOM      8  C   UNL     1       9.984  17.693  37.621  1.00  0.00     0.014 C 
BRANCH   7   9
ATOM      9  C   UNL     1       9.066  19.899  38.312  1.00  0.00     0.044 C 
ATOM     10  O   UNL     1       9.320  21.131  38.262  1.00  0.00    -0.550 OA
ATOM     11  O   UNL     1       8.503  19.361  39.461  1.00  0.00    -0.550 OA
ENDBRANCH   7   9
ENDBRANCH   6   7
ENDBRANCH   5   6
ENDBRANCH   4   5
ENDBRANCH   3   4
ENDBRANCH   2   3
ENDBRANCH   1   2
BRANCH   1  12
ATOM     12  C   UNL     1       8.337  21.397  30.741  1.00  0.00     0.000 C 
BRANCH  12  13
ATOM     13  C   UNL     1       8.416  22.823  31.319  1.00  0.00    -0.000 C 
BRANCH  13  14
ATOM     14  C   UNL     1       9.811  23.254  31.816  1.00  0.00    -0.000 C 
BRANCH  14  15
ATOM     15  C   UNL     1       9.836  23.877  33.224  1.00  0.00    -0.000 C 
BRANCH  15  16
ATOM     16  C   UNL     1       8.717  23.345  34.131  1.00  0.00    -0.000 C 
BRANCH  16  17
ATOM     17  C   UNL     1       9.138  22.038  34.812  1.00  0.00    -0.000 C 
BRANCH  17  18
ATOM     18  C   UNL     1      10.656  21.987  35.019  1.00  0.00    -0.003 C 
ATOM     19  C   UNL     1      11.231  20.653  34.557  1.00  0.00     0.004 C 
ENDBRANCH  17  18
ENDBRANCH  16  17
ENDBRANCH  15  16
ENDBRANCH  14  15
ENDBRANCH  13  14
ENDBRANCH  12  13
ENDBRANCH   1  12
TORSDOF 14
ENDMDL
MODEL 8
REMARK VINA RESULT:    -5.257      1.670      3.639
REMARK INTER + INTRA:         -11.253
REMARK INTER:                 -10.095
REMARK INTRA:                  -1.158
REMARK UNBOUND:                -1.693
REMARK SMILES CCCCCCCCCCCCCC[C@H](C)C(=O)[O-]
REMARK SMILES IDX 9 1 10 2 11 3 12 4 13 5 14 6 15 7 16 8 17 9 18 10 19 11 8 12
REMARK SMILES IDX 7 13 6 14 5 15 4 16 3 17 2 18 1 19
REMARK H PARENT
REMARK Flexibility Score: inf
ROOT
ATOM      1  C   UNL     1      11.886  17.375  35.388  1.00  0.00     0.000 C 
ENDROOT
BRANCH   1   2
ATOM      2  C   UNL     1      13.284  17.326  36.022  1.00  0.00     0.000 C 
BRANCH   2   3
ATOM      3  C   UNL     1      13.548  15.957  36.661  1.00  0.00     0.000 C 
BRANCH   3   4
ATOM      4  C   UNL     1      14.402  16.099  37.931  1.00  0.00     0.000 C 
BRANCH   4   5
ATOM      5  C   UNL     1      15.652  16.967  37.713  1.00  0.00     0.001 C 
BRANCH   5   6
ATOM      6  C   UNL     1      16.714  16.266  36.846  1.00  0.00     0.009 C 
BRANCH   6   7
ATOM      7  C   UNL     1      17.609  17.276  36.097  1.00  0.00     0.032 C 
ATOM      8  C   UNL     1      16.819  18.540  35.742  1.00  0.00     0.014 C 
BRANCH   7   9
ATOM      9  C   UNL     1      18.200  16.674  34.849  1.00  0.00     0.044 C 
ATOM     10  O   UNL     1      18.700  15.518  34.872  1.00  0.00    -0.550 OA
ATOM     11  O   UNL     1      18.192  17.394  33.663  1.00  0.00    -0.550 OA
ENDBRANCH   7   9
ENDBRANCH   6   7
ENDBRANCH   5   6
ENDBRANCH   4   5
ENDBRANCH   3   4
ENDBRANCH   2   3
ENDBRANCH   1   2
BRANCH   1  12
ATOM     12  C   UNL     1      10.785  16.848  36.326  1.00  0.00     0.000 C 
BRANCH  12  13
ATOM     13  C   UNL     1       9.366  16.840  35.725  1.00  0.00    -0.000 C 
BRANCH  13  14
ATOM     14  C   UNL     1       8.480  18.039  36.118  1.00  0.00    -0.000 C 
BRANCH  14  15
ATOM     15  C   UNL     1       7.880  18.820  34.935  1.00  0.00    -0.000 C 
BRANCH  15  16
ATOM     16  C   UNL     1       8.947  19.338  33.960  1.00  0.00    -0.000 C 
BRANCH  16  17
ATOM     17  C   UNL     1       8.655  18.874  32.528  1.00  0.00    -0.000 C 
BRANCH  17  18
ATOM     18  C   UNL     1       9.948  18.749  31.714  1.00  0.00    -0.003 C 
ATOM     19  C   UNL     1       9.782  17.760  30.566  1.00  0.00     0.004 C 
ENDBRANCH  17  18
ENDBRANCH  16  17
ENDBRANCH  15  16
ENDBRANCH  14  15
ENDBRANCH  13  14
ENDBRANCH  12  13
ENDBRANCH   1  12
TORSDOF 14
ENDMDL
MODEL 9
REMARK VINA RESULT:    -5.246      6.801      8.296
REMARK INTER + INTRA:         -11.232
REMARK INTER:                  -8.905
REMARK INTRA:                  -2.327
REMARK UNBOUND:                -1.693
REMARK SMILES CCCCCCCCCCCCCC[C@H](C)C(=O)[O-]
REMARK SMILES IDX 9 1 10 2 11 3 12 4 13 5 14 6 15 7 16 8 17 9 18 10 19 11 8 12
REMARK SMILES IDX 7 13 6 14 5 15 4 16 3 17 2 18 1 19
REMARK H PARENT
REMARK Flexibility Score: inf
ROOT
ATOM      1  C   UNL     1       9.368  19.085  38.387  1.00  0.00     0.000 C 
ENDROOT
BRANCH   1   2
ATOM      2  C   UNL     1       8.399  19.983  37.603  1.00  0.00     0.000 C 
BRANCH   2   3
ATOM      3  C   UNL     1       9.025  21.354  37.324  1.00  0.00     0.000 C 
BRANCH   3   4
ATOM      4  C   UNL     1       9.062  21.646  35.816  1.00  0.00     0.000 C 
BRANCH   4   5
ATOM      5  C   UNL     1      10.444  21.389  35.195  1.00  0.00     0.001 C 
BRANCH   5   6
ATOM      6  C   UNL     1      10.602  22.046  33.811  1.00  0.00     0.009 C 
BRANCH   6   7
ATOM      7  C   UNL     1       9.392  22.932  33.448  1.00  0.00     0.032 C 
ATOM      8  C   UNL     1       8.632  22.346  32.253  1.00  0.00     0.014 C 
BRANCH   7   9
ATOM      9  C   UNL     1       9.812  24.346  33.144  1.00  0.00     0.044 C 
ATOM     10  O   UNL     1       9.478  25.291  33.907  1.00  0.00    -0.550 OA
ATOM     11  O   UNL     1      10.575  24.614  32.015  1.00  0.00    -0.550 OA
ENDBRANCH   7   9
ENDBRANCH   6   7
ENDBRANCH   5   6
ENDBRANCH   4   5
ENDBRANCH   3   4
ENDBRANCH   2   3
ENDBRANCH   1   2
BRANCH   1  12
ATOM     12  C   UNL     1       9.716  17.785  37.640  1.00  0.00     0.000 C 
BRANCH  12  13
ATOM     13  C   UNL     1      10.846  17.915  36.600  1.00  0.00    -0.000 C 
BRANCH  13  14
ATOM     14  C   UNL     1      10.432  17.631  35.142  1.00  0.00    -0.000 C 
BRANCH  14  15
ATOM     15  C   UNL     1       8.919  17.451  34.919  1.00  0.00    -0.000 C 
BRANCH  15  16
ATOM     16  C   UNL     1       8.412  18.174  33.663  1.00  0.00    -0.000 C 
BRANCH  16  17
ATOM     17  C   UNL     1       9.580  18.699  32.821  1.00  0.00    -0.000 C 
BRANCH  17  18
ATOM     18  C   UNL     1       9.183  18.830  31.346  1.00  0.00    -0.003 C 
ATOM     19  C   UNL     1       9.771  17.695  30.515  1.00  0.00     0.004 C 
ENDBRANCH  17  18
ENDBRANCH  16  17
ENDBRANCH  15  16
ENDBRANCH  14  15
ENDBRANCH  13  14
ENDBRANCH  12  13
ENDBRANCH   1  12
TORSDOF 14
ENDMDL
