MODEL 1
REMARK VINA RESULT:    -4.513      0.000      0.000
REMARK INTER + INTRA:          -6.426
REMARK INTER:                  -6.096
REMARK INTRA:                  -0.330
REMARK UNBOUND:                -0.330
REMARK SMILES CCCCCCC=CC(=O)[O-]
REMARK SMILES IDX 5 1 6 2 7 3 8 4 9 5 10 6 11 7 4 8 3 9 2 10 1 11
REMARK H PARENT
REMARK Flexibility Score: inf
ROOT
ATOM      1  C   UNL     1      12.969 -15.471  29.449  1.00  0.00     0.004 C 
ENDROOT
BRANCH   1   2
ATOM      2  C   UNL     1      11.754 -14.537  29.358  1.00  0.00     0.027 C 
BRANCH   2   3
ATOM      3  C   UNL     1      11.935 -13.459  28.325  1.00  0.00    -0.025 C 
ATOM      4  C   UNL     1      11.725 -13.693  27.027  1.00  0.00     0.020 C 
BRANCH   4   5
ATOM      5  C   UNL     1      11.904 -12.650  26.007  1.00  0.00     0.064 C 
ATOM      6  O   UNL     1      13.019 -12.074  25.896  1.00  0.00    -0.545 OA
ATOM      7  O   UNL     1      10.863 -12.288  25.161  1.00  0.00    -0.545 OA
ENDBRANCH   4   5
ENDBRANCH   2   3
ENDBRANCH   1   2
BRANCH   1   8
ATOM      8  C   UNL     1      13.740 -15.293  30.766  1.00  0.00     0.000 C 
BRANCH   8   9
ATOM      9  C   UNL     1      13.065 -16.061  31.907  1.00  0.00    -0.000 C 
BRANCH   9  10
ATOM     10  C   UNL     1      12.868 -17.536  31.535  1.00  0.00    -0.003 C 
ATOM     11  C   UNL     1      11.430 -17.980  31.789  1.00  0.00     0.004 C 
ENDBRANCH   9  10
ENDBRANCH   8   9
ENDBRANCH   1   8
TORSDOF 6
ENDMDL
MODEL 2
REMARK VINA RESULT:    -4.511     10.022     10.799
REMARK INTER + INTRA:          -6.423
REMARK INTER:                  -6.193
REMARK INTRA:                  -0.230
REMARK UNBOUND:                -0.330
REMARK SMILES CCCCCCC=CC(=O)[O-]
REMARK SMILES IDX 5 1 6 2 7 3 8 4 9 5 10 6 11 7 4 8 3 9 2 10 1 11
REMARK H PARENT
REMARK Flexibility Score: inf
ROOT
ATOM      1  C   UNL     1       7.677 -20.331  20.757  1.00  0.00     0.004 C 
ENDROOT
BRANCH   1   2
ATOM      2  C   UNL     1       6.532 -19.386  20.366  1.00  0.00     0.027 C 
BRANCH   2   3
ATOM      3  C   UNL     1       6.862 -17.943  20.633  1.00  0.00    -0.025 C 
ATOM      4  C   UNL     1       5.929 -17.076  21.037  1.00  0.00     0.020 C 
BRANCH   4   5
ATOM      5  C   UNL     1       6.237 -15.662  21.295  1.00  0.00     0.064 C 
ATOM      6  O   UNL     1       6.947 -15.352  22.288  1.00  0.00    -0.545 OA
ATOM      7  O   UNL     1       5.758 -14.660  20.460  1.00  0.00    -0.545 OA
ENDBRANCH   4   5
ENDBRANCH   2   3
ENDBRANCH   1   2
BRANCH   1   8
ATOM      8  C   UNL     1       7.236 -21.802  20.775  1.00  0.00     0.000 C 
BRANCH   8   9
ATOM      9  C   UNL     1       8.447 -22.740  20.727  1.00  0.00    -0.000 C 
BRANCH   9  10
ATOM     10  C   UNL     1       9.758 -21.945  20.722  1.00  0.00    -0.003 C 
ATOM     11  C   UNL     1      10.946 -22.839  21.068  1.00  0.00     0.004 C 
ENDBRANCH   9  10
ENDBRANCH   8   9
ENDBRANCH   1   8
TORSDOF 6
ENDMDL
MODEL 3
REMARK VINA RESULT:    -4.458      1.239      1.605
REMARK INTER + INTRA:          -6.351
REMARK INTER:                  -6.010
REMARK INTRA:                  -0.341
REMARK UNBOUND:                -0.330
REMARK SMILES CCCCCCC=CC(=O)[O-]
REMARK SMILES IDX 5 1 6 2 7 3 8 4 9 5 10 6 11 7 4 8 3 9 2 10 1 11
REMARK H PARENT
REMARK Flexibility Score: inf
ROOT
ATOM      1  C   UNL     1      12.993 -15.206  30.629  1.00  0.00     0.004 C 
ENDROOT
BRANCH   1   2
ATOM      2  C   UNL     1      11.750 -14.884  29.788  1.00  0.00     0.027 C 
BRANCH   2   3
ATOM      3  C   UNL     1      12.095 -14.522  28.370  1.00  0.00    -0.025 C 
ATOM      4  C   UNL     1      11.733 -13.350  27.840  1.00  0.00     0.020 C 
BRANCH   4   5
ATOM      5  C   UNL     1      12.059 -12.987  26.454  1.00  0.00     0.064 C 
ATOM      6  O   UNL     1      13.251 -13.064  26.054  1.00  0.00    -0.545 OA
ATOM      7  O   UNL     1      11.072 -12.558  25.574  1.00  0.00    -0.545 OA
ENDBRANCH   4   5
ENDBRANCH   2   3
ENDBRANCH   1   2
BRANCH   1   8
ATOM      8  C   UNL     1      12.749 -16.367  31.605  1.00  0.00     0.000 C 
BRANCH   8   9
ATOM      9  C   UNL     1      11.394 -17.033  31.339  1.00  0.00    -0.000 C 
BRANCH   9  10
ATOM     10  C   UNL     1      10.499 -16.973  32.582  1.00  0.00    -0.003 C 
ATOM     11  C   UNL     1       9.767 -15.638  32.670  1.00  0.00     0.004 C 
ENDBRANCH   9  10
ENDBRANCH   8   9
ENDBRANCH   1   8
TORSDOF 6
ENDMDL
MODEL 4
REMARK VINA RESULT:    -4.431      1.678      2.700
REMARK INTER + INTRA:          -6.315
REMARK INTER:                  -5.933
REMARK INTRA:                  -0.382
REMARK UNBOUND:                -0.330
REMARK SMILES CCCCCCC=CC(=O)[O-]
REMARK SMILES IDX 5 1 6 2 7 3 8 4 9 5 10 6 11 7 4 8 3 9 2 10 1 11
REMARK H PARENT
REMARK Flexibility Score: inf
ROOT
ATOM      1  C   UNL     1      13.244 -16.855  31.478  1.00  0.00     0.004 C 
ENDROOT
BRANCH   1   2
ATOM      2  C   UNL     1      13.755 -15.473  31.045  1.00  0.00     0.027 C 
BRANCH   2   3
ATOM      3  C   UNL     1      13.338 -15.122  29.643  1.00  0.00    -0.025 C 
ATOM      4  C   UNL     1      12.505 -14.107  29.396  1.00  0.00     0.020 C 
BRANCH   4   5
ATOM      5  C   UNL     1      12.085 -13.757  28.031  1.00  0.00     0.064 C 
ATOM      6  O   UNL     1      12.193 -12.567  27.634  1.00  0.00    -0.545 OA
ATOM      7  O   UNL     1      11.571 -14.719  27.170  1.00  0.00    -0.545 OA
ENDBRANCH   4   5
ENDBRANCH   2   3
ENDBRANCH   1   2
BRANCH   1   8
ATOM      8  C   UNL     1      11.764 -17.064  31.123  1.00  0.00     0.000 C 
BRANCH   8   9
ATOM      9  C   UNL     1      11.033 -17.820  32.239  1.00  0.00    -0.000 C 
BRANCH   9  10
ATOM     10  C   UNL     1       9.874 -16.987  32.799  1.00  0.00    -0.003 C 
ATOM     11  C   UNL     1       9.930 -15.551  32.286  1.00  0.00     0.004 C 
ENDBRANCH   9  10
ENDBRANCH   8   9
ENDBRANCH   1   8
TORSDOF 6
ENDMDL
MODEL 5
REMARK VINA RESULT:    -4.421      1.994      3.363
REMARK INTER + INTRA:          -6.302
REMARK INTER:                  -5.923
REMARK INTRA:                  -0.379
REMARK UNBOUND:                -0.330
REMARK SMILES CCCCCCC=CC(=O)[O-]
REMARK SMILES IDX 5 1 6 2 7 3 8 4 9 5 10 6 11 7 4 8 3 9 2 10 1 11
REMARK H PARENT
REMARK Flexibility Score: inf
ROOT
ATOM      1  C   UNL     1      10.879 -15.966  32.255  1.00  0.00     0.004 C 
ENDROOT
BRANCH   1   2
ATOM      2  C   UNL     1      12.348 -16.108  31.831  1.00  0.00     0.027 C 
BRANCH   2   3
ATOM      3  C   UNL     1      12.637 -15.423  30.524  1.00  0.00    -0.025 C 
ATOM      4  C   UNL     1      11.677 -14.802  29.833  1.00  0.00     0.020 C 
BRANCH   4   5
ATOM      5  C   UNL     1      11.945 -14.134  28.552  1.00  0.00     0.064 C 
ATOM      6  O   UNL     1      11.946 -14.808  27.488  1.00  0.00    -0.545 OA
ATOM      7  O   UNL     1      12.199 -12.769  28.494  1.00  0.00    -0.545 OA
ENDBRANCH   4   5
ENDBRANCH   2   3
ENDBRANCH   1   2
BRANCH   1   8
ATOM      8  C   UNL     1      10.250 -17.316  32.631  1.00  0.00     0.000 C 
BRANCH   8   9
ATOM      9  C   UNL     1      10.990 -18.475  31.953  1.00  0.00    -0.000 C 
BRANCH   9  10
ATOM     10  C   UNL     1      10.340 -19.820  32.299  1.00  0.00    -0.003 C 
ATOM     11  C   UNL     1      10.152 -19.968  33.806  1.00  0.00     0.004 C 
ENDBRANCH   9  10
ENDBRANCH   8   9
ENDBRANCH   1   8
TORSDOF 6
ENDMDL
MODEL 6
REMARK VINA RESULT:    -4.407      4.884      6.766
REMARK INTER + INTRA:          -6.283
REMARK INTER:                  -5.762
REMARK INTRA:                  -0.521
REMARK UNBOUND:                -0.330
REMARK SMILES CCCCCCC=CC(=O)[O-]
REMARK SMILES IDX 5 1 6 2 7 3 8 4 9 5 10 6 11 7 4 8 3 9 2 10 1 11
REMARK H PARENT
REMARK Flexibility Score: inf
ROOT
ATOM      1  C   UNL     1       9.795 -16.781  32.571  1.00  0.00     0.004 C 
ENDROOT
BRANCH   1   2
ATOM      2  C   UNL     1      10.239 -18.168  33.057  1.00  0.00     0.027 C 
BRANCH   2   3
ATOM      3  C   UNL     1      10.338 -19.165  31.935  1.00  0.00    -0.025 C 
ATOM      4  C   UNL     1       9.267 -19.836  31.501  1.00  0.00     0.020 C 
BRANCH   4   5
ATOM      5  C   UNL     1       9.351 -20.817  30.410  1.00  0.00     0.064 C 
ATOM      6  O   UNL     1       8.998 -20.486  29.247  1.00  0.00    -0.545 OA
ATOM      7  O   UNL     1       9.814 -22.107  30.640  1.00  0.00    -0.545 OA
ENDBRANCH   4   5
ENDBRANCH   2   3
ENDBRANCH   1   2
BRANCH   1   8
ATOM      8  C   UNL     1      10.984 -15.828  32.373  1.00  0.00     0.000 C 
BRANCH   8   9
ATOM      9  C   UNL     1      11.399 -15.765  30.898  1.00  0.00    -0.000 C 
BRANCH   9  10
ATOM     10  C   UNL     1      12.920 -15.882  30.750  1.00  0.00    -0.003 C 
ATOM     11  C   UNL     1      13.444 -17.146  31.425  1.00  0.00     0.004 C 
ENDBRANCH   9  10
ENDBRANCH   8   9
ENDBRANCH   1   8
TORSDOF 6
ENDMDL
MODEL 7
REMARK VINA RESULT:    -4.387      4.064      6.235
REMARK INTER + INTRA:          -6.255
REMARK INTER:                  -5.999
REMARK INTRA:                  -0.256
REMARK UNBOUND:                -0.330
REMARK SMILES CCCCCCC=CC(=O)[O-]
REMARK SMILES IDX 5 1 6 2 7 3 8 4 9 5 10 6 11 7 4 8 3 9 2 10 1 11
REMARK H PARENT
REMARK Flexibility Score: inf
ROOT
ATOM      1  C   UNL     1      13.638 -14.749  30.070  1.00  0.00     0.004 C 
ENDROOT
BRANCH   1   2
ATOM      2  C   UNL     1      13.713 -15.837  31.151  1.00  0.00     0.027 C 
BRANCH   2   3
ATOM      3  C   UNL     1      12.358 -16.381  31.511  1.00  0.00    -0.025 C 
ATOM      4  C   UNL     1      12.149 -17.693  31.661  1.00  0.00     0.020 C 
BRANCH   4   5
ATOM      5  C   UNL     1      10.828 -18.238  32.006  1.00  0.00     0.064 C 
ATOM      6  O   UNL     1      10.128 -17.662  32.880  1.00  0.00    -0.545 OA
ATOM      7  O   UNL     1      10.339 -19.380  31.384  1.00  0.00    -0.545 OA
ENDBRANCH   4   5
ENDBRANCH   2   3
ENDBRANCH   1   2
BRANCH   1   8
ATOM      8  C   UNL     1      12.211 -14.562  29.533  1.00  0.00     0.000 C 
BRANCH   8   9
ATOM      9  C   UNL     1      12.163 -13.455  28.473  1.00  0.00    -0.000 C 
BRANCH   9  10
ATOM     10  C   UNL     1      11.833 -14.031  27.091  1.00  0.00    -0.003 C 
ATOM     11  C   UNL     1      11.513 -12.922  26.094  1.00  0.00     0.004 C 
ENDBRANCH   9  10
ENDBRANCH   8   9
ENDBRANCH   1   8
TORSDOF 6
ENDMDL
MODEL 8
REMARK VINA RESULT:    -4.365      6.710      8.987
REMARK INTER + INTRA:          -6.225
REMARK INTER:                  -5.927
REMARK INTRA:                  -0.298
REMARK UNBOUND:                -0.330
REMARK SMILES CCCCCCC=CC(=O)[O-]
REMARK SMILES IDX 5 1 6 2 7 3 8 4 9 5 10 6 11 7 4 8 3 9 2 10 1 11
REMARK H PARENT
REMARK Flexibility Score: inf
ROOT
ATOM      1  C   UNL     1      10.611 -19.260  32.044  1.00  0.00     0.004 C 
ENDROOT
BRANCH   1   2
ATOM      2  C   UNL     1      10.054 -19.673  33.414  1.00  0.00     0.027 C 
BRANCH   2   3
ATOM      3  C   UNL     1       9.486 -21.066  33.407  1.00  0.00    -0.025 C 
ATOM      4  C   UNL     1      10.092 -22.064  32.758  1.00  0.00     0.020 C 
BRANCH   4   5
ATOM      5  C   UNL     1       9.545 -23.428  32.738  1.00  0.00     0.064 C 
ATOM      6  O   UNL     1       8.698 -23.770  33.605  1.00  0.00    -0.545 OA
ATOM      7  O   UNL     1       9.947 -24.348  31.777  1.00  0.00    -0.545 OA
ENDBRANCH   4   5
ENDBRANCH   2   3
ENDBRANCH   1   2
BRANCH   1   8
ATOM      8  C   UNL     1      10.931 -17.759  31.976  1.00  0.00     0.000 C 
BRANCH   8   9
ATOM      9  C   UNL     1       9.914 -16.943  32.783  1.00  0.00    -0.000 C 
BRANCH   9  10
ATOM     10  C   UNL     1       9.879 -15.485  32.309  1.00  0.00    -0.003 C 
ATOM     11  C   UNL     1      10.759 -15.285  31.079  1.00  0.00     0.004 C 
ENDBRANCH   9  10
ENDBRANCH   8   9
ENDBRANCH   1   8
TORSDOF 6
ENDMDL
MODEL 9
REMARK VINA RESULT:    -4.260      5.311      7.290
REMARK INTER + INTRA:          -6.084
REMARK INTER:                  -5.867
REMARK INTRA:                  -0.216
REMARK UNBOUND:                -0.330
REMARK SMILES CCCCCCC=CC(=O)[O-]
REMARK SMILES IDX 5 1 6 2 7 3 8 4 9 5 10 6 11 7 4 8 3 9 2 10 1 11
REMARK H PARENT
REMARK Flexibility Score: inf
ROOT
ATOM      1  C   UNL     1      12.517 -17.502  31.640  1.00  0.00     0.004 C 
ENDROOT
BRANCH   1   2
ATOM      2  C   UNL     1      11.067 -17.803  32.046  1.00  0.00     0.027 C 
BRANCH   2   3
ATOM      3  C   UNL     1      10.620 -19.170  31.607  1.00  0.00    -0.025 C 
ATOM      4  C   UNL     1      10.298 -20.118  32.492  1.00  0.00     0.020 C 
BRANCH   4   5
ATOM      5  C   UNL     1       9.866 -21.459  32.076  1.00  0.00     0.064 C 
ATOM      6  O   UNL     1       9.987 -22.427  32.873  1.00  0.00    -0.545 OA
ATOM      7  O   UNL     1       9.324 -21.679  30.815  1.00  0.00    -0.545 OA
ENDBRANCH   4   5
ENDBRANCH   2   3
ENDBRANCH   1   2
BRANCH   1   8
ATOM      8  C   UNL     1      12.847 -16.005  31.734  1.00  0.00     0.000 C 
BRANCH   8   9
ATOM      9  C   UNL     1      13.849 -15.594  30.649  1.00  0.00    -0.000 C 
BRANCH   9  10
ATOM     10  C   UNL     1      13.241 -14.546  29.709  1.00  0.00    -0.003 C 
ATOM     11  C   UNL     1      11.728 -14.712  29.603  1.00  0.00     0.004 C 
ENDBRANCH   9  10
ENDBRANCH   8   9
ENDBRANCH   1   8
TORSDOF 6
ENDMDL
