MODEL 1
REMARK VINA RESULT:    -3.669      0.000      0.000
REMARK INTER + INTRA:          -4.422
REMARK INTER:                  -4.420
REMARK INTRA:                  -0.002
REMARK UNBOUND:                -0.002
REMARK SMILES OCC(O)CO
REMARK SMILES IDX 3 1 5 2 6 3 2 5 1 6 4 8
REMARK H PARENT 6 4 1 7 4 9
REMARK Flexibility Score: inf
ROOT
ATOM      1  C   UNL     1      46.203  12.652  94.325  1.00  0.00     0.165 C 
ENDROOT
BRANCH   1   2
ATOM      2  C   UNL     1      46.998  13.709  95.112  1.00  0.00     0.190 C 
BRANCH   2   3
ATOM      3  O   UNL     1      46.280  14.159  96.232  1.00  0.00    -0.394 OA
ATOM      4  H   UNL     1      45.373  13.760  96.172  1.00  0.00     0.210 HD
ENDBRANCH   2   3
ENDBRANCH   1   2
BRANCH   1   5
ATOM      5  C   UNL     1      46.445  11.221  94.841  1.00  0.00     0.190 C 
BRANCH   5   6
ATOM      6  O   UNL     1      46.884  10.383  93.806  1.00  0.00    -0.394 OA
ATOM      7  H   UNL     1      47.774  10.038  94.078  1.00  0.00     0.210 HD
ENDBRANCH   5   6
ENDBRANCH   1   5
BRANCH   1   8
ATOM      8  O   UNL     1      46.483  12.741  92.949  1.00  0.00    -0.388 OA
ATOM      9  H   UNL     1      46.205  11.887  92.526  1.00  0.00     0.211 HD
ENDBRANCH   1   8
TORSDOF 5
ENDMDL
MODEL 2
REMARK VINA RESULT:    -3.499      1.718      2.707
REMARK INTER + INTRA:          -4.217
REMARK INTER:                  -4.215
REMARK INTRA:                  -0.003
REMARK UNBOUND:                -0.002
REMARK SMILES OCC(O)CO
REMARK SMILES IDX 3 1 5 2 6 3 2 5 1 6 4 8
REMARK H PARENT 6 4 1 7 4 9
REMARK Flexibility Score: inf
ROOT
ATOM      1  C   UNL     1      47.283  13.867  95.480  1.00  0.00     0.165 C 
ENDROOT
BRANCH   1   2
ATOM      2  C   UNL     1      48.378  14.911  95.761  1.00  0.00     0.190 C 
BRANCH   2   3
ATOM      3  O   UNL     1      49.106  14.590  96.918  1.00  0.00    -0.394 OA
ATOM      4  H   UNL     1      49.979  14.225  96.617  1.00  0.00     0.210 HD
ENDBRANCH   2   3
ENDBRANCH   1   2
BRANCH   1   5
ATOM      5  C   UNL     1      46.893  13.802  93.990  1.00  0.00     0.190 C 
BRANCH   5   6
ATOM      6  O   UNL     1      45.910  12.826  93.772  1.00  0.00    -0.394 OA
ATOM      7  H   UNL     1      45.032  13.284  93.848  1.00  0.00     0.210 HD
ENDBRANCH   5   6
ENDBRANCH   1   5
BRANCH   1   8
ATOM      8  O   UNL     1      46.152  14.104  96.282  1.00  0.00    -0.388 OA
ATOM      9  H   UNL     1      46.022  15.087  96.343  1.00  0.00     0.211 HD
ENDBRANCH   1   8
TORSDOF 5
ENDMDL
MODEL 3
REMARK VINA RESULT:    -3.468      0.774      2.245
REMARK INTER + INTRA:          -4.180
REMARK INTER:                  -3.999
REMARK INTRA:                  -0.181
REMARK UNBOUND:                -0.002
REMARK SMILES OCC(O)CO
REMARK SMILES IDX 3 1 5 2 6 3 2 5 1 6 4 8
REMARK H PARENT 6 4 1 7 4 9
REMARK Flexibility Score: inf
ROOT
ATOM      1  C   UNL     1      46.679  12.997  95.047  1.00  0.00     0.165 C 
ENDROOT
BRANCH   1   2
ATOM      2  C   UNL     1      46.622  13.652  93.655  1.00  0.00     0.190 C 
BRANCH   2   3
ATOM      3  O   UNL     1      46.429  12.694  92.647  1.00  0.00    -0.394 OA
ATOM      4  H   UNL     1      47.232  12.111  92.647  1.00  0.00     0.210 HD
ENDBRANCH   2   3
ENDBRANCH   1   2
BRANCH   1   5
ATOM      5  C   UNL     1      45.887  11.676  95.114  1.00  0.00     0.190 C 
BRANCH   5   6
ATOM      6  O   UNL     1      46.553  10.658  94.417  1.00  0.00    -0.394 OA
ATOM      7  H   UNL     1      47.505  10.931  94.355  1.00  0.00     0.210 HD
ENDBRANCH   5   6
ENDBRANCH   1   5
BRANCH   1   8
ATOM      8  O   UNL     1      46.239  13.894  96.037  1.00  0.00    -0.388 OA
ATOM      9  H   UNL     1      46.897  13.873  96.781  1.00  0.00     0.211 HD
ENDBRANCH   1   8
TORSDOF 5
ENDMDL
MODEL 4
REMARK VINA RESULT:    -3.432      0.846      2.927
REMARK INTER + INTRA:          -4.137
REMARK INTER:                  -3.927
REMARK INTRA:                  -0.209
REMARK UNBOUND:                -0.002
REMARK SMILES OCC(O)CO
REMARK SMILES IDX 3 1 5 2 6 3 2 5 1 6 4 8
REMARK H PARENT 6 4 1 7 4 9
REMARK Flexibility Score: inf
ROOT
ATOM      1  C   UNL     1      46.286  12.799  95.165  1.00  0.00     0.165 C 
ENDROOT
BRANCH   1   2
ATOM      2  C   UNL     1      46.332  11.262  95.091  1.00  0.00     0.190 C 
BRANCH   2   3
ATOM      3  O   UNL     1      46.972  10.826  93.920  1.00  0.00    -0.394 OA
ATOM      4  H   UNL     1      46.610   9.925  93.713  1.00  0.00     0.210 HD
ENDBRANCH   2   3
ENDBRANCH   1   2
BRANCH   1   5
ATOM      5  C   UNL     1      46.741  13.470  93.854  1.00  0.00     0.190 C 
BRANCH   5   6
ATOM      6  O   UNL     1      45.875  13.145  92.800  1.00  0.00    -0.394 OA
ATOM      7  H   UNL     1      45.627  13.999  92.360  1.00  0.00     0.210 HD
ENDBRANCH   5   6
ENDBRANCH   1   5
BRANCH   1   8
ATOM      8  O   UNL     1      47.042  13.268  96.255  1.00  0.00    -0.388 OA
ATOM      9  H   UNL     1      47.739  12.590  96.456  1.00  0.00     0.211 HD
ENDBRANCH   1   8
TORSDOF 5
ENDMDL
MODEL 5
REMARK VINA RESULT:    -3.395      2.215      3.805
REMARK INTER + INTRA:          -4.092
REMARK INTER:                  -4.089
REMARK INTRA:                  -0.002
REMARK UNBOUND:                -0.002
REMARK SMILES OCC(O)CO
REMARK SMILES IDX 3 1 5 2 6 3 2 5 1 6 4 8
REMARK H PARENT 6 4 1 7 4 9
REMARK Flexibility Score: inf
ROOT
ATOM      1  C   UNL     1      47.599  14.717  95.632  1.00  0.00     0.165 C 
ENDROOT
BRANCH   1   2
ATOM      2  C   UNL     1      47.318  14.348  94.164  1.00  0.00     0.190 C 
BRANCH   2   3
ATOM      3  O   UNL     1      46.253  13.438  94.061  1.00  0.00    -0.394 OA
ATOM      4  H   UNL     1      46.456  12.845  93.291  1.00  0.00     0.210 HD
ENDBRANCH   2   3
ENDBRANCH   1   2
BRANCH   1   5
ATOM      5  C   UNL     1      49.053  15.172  95.862  1.00  0.00     0.190 C 
BRANCH   5   6
ATOM      6  O   UNL     1      49.599  14.549  96.994  1.00  0.00    -0.394 OA
ATOM      7  H   UNL     1      49.911  15.274  97.595  1.00  0.00     0.210 HD
ENDBRANCH   5   6
ENDBRANCH   1   5
BRANCH   1   8
ATOM      8  O   UNL     1      47.269  13.648  96.486  1.00  0.00    -0.388 OA
ATOM      9  H   UNL     1      47.130  12.842  95.924  1.00  0.00     0.211 HD
ENDBRANCH   1   8
TORSDOF 5
ENDMDL
MODEL 6
REMARK VINA RESULT:    -3.326      2.788      3.512
REMARK INTER + INTRA:          -4.009
REMARK INTER:                  -3.787
REMARK INTRA:                  -0.222
REMARK UNBOUND:                -0.002
REMARK SMILES OCC(O)CO
REMARK SMILES IDX 3 1 5 2 6 3 2 5 1 6 4 8
REMARK H PARENT 6 4 1 7 4 9
REMARK Flexibility Score: inf
ROOT
ATOM      1  C   UNL     1      48.145  15.324  95.136  1.00  0.00     0.165 C 
ENDROOT
BRANCH   1   2
ATOM      2  C   UNL     1      49.284  15.602  96.134  1.00  0.00     0.190 C 
BRANCH   2   3
ATOM      3  O   UNL     1      49.456  14.530  97.024  1.00  0.00    -0.394 OA
ATOM      4  H   UNL     1      48.835  14.683  97.783  1.00  0.00     0.210 HD
ENDBRANCH   2   3
ENDBRANCH   1   2
BRANCH   1   5
ATOM      5  C   UNL     1      47.466  13.961  95.376  1.00  0.00     0.190 C 
BRANCH   5   6
ATOM      6  O   UNL     1      46.575  14.030  96.456  1.00  0.00    -0.394 OA
ATOM      7  H   UNL     1      46.840  13.314  97.090  1.00  0.00     0.210 HD
ENDBRANCH   5   6
ENDBRANCH   1   5
BRANCH   1   8
ATOM      8  O   UNL     1      48.609  15.425  93.811  1.00  0.00    -0.388 OA
ATOM      9  H   UNL     1      47.987  16.020  93.317  1.00  0.00     0.211 HD
ENDBRANCH   1   8
TORSDOF 5
ENDMDL
MODEL 7
REMARK VINA RESULT:    -3.324     15.729     16.180
REMARK INTER + INTRA:          -4.006
REMARK INTER:                  -3.800
REMARK INTRA:                  -0.207
REMARK UNBOUND:                -0.002
REMARK SMILES OCC(O)CO
REMARK SMILES IDX 3 1 5 2 6 3 2 5 1 6 4 8
REMARK H PARENT 6 4 1 7 4 9
REMARK Flexibility Score: inf
ROOT
ATOM      1  C   UNL     1      60.558   8.119 102.584  1.00  0.00     0.165 C 
ENDROOT
BRANCH   1   2
ATOM      2  C   UNL     1      59.047   7.823 102.559  1.00  0.00     0.190 C 
BRANCH   2   3
ATOM      3  O   UNL     1      58.296   9.005 102.472  1.00  0.00    -0.394 OA
ATOM      4  H   UNL     1      58.492   9.406 101.585  1.00  0.00     0.210 HD
ENDBRANCH   2   3
ENDBRANCH   1   2
BRANCH   1   5
ATOM      5  C   UNL     1      60.931   9.370 101.764  1.00  0.00     0.190 C 
BRANCH   5   6
ATOM      6  O   UNL     1      60.583   9.205 100.415  1.00  0.00    -0.394 OA
ATOM      7  H   UNL     1      61.058   9.915  99.910  1.00  0.00     0.210 HD
ENDBRANCH   5   6
ENDBRANCH   1   5
BRANCH   1   8
ATOM      8  O   UNL     1      61.292   7.000 102.151  1.00  0.00    -0.388 OA
ATOM      9  H   UNL     1      60.828   6.186 102.479  1.00  0.00     0.211 HD
ENDBRANCH   1   8
TORSDOF 5
ENDMDL
MODEL 8
REMARK VINA RESULT:    -3.314     15.750     16.111
REMARK INTER + INTRA:          -3.994
REMARK INTER:                  -3.992
REMARK INTRA:                  -0.002
REMARK UNBOUND:                -0.002
REMARK SMILES OCC(O)CO
REMARK SMILES IDX 3 1 5 2 6 3 2 5 1 6 4 8
REMARK H PARENT 6 4 1 7 4 9
REMARK Flexibility Score: inf
ROOT
ATOM      1  C   UNL     1      59.548   8.370 102.410  1.00  0.00     0.165 C 
ENDROOT
BRANCH   1   2
ATOM      2  C   UNL     1      59.910   7.688 103.742  1.00  0.00     0.190 C 
BRANCH   2   3
ATOM      3  O   UNL     1      59.426   8.419 104.839  1.00  0.00    -0.394 OA
ATOM      4  H   UNL     1      58.440   8.303 104.850  1.00  0.00     0.210 HD
ENDBRANCH   2   3
ENDBRANCH   1   2
BRANCH   1   5
ATOM      5  C   UNL     1      60.692   9.245 101.862  1.00  0.00     0.190 C 
BRANCH   5   6
ATOM      6  O   UNL     1      60.679   9.263 100.459  1.00  0.00    -0.394 OA
ATOM      7  H   UNL     1      59.977   8.623 100.173  1.00  0.00     0.210 HD
ENDBRANCH   5   6
ENDBRANCH   1   5
BRANCH   1   8
ATOM      8  O   UNL     1      58.364   9.119 102.540  1.00  0.00    -0.388 OA
ATOM      9  H   UNL     1      58.496   9.770 103.279  1.00  0.00     0.211 HD
ENDBRANCH   1   8
TORSDOF 5
ENDMDL
MODEL 9
REMARK VINA RESULT:    -3.267     15.680     16.107
REMARK INTER + INTRA:          -3.938
REMARK INTER:                  -3.720
REMARK INTRA:                  -0.218
REMARK UNBOUND:                -0.002
REMARK SMILES OCC(O)CO
REMARK SMILES IDX 3 1 5 2 6 3 2 5 1 6 4 8
REMARK H PARENT 6 4 1 7 4 9
REMARK Flexibility Score: inf
ROOT
ATOM      1  C   UNL     1      59.363   7.531 103.983  1.00  0.00     0.165 C 
ENDROOT
BRANCH   1   2
ATOM      2  C   UNL     1      59.377   8.311 102.655  1.00  0.00     0.190 C 
BRANCH   2   3
ATOM      3  O   UNL     1      58.253   9.145 102.540  1.00  0.00    -0.394 OA
ATOM      4  H   UNL     1      58.455   9.803 101.826  1.00  0.00     0.210 HD
ENDBRANCH   2   3
ENDBRANCH   1   2
BRANCH   1   5
ATOM      5  C   UNL     1      58.030   6.796 104.224  1.00  0.00     0.190 C 
BRANCH   5   6
ATOM      6  O   UNL     1      57.113   7.627 104.885  1.00  0.00    -0.394 OA
ATOM      7  H   UNL     1      57.447   7.738 105.813  1.00  0.00     0.210 HD
ENDBRANCH   5   6
ENDBRANCH   1   5
BRANCH   1   8
ATOM      8  O   UNL     1      59.668   8.380 105.062  1.00  0.00    -0.388 OA
ATOM      9  H   UNL     1      59.190   9.239 104.919  1.00  0.00     0.211 HD
ENDBRANCH   1   8
TORSDOF 5
ENDMDL
