MODEL 1
REMARK VINA RESULT:    -2.335      0.000      0.000
REMARK INTER + INTRA:          -9.598
REMARK INTER:                  -5.338
REMARK INTRA:                  -4.260
REMARK UNBOUND:                -4.260
REMARK SMILES CCCCCCCCCCCCCCCCCCCCCCCC(=O)[O-]
REMARK SMILES IDX 13 1 14 2 15 3 16 4 17 5 18 6 19 7 20 8 21 9 22 10 23 11
REMARK SMILES IDX 24 12 25 13 26 14 12 15 11 16 10 17 9 18 8 19 7 20 6 21 5 22
REMARK SMILES IDX 4 23 3 24 2 25 1 26
REMARK H PARENT
REMARK Flexibility Score: inf
ROOT
ATOM      1  C   UNL     1       0.794   0.246  11.818  1.00  0.00     0.000 C 
ENDROOT
BRANCH   1   2
ATOM      2  C   UNL     1       1.536   0.451  10.480  1.00  0.00     0.000 C 
BRANCH   2   3
ATOM      3  C   UNL     1       0.961   1.624   9.665  1.00  0.00     0.000 C 
BRANCH   3   4
ATOM      4  C   UNL     1       1.926   2.822   9.607  1.00  0.00     0.000 C 
BRANCH   4   5
ATOM      5  C   UNL     1       1.203   4.165   9.811  1.00  0.00     0.000 C 
BRANCH   5   6
ATOM      6  C   UNL     1      -0.308   3.999  10.037  1.00  0.00     0.000 C 
BRANCH   6   7
ATOM      7  C   UNL     1      -1.149   4.981   9.203  1.00  0.00     0.000 C 
BRANCH   7   8
ATOM      8  C   UNL     1      -0.448   6.338   9.020  1.00  0.00     0.000 C 
BRANCH   8   9
ATOM      9  C   UNL     1      -1.328   7.354   8.275  1.00  0.00     0.000 C 
BRANCH   9  10
ATOM     10  C   UNL     1      -2.808   6.965   8.360  1.00  0.00     0.006 C 
BRANCH  10  11
ATOM     11  C   UNL     1      -3.697   8.031   7.710  1.00  0.00     0.053 C 
BRANCH  11  12
ATOM     12  C   UNL     1      -3.505   8.044   6.226  1.00  0.00     0.041 C 
ATOM     13  O   UNL     1      -3.960   7.105   5.520  1.00  0.00    -0.550 OA
ATOM     14  O   UNL     1      -2.842   9.103   5.619  1.00  0.00    -0.550 OA
ENDBRANCH  11  12
ENDBRANCH  10  11
ENDBRANCH   9  10
ENDBRANCH   8   9
ENDBRANCH   7   8
ENDBRANCH   6   7
ENDBRANCH   5   6
ENDBRANCH   4   5
ENDBRANCH   3   4
ENDBRANCH   2   3
ENDBRANCH   1   2
BRANCH   1  15
ATOM     15  C   UNL     1      -0.445   1.143  11.984  1.00  0.00     0.000 C 
BRANCH  15  16
ATOM     16  C   UNL     1      -0.365   2.038  13.231  1.00  0.00     0.000 C 
BRANCH  16  17
ATOM     17  C   UNL     1       1.075   2.442  13.591  1.00  0.00     0.000 C 
BRANCH  17  18
ATOM     18  C   UNL     1       1.388   3.946  13.463  1.00  0.00    -0.000 C 
BRANCH  18  19
ATOM     19  C   UNL     1       0.166   4.862  13.695  1.00  0.00    -0.000 C 
BRANCH  19  20
ATOM     20  C   UNL     1       0.350   6.248  13.052  1.00  0.00    -0.000 C 
BRANCH  20  21
ATOM     21  C   UNL     1      -0.990   6.907  12.675  1.00  0.00    -0.000 C 
BRANCH  21  22
ATOM     22  C   UNL     1      -2.224   6.153  13.203  1.00  0.00    -0.000 C 
BRANCH  22  23
ATOM     23  C   UNL     1      -3.133   5.648  12.068  1.00  0.00    -0.000 C 
BRANCH  23  24
ATOM     24  C   UNL     1      -3.376   4.129  12.127  1.00  0.00    -0.000 C 
BRANCH  24  25
ATOM     25  C   UNL     1      -4.737   3.669  11.577  1.00  0.00    -0.003 C 
ATOM     26  C   UNL     1      -5.302   4.611  10.513  1.00  0.00     0.004 C 
ENDBRANCH  24  25
ENDBRANCH  23  24
ENDBRANCH  22  23
ENDBRANCH  21  22
ENDBRANCH  20  21
ENDBRANCH  19  20
ENDBRANCH  18  19
ENDBRANCH  17  18
ENDBRANCH  16  17
ENDBRANCH  15  16
ENDBRANCH   1  15
TORSDOF 22
ENDMDL
MODEL 2
REMARK VINA RESULT:    -2.304      2.443      4.586
REMARK INTER + INTRA:          -9.527
REMARK INTER:                  -6.927
REMARK INTRA:                  -2.599
REMARK UNBOUND:                -4.260
REMARK SMILES CCCCCCCCCCCCCCCCCCCCCCCC(=O)[O-]
REMARK SMILES IDX 13 1 14 2 15 3 16 4 17 5 18 6 19 7 20 8 21 9 22 10 23 11
REMARK SMILES IDX 24 12 25 13 26 14 12 15 11 16 10 17 9 18 8 19 7 20 6 21 5 22
REMARK SMILES IDX 4 23 3 24 2 25 1 26
REMARK H PARENT
REMARK Flexibility Score: inf
ROOT
ATOM      1  C   UNL     1       1.514   2.820   9.983  1.00  0.00     0.000 C 
ENDROOT
BRANCH   1   2
ATOM      2  C   UNL     1       0.644   3.861  10.720  1.00  0.00     0.000 C 
BRANCH   2   3
ATOM      3  C   UNL     1      -0.767   3.329  11.033  1.00  0.00     0.000 C 
BRANCH   3   4
ATOM      4  C   UNL     1      -1.590   4.321  11.873  1.00  0.00     0.000 C 
BRANCH   4   5
ATOM      5  C   UNL     1      -2.450   5.252  11.001  1.00  0.00     0.000 C 
BRANCH   5   6
ATOM      6  C   UNL     1      -2.850   4.612   9.662  1.00  0.00     0.000 C 
BRANCH   6   7
ATOM      7  C   UNL     1      -2.375   5.425   8.445  1.00  0.00     0.000 C 
BRANCH   7   8
ATOM      8  C   UNL     1      -1.110   6.244   8.750  1.00  0.00     0.000 C 
BRANCH   8   9
ATOM      9  C   UNL     1      -1.180   7.666   8.171  1.00  0.00     0.000 C 
BRANCH   9  10
ATOM     10  C   UNL     1      -2.628   8.169   8.128  1.00  0.00     0.006 C 
BRANCH  10  11
ATOM     11  C   UNL     1      -2.981   8.717   6.741  1.00  0.00     0.053 C 
BRANCH  11  12
ATOM     12  C   UNL     1      -4.070   7.904   6.115  1.00  0.00     0.041 C 
ATOM     13  O   UNL     1      -3.853   7.268   5.050  1.00  0.00    -0.550 OA
ATOM     14  O   UNL     1      -5.320   7.831   6.719  1.00  0.00    -0.550 OA
ENDBRANCH  11  12
ENDBRANCH  10  11
ENDBRANCH   9  10
ENDBRANCH   8   9
ENDBRANCH   7   8
ENDBRANCH   6   7
ENDBRANCH   5   6
ENDBRANCH   4   5
ENDBRANCH   3   4
ENDBRANCH   2   3
ENDBRANCH   1   2
BRANCH   1  15
ATOM     15  C   UNL     1       0.873   1.423   9.902  1.00  0.00     0.000 C 
BRANCH  15  16
ATOM     16  C   UNL     1       1.851   0.300  10.287  1.00  0.00     0.000 C 
BRANCH  16  17
ATOM     17  C   UNL     1       1.313  -1.104   9.965  1.00  0.00     0.000 C 
BRANCH  17  18
ATOM     18  C   UNL     1       0.251  -1.643  10.945  1.00  0.00    -0.000 C 
BRANCH  18  19
ATOM     19  C   UNL     1       0.640  -1.497  12.432  1.00  0.00    -0.000 C 
BRANCH  19  20
ATOM     20  C   UNL     1      -0.486  -0.859  13.266  1.00  0.00    -0.000 C 
BRANCH  20  21
ATOM     21  C   UNL     1      -1.480  -0.060  12.402  1.00  0.00    -0.000 C 
BRANCH  21  22
ATOM     22  C   UNL     1      -2.955  -0.417  12.661  1.00  0.00    -0.000 C 
BRANCH  22  23
ATOM     23  C   UNL     1      -3.228  -1.924  12.513  1.00  0.00    -0.000 C 
BRANCH  23  24
ATOM     24  C   UNL     1      -3.366  -2.365  11.045  1.00  0.00    -0.000 C 
BRANCH  24  25
ATOM     25  C   UNL     1      -4.778  -2.819  10.636  1.00  0.00    -0.003 C 
ATOM     26  C   UNL     1      -5.793  -1.677  10.618  1.00  0.00     0.004 C 
ENDBRANCH  24  25
ENDBRANCH  23  24
ENDBRANCH  22  23
ENDBRANCH  21  22
ENDBRANCH  20  21
ENDBRANCH  19  20
ENDBRANCH  18  19
ENDBRANCH  17  18
ENDBRANCH  16  17
ENDBRANCH  15  16
ENDBRANCH   1  15
TORSDOF 22
ENDMDL
MODEL 3
REMARK VINA RESULT:    -2.283      2.198      5.829
REMARK INTER + INTRA:          -9.479
REMARK INTER:                  -5.466
REMARK INTRA:                  -4.013
REMARK UNBOUND:                -4.260
REMARK SMILES CCCCCCCCCCCCCCCCCCCCCCCC(=O)[O-]
REMARK SMILES IDX 13 1 14 2 15 3 16 4 17 5 18 6 19 7 20 8 21 9 22 10 23 11
REMARK SMILES IDX 24 12 25 13 26 14 12 15 11 16 10 17 9 18 8 19 7 20 6 21 5 22
REMARK SMILES IDX 4 23 3 24 2 25 1 26
REMARK H PARENT
REMARK Flexibility Score: inf
ROOT
ATOM      1  C   UNL     1       4.912   3.706   9.882  1.00  0.00     0.000 C 
ENDROOT
BRANCH   1   2
ATOM      2  C   UNL     1       4.996   5.192  10.291  1.00  0.00     0.000 C 
BRANCH   2   3
ATOM      3  C   UNL     1       3.658   5.727  10.836  1.00  0.00     0.000 C 
BRANCH   3   4
ATOM      4  C   UNL     1       2.933   6.628   9.820  1.00  0.00     0.000 C 
BRANCH   4   5
ATOM      5  C   UNL     1       1.497   6.154   9.540  1.00  0.00     0.000 C 
BRANCH   5   6
ATOM      6  C   UNL     1       0.818   5.547  10.778  1.00  0.00     0.000 C 
BRANCH   6   7
ATOM      7  C   UNL     1      -0.707   5.412  10.618  1.00  0.00     0.000 C 
BRANCH   7   8
ATOM      8  C   UNL     1      -1.090   4.397   9.528  1.00  0.00     0.000 C 
BRANCH   8   9
ATOM      9  C   UNL     1      -2.324   4.839   8.726  1.00  0.00     0.000 C 
BRANCH   9  10
ATOM     10  C   UNL     1      -2.652   6.313   8.992  1.00  0.00     0.006 C 
BRANCH  10  11
ATOM     11  C   UNL     1      -2.495   7.151   7.719  1.00  0.00     0.053 C 
BRANCH  11  12
ATOM     12  C   UNL     1      -3.826   7.388   7.077  1.00  0.00     0.041 C 
ATOM     13  O   UNL     1      -4.826   7.684   7.782  1.00  0.00    -0.550 OA
ATOM     14  O   UNL     1      -3.958   7.303   5.696  1.00  0.00    -0.550 OA
ENDBRANCH  11  12
ENDBRANCH  10  11
ENDBRANCH   9  10
ENDBRANCH   8   9
ENDBRANCH   7   8
ENDBRANCH   6   7
ENDBRANCH   5   6
ENDBRANCH   4   5
ENDBRANCH   3   4
ENDBRANCH   2   3
ENDBRANCH   1   2
BRANCH   1  15
ATOM     15  C   UNL     1       4.332   3.483   8.474  1.00  0.00     0.000 C 
BRANCH  15  16
ATOM     16  C   UNL     1       3.221   2.421   8.453  1.00  0.00     0.000 C 
BRANCH  16  17
ATOM     17  C   UNL     1       2.272   2.520   9.659  1.00  0.00     0.000 C 
BRANCH  17  18
ATOM     18  C   UNL     1       1.087   1.532   9.646  1.00  0.00    -0.000 C 
BRANCH  18  19
ATOM     19  C   UNL     1       0.603   1.116  11.053  1.00  0.00    -0.000 C 
BRANCH  19  20
ATOM     20  C   UNL     1       0.561  -0.413  11.222  1.00  0.00    -0.000 C 
BRANCH  20  21
ATOM     21  C   UNL     1       1.240  -1.155  10.056  1.00  0.00    -0.000 C 
BRANCH  21  22
ATOM     22  C   UNL     1       2.604  -1.770  10.421  1.00  0.00    -0.000 C 
BRANCH  22  23
ATOM     23  C   UNL     1       3.766  -1.116   9.651  1.00  0.00    -0.000 C 
BRANCH  23  24
ATOM     24  C   UNL     1       4.651  -0.229  10.544  1.00  0.00    -0.000 C 
BRANCH  24  25
ATOM     25  C   UNL     1       4.248  -0.199  12.028  1.00  0.00    -0.003 C 
ATOM     26  C   UNL     1       4.038   1.217  12.563  1.00  0.00     0.004 C 
ENDBRANCH  24  25
ENDBRANCH  23  24
ENDBRANCH  22  23
ENDBRANCH  21  22
ENDBRANCH  20  21
ENDBRANCH  19  20
ENDBRANCH  18  19
ENDBRANCH  17  18
ENDBRANCH  16  17
ENDBRANCH  15  16
ENDBRANCH   1  15
TORSDOF 22
ENDMDL
MODEL 4
REMARK VINA RESULT:    -2.280      2.302      5.556
REMARK INTER + INTRA:          -9.473
REMARK INTER:                  -5.087
REMARK INTRA:                  -4.386
REMARK UNBOUND:                -4.260
REMARK SMILES CCCCCCCCCCCCCCCCCCCCCCCC(=O)[O-]
REMARK SMILES IDX 13 1 14 2 15 3 16 4 17 5 18 6 19 7 20 8 21 9 22 10 23 11
REMARK SMILES IDX 24 12 25 13 26 14 12 15 11 16 10 17 9 18 8 19 7 20 6 21 5 22
REMARK SMILES IDX 4 23 3 24 2 25 1 26
REMARK H PARENT
REMARK Flexibility Score: inf
ROOT
ATOM      1  C   UNL     1      -1.142   8.107   9.396  1.00  0.00     0.000 C 
ENDROOT
BRANCH   1   2
ATOM      2  C   UNL     1       0.151   8.951   9.392  1.00  0.00     0.000 C 
BRANCH   2   3
ATOM      3  C   UNL     1       1.318   8.231   8.692  1.00  0.00     0.000 C 
BRANCH   3   4
ATOM      4  C   UNL     1       2.121   9.174   7.777  1.00  0.00     0.000 C 
BRANCH   4   5
ATOM      5  C   UNL     1       1.266  10.336   7.244  1.00  0.00     0.000 C 
BRANCH   5   6
ATOM      6  C   UNL     1       0.835  10.137   5.782  1.00  0.00     0.000 C 
BRANCH   6   7
ATOM      7  C   UNL     1      -0.544  10.749   5.477  1.00  0.00     0.000 C 
BRANCH   7   8
ATOM      8  C   UNL     1      -1.389  10.943   6.747  1.00  0.00     0.000 C 
BRANCH   8   9
ATOM      9  C   UNL     1      -2.765  10.266   6.643  1.00  0.00     0.000 C 
BRANCH   9  10
ATOM     10  C   UNL     1      -2.646   8.878   6.002  1.00  0.00     0.006 C 
BRANCH  10  11
ATOM     11  C   UNL     1      -3.949   8.480   5.301  1.00  0.00     0.053 C 
BRANCH  11  12
ATOM     12  C   UNL     1      -3.706   8.215   3.848  1.00  0.00     0.041 C 
ATOM     13  O   UNL     1      -2.720   8.738   3.265  1.00  0.00    -0.550 OA
ATOM     14  O   UNL     1      -4.556   7.373   3.143  1.00  0.00    -0.550 OA
ENDBRANCH  11  12
ENDBRANCH  10  11
ENDBRANCH   9  10
ENDBRANCH   8   9
ENDBRANCH   7   8
ENDBRANCH   6   7
ENDBRANCH   5   6
ENDBRANCH   4   5
ENDBRANCH   3   4
ENDBRANCH   2   3
ENDBRANCH   1   2
BRANCH   1  15
ATOM     15  C   UNL     1      -1.075   6.867   8.486  1.00  0.00     0.000 C 
BRANCH  15  16
ATOM     16  C   UNL     1      -2.382   6.058   8.493  1.00  0.00     0.000 C 
BRANCH  16  17
ATOM     17  C   UNL     1      -2.164   4.564   8.788  1.00  0.00     0.000 C 
BRANCH  17  18
ATOM     18  C   UNL     1      -2.062   4.196  10.282  1.00  0.00    -0.000 C 
BRANCH  18  19
ATOM     19  C   UNL     1      -2.758   5.203  11.224  1.00  0.00    -0.000 C 
BRANCH  19  20
ATOM     20  C   UNL     1      -1.766   5.872  12.192  1.00  0.00    -0.000 C 
BRANCH  20  21
ATOM     21  C   UNL     1      -0.389   5.182  12.198  1.00  0.00    -0.000 C 
BRANCH  21  22
ATOM     22  C   UNL     1       0.776   6.117  11.825  1.00  0.00    -0.000 C 
BRANCH  22  23
ATOM     23  C   UNL     1       1.932   5.368  11.138  1.00  0.00    -0.000 C 
BRANCH  23  24
ATOM     24  C   UNL     1       1.509   4.694   9.821  1.00  0.00    -0.000 C 
BRANCH  24  25
ATOM     25  C   UNL     1       2.044   3.266   9.623  1.00  0.00    -0.003 C 
ATOM     26  C   UNL     1       1.048   2.188  10.052  1.00  0.00     0.004 C 
ENDBRANCH  24  25
ENDBRANCH  23  24
ENDBRANCH  22  23
ENDBRANCH  21  22
ENDBRANCH  20  21
ENDBRANCH  19  20
ENDBRANCH  18  19
ENDBRANCH  17  18
ENDBRANCH  16  17
ENDBRANCH  15  16
ENDBRANCH   1  15
TORSDOF 22
ENDMDL
MODEL 5
REMARK VINA RESULT:    -2.272      4.172      7.525
REMARK INTER + INTRA:          -9.455
REMARK INTER:                  -5.479
REMARK INTRA:                  -3.976
REMARK UNBOUND:                -4.260
REMARK SMILES CCCCCCCCCCCCCCCCCCCCCCCC(=O)[O-]
REMARK SMILES IDX 13 1 14 2 15 3 16 4 17 5 18 6 19 7 20 8 21 9 22 10 23 11
REMARK SMILES IDX 24 12 25 13 26 14 12 15 11 16 10 17 9 18 8 19 7 20 6 21 5 22
REMARK SMILES IDX 4 23 3 24 2 25 1 26
REMARK H PARENT
REMARK Flexibility Score: inf
ROOT
ATOM      1  C   UNL     1       1.111   0.266  10.140  1.00  0.00     0.000 C 
ENDROOT
BRANCH   1   2
ATOM      2  C   UNL     1       0.890   0.077  11.656  1.00  0.00     0.000 C 
BRANCH   2   3
ATOM      3  C   UNL     1      -0.602  -0.042  12.020  1.00  0.00     0.000 C 
BRANCH   3   4
ATOM      4  C   UNL     1      -0.957  -1.434  12.574  1.00  0.00     0.000 C 
BRANCH   4   5
ATOM      5  C   UNL     1      -1.609  -2.336  11.513  1.00  0.00     0.000 C 
BRANCH   5   6
ATOM      6  C   UNL     1      -0.734  -3.542  11.137  1.00  0.00     0.000 C 
BRANCH   6   7
ATOM      7  C   UNL     1      -0.082  -3.399   9.750  1.00  0.00     0.000 C 
BRANCH   7   8
ATOM      8  C   UNL     1       1.454  -3.395   9.827  1.00  0.00     0.000 C 
BRANCH   8   9
ATOM      9  C   UNL     1       1.967  -3.438  11.275  1.00  0.00     0.000 C 
BRANCH   9  10
ATOM     10  C   UNL     1       3.329  -2.744  11.395  1.00  0.00     0.006 C 
BRANCH  10  11
ATOM     11  C   UNL     1       3.948  -2.501  10.014  1.00  0.00     0.053 C 
BRANCH  11  12
ATOM     12  C   UNL     1       4.418  -1.086   9.889  1.00  0.00     0.041 C 
ATOM     13  O   UNL     1       4.512  -0.547   8.755  1.00  0.00    -0.550 OA
ATOM     14  O   UNL     1       4.731  -0.353  11.028  1.00  0.00    -0.550 OA
ENDBRANCH  11  12
ENDBRANCH  10  11
ENDBRANCH   9  10
ENDBRANCH   8   9
ENDBRANCH   7   8
ENDBRANCH   6   7
ENDBRANCH   5   6
ENDBRANCH   4   5
ENDBRANCH   3   4
ENDBRANCH   2   3
ENDBRANCH   1   2
BRANCH   1  15
ATOM     15  C   UNL     1       1.695   1.640   9.765  1.00  0.00     0.000 C 
BRANCH  15  16
ATOM     16  C   UNL     1       0.668   2.776   9.902  1.00  0.00     0.000 C 
BRANCH  16  17
ATOM     17  C   UNL     1       0.969   3.721  11.078  1.00  0.00     0.000 C 
BRANCH  17  18
ATOM     18  C   UNL     1      -0.131   3.801  12.155  1.00  0.00    -0.000 C 
BRANCH  18  19
ATOM     19  C   UNL     1      -1.539   3.422  11.643  1.00  0.00    -0.000 C 
BRANCH  19  20
ATOM     20  C   UNL     1      -2.419   4.659  11.398  1.00  0.00    -0.000 C 
BRANCH  20  21
ATOM     21  C   UNL     1      -3.188   4.583  10.065  1.00  0.00    -0.000 C 
BRANCH  21  22
ATOM     22  C   UNL     1      -2.289   4.716   8.822  1.00  0.00    -0.000 C 
BRANCH  22  23
ATOM     23  C   UNL     1      -2.501   6.051   8.086  1.00  0.00    -0.000 C 
BRANCH  23  24
ATOM     24  C   UNL     1      -1.493   7.134   8.510  1.00  0.00    -0.000 C 
BRANCH  24  25
ATOM     25  C   UNL     1      -0.157   6.598   9.051  1.00  0.00    -0.003 C 
ATOM     26  C   UNL     1       0.262   7.251  10.368  1.00  0.00     0.004 C 
ENDBRANCH  24  25
ENDBRANCH  23  24
ENDBRANCH  22  23
ENDBRANCH  21  22
ENDBRANCH  20  21
ENDBRANCH  19  20
ENDBRANCH  18  19
ENDBRANCH  17  18
ENDBRANCH  16  17
ENDBRANCH  15  16
ENDBRANCH   1  15
TORSDOF 22
ENDMDL
MODEL 6
REMARK VINA RESULT:    -2.228      2.556      5.732
REMARK INTER + INTRA:          -9.354
REMARK INTER:                  -5.324
REMARK INTRA:                  -4.030
REMARK UNBOUND:                -4.260
REMARK SMILES CCCCCCCCCCCCCCCCCCCCCCCC(=O)[O-]
REMARK SMILES IDX 13 1 14 2 15 3 16 4 17 5 18 6 19 7 20 8 21 9 22 10 23 11
REMARK SMILES IDX 24 12 25 13 26 14 12 15 11 16 10 17 9 18 8 19 7 20 6 21 5 22
REMARK SMILES IDX 4 23 3 24 2 25 1 26
REMARK H PARENT
REMARK Flexibility Score: inf
ROOT
ATOM      1  C   UNL     1       2.584   5.631  11.112  1.00  0.00     0.000 C 
ENDROOT
BRANCH   1   2
ATOM      2  C   UNL     1       1.456   5.025  11.973  1.00  0.00     0.000 C 
BRANCH   2   3
ATOM      3  C   UNL     1       0.064   5.542  11.563  1.00  0.00     0.000 C 
BRANCH   3   4
ATOM      4  C   UNL     1      -1.071   4.657  12.110  1.00  0.00     0.000 C 
BRANCH   4   5
ATOM      5  C   UNL     1      -1.873   3.978  10.987  1.00  0.00     0.000 C 
BRANCH   5   6
ATOM      6  C   UNL     1      -1.266   4.212   9.595  1.00  0.00     0.000 C 
BRANCH   6   7
ATOM      7  C   UNL     1      -2.320   4.583   8.537  1.00  0.00     0.000 C 
BRANCH   7   8
ATOM      8  C   UNL     1      -2.626   6.090   8.523  1.00  0.00     0.000 C 
BRANCH   8   9
ATOM      9  C   UNL     1      -1.350   6.944   8.459  1.00  0.00     0.000 C 
BRANCH   9  10
ATOM     10  C   UNL     1      -1.410   8.096   9.468  1.00  0.00     0.006 C 
BRANCH  10  11
ATOM     11  C   UNL     1      -0.220   9.045   9.294  1.00  0.00     0.053 C 
BRANCH  11  12
ATOM     12  C   UNL     1      -0.214   9.636   7.919  1.00  0.00     0.041 C 
ATOM     13  O   UNL     1      -1.185  10.334   7.525  1.00  0.00    -0.550 OA
ATOM     14  O   UNL     1       0.875   9.433   7.079  1.00  0.00    -0.550 OA
ENDBRANCH  11  12
ENDBRANCH  10  11
ENDBRANCH   9  10
ENDBRANCH   8   9
ENDBRANCH   7   8
ENDBRANCH   6   7
ENDBRANCH   5   6
ENDBRANCH   4   5
ENDBRANCH   3   4
ENDBRANCH   2   3
ENDBRANCH   1   2
BRANCH   1  15
ATOM     15  C   UNL     1       2.225   5.761   9.621  1.00  0.00     0.000 C 
BRANCH  15  16
ATOM     16  C   UNL     1       2.744   7.068   9.000  1.00  0.00     0.000 C 
BRANCH  16  17
ATOM     17  C   UNL     1       4.029   6.875   8.177  1.00  0.00     0.000 C 
BRANCH  17  18
ATOM     18  C   UNL     1       4.627   5.454   8.216  1.00  0.00    -0.000 C 
BRANCH  18  19
ATOM     19  C   UNL     1       4.905   4.852   6.821  1.00  0.00    -0.000 C 
BRANCH  19  20
ATOM     20  C   UNL     1       5.190   3.342   6.887  1.00  0.00    -0.000 C 
BRANCH  20  21
ATOM     21  C   UNL     1       3.957   2.527   7.322  1.00  0.00    -0.000 C 
BRANCH  21  22
ATOM     22  C   UNL     1       4.194   1.660   8.573  1.00  0.00    -0.000 C 
BRANCH  22  23
ATOM     23  C   UNL     1       3.383   2.148   9.786  1.00  0.00    -0.000 C 
BRANCH  23  24
ATOM     24  C   UNL     1       1.873   2.236   9.500  1.00  0.00    -0.000 C 
BRANCH  24  25
ATOM     25  C   UNL     1       1.044   1.052  10.026  1.00  0.00    -0.003 C 
ATOM     26  C   UNL     1       0.518   1.273  11.445  1.00  0.00     0.004 C 
ENDBRANCH  24  25
ENDBRANCH  23  24
ENDBRANCH  22  23
ENDBRANCH  21  22
ENDBRANCH  20  21
ENDBRANCH  19  20
ENDBRANCH  18  19
ENDBRANCH  17  18
ENDBRANCH  16  17
ENDBRANCH  15  16
ENDBRANCH   1  15
TORSDOF 22
ENDMDL
MODEL 7
REMARK VINA RESULT:    -2.225      7.717     10.938
REMARK INTER + INTRA:          -9.346
REMARK INTER:                  -4.900
REMARK INTRA:                  -4.445
REMARK UNBOUND:                -4.260
REMARK SMILES CCCCCCCCCCCCCCCCCCCCCCCC(=O)[O-]
REMARK SMILES IDX 13 1 14 2 15 3 16 4 17 5 18 6 19 7 20 8 21 9 22 10 23 11
REMARK SMILES IDX 24 12 25 13 26 14 12 15 11 16 10 17 9 18 8 19 7 20 6 21 5 22
REMARK SMILES IDX 4 23 3 24 2 25 1 26
REMARK H PARENT
REMARK Flexibility Score: inf
ROOT
ATOM      1  C   UNL     1      -4.852  -4.794   9.534  1.00  0.00     0.000 C 
ENDROOT
BRANCH   1   2
ATOM      2  C   UNL     1      -4.517  -5.232  10.976  1.00  0.00     0.000 C 
BRANCH   2   3
ATOM      3  C   UNL     1      -3.641  -4.201  11.712  1.00  0.00     0.000 C 
BRANCH   3   4
ATOM      4  C   UNL     1      -3.530  -2.873  10.941  1.00  0.00     0.000 C 
BRANCH   4   5
ATOM      5  C   UNL     1      -4.249  -1.719  11.660  1.00  0.00     0.000 C 
BRANCH   5   6
ATOM      6  C   UNL     1      -5.564  -1.316  10.975  1.00  0.00     0.000 C 
BRANCH   6   7
ATOM      7  C   UNL     1      -6.765  -2.155  11.445  1.00  0.00     0.000 C 
BRANCH   7   8
ATOM      8  C   UNL     1      -7.655  -2.604  10.274  1.00  0.00     0.000 C 
BRANCH   8   9
ATOM      9  C   UNL     1      -7.170  -2.050   8.926  1.00  0.00     0.000 C 
BRANCH   9  10
ATOM     10  C   UNL     1      -8.117  -2.461   7.791  1.00  0.00     0.006 C 
BRANCH  10  11
ATOM     11  C   UNL     1      -9.497  -1.818   7.963  1.00  0.00     0.053 C 
BRANCH  11  12
ATOM     12  C   UNL     1      -9.398  -0.328   7.875  1.00  0.00     0.041 C 
ATOM     13  O   UNL     1      -9.737   0.389   8.854  1.00  0.00    -0.550 OA
ATOM     14  O   UNL     1      -8.911   0.271   6.720  1.00  0.00    -0.550 OA
ENDBRANCH  11  12
ENDBRANCH  10  11
ENDBRANCH   9  10
ENDBRANCH   8   9
ENDBRANCH   7   8
ENDBRANCH   6   7
ENDBRANCH   5   6
ENDBRANCH   4   5
ENDBRANCH   3   4
ENDBRANCH   2   3
ENDBRANCH   1   2
BRANCH   1  15
ATOM     15  C   UNL     1      -5.734  -5.799   8.771  1.00  0.00     0.000 C 
BRANCH  15  16
ATOM     16  C   UNL     1      -5.881  -5.445   7.282  1.00  0.00     0.000 C 
BRANCH  16  17
ATOM     17  C   UNL     1      -4.857  -4.400   6.808  1.00  0.00     0.000 C 
BRANCH  17  18
ATOM     18  C   UNL     1      -4.076  -4.776   5.533  1.00  0.00    -0.000 C 
BRANCH  18  19
ATOM     19  C   UNL     1      -3.938  -6.298   5.308  1.00  0.00    -0.000 C 
BRANCH  19  20
ATOM     20  C   UNL     1      -2.620  -6.851   5.879  1.00  0.00    -0.000 C 
BRANCH  20  21
ATOM     21  C   UNL     1      -2.841  -7.759   7.103  1.00  0.00    -0.000 C 
BRANCH  21  22
ATOM     22  C   UNL     1      -2.305  -7.169   8.420  1.00  0.00    -0.000 C 
BRANCH  22  23
ATOM     23  C   UNL     1      -1.608  -5.812   8.213  1.00  0.00    -0.000 C 
BRANCH  23  24
ATOM     24  C   UNL     1      -0.966  -5.268   9.502  1.00  0.00    -0.000 C 
BRANCH  24  25
ATOM     25  C   UNL     1       0.177  -4.262   9.280  1.00  0.00    -0.003 C 
ATOM     26  C   UNL     1      -0.015  -2.958  10.056  1.00  0.00     0.004 C 
ENDBRANCH  24  25
ENDBRANCH  23  24
ENDBRANCH  22  23
ENDBRANCH  21  22
ENDBRANCH  20  21
ENDBRANCH  19  20
ENDBRANCH  18  19
ENDBRANCH  17  18
ENDBRANCH  16  17
ENDBRANCH  15  16
ENDBRANCH   1  15
TORSDOF 22
ENDMDL
MODEL 8
REMARK VINA RESULT:    -2.222      5.606      8.501
REMARK INTER + INTRA:          -9.340
REMARK INTER:                  -5.208
REMARK INTRA:                  -4.132
REMARK UNBOUND:                -4.260
REMARK SMILES CCCCCCCCCCCCCCCCCCCCCCCC(=O)[O-]
REMARK SMILES IDX 13 1 14 2 15 3 16 4 17 5 18 6 19 7 20 8 21 9 22 10 23 11
REMARK SMILES IDX 24 12 25 13 26 14 12 15 11 16 10 17 9 18 8 19 7 20 6 21 5 22
REMARK SMILES IDX 4 23 3 24 2 25 1 26
REMARK H PARENT
REMARK Flexibility Score: inf
ROOT
ATOM      1  C   UNL     1      -5.828  -4.047   7.970  1.00  0.00     0.000 C 
ENDROOT
BRANCH   1   2
ATOM      2  C   UNL     1      -4.640  -3.933   8.949  1.00  0.00     0.000 C 
BRANCH   2   3
ATOM      3  C   UNL     1      -5.080  -3.481  10.353  1.00  0.00     0.000 C 
BRANCH   3   4
ATOM      4  C   UNL     1      -4.584  -2.063  10.691  1.00  0.00     0.000 C 
BRANCH   4   5
ATOM      5  C   UNL     1      -3.288  -2.080  11.519  1.00  0.00     0.000 C 
BRANCH   5   6
ATOM      6  C   UNL     1      -3.175  -0.882  12.474  1.00  0.00     0.000 C 
BRANCH   6   7
ATOM      7  C   UNL     1      -4.418   0.027  12.444  1.00  0.00     0.000 C 
BRANCH   7   8
ATOM      8  C   UNL     1      -4.593   0.816  13.753  1.00  0.00     0.000 C 
BRANCH   8   9
ATOM      9  C   UNL     1      -4.543   2.335  13.530  1.00  0.00     0.000 C 
BRANCH   9  10
ATOM     10  C   UNL     1      -4.605   2.673  12.036  1.00  0.00     0.006 C 
BRANCH  10  11
ATOM     11  C   UNL     1      -5.442   3.932  11.789  1.00  0.00     0.053 C 
BRANCH  11  12
ATOM     12  C   UNL     1      -5.438   4.291  10.336  1.00  0.00     0.041 C 
ATOM     13  O   UNL     1      -6.515   4.307   9.684  1.00  0.00    -0.550 OA
ATOM     14  O   UNL     1      -4.247   4.630   9.706  1.00  0.00    -0.550 OA
ENDBRANCH  11  12
ENDBRANCH  10  11
ENDBRANCH   9  10
ENDBRANCH   8   9
ENDBRANCH   7   8
ENDBRANCH   6   7
ENDBRANCH   5   6
ENDBRANCH   4   5
ENDBRANCH   3   4
ENDBRANCH   2   3
ENDBRANCH   1   2
BRANCH   1  15
ATOM     15  C   UNL     1      -7.118  -3.381   8.480  1.00  0.00     0.000 C 
BRANCH  15  16
ATOM     16  C   UNL     1      -7.459  -2.090   7.717  1.00  0.00     0.000 C 
BRANCH  16  17
ATOM     17  C   UNL     1      -8.969  -1.802   7.667  1.00  0.00     0.000 C 
BRANCH  17  18
ATOM     18  C   UNL     1      -9.349  -0.330   7.408  1.00  0.00    -0.000 C 
BRANCH  18  19
ATOM     19  C   UNL     1     -10.445   0.210   8.353  1.00  0.00    -0.000 C 
BRANCH  19  20
ATOM     20  C   UNL     1      -9.859   1.062   9.493  1.00  0.00    -0.000 C 
BRANCH  20  21
ATOM     21  C   UNL     1      -8.379   1.420   9.262  1.00  0.00    -0.000 C 
BRANCH  21  22
ATOM     22  C   UNL     1      -7.426   0.840  10.323  1.00  0.00    -0.000 C 
BRANCH  22  23
ATOM     23  C   UNL     1      -7.947   1.049  11.756  1.00  0.00    -0.000 C 
BRANCH  23  24
ATOM     24  C   UNL     1      -8.230  -0.274  12.489  1.00  0.00    -0.000 C 
BRANCH  24  25
ATOM     25  C   UNL     1      -8.075  -1.538  11.626  1.00  0.00    -0.003 C 
ATOM     26  C   UNL     1      -9.406  -2.234  11.340  1.00  0.00     0.004 C 
ENDBRANCH  24  25
ENDBRANCH  23  24
ENDBRANCH  22  23
ENDBRANCH  21  22
ENDBRANCH  20  21
ENDBRANCH  19  20
ENDBRANCH  18  19
ENDBRANCH  17  18
ENDBRANCH  16  17
ENDBRANCH  15  16
ENDBRANCH   1  15
TORSDOF 22
ENDMDL
MODEL 9
REMARK VINA RESULT:    -2.221      3.765      6.796
REMARK INTER + INTRA:          -9.338
REMARK INTER:                  -5.715
REMARK INTRA:                  -3.623
REMARK UNBOUND:                -4.260
REMARK SMILES CCCCCCCCCCCCCCCCCCCCCCCC(=O)[O-]
REMARK SMILES IDX 13 1 14 2 15 3 16 4 17 5 18 6 19 7 20 8 21 9 22 10 23 11
REMARK SMILES IDX 24 12 25 13 26 14 12 15 11 16 10 17 9 18 8 19 7 20 6 21 5 22
REMARK SMILES IDX 4 23 3 24 2 25 1 26
REMARK H PARENT
REMARK Flexibility Score: inf
ROOT
ATOM      1  C   UNL     1      -3.363   4.573  10.030  1.00  0.00     0.000 C 
ENDROOT
BRANCH   1   2
ATOM      2  C   UNL     1      -2.215   4.713   9.009  1.00  0.00     0.000 C 
BRANCH   2   3
ATOM      3  C   UNL     1      -2.032   6.166   8.529  1.00  0.00     0.000 C 
BRANCH   3   4
ATOM      4  C   UNL     1      -0.600   6.681   8.762  1.00  0.00     0.000 C 
BRANCH   4   5
ATOM      5  C   UNL     1       0.321   5.598   9.349  1.00  0.00     0.000 C 
BRANCH   5   6
ATOM      6  C   UNL     1       1.211   6.124  10.485  1.00  0.00     0.000 C 
BRANCH   6   7
ATOM      7  C   UNL     1       2.584   5.430  10.541  1.00  0.00     0.000 C 
BRANCH   7   8
ATOM      8  C   UNL     1       3.470   5.795   9.337  1.00  0.00     0.000 C 
BRANCH   8   9
ATOM      9  C   UNL     1       4.024   4.554   8.622  1.00  0.00     0.000 C 
BRANCH   9  10
ATOM     10  C   UNL     1       4.871   4.952   7.407  1.00  0.00     0.006 C 
BRANCH  10  11
ATOM     11  C   UNL     1       4.885   3.839   6.355  1.00  0.00     0.053 C 
BRANCH  11  12
ATOM     12  C   UNL     1       5.346   2.549   6.958  1.00  0.00     0.041 C 
ATOM     13  O   UNL     1       4.576   1.553   6.988  1.00  0.00    -0.550 OA
ATOM     14  O   UNL     1       6.634   2.440   7.468  1.00  0.00    -0.550 OA
ENDBRANCH  11  12
ENDBRANCH  10  11
ENDBRANCH   9  10
ENDBRANCH   8   9
ENDBRANCH   7   8
ENDBRANCH   6   7
ENDBRANCH   5   6
ENDBRANCH   4   5
ENDBRANCH   3   4
ENDBRANCH   2   3
ENDBRANCH   1   2
BRANCH   1  15
ATOM     15  C   UNL     1      -2.955   3.849  11.326  1.00  0.00     0.000 C 
BRANCH  15  16
ATOM     16  C   UNL     1      -1.864   4.601  12.104  1.00  0.00     0.000 C 
BRANCH  16  17
ATOM     17  C   UNL     1      -0.681   3.703  12.503  1.00  0.00     0.000 C 
BRANCH  17  18
ATOM     18  C   UNL     1      -0.928   2.187  12.358  1.00  0.00    -0.000 C 
BRANCH  18  19
ATOM     19  C   UNL     1       0.119   1.462  11.484  1.00  0.00    -0.000 C 
BRANCH  19  20
ATOM     20  C   UNL     1       0.459   2.255  10.210  1.00  0.00    -0.000 C 
BRANCH  20  21
ATOM     21  C   UNL     1       1.805   1.830   9.592  1.00  0.00    -0.000 C 
BRANCH  21  22
ATOM     22  C   UNL     1       2.725   1.071  10.567  1.00  0.00    -0.000 C 
BRANCH  22  23
ATOM     23  C   UNL     1       3.428  -0.124   9.899  1.00  0.00    -0.000 C 
BRANCH  23  24
ATOM     24  C   UNL     1       2.868  -1.481  10.359  1.00  0.00    -0.000 C 
BRANCH  24  25
ATOM     25  C   UNL     1       1.593  -1.936   9.628  1.00  0.00    -0.003 C 
ATOM     26  C   UNL     1       0.374  -2.022  10.546  1.00  0.00     0.004 C 
ENDBRANCH  24  25
ENDBRANCH  23  24
ENDBRANCH  22  23
ENDBRANCH  21  22
ENDBRANCH  20  21
ENDBRANCH  19  20
ENDBRANCH  18  19
ENDBRANCH  17  18
ENDBRANCH  16  17
ENDBRANCH  15  16
ENDBRANCH   1  15
TORSDOF 22
ENDMDL
