MODEL 1
REMARK VINA RESULT:    -5.398      0.000      0.000
REMARK INTER + INTRA:          -5.972
REMARK INTER:                  -5.714
REMARK INTRA:                  -0.258
REMARK UNBOUND:                -0.258
REMARK SMILES C=C1CC[C@H](C(C)C)[C@@H]2C=C(C)CC[C@H]12
REMARK SMILES IDX 12 1 11 2 10 3 9 4 15 5 14 6 13 7 2 8 1 9 3 10 4 11 5 12
REMARK SMILES IDX 6 13 7 14 8 15
REMARK H PARENT
REMARK Flexibility Score: inf
ROOT
ATOM      1  C   UNL     1     144.763 140.805 133.468  1.00  0.00     0.039 C 
ATOM      2  C   UNL     1     143.952 139.571 133.182  1.00  0.00    -0.077 C 
ATOM      3  C   UNL     1     143.153 139.074 134.150  1.00  0.00    -0.024 C 
ATOM      4  C   UNL     1     142.331 137.803 133.976  1.00  0.00     0.022 C 
ATOM      5  C   UNL     1     142.012 137.530 132.482  1.00  0.00     0.022 C 
ATOM      6  C   UNL     1     143.336 137.604 131.691  1.00  0.00     0.013 C 
ATOM      7  C   UNL     1     143.973 138.998 131.780  1.00  0.00     0.031 C 
ATOM      8  C   UNL     1     140.888 138.439 131.973  1.00  0.00    -0.074 C 
ATOM      9  C   UNL     1     140.789 138.818 130.684  1.00  0.00     0.008 C 
ATOM     10  C   UNL     1     139.681 138.644 132.862  1.00  0.00     0.031 C 
ATOM     11  C   UNL     1     140.071 138.890 134.320  1.00  0.00     0.009 C 
ATOM     12  C   UNL     1     141.033 137.799 134.844  1.00  0.00    -0.001 C 
ENDROOT
BRANCH  12  13
ATOM     13  C   UNL     1     141.280 137.939 136.388  1.00  0.00    -0.014 C 
ATOM     14  C   UNL     1     140.621 136.807 137.199  1.00  0.00     0.007 C 
ATOM     15  C   UNL     1     140.760 139.288 136.924  1.00  0.00     0.007 C 
ENDBRANCH  12  13
TORSDOF 1
ENDMDL
MODEL 2
REMARK VINA RESULT:    -5.352      3.313      5.040
REMARK INTER + INTRA:          -5.923
REMARK INTER:                  -5.666
REMARK INTRA:                  -0.257
REMARK UNBOUND:                -0.258
REMARK SMILES C=C1CC[C@H](C(C)C)[C@@H]2C=C(C)CC[C@H]12
REMARK SMILES IDX 12 1 11 2 10 3 9 4 15 5 14 6 13 7 2 8 1 9 3 10 4 11 5 12
REMARK SMILES IDX 6 13 7 14 8 15
REMARK H PARENT
REMARK Flexibility Score: inf
ROOT
ATOM      1  C   UNL     1     140.355 137.840 134.007  1.00  0.00     0.039 C 
ATOM      2  C   UNL     1     139.226 138.769 133.652  1.00  0.00    -0.077 C 
ATOM      3  C   UNL     1     138.869 139.731 134.529  1.00  0.00    -0.024 C 
ATOM      4  C   UNL     1     137.709 140.687 134.285  1.00  0.00     0.022 C 
ATOM      5  C   UNL     1     137.429 140.868 132.769  1.00  0.00     0.022 C 
ATOM      6  C   UNL     1     137.306 139.464 132.136  1.00  0.00     0.013 C 
ATOM      7  C   UNL     1     138.608 138.664 132.273  1.00  0.00     0.031 C 
ATOM      8  C   UNL     1     138.457 141.798 132.115  1.00  0.00    -0.074 C 
ATOM      9  C   UNL     1     138.801 141.699 130.816  1.00  0.00     0.008 C 
ATOM     10  C   UNL     1     138.845 143.060 132.852  1.00  0.00     0.031 C 
ATOM     11  C   UNL     1     139.088 142.809 134.341  1.00  0.00     0.009 C 
ATOM     12  C   UNL     1     137.901 142.065 134.995  1.00  0.00    -0.001 C 
ENDROOT
BRANCH  12  13
ATOM     13  C   UNL     1     138.062 141.978 136.554  1.00  0.00    -0.014 C 
ATOM     14  C   UNL     1     136.779 141.490 137.255  1.00  0.00     0.007 C 
ATOM     15  C   UNL     1     138.459 143.340 137.158  1.00  0.00     0.007 C 
ENDBRANCH  12  13
TORSDOF 1
ENDMDL
MODEL 3
REMARK VINA RESULT:    -5.338      2.606      4.291
REMARK INTER + INTRA:          -5.908
REMARK INTER:                  -5.651
REMARK INTRA:                  -0.257
REMARK UNBOUND:                -0.258
REMARK SMILES C=C1CC[C@H](C(C)C)[C@@H]2C=C(C)CC[C@H]12
REMARK SMILES IDX 12 1 11 2 10 3 9 4 15 5 14 6 13 7 2 8 1 9 3 10 4 11 5 12
REMARK SMILES IDX 6 13 7 14 8 15
REMARK H PARENT
REMARK Flexibility Score: inf
ROOT
ATOM      1  C   UNL     1     141.505 144.265 134.144  1.00  0.00     0.039 C 
ATOM      2  C   UNL     1     142.718 143.462 133.758  1.00  0.00    -0.077 C 
ATOM      3  C   UNL     1     143.162 142.503 134.598  1.00  0.00    -0.024 C 
ATOM      4  C   UNL     1     144.408 141.671 134.323  1.00  0.00     0.022 C 
ATOM      5  C   UNL     1     144.708 141.580 132.803  1.00  0.00     0.022 C 
ATOM      6  C   UNL     1     144.700 143.014 132.229  1.00  0.00     0.013 C 
ATOM      7  C   UNL     1     143.327 143.681 132.389  1.00  0.00     0.031 C 
ATOM      8  C   UNL     1     143.775 140.585 132.105  1.00  0.00    -0.074 C 
ATOM      9  C   UNL     1     143.426 140.703 130.810  1.00  0.00     0.008 C 
ATOM     10  C   UNL     1     143.506 139.262 132.789  1.00  0.00     0.031 C 
ATOM     11  C   UNL     1     143.236 139.429 134.285  1.00  0.00     0.009 C 
ATOM     12  C   UNL     1     144.346 140.254 134.976  1.00  0.00    -0.001 C 
ENDROOT
BRANCH  12  13
ATOM     13  C   UNL     1     144.174 140.262 136.537  1.00  0.00    -0.014 C 
ATOM     14  C   UNL     1     145.466 140.664 137.273  1.00  0.00     0.007 C 
ATOM     15  C   UNL     1     143.722 138.885 137.062  1.00  0.00     0.007 C 
ENDBRANCH  12  13
TORSDOF 1
ENDMDL
MODEL 4
REMARK VINA RESULT:    -5.335      4.905      6.515
REMARK INTER + INTRA:          -5.905
REMARK INTER:                  -5.648
REMARK INTRA:                  -0.257
REMARK UNBOUND:                -0.258
REMARK SMILES C=C1CC[C@H](C(C)C)[C@@H]2C=C(C)CC[C@H]12
REMARK SMILES IDX 12 1 11 2 10 3 9 4 15 5 14 6 13 7 2 8 1 9 3 10 4 11 5 12
REMARK SMILES IDX 6 13 7 14 8 15
REMARK H PARENT
REMARK Flexibility Score: inf
ROOT
ATOM      1  C   UNL     1     137.946 141.789 134.190  1.00  0.00     0.039 C 
ATOM      2  C   UNL     1     138.841 142.941 133.825  1.00  0.00    -0.077 C 
ATOM      3  C   UNL     1     139.794 143.332 134.697  1.00  0.00    -0.024 C 
ATOM      4  C   UNL     1     140.717 144.517 134.443  1.00  0.00     0.022 C 
ATOM      5  C   UNL     1     140.885 144.793 132.925  1.00  0.00     0.022 C 
ATOM      6  C   UNL     1     139.477 144.872 132.296  1.00  0.00     0.013 C 
ATOM      7  C   UNL     1     138.715 143.548 132.443  1.00  0.00     0.031 C 
ATOM      8  C   UNL     1     141.843 143.788 132.275  1.00  0.00    -0.074 C 
ATOM      9  C   UNL     1     141.751 143.433 130.979  1.00  0.00     0.008 C 
ATOM     10  C   UNL     1     143.118 143.441 133.012  1.00  0.00     0.031 C 
ATOM     11  C   UNL     1     142.877 143.200 134.503  1.00  0.00     0.009 C 
ATOM     12  C   UNL     1     142.101 144.370 135.151  1.00  0.00    -0.001 C 
ENDROOT
BRANCH  12  13
ATOM     13  C   UNL     1     142.023 144.217 136.712  1.00  0.00    -0.014 C 
ATOM     14  C   UNL     1     141.431 145.462 137.399  1.00  0.00     0.007 C 
ATOM     15  C   UNL     1     143.410 143.937 137.322  1.00  0.00     0.007 C 
ENDBRANCH  12  13
TORSDOF 1
ENDMDL
MODEL 5
REMARK VINA RESULT:    -5.297      0.996      1.073
REMARK INTER + INTRA:          -5.864
REMARK INTER:                  -5.608
REMARK INTRA:                  -0.256
REMARK UNBOUND:                -0.258
REMARK SMILES C=C1CC[C@H](C(C)C)[C@@H]2C=C(C)CC[C@H]12
REMARK SMILES IDX 12 1 11 2 10 3 9 4 15 5 14 6 13 7 2 8 1 9 3 10 4 11 5 12
REMARK SMILES IDX 6 13 7 14 8 15
REMARK H PARENT
REMARK Flexibility Score: inf
ROOT
ATOM      1  C   UNL     1     144.265 140.192 134.037  1.00  0.00     0.039 C 
ATOM      2  C   UNL     1     143.278 139.108 133.701  1.00  0.00    -0.077 C 
ATOM      3  C   UNL     1     142.334 138.778 134.608  1.00  0.00    -0.024 C 
ATOM      4  C   UNL     1     141.322 137.661 134.384  1.00  0.00     0.022 C 
ATOM      5  C   UNL     1     141.076 137.410 132.872  1.00  0.00     0.022 C 
ATOM      6  C   UNL     1     142.450 137.238 132.188  1.00  0.00     0.013 C 
ATOM      7  C   UNL     1     143.307 138.505 132.312  1.00  0.00     0.031 C 
ATOM      8  C   UNL     1     140.167 138.484 132.265  1.00  0.00    -0.074 C 
ATOM      9  C   UNL     1     140.233 138.842 130.969  1.00  0.00     0.008 C 
ATOM     10  C   UNL     1     138.948 138.912 133.053  1.00  0.00     0.031 C 
ATOM     11  C   UNL     1     139.263 139.124 134.535  1.00  0.00     0.009 C 
ATOM     12  C   UNL     1     139.980 137.899 135.146  1.00  0.00    -0.001 C 
ENDROOT
BRANCH  12  13
ATOM     13  C   UNL     1     140.129 138.033 136.703  1.00  0.00    -0.014 C 
ATOM     14  C   UNL     1     140.696 136.758 137.356  1.00  0.00     0.007 C 
ATOM     15  C   UNL     1     138.781 138.366 137.373  1.00  0.00     0.007 C 
ENDBRANCH  12  13
TORSDOF 1
ENDMDL
MODEL 6
REMARK VINA RESULT:    -5.142      1.911      5.055
REMARK INTER + INTRA:          -5.701
REMARK INTER:                  -5.431
REMARK INTRA:                  -0.270
REMARK UNBOUND:                -0.258
REMARK SMILES C=C1CC[C@H](C(C)C)[C@@H]2C=C(C)CC[C@H]12
REMARK SMILES IDX 12 1 11 2 10 3 9 4 15 5 14 6 13 7 2 8 1 9 3 10 4 11 5 12
REMARK SMILES IDX 6 13 7 14 8 15
REMARK H PARENT
REMARK Flexibility Score: inf
ROOT
ATOM      1  C   UNL     1     142.089 138.387 136.999  1.00  0.00     0.039 C 
ATOM      2  C   UNL     1     143.127 139.175 136.248  1.00  0.00    -0.077 C 
ATOM      3  C   UNL     1     143.244 139.000 134.914  1.00  0.00    -0.024 C 
ATOM      4  C   UNL     1     144.295 139.712 134.072  1.00  0.00     0.022 C 
ATOM      5  C   UNL     1     144.742 141.046 134.728  1.00  0.00     0.022 C 
ATOM      6  C   UNL     1     145.123 140.752 136.196  1.00  0.00     0.013 C 
ATOM      7  C   UNL     1     143.926 140.222 136.996  1.00  0.00     0.031 C 
ATOM      8  C   UNL     1     143.697 142.149 134.526  1.00  0.00    -0.074 C 
ATOM      9  C   UNL     1     143.538 143.165 135.397  1.00  0.00     0.008 C 
ATOM     10  C   UNL     1     143.061 142.285 133.161  1.00  0.00     0.031 C 
ATOM     11  C   UNL     1     142.662 140.931 132.571  1.00  0.00     0.009 C 
ATOM     12  C   UNL     1     143.840 139.930 132.594  1.00  0.00    -0.001 C 
ENDROOT
BRANCH  12  13
ATOM     13  C   UNL     1     143.493 138.611 131.817  1.00  0.00    -0.014 C 
ATOM     14  C   UNL     1     144.351 138.427 130.551  1.00  0.00     0.007 C 
ATOM     15  C   UNL     1     142.007 138.569 131.409  1.00  0.00     0.007 C 
ENDBRANCH  12  13
TORSDOF 1
ENDMDL
MODEL 7
REMARK VINA RESULT:    -5.103      1.227      5.028
REMARK INTER + INTRA:          -5.659
REMARK INTER:                  -5.440
REMARK INTRA:                  -0.219
REMARK UNBOUND:                -0.258
REMARK SMILES C=C1CC[C@H](C(C)C)[C@@H]2C=C(C)CC[C@H]12
REMARK SMILES IDX 12 1 11 2 10 3 9 4 15 5 14 6 13 7 2 8 1 9 3 10 4 11 5 12
REMARK SMILES IDX 6 13 7 14 8 15
REMARK H PARENT
REMARK Flexibility Score: inf
ROOT
ATOM      1  C   UNL     1     138.047 139.834 134.446  1.00  0.00     0.039 C 
ATOM      2  C   UNL     1     139.166 138.939 134.905  1.00  0.00    -0.077 C 
ATOM      3  C   UNL     1     140.164 138.645 134.045  1.00  0.00    -0.024 C 
ATOM      4  C   UNL     1     141.314 137.709 134.396  1.00  0.00     0.022 C 
ATOM      5  C   UNL     1     141.561 137.661 135.927  1.00  0.00     0.022 C 
ATOM      6  C   UNL     1     140.210 137.378 136.620  1.00  0.00     0.013 C 
ATOM      7  C   UNL     1     139.191 138.493 136.352  1.00  0.00     0.031 C 
ATOM      8  C   UNL     1     142.304 138.910 136.415  1.00  0.00    -0.074 C 
ATOM      9  C   UNL     1     142.163 139.395 137.664  1.00  0.00     0.008 C 
ATOM     10  C   UNL     1     143.468 139.413 135.591  1.00  0.00     0.031 C 
ATOM     11  C   UNL     1     143.157 139.417 134.093  1.00  0.00     0.009 C 
ATOM     12  C   UNL     1     142.626 138.045 133.618  1.00  0.00    -0.001 C 
ENDROOT
BRANCH  12  13
ATOM     13  C   UNL     1     142.491 137.987 132.055  1.00  0.00    -0.014 C 
ATOM     14  C   UNL     1     143.632 137.193 131.391  1.00  0.00     0.007 C 
ATOM     15  C   UNL     1     142.457 139.399 131.438  1.00  0.00     0.007 C 
ENDBRANCH  12  13
TORSDOF 1
ENDMDL
MODEL 8
REMARK VINA RESULT:    -5.103      2.625      5.864
REMARK INTER + INTRA:          -5.659
REMARK INTER:                  -5.474
REMARK INTRA:                  -0.185
REMARK UNBOUND:                -0.258
REMARK SMILES C=C1CC[C@H](C(C)C)[C@@H]2C=C(C)CC[C@H]12
REMARK SMILES IDX 12 1 11 2 10 3 9 4 15 5 14 6 13 7 2 8 1 9 3 10 4 11 5 12
REMARK SMILES IDX 6 13 7 14 8 15
REMARK H PARENT
REMARK Flexibility Score: inf
ROOT
ATOM      1  C   UNL     1     142.182 138.015 134.445  1.00  0.00     0.039 C 
ATOM      2  C   UNL     1     143.129 139.082 134.921  1.00  0.00    -0.077 C 
ATOM      3  C   UNL     1     143.488 140.066 134.069  1.00  0.00    -0.024 C 
ATOM      4  C   UNL     1     144.479 141.163 134.438  1.00  0.00     0.022 C 
ATOM      5  C   UNL     1     144.519 141.402 135.971  1.00  0.00     0.022 C 
ATOM      6  C   UNL     1     144.720 140.035 136.662  1.00  0.00     0.013 C 
ATOM      7  C   UNL     1     143.556 139.078 136.374  1.00  0.00     0.031 C 
ATOM      8  C   UNL     1     143.305 142.208 136.446  1.00  0.00    -0.074 C 
ATOM      9  C   UNL     1     142.797 142.090 137.687  1.00  0.00     0.008 C 
ATOM     10  C   UNL     1     142.876 143.401 135.619  1.00  0.00     0.031 C 
ATOM     11  C   UNL     1     142.876 143.096 134.121  1.00  0.00     0.009 C 
ATOM     12  C   UNL     1     144.224 142.494 133.662  1.00  0.00    -0.001 C 
ENDROOT
BRANCH  12  13
ATOM     13  C   UNL     1     144.297 142.362 132.099  1.00  0.00    -0.014 C 
ATOM     14  C   UNL     1     145.075 143.518 131.442  1.00  0.00     0.007 C 
ATOM     15  C   UNL     1     142.890 142.303 131.471  1.00  0.00     0.007 C 
ENDBRANCH  12  13
TORSDOF 1
ENDMDL
MODEL 9
REMARK VINA RESULT:    -5.073      3.326      5.959
REMARK INTER + INTRA:          -5.627
REMARK INTER:                  -5.427
REMARK INTRA:                  -0.200
REMARK UNBOUND:                -0.258
REMARK SMILES C=C1CC[C@H](C(C)C)[C@@H]2C=C(C)CC[C@H]12
REMARK SMILES IDX 12 1 11 2 10 3 9 4 15 5 14 6 13 7 2 8 1 9 3 10 4 11 5 12
REMARK SMILES IDX 6 13 7 14 8 15
REMARK H PARENT
REMARK Flexibility Score: inf
ROOT
ATOM      1  C   UNL     1     140.223 144.042 134.622  1.00  0.00     0.039 C 
ATOM      2  C   UNL     1     139.202 143.018 135.038  1.00  0.00    -0.077 C 
ATOM      3  C   UNL     1     138.838 142.061 134.158  1.00  0.00    -0.024 C 
ATOM      4  C   UNL     1     137.778 141.011 134.464  1.00  0.00     0.022 C 
ATOM      5  C   UNL     1     137.651 140.759 135.990  1.00  0.00     0.022 C 
ATOM      6  C   UNL     1     137.483 142.127 136.687  1.00  0.00     0.013 C 
ATOM      7  C   UNL     1     138.705 143.028 136.469  1.00  0.00     0.031 C 
ATOM      8  C   UNL     1     138.799 139.889 136.513  1.00  0.00    -0.074 C 
ATOM      9  C   UNL     1     139.251 139.970 137.780  1.00  0.00     0.008 C 
ATOM     10  C   UNL     1     139.209 138.685 135.694  1.00  0.00     0.031 C 
ATOM     11  C   UNL     1     139.298 139.004 134.201  1.00  0.00     0.009 C 
ATOM     12  C   UNL     1     138.005 139.677 133.685  1.00  0.00    -0.001 C 
ENDROOT
BRANCH  12  13
ATOM     13  C   UNL     1     138.017 139.828 132.122  1.00  0.00    -0.014 C 
ATOM     14  C   UNL     1     137.181 138.743 131.416  1.00  0.00     0.007 C 
ATOM     15  C   UNL     1     139.451 139.780 131.560  1.00  0.00     0.007 C 
ENDBRANCH  12  13
TORSDOF 1
ENDMDL
