MODEL 1
REMARK VINA RESULT:    -8.392      0.000      0.000
REMARK INTER + INTRA:         -10.220
REMARK INTER:                 -10.110
REMARK INTRA:                  -0.111
REMARK UNBOUND:                -0.111
REMARK SMILES O=c1c(O)c(-c2ccc(O)c(O)c2)oc2cc(O)cc(O)c12
REMARK SMILES IDX 5 1 3 2 2 3 1 4 22 5 20 6 19 7 17 8 16 9 15 10 14 11 6 12
REMARK SMILES IDX 7 13 8 14 9 15 13 16 11 17 10 18 12 20 4 22 21 24 18 26
REMARK H PARENT 10 19 12 21 4 23 21 25 18 27
REMARK Flexibility Score: inf
ROOT
ATOM      1  C   UNL     1      16.613  -4.214 -15.928  1.00  0.00     0.180 A 
ATOM      2  C   UNL     1      15.845  -4.694 -14.853  1.00  0.00     0.208 A 
ATOM      3  C   UNL     1      16.453  -5.525 -13.899  1.00  0.00     0.238 A 
ATOM      4  O   UNL     1      15.780  -5.889 -12.900  1.00  0.00    -0.285 OA
ATOM      5  C   UNL     1      17.806  -5.910 -14.060  1.00  0.00     0.111 A 
ATOM      6  C   UNL     1      18.512  -6.786 -13.179  1.00  0.00     0.134 A 
ATOM      7  C   UNL     1      19.879  -7.011 -13.380  1.00  0.00     0.093 A 
ATOM      8  C   UNL     1      20.551  -6.447 -14.467  1.00  0.00     0.123 A 
ATOM      9  C   UNL     1      19.859  -5.637 -15.363  1.00  0.00     0.094 A 
ATOM     10  C   UNL     1      18.503  -5.361 -15.168  1.00  0.00     0.146 A 
ATOM     11  O   UNL     1      17.889  -4.567 -16.035  1.00  0.00    -0.452 OA
ENDROOT
BRANCH   1  12
ATOM     12  C   UNL     1      16.046  -3.322 -16.965  1.00  0.00     0.025 A 
ATOM     13  C   UNL     1      16.139  -3.690 -18.316  1.00  0.00     0.016 A 
ATOM     14  C   UNL     1      15.630  -2.856 -19.314  1.00  0.00     0.051 A 
ATOM     15  C   UNL     1      15.036  -1.634 -18.980  1.00  0.00     0.157 A 
ATOM     16  C   UNL     1      15.468  -2.085 -16.632  1.00  0.00     0.062 A 
ATOM     17  C   UNL     1      14.957  -1.244 -17.633  1.00  0.00     0.158 A 
BRANCH  15  18
ATOM     18  O   UNL     1      14.534  -0.823 -19.997  1.00  0.00    -0.504 OA
ATOM     19  H   UNL     1      13.569  -0.515 -20.012  1.00  0.00     0.293 HD
ENDBRANCH  15  18
BRANCH  17  20
ATOM     20  O   UNL     1      14.379  -0.021 -17.293  1.00  0.00    -0.504 OA
ATOM     21  H   UNL     1      14.550   0.415 -16.394  1.00  0.00     0.293 HD
ENDBRANCH  17  20
ENDBRANCH   1  12
BRANCH   2  22
ATOM     22  O   UNL     1      14.490  -4.364 -14.753  1.00  0.00    -0.502 OA
ATOM     23  H   UNL     1      14.072  -3.610 -15.285  1.00  0.00     0.293 HD
ENDBRANCH   2  22
BRANCH   6  24
ATOM     24  O   UNL     1      17.919  -7.471 -12.115  1.00  0.00    -0.507 OA
ATOM     25  H   UNL     1      18.414  -7.850 -11.323  1.00  0.00     0.293 HD
ENDBRANCH   6  24
BRANCH   8  26
ATOM     26  O   UNL     1      21.908  -6.692 -14.669  1.00  0.00    -0.508 OA
ATOM     27  H   UNL     1      22.257  -7.043 -15.553  1.00  0.00     0.293 HD
ENDBRANCH   8  26
TORSDOF 6
ENDMDL
MODEL 2
REMARK VINA RESULT:    -8.217      2.216      7.420
REMARK INTER + INTRA:         -10.008
REMARK INTER:                  -9.796
REMARK INTRA:                  -0.213
REMARK UNBOUND:                -0.111
REMARK SMILES O=c1c(O)c(-c2ccc(O)c(O)c2)oc2cc(O)cc(O)c12
REMARK SMILES IDX 5 1 3 2 2 3 1 4 22 5 20 6 19 7 17 8 16 9 15 10 14 11 6 12
REMARK SMILES IDX 7 13 8 14 9 15 13 16 11 17 10 18 12 20 4 22 21 24 18 26
REMARK H PARENT 10 19 12 21 4 23 21 25 18 27
REMARK Flexibility Score: inf
ROOT
ATOM      1  C   UNL     1      18.501  -6.721 -13.639  1.00  0.00     0.180 A 
ATOM      2  C   UNL     1      17.356  -6.150 -13.057  1.00  0.00     0.208 A 
ATOM      3  C   UNL     1      16.540  -5.314 -13.835  1.00  0.00     0.238 A 
ATOM      4  O   UNL     1      15.479  -4.867 -13.329  1.00  0.00    -0.285 OA
ATOM      5  C   UNL     1      16.908  -5.015 -15.169  1.00  0.00     0.111 A 
ATOM      6  C   UNL     1      16.180  -4.143 -16.037  1.00  0.00     0.134 A 
ATOM      7  C   UNL     1      16.580  -4.006 -17.372  1.00  0.00     0.093 A 
ATOM      8  C   UNL     1      17.719  -4.656 -17.853  1.00  0.00     0.123 A 
ATOM      9  C   UNL     1      18.467  -5.464 -17.001  1.00  0.00     0.094 A 
ATOM     10  C   UNL     1      18.071  -5.652 -15.674  1.00  0.00     0.146 A 
ATOM     11  O   UNL     1      18.802  -6.448 -14.903  1.00  0.00    -0.452 OA
ENDROOT
BRANCH   1  12
ATOM     12  C   UNL     1      19.401  -7.624 -12.887  1.00  0.00     0.025 A 
ATOM     13  C   UNL     1      20.725  -7.229 -12.642  1.00  0.00     0.016 A 
ATOM     14  C   UNL     1      21.600  -8.073 -11.952  1.00  0.00     0.051 A 
ATOM     15  C   UNL     1      21.170  -9.329 -11.512  1.00  0.00     0.157 A 
ATOM     16  C   UNL     1      18.977  -8.896 -12.462  1.00  0.00     0.062 A 
ATOM     17  C   UNL     1      19.854  -9.745 -11.770  1.00  0.00     0.158 A 
BRANCH  15  18
ATOM     18  O   UNL     1      22.064 -10.148 -10.823  1.00  0.00    -0.504 OA
ATOM     19  H   UNL     1      21.751 -10.908 -10.231  1.00  0.00     0.293 HD
ENDBRANCH  15  18
BRANCH  17  20
ATOM     20  O   UNL     1      19.422 -11.002 -11.346  1.00  0.00    -0.504 OA
ATOM     21  H   UNL     1      19.898 -11.505 -10.606  1.00  0.00     0.293 HD
ENDBRANCH  17  20
ENDBRANCH   1  12
BRANCH   2  22
ATOM     22  O   UNL     1      17.052  -6.396 -11.714  1.00  0.00    -0.502 OA
ATOM     23  H   UNL     1      16.426  -5.806 -11.181  1.00  0.00     0.293 HD
ENDBRANCH   2  22
BRANCH   6  24
ATOM     24  O   UNL     1      15.082  -3.378 -15.635  1.00  0.00    -0.507 OA
ATOM     25  H   UNL     1      15.024  -2.373 -15.695  1.00  0.00     0.293 HD
ENDBRANCH   6  24
BRANCH   8  26
ATOM     26  O   UNL     1      18.119  -4.499 -19.178  1.00  0.00    -0.508 OA
ATOM     27  H   UNL     1      19.023  -4.825 -19.501  1.00  0.00     0.293 HD
ENDBRANCH   8  26
TORSDOF 6
ENDMDL
MODEL 3
REMARK VINA RESULT:    -8.150      2.389      7.459
REMARK INTER + INTRA:          -9.928
REMARK INTER:                  -9.605
REMARK INTRA:                  -0.323
REMARK UNBOUND:                -0.111
REMARK SMILES O=c1c(O)c(-c2ccc(O)c(O)c2)oc2cc(O)cc(O)c12
REMARK SMILES IDX 5 1 3 2 2 3 1 4 22 5 20 6 19 7 17 8 16 9 15 10 14 11 6 12
REMARK SMILES IDX 7 13 8 14 9 15 13 16 11 17 10 18 12 20 4 22 21 24 18 26
REMARK H PARENT 10 19 12 21 4 23 21 25 18 27
REMARK Flexibility Score: inf
ROOT
ATOM      1  C   UNL     1      18.405  -6.949 -13.403  1.00  0.00     0.180 A 
ATOM      2  C   UNL     1      17.279  -6.316 -12.849  1.00  0.00     0.208 A 
ATOM      3  C   UNL     1      16.548  -5.412 -13.636  1.00  0.00     0.238 A 
ATOM      4  O   UNL     1      15.500  -4.907 -13.158  1.00  0.00    -0.285 OA
ATOM      5  C   UNL     1      16.985  -5.110 -14.949  1.00  0.00     0.111 A 
ATOM      6  C   UNL     1      16.348  -4.174 -15.821  1.00  0.00     0.134 A 
ATOM      7  C   UNL     1      16.806  -4.036 -17.137  1.00  0.00     0.093 A 
ATOM      8  C   UNL     1      17.917  -4.749 -17.593  1.00  0.00     0.123 A 
ATOM      9  C   UNL     1      18.579  -5.622 -16.733  1.00  0.00     0.094 A 
ATOM     10  C   UNL     1      18.122  -5.812 -15.427  1.00  0.00     0.146 A 
ATOM     11  O   UNL     1      18.770  -6.669 -14.649  1.00  0.00    -0.452 OA
ENDROOT
BRANCH   1  12
ATOM     12  C   UNL     1      19.216  -7.925 -12.640  1.00  0.00     0.025 A 
ATOM     13  C   UNL     1      18.858  -9.282 -12.658  1.00  0.00     0.016 A 
ATOM     14  C   UNL     1      19.595 -10.218 -11.929  1.00  0.00     0.051 A 
ATOM     15  C   UNL     1      20.689  -9.811 -11.158  1.00  0.00     0.157 A 
ATOM     16  C   UNL     1      20.303  -7.515 -11.848  1.00  0.00     0.062 A 
ATOM     17  C   UNL     1      21.043  -8.453 -11.114  1.00  0.00     0.158 A 
BRANCH  15  18
ATOM     18  O   UNL     1      21.408 -10.769 -10.443  1.00  0.00    -0.504 OA
ATOM     19  H   UNL     1      21.188 -11.000  -9.481  1.00  0.00     0.293 HD
ENDBRANCH  15  18
BRANCH  17  20
ATOM     20  O   UNL     1      22.124  -8.038 -10.336  1.00  0.00    -0.504 OA
ATOM     21  H   UNL     1      21.993  -7.642  -9.412  1.00  0.00     0.293 HD
ENDBRANCH  17  20
ENDBRANCH   1  12
BRANCH   2  22
ATOM     22  O   UNL     1      16.909  -6.570 -11.524  1.00  0.00    -0.502 OA
ATOM     23  H   UNL     1      17.569  -6.527 -10.757  1.00  0.00     0.293 HD
ENDBRANCH   2  22
BRANCH   6  24
ATOM     24  O   UNL     1      15.287  -3.347 -15.442  1.00  0.00    -0.507 OA
ATOM     25  H   UNL     1      15.382  -2.478 -14.939  1.00  0.00     0.293 HD
ENDBRANCH   6  24
BRANCH   8  26
ATOM     26  O   UNL     1      18.376  -4.591 -18.899  1.00  0.00    -0.508 OA
ATOM     27  H   UNL     1      19.047  -5.233 -19.306  1.00  0.00     0.293 HD
ENDBRANCH   8  26
TORSDOF 6
ENDMDL
MODEL 4
REMARK VINA RESULT:    -8.149      2.677      8.316
REMARK INTER + INTRA:          -9.927
REMARK INTER:                  -9.618
REMARK INTRA:                  -0.309
REMARK UNBOUND:                -0.111
REMARK SMILES O=c1c(O)c(-c2ccc(O)c(O)c2)oc2cc(O)cc(O)c12
REMARK SMILES IDX 5 1 3 2 2 3 1 4 22 5 20 6 19 7 17 8 16 9 15 10 14 11 6 12
REMARK SMILES IDX 7 13 8 14 9 15 13 16 11 17 10 18 12 20 4 22 21 24 18 26
REMARK H PARENT 10 19 12 21 4 23 21 25 18 27
REMARK Flexibility Score: inf
ROOT
ATOM      1  C   UNL     1      19.035  -7.354 -12.988  1.00  0.00     0.180 A 
ATOM      2  C   UNL     1      19.676  -6.757 -14.087  1.00  0.00     0.208 A 
ATOM      3  C   UNL     1      18.970  -5.825 -14.865  1.00  0.00     0.238 A 
ATOM      4  O   UNL     1      19.575  -5.240 -15.800  1.00  0.00    -0.285 OA
ATOM      5  C   UNL     1      17.615  -5.543 -14.567  1.00  0.00     0.111 A 
ATOM      6  C   UNL     1      16.788  -4.649 -15.316  1.00  0.00     0.134 A 
ATOM      7  C   UNL     1      15.493  -4.367 -14.865  1.00  0.00     0.093 A 
ATOM      8  C   UNL     1      14.971  -4.995 -13.732  1.00  0.00     0.123 A 
ATOM      9  C   UNL     1      15.750  -5.909 -13.027  1.00  0.00     0.094 A 
ATOM     10  C   UNL     1      17.059  -6.183 -13.429  1.00  0.00     0.146 A 
ATOM     11  O   UNL     1      17.773  -7.045 -12.715  1.00  0.00    -0.452 OA
ENDROOT
BRANCH   1  12
ATOM     12  C   UNL     1      19.719  -8.334 -12.113  1.00  0.00     0.025 A 
ATOM     13  C   UNL     1      19.442  -9.701 -12.263  1.00  0.00     0.016 A 
ATOM     14  C   UNL     1      20.059 -10.643 -11.436  1.00  0.00     0.051 A 
ATOM     15  C   UNL     1      20.947 -10.233 -10.437  1.00  0.00     0.157 A 
ATOM     16  C   UNL     1      20.595  -7.921 -11.095  1.00  0.00     0.062 A 
ATOM     17  C   UNL     1      21.215  -8.865 -10.262  1.00  0.00     0.158 A 
BRANCH  15  18
ATOM     18  O   UNL     1      21.550 -11.196  -9.628  1.00  0.00    -0.504 OA
ATOM     19  H   UNL     1      21.626 -12.165  -9.912  1.00  0.00     0.293 HD
ENDBRANCH  15  18
BRANCH  17  20
ATOM     20  O   UNL     1      22.089  -8.447  -9.259  1.00  0.00    -0.504 OA
ATOM     21  H   UNL     1      22.868  -7.829  -9.456  1.00  0.00     0.293 HD
ENDBRANCH  17  20
ENDBRANCH   1  12
BRANCH   2  22
ATOM     22  O   UNL     1      20.991  -7.106 -14.410  1.00  0.00    -0.502 OA
ATOM     23  H   UNL     1      21.513  -7.801 -13.891  1.00  0.00     0.293 HD
ENDBRANCH   2  22
BRANCH   6  24
ATOM     24  O   UNL     1      17.178  -4.038 -16.510  1.00  0.00    -0.507 OA
ATOM     25  H   UNL     1      16.560  -3.545 -17.137  1.00  0.00     0.293 HD
ENDBRANCH   6  24
BRANCH   8  26
ATOM     26  O   UNL     1      13.674  -4.721 -13.301  1.00  0.00    -0.508 OA
ATOM     27  H   UNL     1      12.900  -5.335 -13.525  1.00  0.00     0.293 HD
ENDBRANCH   8  26
TORSDOF 6
ENDMDL
MODEL 5
REMARK VINA RESULT:    -8.091      1.620      3.237
REMARK INTER + INTRA:          -9.858
REMARK INTER:                  -9.606
REMARK INTRA:                  -0.252
REMARK UNBOUND:                -0.111
REMARK SMILES O=c1c(O)c(-c2ccc(O)c(O)c2)oc2cc(O)cc(O)c12
REMARK SMILES IDX 5 1 3 2 2 3 1 4 22 5 20 6 19 7 17 8 16 9 15 10 14 11 6 12
REMARK SMILES IDX 7 13 8 14 9 15 13 16 11 17 10 18 12 20 4 22 21 24 18 26
REMARK H PARENT 10 19 12 21 4 23 21 25 18 27
REMARK Flexibility Score: inf
ROOT
ATOM      1  C   UNL     1      16.151  -3.699 -16.473  1.00  0.00     0.180 A 
ATOM      2  C   UNL     1      17.293  -4.326 -16.999  1.00  0.00     0.208 A 
ATOM      3  C   UNL     1      17.972  -5.275 -16.217  1.00  0.00     0.238 A 
ATOM      4  O   UNL     1      18.949  -5.885 -16.723  1.00  0.00    -0.285 OA
ATOM      5  C   UNL     1      17.532  -5.544 -14.899  1.00  0.00     0.111 A 
ATOM      6  C   UNL     1      18.170  -6.453 -14.000  1.00  0.00     0.134 A 
ATOM      7  C   UNL     1      17.583  -6.720 -12.756  1.00  0.00     0.093 A 
ATOM      8  C   UNL     1      16.419  -6.062 -12.353  1.00  0.00     0.123 A 
ATOM      9  C   UNL     1      15.820  -5.133 -13.200  1.00  0.00     0.094 A 
ATOM     10  C   UNL     1      16.359  -4.874 -14.462  1.00  0.00     0.146 A 
ATOM     11  O   UNL     1      15.744  -3.997 -15.245  1.00  0.00    -0.452 OA
ENDROOT
BRANCH   1  12
ATOM     12  C   UNL     1      15.375  -2.700 -17.243  1.00  0.00     0.025 A 
ATOM     13  C   UNL     1      15.390  -1.356 -16.838  1.00  0.00     0.016 A 
ATOM     14  C   UNL     1      14.649  -0.399 -17.536  1.00  0.00     0.051 A 
ATOM     15  C   UNL     1      13.870  -0.772 -18.636  1.00  0.00     0.157 A 
ATOM     16  C   UNL     1      14.575  -3.077 -18.336  1.00  0.00     0.062 A 
ATOM     17  C   UNL     1      13.830  -2.117 -19.037  1.00  0.00     0.158 A 
BRANCH  15  18
ATOM     18  O   UNL     1      13.144   0.206 -19.315  1.00  0.00    -0.504 OA
ATOM     19  H   UNL     1      12.267   0.001 -19.778  1.00  0.00     0.293 HD
ENDBRANCH  15  18
BRANCH  17  20
ATOM     20  O   UNL     1      13.045  -2.499 -20.125  1.00  0.00    -0.504 OA
ATOM     21  H   UNL     1      12.353  -1.875 -20.525  1.00  0.00     0.293 HD
ENDBRANCH  17  20
ENDBRANCH   1  12
BRANCH   2  22
ATOM     22  O   UNL     1      17.757  -3.989 -18.275  1.00  0.00    -0.502 OA
ATOM     23  H   UNL     1      18.734  -3.809 -18.469  1.00  0.00     0.293 HD
ENDBRANCH   2  22
BRANCH   6  24
ATOM     24  O   UNL     1      19.382  -7.097 -14.266  1.00  0.00    -0.507 OA
ATOM     25  H   UNL     1      20.166  -6.678 -14.742  1.00  0.00     0.293 HD
ENDBRANCH   6  24
BRANCH   8  26
ATOM     26  O   UNL     1      15.853  -6.321 -11.106  1.00  0.00    -0.508 OA
ATOM     27  H   UNL     1      16.129  -7.125 -10.555  1.00  0.00     0.293 HD
ENDBRANCH   8  26
TORSDOF 6
ENDMDL
MODEL 6
REMARK VINA RESULT:    -7.934      1.411      2.887
REMARK INTER + INTRA:          -9.668
REMARK INTER:                  -9.727
REMARK INTRA:                   0.058
REMARK UNBOUND:                -0.111
REMARK SMILES O=c1c(O)c(-c2ccc(O)c(O)c2)oc2cc(O)cc(O)c12
REMARK SMILES IDX 5 1 3 2 2 3 1 4 22 5 20 6 19 7 17 8 16 9 15 10 14 11 6 12
REMARK SMILES IDX 7 13 8 14 9 15 13 16 11 17 10 18 12 20 4 22 21 24 18 26
REMARK H PARENT 10 19 12 21 4 23 21 25 18 27
REMARK Flexibility Score: inf
ROOT
ATOM      1  C   UNL     1      16.690  -4.227 -17.029  1.00  0.00     0.180 A 
ATOM      2  C   UNL     1      17.844  -4.809 -17.582  1.00  0.00     0.208 A 
ATOM      3  C   UNL     1      18.611  -5.682 -16.795  1.00  0.00     0.238 A 
ATOM      4  O   UNL     1      19.599  -6.257 -17.321  1.00  0.00    -0.285 OA
ATOM      5  C   UNL     1      18.247  -5.920 -15.448  1.00  0.00     0.111 A 
ATOM      6  C   UNL     1      18.978  -6.751 -14.543  1.00  0.00     0.134 A 
ATOM      7  C   UNL     1      18.464  -6.997 -13.264  1.00  0.00     0.093 A 
ATOM      8  C   UNL     1      17.282  -6.390 -12.833  1.00  0.00     0.123 A 
ATOM      9  C   UNL     1      16.592  -5.534 -13.688  1.00  0.00     0.094 A 
ATOM     10  C   UNL     1      17.058  -5.300 -14.984  1.00  0.00     0.146 A 
ATOM     11  O   UNL     1      16.357  -4.494 -15.772  1.00  0.00    -0.452 OA
ENDROOT
BRANCH   1  12
ATOM     12  C   UNL     1      15.823  -3.308 -17.801  1.00  0.00     0.025 A 
ATOM     13  C   UNL     1      15.424  -3.666 -19.098  1.00  0.00     0.016 A 
ATOM     14  C   UNL     1      14.623  -2.806 -19.854  1.00  0.00     0.051 A 
ATOM     15  C   UNL     1      14.224  -1.571 -19.334  1.00  0.00     0.157 A 
ATOM     16  C   UNL     1      15.439  -2.058 -17.287  1.00  0.00     0.062 A 
ATOM     17  C   UNL     1      14.636  -1.192 -18.045  1.00  0.00     0.158 A 
BRANCH  15  18
ATOM     18  O   UNL     1      13.422  -0.735 -20.110  1.00  0.00    -0.504 OA
ATOM     19  H   UNL     1      13.392   0.268 -19.967  1.00  0.00     0.293 HD
ENDBRANCH  15  18
BRANCH  17  20
ATOM     20  O   UNL     1      14.253   0.044 -17.525  1.00  0.00    -0.504 OA
ATOM     21  H   UNL     1      14.908   0.637 -17.028  1.00  0.00     0.293 HD
ENDBRANCH  17  20
ENDBRANCH   1  12
BRANCH   2  22
ATOM     22  O   UNL     1      18.229  -4.502 -18.891  1.00  0.00    -0.502 OA
ATOM     23  H   UNL     1      17.757  -3.799 -19.446  1.00  0.00     0.293 HD
ENDBRANCH   2  22
BRANCH   6  24
ATOM     24  O   UNL     1      20.212  -7.334 -14.840  1.00  0.00    -0.507 OA
ATOM     25  H   UNL     1      20.357  -8.312 -15.039  1.00  0.00     0.293 HD
ENDBRANCH   6  24
BRANCH   8  26
ATOM     26  O   UNL     1      16.788  -6.627 -11.552  1.00  0.00    -0.508 OA
ATOM     27  H   UNL     1      16.940  -7.511 -11.080  1.00  0.00     0.293 HD
ENDBRANCH   8  26
TORSDOF 6
ENDMDL
MODEL 7
REMARK VINA RESULT:    -7.509      1.435      2.019
REMARK INTER + INTRA:          -9.156
REMARK INTER:                  -8.833
REMARK INTRA:                  -0.323
REMARK UNBOUND:                -0.111
REMARK SMILES O=c1c(O)c(-c2ccc(O)c(O)c2)oc2cc(O)cc(O)c12
REMARK SMILES IDX 5 1 3 2 2 3 1 4 22 5 20 6 19 7 17 8 16 9 15 10 14 11 6 12
REMARK SMILES IDX 7 13 8 14 9 15 13 16 11 17 10 18 12 20 4 22 21 24 18 26
REMARK H PARENT 10 19 12 21 4 23 21 25 18 27
REMARK Flexibility Score: inf
ROOT
ATOM      1  C   UNL     1      16.449  -3.583 -16.660  1.00  0.00     0.180 A 
ATOM      2  C   UNL     1      16.059  -4.173 -15.446  1.00  0.00     0.208 A 
ATOM      3  C   UNL     1      16.978  -4.976 -14.752  1.00  0.00     0.238 A 
ATOM      4  O   UNL     1      16.648  -5.440 -13.630  1.00  0.00    -0.285 OA
ATOM      5  C   UNL     1      18.257  -5.224 -15.308  1.00  0.00     0.111 A 
ATOM      6  C   UNL     1      19.253  -6.059 -14.715  1.00  0.00     0.134 A 
ATOM      7  C   UNL     1      20.520  -6.146 -15.303  1.00  0.00     0.093 A 
ATOM      8  C   UNL     1      20.808  -5.481 -16.497  1.00  0.00     0.123 A 
ATOM      9  C   UNL     1      19.826  -4.709 -17.113  1.00  0.00     0.094 A 
ATOM     10  C   UNL     1      18.564  -4.571 -16.530  1.00  0.00     0.146 A 
ATOM     11  O   UNL     1      17.666  -3.808 -17.141  1.00  0.00    -0.452 OA
ENDROOT
BRANCH   1  12
ATOM     12  C   UNL     1      15.540  -2.712 -17.441  1.00  0.00     0.025 A 
ATOM     13  C   UNL     1      15.503  -1.336 -17.169  1.00  0.00     0.016 A 
ATOM     14  C   UNL     1      14.639  -0.498 -17.878  1.00  0.00     0.051 A 
ATOM     15  C   UNL     1      13.787  -1.024 -18.855  1.00  0.00     0.157 A 
ATOM     16  C   UNL     1      14.669  -3.243 -18.408  1.00  0.00     0.062 A 
ATOM     17  C   UNL     1      13.799  -2.403 -19.120  1.00  0.00     0.158 A 
BRANCH  15  18
ATOM     18  O   UNL     1      12.937  -0.162 -19.549  1.00  0.00    -0.504 OA
ATOM     19  H   UNL     1      13.251   0.372 -20.350  1.00  0.00     0.293 HD
ENDBRANCH  15  18
BRANCH  17  20
ATOM     20  O   UNL     1      12.943  -2.936 -20.083  1.00  0.00    -0.504 OA
ATOM     21  H   UNL     1      12.028  -2.538 -20.260  1.00  0.00     0.293 HD
ENDBRANCH  17  20
ENDBRANCH   1  12
BRANCH   2  22
ATOM     22  O   UNL     1      14.766  -3.978 -14.951  1.00  0.00    -0.502 OA
ATOM     23  H   UNL     1      14.027  -4.659 -15.076  1.00  0.00     0.293 HD
ENDBRANCH   2  22
BRANCH   6  24
ATOM     24  O   UNL     1      19.043  -6.836 -13.572  1.00  0.00    -0.507 OA
ATOM     25  H   UNL     1      19.539  -6.730 -12.701  1.00  0.00     0.293 HD
ENDBRANCH   6  24
BRANCH   8  26
ATOM     26  O   UNL     1      22.067  -5.587 -17.084  1.00  0.00    -0.508 OA
ATOM     27  H   UNL     1      22.448  -4.846 -17.661  1.00  0.00     0.293 HD
ENDBRANCH   8  26
TORSDOF 6
ENDMDL
MODEL 8
REMARK VINA RESULT:    -7.479      2.215      7.565
REMARK INTER + INTRA:          -9.119
REMARK INTER:                  -8.812
REMARK INTRA:                  -0.308
REMARK UNBOUND:                -0.111
REMARK SMILES O=c1c(O)c(-c2ccc(O)c(O)c2)oc2cc(O)cc(O)c12
REMARK SMILES IDX 5 1 3 2 2 3 1 4 22 5 20 6 19 7 17 8 16 9 15 10 14 11 6 12
REMARK SMILES IDX 7 13 8 14 9 15 13 16 11 17 10 18 12 20 4 22 21 24 18 26
REMARK H PARENT 10 19 12 21 4 23 21 25 18 27
REMARK Flexibility Score: inf
ROOT
ATOM      1  C   UNL     1      19.023  -6.189 -15.883  1.00  0.00     0.180 A 
ATOM      2  C   UNL     1      19.284  -6.448 -17.240  1.00  0.00     0.208 A 
ATOM      3  C   UNL     1      18.617  -5.694 -18.219  1.00  0.00     0.238 A 
ATOM      4  O   UNL     1      18.911  -5.880 -19.428  1.00  0.00    -0.285 OA
ATOM      5  C   UNL     1      17.657  -4.728 -17.830  1.00  0.00     0.111 A 
ATOM      6  C   UNL     1      16.888  -3.936 -18.738  1.00  0.00     0.134 A 
ATOM      7  C   UNL     1      16.045  -2.937 -18.237  1.00  0.00     0.093 A 
ATOM      8  C   UNL     1      15.892  -2.743 -16.862  1.00  0.00     0.123 A 
ATOM      9  C   UNL     1      16.596  -3.547 -15.969  1.00  0.00     0.094 A 
ATOM     10  C   UNL     1      17.475  -4.526 -16.437  1.00  0.00     0.146 A 
ATOM     11  O   UNL     1      18.141  -5.254 -15.550  1.00  0.00    -0.452 OA
ENDROOT
BRANCH   1  12
ATOM     12  C   UNL     1      19.698  -6.933 -14.795  1.00  0.00     0.025 A 
ATOM     13  C   UNL     1      20.851  -6.394 -14.204  1.00  0.00     0.016 A 
ATOM     14  C   UNL     1      21.516  -7.086 -13.190  1.00  0.00     0.051 A 
ATOM     15  C   UNL     1      21.052  -8.335 -12.764  1.00  0.00     0.157 A 
ATOM     16  C   UNL     1      19.244  -8.197 -14.381  1.00  0.00     0.062 A 
ATOM     17  C   UNL     1      19.912  -8.896 -13.364  1.00  0.00     0.158 A 
BRANCH  15  18
ATOM     18  O   UNL     1      21.735  -9.003 -11.748  1.00  0.00    -0.504 OA
ATOM     19  H   UNL     1      21.305  -9.205 -10.853  1.00  0.00     0.293 HD
ENDBRANCH  15  18
BRANCH  17  20
ATOM     20  O   UNL     1      19.451 -10.147 -12.954  1.00  0.00    -0.504 OA
ATOM     21  H   UNL     1      19.653 -10.987 -13.484  1.00  0.00     0.293 HD
ENDBRANCH  17  20
ENDBRANCH   1  12
BRANCH   2  22
ATOM     22  O   UNL     1      20.178  -7.459 -17.605  1.00  0.00    -0.502 OA
ATOM     23  H   UNL     1      19.933  -8.441 -17.572  1.00  0.00     0.293 HD
ENDBRANCH   2  22
BRANCH   6  24
ATOM     24  O   UNL     1      16.896  -4.106 -20.125  1.00  0.00    -0.507 OA
ATOM     25  H   UNL     1      16.901  -3.356 -20.799  1.00  0.00     0.293 HD
ENDBRANCH   6  24
BRANCH   8  26
ATOM     26  O   UNL     1      15.037  -1.758 -16.374  1.00  0.00    -0.508 OA
ATOM     27  H   UNL     1      14.045  -1.768 -16.579  1.00  0.00     0.293 HD
ENDBRANCH   8  26
TORSDOF 6
ENDMDL
