MODEL 1
REMARK VINA RESULT:    -4.284      0.000      0.000
REMARK INTER + INTRA:          -4.284
REMARK INTER:                  -4.284
REMARK INTRA:                   0.000
REMARK UNBOUND:                 0.000
REMARK SMILES CC1=CC(=O)[C@H]2C[C@@H]1C2(C)C
REMARK SMILES IDX 1 1 2 2 3 3 4 4 5 5 6 6 7 7 8 8 9 9 10 10 11 11
REMARK H PARENT
REMARK Flexibility Score: inf
ROOT
ATOM      1  C   UNL     1      30.180  30.585  31.779  1.00  0.00     0.040 C 
ATOM      2  C   UNL     1      30.138  30.984  30.338  1.00  0.00    -0.066 C 
ATOM      3  C   UNL     1      31.069  30.536  29.450  1.00  0.00     0.047 C 
ATOM      4  C   UNL     1      30.935  31.033  28.042  1.00  0.00     0.159 C 
ATOM      5  O   UNL     1      31.756  30.723  27.139  1.00  0.00    -0.295 OA
ATOM      6  C   UNL     1      29.735  31.942  27.780  1.00  0.00     0.067 C 
ATOM      7  C   UNL     1      28.558  31.224  28.477  1.00  0.00     0.021 C 
ATOM      8  C   UNL     1      29.030  31.904  29.782  1.00  0.00     0.022 C 
ATOM      9  C   UNL     1      29.673  33.016  28.903  1.00  0.00    -0.019 C 
ATOM     10  C   UNL     1      28.677  34.157  28.573  1.00  0.00     0.012 C 
ATOM     11  C   UNL     1      31.005  33.657  29.386  1.00  0.00     0.012 C 
ENDROOT
TORSDOF 0
ENDMDL
MODEL 2
REMARK VINA RESULT:    -4.159      1.453      3.538
REMARK INTER + INTRA:          -4.159
REMARK INTER:                  -4.159
REMARK INTRA:                   0.000
REMARK UNBOUND:                 0.000
REMARK SMILES CC1=CC(=O)[C@H]2C[C@@H]1C2(C)C
REMARK SMILES IDX 1 1 2 2 3 3 4 4 5 5 6 6 7 7 8 8 9 9 10 10 11 11
REMARK H PARENT
REMARK Flexibility Score: inf
ROOT
ATOM      1  C   UNL     1      27.107  35.073  29.376  1.00  0.00     0.040 C 
ATOM      2  C   UNL     1      28.266  34.134  29.483  1.00  0.00    -0.066 C 
ATOM      3  C   UNL     1      29.139  33.964  28.451  1.00  0.00     0.047 C 
ATOM      4  C   UNL     1      30.240  32.971  28.671  1.00  0.00     0.159 C 
ATOM      5  O   UNL     1      31.086  32.697  27.779  1.00  0.00    -0.295 OA
ATOM      6  C   UNL     1      30.264  32.314  30.051  1.00  0.00     0.067 C 
ATOM      7  C   UNL     1      30.056  33.490  31.031  1.00  0.00     0.021 C 
ATOM      8  C   UNL     1      28.542  33.327  30.769  1.00  0.00     0.022 C 
ATOM      9  C   UNL     1      28.824  31.841  30.399  1.00  0.00    -0.019 C 
ATOM     10  C   UNL     1      28.793  30.909  31.637  1.00  0.00     0.012 C 
ATOM     11  C   UNL     1      27.969  31.189  29.276  1.00  0.00     0.012 C 
ENDROOT
TORSDOF 0
ENDMDL
MODEL 3
REMARK VINA RESULT:    -4.128      2.631      4.272
REMARK INTER + INTRA:          -4.128
REMARK INTER:                  -4.128
REMARK INTRA:                   0.000
REMARK UNBOUND:                 0.000
REMARK SMILES CC1=CC(=O)[C@H]2C[C@@H]1C2(C)C
REMARK SMILES IDX 1 1 2 2 3 3 4 4 5 5 6 6 7 7 8 8 9 9 10 10 11 11
REMARK H PARENT
REMARK Flexibility Score: inf
ROOT
ATOM      1  C   UNL     1      30.993  34.136  27.878  1.00  0.00     0.040 C 
ATOM      2  C   UNL     1      31.892  32.996  28.236  1.00  0.00    -0.066 C 
ATOM      3  C   UNL     1      32.899  33.143  29.141  1.00  0.00     0.047 C 
ATOM      4  C   UNL     1      33.749  31.934  29.391  1.00  0.00     0.159 C 
ATOM      5  O   UNL     1      34.734  31.955  30.175  1.00  0.00    -0.295 OA
ATOM      6  C   UNL     1      33.339  30.676  28.625  1.00  0.00     0.067 C 
ATOM      7  C   UNL     1      31.806  30.611  28.801  1.00  0.00     0.021 C 
ATOM      8  C   UNL     1      31.714  31.595  27.613  1.00  0.00     0.022 C 
ATOM      9  C   UNL     1      33.096  31.060  27.137  1.00  0.00    -0.019 C 
ATOM     10  C   UNL     1      32.964  29.815  26.222  1.00  0.00     0.012 C 
ATOM     11  C   UNL     1      34.079  32.058  26.462  1.00  0.00     0.012 C 
ENDROOT
TORSDOF 0
ENDMDL
MODEL 4
REMARK VINA RESULT:    -4.110     12.280     13.516
REMARK INTER + INTRA:          -4.110
REMARK INTER:                  -4.110
REMARK INTRA:                   0.000
REMARK UNBOUND:                 0.000
REMARK SMILES CC1=CC(=O)[C@H]2C[C@@H]1C2(C)C
REMARK SMILES IDX 1 1 2 2 3 3 4 4 5 5 6 6 7 7 8 8 9 9 10 10 11 11
REMARK H PARENT
REMARK Flexibility Score: inf
ROOT
ATOM      1  C   UNL     1      19.912  31.873  29.746  1.00  0.00     0.040 C 
ATOM      2  C   UNL     1      18.510  32.137  30.194  1.00  0.00    -0.066 C 
ATOM      3  C   UNL     1      18.249  32.787  31.363  1.00  0.00     0.047 C 
ATOM      4  C   UNL     1      16.803  32.963  31.715  1.00  0.00     0.159 C 
ATOM      5  O   UNL     1      16.434  33.511  32.786  1.00  0.00    -0.295 OA
ATOM      6  C   UNL     1      15.808  32.428  30.684  1.00  0.00     0.067 C 
ATOM      7  C   UNL     1      16.357  32.935  29.332  1.00  0.00     0.021 C 
ATOM      8  C   UNL     1      17.293  31.706  29.349  1.00  0.00     0.022 C 
ATOM      9  C   UNL     1      16.251  30.998  30.264  1.00  0.00    -0.019 C 
ATOM     10  C   UNL     1      15.159  30.257  29.451  1.00  0.00     0.012 C 
ATOM     11  C   UNL     1      16.776  30.034  31.366  1.00  0.00     0.012 C 
ENDROOT
TORSDOF 0
ENDMDL
MODEL 5
REMARK VINA RESULT:    -4.076     11.523     12.680
REMARK INTER + INTRA:          -4.076
REMARK INTER:                  -4.076
REMARK INTRA:                   0.000
REMARK UNBOUND:                 0.000
REMARK SMILES CC1=CC(=O)[C@H]2C[C@@H]1C2(C)C
REMARK SMILES IDX 1 1 2 2 3 3 4 4 5 5 6 6 7 7 8 8 9 9 10 10 11 11
REMARK H PARENT
REMARK Flexibility Score: inf
ROOT
ATOM      1  C   UNL     1      18.168  29.248  29.095  1.00  0.00     0.040 C 
ATOM      2  C   UNL     1      17.986  30.701  29.396  1.00  0.00    -0.066 C 
ATOM      3  C   UNL     1      18.992  31.598  29.200  1.00  0.00     0.047 C 
ATOM      4  C   UNL     1      18.694  33.020  29.570  1.00  0.00     0.159 C 
ATOM      5  O   UNL     1      19.555  33.934  29.472  1.00  0.00    -0.295 OA
ATOM      6  C   UNL     1      17.275  33.282  30.075  1.00  0.00     0.067 C 
ATOM      7  C   UNL     1      16.374  32.522  29.077  1.00  0.00     0.021 C 
ATOM      8  C   UNL     1      16.647  31.260  29.924  1.00  0.00     0.022 C 
ATOM      9  C   UNL     1      16.919  32.200  31.134  1.00  0.00    -0.019 C 
ATOM     10  C   UNL     1      15.626  32.545  31.917  1.00  0.00     0.012 C 
ATOM     11  C   UNL     1      18.012  31.783  32.159  1.00  0.00     0.012 C 
ENDROOT
TORSDOF 0
ENDMDL
MODEL 6
REMARK VINA RESULT:    -4.072      1.670      3.087
REMARK INTER + INTRA:          -4.072
REMARK INTER:                  -4.072
REMARK INTRA:                   0.000
REMARK UNBOUND:                 0.000
REMARK SMILES CC1=CC(=O)[C@H]2C[C@@H]1C2(C)C
REMARK SMILES IDX 1 1 2 2 3 3 4 4 5 5 6 6 7 7 8 8 9 9 10 10 11 11
REMARK H PARENT
REMARK Flexibility Score: inf
ROOT
ATOM      1  C   UNL     1      31.859  34.353  27.873  1.00  0.00     0.040 C 
ATOM      2  C   UNL     1      30.809  33.483  28.487  1.00  0.00    -0.066 C 
ATOM      3  C   UNL     1      30.172  32.521  27.763  1.00  0.00     0.047 C 
ATOM      4  C   UNL     1      29.118  31.737  28.485  1.00  0.00     0.159 C 
ATOM      5  O   UNL     1      28.433  30.848  27.914  1.00  0.00    -0.295 OA
ATOM      6  C   UNL     1      28.932  32.093  29.960  1.00  0.00     0.067 C 
ATOM      7  C   UNL     1      30.372  32.172  30.513  1.00  0.00     0.021 C 
ATOM      8  C   UNL     1      30.408  33.619  29.972  1.00  0.00     0.022 C 
ATOM      9  C   UNL     1      28.856  33.641  30.090  1.00  0.00    -0.019 C 
ATOM     10  C   UNL     1      28.377  34.092  31.493  1.00  0.00     0.012 C 
ATOM     11  C   UNL     1      28.049  34.433  29.022  1.00  0.00     0.012 C 
ENDROOT
TORSDOF 0
ENDMDL
MODEL 7
REMARK VINA RESULT:    -4.006     11.947     13.012
REMARK INTER + INTRA:          -4.006
REMARK INTER:                  -4.006
REMARK INTRA:                   0.000
REMARK UNBOUND:                 0.000
REMARK SMILES CC1=CC(=O)[C@H]2C[C@@H]1C2(C)C
REMARK SMILES IDX 1 1 2 2 3 3 4 4 5 5 6 6 7 7 8 8 9 9 10 10 11 11
REMARK H PARENT
REMARK Flexibility Score: inf
ROOT
ATOM      1  C   UNL     1      15.173  32.116  32.444  1.00  0.00     0.040 C 
ATOM      2  C   UNL     1      16.080  31.936  31.268  1.00  0.00    -0.066 C 
ATOM      3  C   UNL     1      16.468  30.697  30.854  1.00  0.00     0.047 C 
ATOM      4  C   UNL     1      17.404  30.652  29.684  1.00  0.00     0.159 C 
ATOM      5  O   UNL     1      17.864  29.571  29.233  1.00  0.00    -0.295 OA
ATOM      6  C   UNL     1      17.759  32.010  29.077  1.00  0.00     0.067 C 
ATOM      7  C   UNL     1      16.405  32.744  28.975  1.00  0.00     0.021 C 
ATOM      8  C   UNL     1      16.605  33.139  30.456  1.00  0.00     0.022 C 
ATOM      9  C   UNL     1      18.137  32.983  30.231  1.00  0.00    -0.019 C 
ATOM     10  C   UNL     1      18.793  34.288  29.709  1.00  0.00     0.012 C 
ATOM     11  C   UNL     1      19.002  32.438  31.403  1.00  0.00     0.012 C 
ENDROOT
TORSDOF 0
ENDMDL
MODEL 8
REMARK VINA RESULT:    -3.998      2.053      3.465
REMARK INTER + INTRA:          -3.998
REMARK INTER:                  -3.998
REMARK INTRA:                   0.000
REMARK UNBOUND:                 0.000
REMARK SMILES CC1=CC(=O)[C@H]2C[C@@H]1C2(C)C
REMARK SMILES IDX 1 1 2 2 3 3 4 4 5 5 6 6 7 7 8 8 9 9 10 10 11 11
REMARK H PARENT
REMARK Flexibility Score: inf
ROOT
ATOM      1  C   UNL     1      33.062  33.448  27.833  1.00  0.00     0.040 C 
ATOM      2  C   UNL     1      31.657  33.164  28.260  1.00  0.00    -0.066 C 
ATOM      3  C   UNL     1      30.667  34.087  28.105  1.00  0.00     0.047 C 
ATOM      4  C   UNL     1      29.309  33.692  28.602  1.00  0.00     0.159 C 
ATOM      5  O   UNL     1      28.323  34.472  28.551  1.00  0.00    -0.295 OA
ATOM      6  C   UNL     1      29.207  32.279  29.175  1.00  0.00     0.067 C 
ATOM      7  C   UNL     1      29.956  31.400  28.149  1.00  0.00     0.021 C 
ATOM      8  C   UNL     1      31.255  31.808  28.879  1.00  0.00     0.022 C 
ATOM      9  C   UNL     1      30.395  32.054  30.153  1.00  0.00    -0.019 C 
ATOM     10  C   UNL     1      30.223  30.770  31.005  1.00  0.00     0.012 C 
ATOM     11  C   UNL     1      30.802  33.217  31.101  1.00  0.00     0.012 C 
ENDROOT
TORSDOF 0
ENDMDL
MODEL 9
REMARK VINA RESULT:    -3.959     11.543     12.729
REMARK INTER + INTRA:          -3.959
REMARK INTER:                  -3.959
REMARK INTRA:                   0.000
REMARK UNBOUND:                 0.000
REMARK SMILES CC1=CC(=O)[C@H]2C[C@@H]1C2(C)C
REMARK SMILES IDX 1 1 2 2 3 3 4 4 5 5 6 6 7 7 8 8 9 9 10 10 11 11
REMARK H PARENT
REMARK Flexibility Score: inf
ROOT
ATOM      1  C   UNL     1      18.932  28.713  28.219  1.00  0.00     0.040 C 
ATOM      2  C   UNL     1      18.523  29.680  29.284  1.00  0.00    -0.066 C 
ATOM      3  C   UNL     1      18.425  29.300  30.588  1.00  0.00     0.047 C 
ATOM      4  C   UNL     1      17.975  30.355  31.554  1.00  0.00     0.159 C 
ATOM      5  O   UNL     1      17.807  30.116  32.778  1.00  0.00    -0.295 OA
ATOM      6  C   UNL     1      17.732  31.737  30.948  1.00  0.00     0.067 C 
ATOM      7  C   UNL     1      18.960  31.972  30.041  1.00  0.00     0.021 C 
ATOM      8  C   UNL     1      18.211  31.158  28.963  1.00  0.00     0.022 C 
ATOM      9  C   UNL     1      16.880  31.569  29.658  1.00  0.00    -0.019 C 
ATOM     10  C   UNL     1      16.333  32.921  29.132  1.00  0.00     0.012 C 
ATOM     11  C   UNL     1      15.711  30.544  29.673  1.00  0.00     0.012 C 
ENDROOT
TORSDOF 0
ENDMDL
