MODEL 1
REMARK VINA RESULT:    -1.360      0.000      0.000
REMARK INTER + INTRA:          -0.464
REMARK INTER:                  -1.877
REMARK INTRA:                   1.414
REMARK UNBOUND:                 1.414
REMARK SMILES C=C(CC[C@H](C(=O)[O-])[C@H]1CC[C@@]2(C)C3=C(CC[C@@]12C)[C@@]1(C)CC[C@@H](O)C(C)(C)[C@@H]1CC3)C(C)C
REMARK SMILES IDX 4 1 5 2 6 3 7 4 8 5 9 6 10 7 18 8 11 9 12 10 17 11 19 12
REMARK SMILES IDX 13 13 14 14 16 15 15 16 31 17 20 18 30 19 29 20 22 21 21 22
REMARK SMILES IDX 26 23 23 24 24 25 27 26 28 27 25 28 3 30 2 31 1 32 32 33
REMARK SMILES IDX 33 34 34 35
REMARK H PARENT 25 29
REMARK Flexibility Score: inf
ROOT
ATOM      1  C   UNL     1      12.444  10.905  30.925  1.00  0.00     0.014 C 
ENDROOT
BRANCH   1   2
ATOM      2  C   UNL     1      13.445  11.265  29.795  1.00  0.00     0.039 C 
BRANCH   2   3
ATOM      3  C   UNL     1      14.749  11.745  30.389  1.00  0.00     0.045 C 
ATOM      4  O   UNL     1      15.852  11.329  29.938  1.00  0.00    -0.550 OA
ATOM      5  O   UNL     1      14.740  12.662  31.433  1.00  0.00    -0.550 OA
ENDBRANCH   2   3
BRANCH   2   6
ATOM      6  C   UNL     1      12.800  12.270  28.761  1.00  0.00     0.004 C 
ATOM      7  C   UNL     1      12.070  13.490  29.320  1.00  0.00     0.006 C 
ATOM      8  C   UNL     1      13.727  12.846  27.649  1.00  0.00    -0.020 C 
ATOM      9  C   UNL     1      11.881  14.444  28.137  1.00  0.00     0.012 C 
ATOM     10  C   UNL     1      12.801  13.955  26.976  1.00  0.00    -0.006 C 
ATOM     11  C   UNL     1      15.057  13.450  28.245  1.00  0.00     0.012 C 
ATOM     12  C   UNL     1      14.135  11.715  26.664  1.00  0.00     0.012 C 
ATOM     13  C   UNL     1      11.875  13.330  25.879  1.00  0.00     0.017 C 
ATOM     14  C   UNL     1      13.607  15.155  26.400  1.00  0.00    -0.064 C 
ATOM     15  C   UNL     1      15.051  14.964  28.381  1.00  0.00     0.032 C 
ATOM     16  C   UNL     1      14.734  15.588  27.041  1.00  0.00    -0.064 C 
ATOM     17  C   UNL     1      13.116  15.828  25.119  1.00  0.00     0.032 C 
ATOM     18  C   UNL     1      15.612  16.758  26.532  1.00  0.00    -0.008 C 
ATOM     19  C   UNL     1      13.808  17.141  24.765  1.00  0.00     0.009 C 
ATOM     20  C   UNL     1      15.318  17.030  25.015  1.00  0.00     0.007 C 
ATOM     21  C   UNL     1      17.132  16.395  26.684  1.00  0.00     0.014 C 
ATOM     22  C   UNL     1      15.273  17.971  27.443  1.00  0.00     0.016 C 
ATOM     23  C   UNL     1      16.191  18.168  24.331  1.00  0.00    -0.006 C 
ATOM     24  C   UNL     1      18.058  16.914  25.565  1.00  0.00     0.033 C 
ATOM     25  C   UNL     1      17.605  18.272  25.016  1.00  0.00     0.120 C 
ATOM     26  C   UNL     1      16.369  17.806  22.827  1.00  0.00     0.014 C 
ATOM     27  C   UNL     1      15.499  19.556  24.385  1.00  0.00     0.014 C 
BRANCH  25  28
ATOM     28  O   UNL     1      18.588  18.738  24.123  1.00  0.00    -0.393 OA
ATOM     29  H   UNL     1      18.123  19.271  23.426  1.00  0.00     0.210 HD
ENDBRANCH  25  28
ENDBRANCH   2   6
ENDBRANCH   1   2
BRANCH   1  30
ATOM     30  C   UNL     1      11.876  12.137  31.670  1.00  0.00     0.031 C 
BRANCH  30  31
ATOM     31  C   UNL     1      12.091  12.079  33.172  1.00  0.00    -0.075 C 
ATOM     32  C   UNL     1      12.334  10.887  33.752  1.00  0.00     0.008 C 
BRANCH  31  33
ATOM     33  C   UNL     1      12.184  13.375  33.970  1.00  0.00     0.008 C 
ATOM     34  C   UNL     1      13.387  13.388  34.930  1.00  0.00     0.012 C 
ATOM     35  C   UNL     1      12.231  14.582  33.026  1.00  0.00     0.012 C 
ENDBRANCH  31  33
ENDBRANCH  30  31
ENDBRANCH   1  30
TORSDOF 7
ENDMDL
MODEL 2
REMARK VINA RESULT:     0.988      1.543      2.770
REMARK INTER + INTRA:           2.777
REMARK INTER:                   1.243
REMARK INTRA:                   1.534
REMARK UNBOUND:                 1.414
REMARK SMILES C=C(CC[C@H](C(=O)[O-])[C@H]1CC[C@@]2(C)C3=C(CC[C@@]12C)[C@@]1(C)CC[C@@H](O)C(C)(C)[C@@H]1CC3)C(C)C
REMARK SMILES IDX 4 1 5 2 6 3 7 4 8 5 9 6 10 7 18 8 11 9 12 10 17 11 19 12
REMARK SMILES IDX 13 13 14 14 16 15 15 16 31 17 20 18 30 19 29 20 22 21 21 22
REMARK SMILES IDX 26 23 23 24 24 25 27 26 28 27 25 28 3 30 2 31 1 32 32 33
REMARK SMILES IDX 33 34 34 35
REMARK H PARENT 25 29
REMARK Flexibility Score: inf
ROOT
ATOM      1  C   UNL     1      12.535  14.009  31.856  1.00  0.00     0.014 C 
ENDROOT
BRANCH   1   2
ATOM      2  C   UNL     1      12.282  12.571  31.329  1.00  0.00     0.039 C 
BRANCH   2   3
ATOM      3  C   UNL     1      12.742  11.556  32.348  1.00  0.00     0.045 C 
ATOM      4  O   UNL     1      11.903  10.875  33.001  1.00  0.00    -0.550 OA
ATOM      5  O   UNL     1      14.100  11.356  32.564  1.00  0.00    -0.550 OA
ENDBRANCH   2   3
BRANCH   2   6
ATOM      6  C   UNL     1      12.907  12.372  29.892  1.00  0.00     0.004 C 
ATOM      7  C   UNL     1      11.947  12.111  28.732  1.00  0.00     0.006 C 
ATOM      8  C   UNL     1      13.860  13.488  29.366  1.00  0.00    -0.020 C 
ATOM      9  C   UNL     1      12.766  12.324  27.455  1.00  0.00     0.012 C 
ATOM     10  C   UNL     1      14.089  13.050  27.850  1.00  0.00    -0.006 C 
ATOM     11  C   UNL     1      13.215  14.921  29.490  1.00  0.00     0.012 C 
ATOM     12  C   UNL     1      15.171  13.497  30.201  1.00  0.00     0.012 C 
ATOM     13  C   UNL     1      15.248  12.004  27.731  1.00  0.00     0.017 C 
ATOM     14  C   UNL     1      14.334  14.256  26.898  1.00  0.00    -0.064 C 
ATOM     15  C   UNL     1      12.625  15.457  28.195  1.00  0.00     0.032 C 
ATOM     16  C   UNL     1      13.682  15.438  27.115  1.00  0.00    -0.064 C 
ATOM     17  C   UNL     1      15.307  14.091  25.731  1.00  0.00     0.032 C 
ATOM     18  C   UNL     1      13.878  16.698  26.236  1.00  0.00    -0.008 C 
ATOM     19  C   UNL     1      15.298  15.224  24.708  1.00  0.00     0.009 C 
ATOM     20  C   UNL     1      15.213  16.581  25.420  1.00  0.00     0.007 C 
ATOM     21  C   UNL     1      13.963  17.978  27.143  1.00  0.00     0.014 C 
ATOM     22  C   UNL     1      12.617  16.785  25.331  1.00  0.00     0.016 C 
ATOM     23  C   UNL     1      15.584  17.831  24.512  1.00  0.00    -0.006 C 
ATOM     24  C   UNL     1      14.941  19.071  26.663  1.00  0.00     0.033 C 
ATOM     25  C   UNL     1      15.014  19.160  25.135  1.00  0.00     0.120 C 
ATOM     26  C   UNL     1      17.136  17.925  24.426  1.00  0.00     0.014 C 
ATOM     27  C   UNL     1      15.056  17.685  23.060  1.00  0.00     0.014 C 
BRANCH  25  28
ATOM     28  O   UNL     1      15.797  20.279  24.794  1.00  0.00    -0.393 OA
ATOM     29  H   UNL     1      15.775  20.362  23.805  1.00  0.00     0.210 HD
ENDBRANCH  25  28
ENDBRANCH   2   6
ENDBRANCH   1   2
BRANCH   1  30
ATOM     30  C   UNL     1      12.061  14.232  33.313  1.00  0.00     0.031 C 
BRANCH  30  31
ATOM     31  C   UNL     1      13.167  14.045  34.336  1.00  0.00    -0.075 C 
ATOM     32  C   UNL     1      14.310  14.747  34.199  1.00  0.00     0.008 C 
BRANCH  31  33
ATOM     33  C   UNL     1      12.910  13.197  35.576  1.00  0.00     0.008 C 
ATOM     34  C   UNL     1      11.900  12.065  35.314  1.00  0.00     0.012 C 
ATOM     35  C   UNL     1      14.228  12.631  36.120  1.00  0.00     0.012 C 
ENDBRANCH  31  33
ENDBRANCH  30  31
ENDBRANCH   1  30
TORSDOF 7
ENDMDL
MODEL 3
REMARK VINA RESULT:     1.551      1.252      1.925
REMARK INTER + INTRA:           3.553
REMARK INTER:                   2.222
REMARK INTRA:                   1.332
REMARK UNBOUND:                 1.414
REMARK SMILES C=C(CC[C@H](C(=O)[O-])[C@H]1CC[C@@]2(C)C3=C(CC[C@@]12C)[C@@]1(C)CC[C@@H](O)C(C)(C)[C@@H]1CC3)C(C)C
REMARK SMILES IDX 4 1 5 2 6 3 7 4 8 5 9 6 10 7 18 8 11 9 12 10 17 11 19 12
REMARK SMILES IDX 13 13 14 14 16 15 15 16 31 17 20 18 30 19 29 20 22 21 21 22
REMARK SMILES IDX 26 23 23 24 24 25 27 26 28 27 25 28 3 30 2 31 1 32 32 33
REMARK SMILES IDX 33 34 34 35
REMARK H PARENT 25 29
REMARK Flexibility Score: inf
ROOT
ATOM      1  C   UNL     1      14.532  13.604  31.737  1.00  0.00     0.014 C 
ENDROOT
BRANCH   1   2
ATOM      2  C   UNL     1      13.132  13.053  31.354  1.00  0.00     0.039 C 
BRANCH   2   3
ATOM      3  C   UNL     1      13.158  11.542  31.331  1.00  0.00     0.045 C 
ATOM      4  O   UNL     1      12.313  10.875  31.989  1.00  0.00    -0.550 OA
ATOM      5  O   UNL     1      14.111  10.876  30.570  1.00  0.00    -0.550 OA
ENDBRANCH   2   3
BRANCH   2   6
ATOM      6  C   UNL     1      12.607  13.709  30.016  1.00  0.00     0.004 C 
ATOM      7  C   UNL     1      11.942  15.082  30.115  1.00  0.00     0.006 C 
ATOM      8  C   UNL     1      13.623  13.851  28.842  1.00  0.00    -0.020 C 
ATOM      9  C   UNL     1      11.875  15.617  28.681  1.00  0.00     0.012 C 
ATOM     10  C   UNL     1      12.809  14.736  27.796  1.00  0.00    -0.006 C 
ATOM     11  C   UNL     1      14.964  14.540  29.303  1.00  0.00     0.012 C 
ATOM     12  C   UNL     1      13.991  12.445  28.293  1.00  0.00     0.012 C 
ATOM     13  C   UNL     1      11.891  13.845  26.893  1.00  0.00     0.017 C 
ATOM     14  C   UNL     1      13.724  15.645  26.925  1.00  0.00    -0.064 C 
ATOM     15  C   UNL     1      15.060  16.017  28.955  1.00  0.00     0.032 C 
ATOM     16  C   UNL     1      14.850  16.198  27.469  1.00  0.00    -0.064 C 
ATOM     17  C   UNL     1      13.340  15.901  25.468  1.00  0.00     0.032 C 
ATOM     18  C   UNL     1      15.831  17.096  26.676  1.00  0.00    -0.008 C 
ATOM     19  C   UNL     1      14.140  16.994  24.765  1.00  0.00     0.009 C 
ATOM     20  C   UNL     1      15.626  16.886  25.135  1.00  0.00     0.007 C 
ATOM     21  C   UNL     1      17.313  16.719  27.034  1.00  0.00     0.014 C 
ATOM     22  C   UNL     1      15.540  18.552  27.136  1.00  0.00     0.016 C 
ATOM     23  C   UNL     1      16.607  17.699  24.186  1.00  0.00    -0.006 C 
ATOM     24  C   UNL     1      18.323  16.805  25.870  1.00  0.00     0.033 C 
ATOM     25  C   UNL     1      17.993  17.939  24.894  1.00  0.00     0.120 C 
ATOM     26  C   UNL     1      16.826  16.868  22.888  1.00  0.00     0.014 C 
ATOM     27  C   UNL     1      16.015  19.067  23.756  1.00  0.00     0.014 C 
BRANCH  25  28
ATOM     28  O   UNL     1      19.047  18.043  23.966  1.00  0.00    -0.393 OA
ATOM     29  H   UNL     1      19.798  17.494  24.312  1.00  0.00     0.210 HD
ENDBRANCH  25  28
ENDBRANCH   2   6
ENDBRANCH   1   2
BRANCH   1  30
ATOM     30  C   UNL     1      14.701  13.876  33.251  1.00  0.00     0.031 C 
BRANCH  30  31
ATOM     31  C   UNL     1      13.383  13.912  34.003  1.00  0.00    -0.075 C 
ATOM     32  C   UNL     1      12.372  14.658  33.516  1.00  0.00     0.008 C 
BRANCH  31  33
ATOM     33  C   UNL     1      13.172  12.989  35.199  1.00  0.00     0.008 C 
ATOM     34  C   UNL     1      12.008  12.005  34.983  1.00  0.00     0.012 C 
ATOM     35  C   UNL     1      14.466  12.233  35.525  1.00  0.00     0.012 C 
ENDBRANCH  31  33
ENDBRANCH  30  31
ENDBRANCH   1  30
TORSDOF 7
ENDMDL
