MODEL 1
REMARK VINA RESULT:    -5.647      0.000      0.000
REMARK INTER + INTRA:         -10.735
REMARK INTER:                  -9.609
REMARK INTRA:                  -1.126
REMARK UNBOUND:                -1.126
REMARK SMILES CCCCCCCCCCCCCC(=O)[O-]
REMARK SMILES IDX 8 1 9 2 10 3 11 4 12 5 13 6 14 7 15 8 16 9 7 10 6 11 5 12
REMARK SMILES IDX 4 13 3 14 2 15 1 16
REMARK H PARENT
REMARK Flexibility Score: inf
ROOT
ATOM      1  C   UNL     1      10.720   3.281  54.470  1.00  0.00     0.000 C 
ENDROOT
BRANCH   1   2
ATOM      2  C   UNL     1       9.483   4.151  54.759  1.00  0.00     0.000 C 
BRANCH   2   3
ATOM      3  C   UNL     1       9.709   5.130  55.923  1.00  0.00     0.000 C 
BRANCH   3   4
ATOM      4  C   UNL     1       9.793   6.592  55.460  1.00  0.00     0.000 C 
BRANCH   4   5
ATOM      5  C   UNL     1      11.256   7.035  55.304  1.00  0.00     0.006 C 
BRANCH   5   6
ATOM      6  C   UNL     1      11.486   7.837  54.017  1.00  0.00     0.053 C 
BRANCH   6   7
ATOM      7  C   UNL     1      11.381   6.972  52.797  1.00  0.00     0.041 C 
ATOM      8  O   UNL     1      12.160   5.994  52.645  1.00  0.00    -0.550 OA
ATOM      9  O   UNL     1      10.403   7.229  51.846  1.00  0.00    -0.550 OA
ENDBRANCH   6   7
ENDBRANCH   5   6
ENDBRANCH   4   5
ENDBRANCH   3   4
ENDBRANCH   2   3
ENDBRANCH   1   2
BRANCH   1  10
ATOM     10  C   UNL     1      11.726   3.283  55.632  1.00  0.00     0.000 C 
BRANCH  10  11
ATOM     11  C   UNL     1      13.063   3.940  55.260  1.00  0.00    -0.000 C 
BRANCH  11  12
ATOM     12  C   UNL     1      14.204   3.393  56.134  1.00  0.00    -0.000 C 
BRANCH  12  13
ATOM     13  C   UNL     1      15.592   3.633  55.521  1.00  0.00    -0.000 C 
BRANCH  13  14
ATOM     14  C   UNL     1      16.391   2.331  55.338  1.00  0.00    -0.000 C 
BRANCH  14  15
ATOM     15  C   UNL     1      15.883   1.197  56.243  1.00  0.00    -0.003 C 
ATOM     16  C   UNL     1      16.527  -0.152  55.923  1.00  0.00     0.004 C 
ENDBRANCH  14  15
ENDBRANCH  13  14
ENDBRANCH  12  13
ENDBRANCH  11  12
ENDBRANCH  10  11
ENDBRANCH   1  10
TORSDOF 12
ENDMDL
MODEL 2
REMARK VINA RESULT:    -5.506      3.474      6.833
REMARK INTER + INTRA:         -10.494
REMARK INTER:                  -9.106
REMARK INTRA:                  -1.388
REMARK UNBOUND:                -1.126
REMARK SMILES CCCCCCCCCCCCCC(=O)[O-]
REMARK SMILES IDX 8 1 9 2 10 3 11 4 12 5 13 6 14 7 15 8 16 9 7 10 6 11 5 12
REMARK SMILES IDX 4 13 3 14 2 15 1 16
REMARK H PARENT
REMARK Flexibility Score: inf
ROOT
ATOM      1  C   UNL     1      11.759   3.309  54.967  1.00  0.00     0.000 C 
ENDROOT
BRANCH   1   2
ATOM      2  C   UNL     1      12.579   4.244  55.873  1.00  0.00     0.000 C 
BRANCH   2   3
ATOM      3  C   UNL     1      13.861   3.580  56.402  1.00  0.00     0.000 C 
BRANCH   3   4
ATOM      4  C   UNL     1      15.076   3.832  55.497  1.00  0.00     0.000 C 
BRANCH   4   5
ATOM      5  C   UNL     1      16.080   2.672  55.591  1.00  0.00     0.006 C 
BRANCH   5   6
ATOM      6  C   UNL     1      15.522   1.485  56.389  1.00  0.00     0.053 C 
BRANCH   6   7
ATOM      7  C   UNL     1      16.508   0.359  56.471  1.00  0.00     0.041 C 
ATOM      8  O   UNL     1      16.522  -0.537  55.587  1.00  0.00    -0.550 OA
ATOM      9  O   UNL     1      17.431   0.319  57.508  1.00  0.00    -0.550 OA
ENDBRANCH   6   7
ENDBRANCH   5   6
ENDBRANCH   4   5
ENDBRANCH   3   4
ENDBRANCH   2   3
ENDBRANCH   1   2
BRANCH   1  10
ATOM     10  C   UNL     1      11.558   3.884  53.555  1.00  0.00     0.000 C 
BRANCH  10  11
ATOM     11  C   UNL     1      12.370   5.164  53.312  1.00  0.00    -0.000 C 
BRANCH  11  12
ATOM     12  C   UNL     1      11.445   6.340  52.958  1.00  0.00    -0.000 C 
BRANCH  12  13
ATOM     13  C   UNL     1      11.778   7.618  53.743  1.00  0.00    -0.000 C 
BRANCH  13  14
ATOM     14  C   UNL     1      11.149   7.630  55.147  1.00  0.00    -0.000 C 
BRANCH  14  15
ATOM     15  C   UNL     1       9.654   7.270  55.124  1.00  0.00    -0.003 C 
ATOM     16  C   UNL     1       9.349   5.955  55.842  1.00  0.00     0.004 C 
ENDBRANCH  14  15
ENDBRANCH  13  14
ENDBRANCH  12  13
ENDBRANCH  11  12
ENDBRANCH  10  11
ENDBRANCH   1  10
TORSDOF 12
ENDMDL
MODEL 3
REMARK VINA RESULT:    -5.340      3.177      6.421
REMARK INTER + INTRA:         -10.212
REMARK INTER:                  -8.868
REMARK INTRA:                  -1.343
REMARK UNBOUND:                -1.126
REMARK SMILES CCCCCCCCCCCCCC(=O)[O-]
REMARK SMILES IDX 8 1 9 2 10 3 11 4 12 5 13 6 14 7 15 8 16 9 7 10 6 11 5 12
REMARK SMILES IDX 4 13 3 14 2 15 1 16
REMARK H PARENT
REMARK Flexibility Score: inf
ROOT
ATOM      1  C   UNL     1      10.851   3.408  55.237  1.00  0.00     0.000 C 
ENDROOT
BRANCH   1   2
ATOM      2  C   UNL     1      11.917   4.119  56.090  1.00  0.00     0.000 C 
BRANCH   2   3
ATOM      3  C   UNL     1      13.189   3.274  56.270  1.00  0.00     0.000 C 
BRANCH   3   4
ATOM      4  C   UNL     1      14.374   3.802  55.448  1.00  0.00     0.000 C 
BRANCH   4   5
ATOM      5  C   UNL     1      15.708   3.315  56.034  1.00  0.00     0.006 C 
BRANCH   5   6
ATOM      6  C   UNL     1      16.247   2.078  55.302  1.00  0.00     0.053 C 
BRANCH   6   7
ATOM      7  C   UNL     1      16.099   0.836  56.128  1.00  0.00     0.041 C 
ATOM      8  O   UNL     1      15.534   0.885  57.252  1.00  0.00    -0.550 OA
ATOM      9  O   UNL     1      16.557  -0.381  55.639  1.00  0.00    -0.550 OA
ENDBRANCH   6   7
ENDBRANCH   5   6
ENDBRANCH   4   5
ENDBRANCH   3   4
ENDBRANCH   2   3
ENDBRANCH   1   2
BRANCH   1  10
ATOM     10  C   UNL     1       9.519   4.175  55.198  1.00  0.00     0.000 C 
BRANCH  10  11
ATOM     11  C   UNL     1       9.579   5.511  55.954  1.00  0.00    -0.000 C 
BRANCH  11  12
ATOM     12  C   UNL     1       9.551   6.695  54.975  1.00  0.00    -0.000 C 
BRANCH  12  13
ATOM     13  C   UNL     1      10.726   7.665  55.178  1.00  0.00    -0.000 C 
BRANCH  13  14
ATOM     14  C   UNL     1      11.609   7.795  53.925  1.00  0.00    -0.000 C 
BRANCH  14  15
ATOM     15  C   UNL     1      11.255   6.759  52.846  1.00  0.00    -0.003 C 
ATOM     16  C   UNL     1      12.305   5.655  52.716  1.00  0.00     0.004 C 
ENDBRANCH  14  15
ENDBRANCH  13  14
ENDBRANCH  12  13
ENDBRANCH  11  12
ENDBRANCH  10  11
ENDBRANCH   1  10
TORSDOF 12
ENDMDL
MODEL 4
REMARK VINA RESULT:    -5.276      3.139      7.067
REMARK INTER + INTRA:         -10.102
REMARK INTER:                  -8.381
REMARK INTRA:                  -1.721
REMARK UNBOUND:                -1.126
REMARK SMILES CCCCCCCCCCCCCC(=O)[O-]
REMARK SMILES IDX 8 1 9 2 10 3 11 4 12 5 13 6 14 7 15 8 16 9 7 10 6 11 5 12
REMARK SMILES IDX 4 13 3 14 2 15 1 16
REMARK H PARENT
REMARK Flexibility Score: inf
ROOT
ATOM      1  C   UNL     1      11.734   7.637  53.868  1.00  0.00     0.000 C 
ENDROOT
BRANCH   1   2
ATOM      2  C   UNL     1      11.522   6.546  52.803  1.00  0.00     0.000 C 
BRANCH   2   3
ATOM      3  C   UNL     1      12.542   5.402  52.920  1.00  0.00     0.000 C 
BRANCH   3   4
ATOM      4  C   UNL     1      11.878   4.019  52.991  1.00  0.00     0.000 C 
BRANCH   4   5
ATOM      5  C   UNL     1      11.412   3.708  54.422  1.00  0.00     0.006 C 
BRANCH   5   6
ATOM      6  C   UNL     1      12.559   3.794  55.438  1.00  0.00     0.053 C 
BRANCH   6   7
ATOM      7  C   UNL     1      12.096   3.478  56.827  1.00  0.00     0.041 C 
ATOM      8  O   UNL     1      11.346   4.280  57.444  1.00  0.00    -0.550 OA
ATOM      9  O   UNL     1      12.466   2.281  57.427  1.00  0.00    -0.550 OA
ENDBRANCH   6   7
ENDBRANCH   5   6
ENDBRANCH   4   5
ENDBRANCH   3   4
ENDBRANCH   2   3
ENDBRANCH   1   2
BRANCH   1  10
ATOM     10  C   UNL     1      11.062   7.292  55.207  1.00  0.00     0.000 C 
BRANCH  10  11
ATOM     11  C   UNL     1       9.581   6.916  55.050  1.00  0.00    -0.000 C 
BRANCH  11  12
ATOM     12  C   UNL     1       8.685   8.159  55.173  1.00  0.00    -0.000 C 
BRANCH  12  13
ATOM     13  C   UNL     1       8.131   8.630  53.819  1.00  0.00    -0.000 C 
BRANCH  13  14
ATOM     14  C   UNL     1       8.833   9.898  53.302  1.00  0.00    -0.000 C 
BRANCH  14  15
ATOM     15  C   UNL     1       9.344   9.740  51.860  1.00  0.00    -0.003 C 
ATOM     16  C   UNL     1       8.862   8.450  51.197  1.00  0.00     0.004 C 
ENDBRANCH  14  15
ENDBRANCH  13  14
ENDBRANCH  12  13
ENDBRANCH  11  12
ENDBRANCH  10  11
ENDBRANCH   1  10
TORSDOF 12
ENDMDL
MODEL 5
REMARK VINA RESULT:    -5.273      1.528      1.946
REMARK INTER + INTRA:         -10.098
REMARK INTER:                  -9.172
REMARK INTRA:                  -0.926
REMARK UNBOUND:                -1.126
REMARK SMILES CCCCCCCCCCCCCC(=O)[O-]
REMARK SMILES IDX 8 1 9 2 10 3 11 4 12 5 13 6 14 7 15 8 16 9 7 10 6 11 5 12
REMARK SMILES IDX 4 13 3 14 2 15 1 16
REMARK H PARENT
REMARK Flexibility Score: inf
ROOT
ATOM      1  C   UNL     1      10.707   3.382  54.619  1.00  0.00     0.000 C 
ENDROOT
BRANCH   1   2
ATOM      2  C   UNL     1       9.451   4.229  54.887  1.00  0.00     0.000 C 
BRANCH   2   3
ATOM      3  C   UNL     1       9.670   5.277  55.991  1.00  0.00     0.000 C 
BRANCH   3   4
ATOM      4  C   UNL     1       9.452   6.714  55.496  1.00  0.00     0.000 C 
BRANCH   4   5
ATOM      5  C   UNL     1       9.499   6.780  53.962  1.00  0.00     0.006 C 
BRANCH   5   6
ATOM      6  C   UNL     1       8.376   7.652  53.383  1.00  0.00     0.053 C 
BRANCH   6   7
ATOM      7  C   UNL     1       8.720   8.165  52.018  1.00  0.00     0.041 C 
ATOM      8  O   UNL     1       9.679   7.664  51.375  1.00  0.00    -0.550 OA
ATOM      9  O   UNL     1       7.959   9.175  51.444  1.00  0.00    -0.550 OA
ENDBRANCH   6   7
ENDBRANCH   5   6
ENDBRANCH   4   5
ENDBRANCH   3   4
ENDBRANCH   2   3
ENDBRANCH   1   2
BRANCH   1  10
ATOM     10  C   UNL     1      11.539   3.916  53.442  1.00  0.00     0.000 C 
BRANCH  10  11
ATOM     11  C   UNL     1      12.870   4.538  53.888  1.00  0.00    -0.000 C 
BRANCH  11  12
ATOM     12  C   UNL     1      13.142   4.245  55.372  1.00  0.00    -0.000 C 
BRANCH  12  13
ATOM     13  C   UNL     1      14.625   3.969  55.663  1.00  0.00    -0.000 C 
BRANCH  13  14
ATOM     14  C   UNL     1      14.870   2.540  56.178  1.00  0.00    -0.000 C 
BRANCH  14  15
ATOM     15  C   UNL     1      16.190   1.947  55.658  1.00  0.00    -0.003 C 
ATOM     16  C   UNL     1      16.500   0.574  56.256  1.00  0.00     0.004 C 
ENDBRANCH  14  15
ENDBRANCH  13  14
ENDBRANCH  12  13
ENDBRANCH  11  12
ENDBRANCH  10  11
ENDBRANCH   1  10
TORSDOF 12
ENDMDL
MODEL 6
REMARK VINA RESULT:    -5.183      3.000      7.053
REMARK INTER + INTRA:          -9.945
REMARK INTER:                  -8.229
REMARK INTRA:                  -1.716
REMARK UNBOUND:                -1.126
REMARK SMILES CCCCCCCCCCCCCC(=O)[O-]
REMARK SMILES IDX 8 1 9 2 10 3 11 4 12 5 13 6 14 7 15 8 16 9 7 10 6 11 5 12
REMARK SMILES IDX 4 13 3 14 2 15 1 16
REMARK H PARENT
REMARK Flexibility Score: inf
ROOT
ATOM      1  C   UNL     1      11.607   7.742  54.364  1.00  0.00     0.000 C 
ENDROOT
BRANCH   1   2
ATOM      2  C   UNL     1      11.027   6.705  53.386  1.00  0.00     0.000 C 
BRANCH   2   3
ATOM      3  C   UNL     1      12.119   5.879  52.685  1.00  0.00     0.000 C 
BRANCH   3   4
ATOM      4  C   UNL     1      12.105   4.401  53.102  1.00  0.00     0.000 C 
BRANCH   4   5
ATOM      5  C   UNL     1      12.702   4.222  54.506  1.00  0.00     0.006 C 
BRANCH   5   6
ATOM      6  C   UNL     1      11.801   3.376  55.416  1.00  0.00     0.053 C 
BRANCH   6   7
ATOM      7  C   UNL     1      10.676   4.184  55.989  1.00  0.00     0.041 C 
ATOM      8  O   UNL     1      10.878   4.945  56.971  1.00  0.00    -0.550 OA
ATOM      9  O   UNL     1       9.413   4.120  55.415  1.00  0.00    -0.550 OA
ENDBRANCH   6   7
ENDBRANCH   5   6
ENDBRANCH   4   5
ENDBRANCH   3   4
ENDBRANCH   2   3
ENDBRANCH   1   2
BRANCH   1  10
ATOM     10  C   UNL     1      10.529   8.381  55.254  1.00  0.00     0.000 C 
BRANCH  10  11
ATOM     11  C   UNL     1       9.173   7.668  55.151  1.00  0.00    -0.000 C 
BRANCH  11  12
ATOM     12  C   UNL     1       8.052   8.667  54.821  1.00  0.00    -0.000 C 
BRANCH  12  13
ATOM     13  C   UNL     1       7.655   8.648  53.337  1.00  0.00    -0.000 C 
BRANCH  13  14
ATOM     14  C   UNL     1       8.163   9.884  52.573  1.00  0.00    -0.000 C 
BRANCH  14  15
ATOM     15  C   UNL     1       9.449   9.597  51.781  1.00  0.00    -0.003 C 
ATOM     16  C   UNL     1       9.265   8.509  50.723  1.00  0.00     0.004 C 
ENDBRANCH  14  15
ENDBRANCH  13  14
ENDBRANCH  12  13
ENDBRANCH  11  12
ENDBRANCH  10  11
ENDBRANCH   1  10
TORSDOF 12
ENDMDL
MODEL 7
REMARK VINA RESULT:    -5.151      3.041      6.379
REMARK INTER + INTRA:          -9.890
REMARK INTER:                  -8.452
REMARK INTRA:                  -1.438
REMARK UNBOUND:                -1.126
REMARK SMILES CCCCCCCCCCCCCC(=O)[O-]
REMARK SMILES IDX 8 1 9 2 10 3 11 4 12 5 13 6 14 7 15 8 16 9 7 10 6 11 5 12
REMARK SMILES IDX 4 13 3 14 2 15 1 16
REMARK H PARENT
REMARK Flexibility Score: inf
ROOT
ATOM      1  C   UNL     1      11.788   4.127  52.958  1.00  0.00     0.000 C 
ENDROOT
BRANCH   1   2
ATOM      2  C   UNL     1      11.157   3.361  54.134  1.00  0.00     0.000 C 
BRANCH   2   3
ATOM      3  C   UNL     1       9.873   4.029  54.652  1.00  0.00     0.000 C 
BRANCH   3   4
ATOM      4  C   UNL     1       9.924   4.326  56.157  1.00  0.00     0.000 C 
BRANCH   4   5
ATOM      5  C   UNL     1      11.372   4.536  56.626  1.00  0.00     0.006 C 
BRANCH   5   6
ATOM      6  C   UNL     1      11.794   3.508  57.684  1.00  0.00     0.053 C 
BRANCH   6   7
ATOM      7  C   UNL     1      12.996   2.725  57.249  1.00  0.00     0.041 C 
ATOM      8  O   UNL     1      13.769   3.187  56.369  1.00  0.00    -0.550 OA
ATOM      9  O   UNL     1      13.279   1.500  57.839  1.00  0.00    -0.550 OA
ENDBRANCH   6   7
ENDBRANCH   5   6
ENDBRANCH   4   5
ENDBRANCH   3   4
ENDBRANCH   2   3
ENDBRANCH   1   2
BRANCH   1  10
ATOM     10  C   UNL     1      12.371   5.485  53.383  1.00  0.00     0.000 C 
BRANCH  10  11
ATOM     11  C   UNL     1      11.619   6.674  52.770  1.00  0.00    -0.000 C 
BRANCH  11  12
ATOM     12  C   UNL     1      11.625   7.878  53.726  1.00  0.00    -0.000 C 
BRANCH  12  13
ATOM     13  C   UNL     1      10.701   7.680  54.938  1.00  0.00    -0.000 C 
BRANCH  13  14
ATOM     14  C   UNL     1       9.214   7.633  54.547  1.00  0.00    -0.000 C 
BRANCH  14  15
ATOM     15  C   UNL     1       8.386   8.720  55.253  1.00  0.00    -0.003 C 
ATOM     16  C   UNL     1       9.126  10.054  55.359  1.00  0.00     0.004 C 
ENDBRANCH  14  15
ENDBRANCH  13  14
ENDBRANCH  12  13
ENDBRANCH  11  12
ENDBRANCH  10  11
ENDBRANCH   1  10
TORSDOF 12
ENDMDL
MODEL 8
REMARK VINA RESULT:    -5.143      1.504      2.025
REMARK INTER + INTRA:          -9.877
REMARK INTER:                  -8.882
REMARK INTRA:                  -0.995
REMARK UNBOUND:                -1.126
REMARK SMILES CCCCCCCCCCCCCC(=O)[O-]
REMARK SMILES IDX 8 1 9 2 10 3 11 4 12 5 13 6 14 7 15 8 16 9 7 10 6 11 5 12
REMARK SMILES IDX 4 13 3 14 2 15 1 16
REMARK H PARENT
REMARK Flexibility Score: inf
ROOT
ATOM      1  C   UNL     1      12.057   4.111  54.903  1.00  0.00     0.000 C 
ENDROOT
BRANCH   1   2
ATOM      2  C   UNL     1      10.624   3.568  55.036  1.00  0.00     0.000 C 
BRANCH   2   3
ATOM      3  C   UNL     1       9.559   4.664  54.869  1.00  0.00     0.000 C 
BRANCH   3   4
ATOM      4  C   UNL     1       9.653   5.753  55.949  1.00  0.00     0.000 C 
BRANCH   4   5
ATOM      5  C   UNL     1       9.149   7.102  55.413  1.00  0.00     0.006 C 
BRANCH   5   6
ATOM      6  C   UNL     1       9.733   7.433  54.033  1.00  0.00     0.053 C 
BRANCH   6   7
ATOM      7  C   UNL     1      11.191   7.769  54.114  1.00  0.00     0.041 C 
ATOM      8  O   UNL     1      12.002   7.277  53.285  1.00  0.00    -0.550 OA
ATOM      9  O   UNL     1      11.649   8.649  55.085  1.00  0.00    -0.550 OA
ENDBRANCH   6   7
ENDBRANCH   5   6
ENDBRANCH   4   5
ENDBRANCH   3   4
ENDBRANCH   2   3
ENDBRANCH   1   2
BRANCH   1  10
ATOM     10  C   UNL     1      12.787   4.185  56.254  1.00  0.00     0.000 C 
BRANCH  10  11
ATOM     11  C   UNL     1      12.104   3.349  57.346  1.00  0.00    -0.000 C 
BRANCH  11  12
ATOM     12  C   UNL     1      12.862   2.033  57.583  1.00  0.00    -0.000 C 
BRANCH  12  13
ATOM     13  C   UNL     1      14.157   1.935  56.760  1.00  0.00    -0.000 C 
BRANCH  13  14
ATOM     14  C   UNL     1      15.057   0.771  57.211  1.00  0.00    -0.000 C 
BRANCH  14  15
ATOM     15  C   UNL     1      16.352   0.677  56.387  1.00  0.00    -0.003 C 
ATOM     16  C   UNL     1      16.536   1.859  55.435  1.00  0.00     0.004 C 
ENDBRANCH  14  15
ENDBRANCH  13  14
ENDBRANCH  12  13
ENDBRANCH  11  12
ENDBRANCH  10  11
ENDBRANCH   1  10
TORSDOF 12
ENDMDL
MODEL 9
REMARK VINA RESULT:    -5.083      3.460      7.289
REMARK INTER + INTRA:          -9.775
REMARK INTER:                  -8.098
REMARK INTRA:                  -1.677
REMARK UNBOUND:                -1.126
REMARK SMILES CCCCCCCCCCCCCC(=O)[O-]
REMARK SMILES IDX 8 1 9 2 10 3 11 4 12 5 13 6 14 7 15 8 16 9 7 10 6 11 5 12
REMARK SMILES IDX 4 13 3 14 2 15 1 16
REMARK H PARENT
REMARK Flexibility Score: inf
ROOT
ATOM      1  C   UNL     1      10.974   9.421  55.517  1.00  0.00     0.000 C 
ENDROOT
BRANCH   1   2
ATOM      2  C   UNL     1      11.172   7.957  55.084  1.00  0.00     0.000 C 
BRANCH   2   3
ATOM      3  C   UNL     1      11.735   7.835  53.658  1.00  0.00     0.000 C 
BRANCH   3   4
ATOM      4  C   UNL     1      11.307   6.535  52.961  1.00  0.00     0.000 C 
BRANCH   4   5
ATOM      5  C   UNL     1      12.475   5.538  52.894  1.00  0.00     0.006 C 
BRANCH   5   6
ATOM      6  C   UNL     1      11.996   4.081  52.911  1.00  0.00     0.053 C 
BRANCH   6   7
ATOM      7  C   UNL     1      11.399   3.708  54.235  1.00  0.00     0.041 C 
ATOM      8  O   UNL     1      10.262   3.170  54.289  1.00  0.00    -0.550 OA
ATOM      9  O   UNL     1      12.115   3.926  55.405  1.00  0.00    -0.550 OA
ENDBRANCH   6   7
ENDBRANCH   5   6
ENDBRANCH   4   5
ENDBRANCH   3   4
ENDBRANCH   2   3
ENDBRANCH   1   2
BRANCH   1  10
ATOM     10  C   UNL     1       9.490   9.807  55.628  1.00  0.00     0.000 C 
BRANCH  10  11
ATOM     11  C   UNL     1       8.546   8.633  55.334  1.00  0.00    -0.000 C 
BRANCH  11  12
ATOM     12  C   UNL     1       7.191   9.137  54.811  1.00  0.00    -0.000 C 
BRANCH  12  13
ATOM     13  C   UNL     1       7.076   9.055  53.280  1.00  0.00    -0.000 C 
BRANCH  13  14
ATOM     14  C   UNL     1       8.070   8.055  52.665  1.00  0.00    -0.000 C 
BRANCH  14  15
ATOM     15  C   UNL     1       8.764   8.612  51.411  1.00  0.00    -0.003 C 
ATOM     16  C   UNL     1       9.431   9.966  51.654  1.00  0.00     0.004 C 
ENDBRANCH  14  15
ENDBRANCH  13  14
ENDBRANCH  12  13
ENDBRANCH  11  12
ENDBRANCH  10  11
ENDBRANCH   1  10
TORSDOF 12
ENDMDL
