MODEL 1
REMARK VINA RESULT:    -3.656      0.000      0.000
REMARK INTER + INTRA:          -4.313
REMARK INTER:                  -4.297
REMARK INTRA:                  -0.017
REMARK UNBOUND:                -0.017
REMARK SMILES CCCCC(=O)[O-]
REMARK SMILES IDX 4 1 5 2 6 3 7 4 3 5 2 6 1 7
REMARK H PARENT
REMARK Flexibility Score: inf
ROOT
ATOM      1  C   UNL     1      11.885   3.911  -5.884  1.00  0.00     0.053 C 
ENDROOT
BRANCH   1   2
ATOM      2  C   UNL     1      12.315   4.123  -7.301  1.00  0.00     0.041 C 
ATOM      3  O   UNL     1      12.882   3.196  -7.936  1.00  0.00    -0.550 OA
ATOM      4  O   UNL     1      12.045   5.328  -7.936  1.00  0.00    -0.550 OA
ENDBRANCH   1   2
BRANCH   1   5
ATOM      5  C   UNL     1      13.095   3.947  -4.946  1.00  0.00     0.006 C 
BRANCH   5   6
ATOM      6  C   UNL     1      12.705   4.489  -3.566  1.00  0.00    -0.003 C 
ATOM      7  C   UNL     1      13.124   3.528  -2.457  1.00  0.00     0.004 C 
ENDBRANCH   5   6
ENDBRANCH   1   5
TORSDOF 3
ENDMDL
MODEL 2
REMARK VINA RESULT:    -3.279     15.376     15.817
REMARK INTER + INTRA:          -3.871
REMARK INTER:                  -3.793
REMARK INTRA:                  -0.077
REMARK UNBOUND:                -0.017
REMARK SMILES CCCCC(=O)[O-]
REMARK SMILES IDX 4 1 5 2 6 3 7 4 3 5 2 6 1 7
REMARK H PARENT
REMARK Flexibility Score: inf
ROOT
ATOM      1  C   UNL     1       4.850   1.266   8.802  1.00  0.00     0.053 C 
ENDROOT
BRANCH   1   2
ATOM      2  C   UNL     1       4.632   1.423   7.330  1.00  0.00     0.041 C 
ATOM      3  O   UNL     1       5.322   0.757   6.514  1.00  0.00    -0.550 OA
ATOM      4  O   UNL     1       3.634   2.265   6.862  1.00  0.00    -0.550 OA
ENDBRANCH   1   2
BRANCH   1   5
ATOM      5  C   UNL     1       6.209   1.846   9.207  1.00  0.00     0.006 C 
BRANCH   5   6
ATOM      6  C   UNL     1       6.275   3.349   8.908  1.00  0.00    -0.003 C 
ATOM      7  C   UNL     1       7.475   3.995   9.595  1.00  0.00     0.004 C 
ENDBRANCH   5   6
ENDBRANCH   1   5
TORSDOF 3
ENDMDL
MODEL 3
REMARK VINA RESULT:    -3.176     15.522     16.675
REMARK INTER + INTRA:          -3.750
REMARK INTER:                  -3.712
REMARK INTRA:                  -0.038
REMARK UNBOUND:                -0.017
REMARK SMILES CCCCC(=O)[O-]
REMARK SMILES IDX 4 1 5 2 6 3 7 4 3 5 2 6 1 7
REMARK H PARENT
REMARK Flexibility Score: inf
ROOT
ATOM      1  C   UNL     1       3.882   1.761   8.258  1.00  0.00     0.053 C 
ENDROOT
BRANCH   1   2
ATOM      2  C   UNL     1       5.209   1.402   7.666  1.00  0.00     0.041 C 
ATOM      3  O   UNL     1       6.270   1.644   8.299  1.00  0.00    -0.550 OA
ATOM      4  O   UNL     1       5.270   0.756   6.439  1.00  0.00    -0.550 OA
ENDBRANCH   1   2
BRANCH   1   5
ATOM      5  C   UNL     1       3.759   3.280   8.416  1.00  0.00     0.006 C 
BRANCH   5   6
ATOM      6  C   UNL     1       2.534   3.646   9.263  1.00  0.00    -0.003 C 
ATOM      7  C   UNL     1       1.769   2.398   9.695  1.00  0.00     0.004 C 
ENDBRANCH   5   6
ENDBRANCH   1   5
TORSDOF 3
ENDMDL
MODEL 4
REMARK VINA RESULT:    -3.155      1.931      2.415
REMARK INTER + INTRA:          -3.725
REMARK INTER:                  -3.708
REMARK INTRA:                  -0.017
REMARK UNBOUND:                -0.017
REMARK SMILES CCCCC(=O)[O-]
REMARK SMILES IDX 4 1 5 2 6 3 7 4 3 5 2 6 1 7
REMARK H PARENT
REMARK Flexibility Score: inf
ROOT
ATOM      1  C   UNL     1      12.919   3.951  -4.080  1.00  0.00     0.053 C 
ENDROOT
BRANCH   1   2
ATOM      2  C   UNL     1      12.327   3.811  -5.447  1.00  0.00     0.041 C 
ATOM      3  O   UNL     1      11.105   3.546  -5.584  1.00  0.00    -0.550 OA
ATOM      4  O   UNL     1      13.116   4.023  -6.570  1.00  0.00    -0.550 OA
ENDBRANCH   1   2
BRANCH   1   5
ATOM      5  C   UNL     1      12.257   5.108  -3.325  1.00  0.00     0.006 C 
BRANCH   5   6
ATOM      6  C   UNL     1      12.993   5.400  -2.012  1.00  0.00    -0.003 C 
ATOM      7  C   UNL     1      12.427   6.640  -1.327  1.00  0.00     0.004 C 
ENDBRANCH   5   6
ENDBRANCH   1   5
TORSDOF 3
ENDMDL
MODEL 5
REMARK VINA RESULT:    -3.117      4.190      5.199
REMARK INTER + INTRA:          -3.680
REMARK INTER:                  -3.655
REMARK INTRA:                  -0.025
REMARK UNBOUND:                -0.017
REMARK SMILES CCCCC(=O)[O-]
REMARK SMILES IDX 4 1 5 2 6 3 7 4 3 5 2 6 1 7
REMARK H PARENT
REMARK Flexibility Score: inf
ROOT
ATOM      1  C   UNL     1      13.097   5.973  -2.646  1.00  0.00     0.053 C 
ENDROOT
BRANCH   1   2
ATOM      2  C   UNL     1      12.544   6.605  -1.408  1.00  0.00     0.041 C 
ATOM      3  O   UNL     1      11.579   6.069  -0.801  1.00  0.00    -0.550 OA
ATOM      4  O   UNL     1      13.124   7.757  -0.897  1.00  0.00    -0.550 OA
ENDBRANCH   1   2
BRANCH   1   5
ATOM      5  C   UNL     1      12.745   4.483  -2.691  1.00  0.00     0.006 C 
BRANCH   5   6
ATOM      6  C   UNL     1      13.125   3.869  -4.044  1.00  0.00    -0.003 C 
ATOM      7  C   UNL     1      11.998   4.035  -5.060  1.00  0.00     0.004 C 
ENDBRANCH   5   6
ENDBRANCH   1   5
TORSDOF 3
ENDMDL
MODEL 6
REMARK VINA RESULT:    -2.844     20.578     21.163
REMARK INTER + INTRA:          -3.359
REMARK INTER:                  -3.337
REMARK INTRA:                  -0.022
REMARK UNBOUND:                -0.017
REMARK SMILES CCCCC(=O)[O-]
REMARK SMILES IDX 4 1 5 2 6 3 7 4 3 5 2 6 1 7
REMARK H PARENT
REMARK Flexibility Score: inf
ROOT
ATOM      1  C   UNL     1      -2.336   6.206   9.396  1.00  0.00     0.053 C 
ENDROOT
BRANCH   1   2
ATOM      2  C   UNL     1      -1.767   7.551   9.721  1.00  0.00     0.041 C 
ATOM      3  O   UNL     1      -2.521   8.478  10.116  1.00  0.00    -0.550 OA
ATOM      4  O   UNL     1      -0.399   7.766   9.634  1.00  0.00    -0.550 OA
ENDBRANCH   1   2
BRANCH   1   5
ATOM      5  C   UNL     1      -1.296   5.109   9.646  1.00  0.00     0.006 C 
BRANCH   5   6
ATOM      6  C   UNL     1      -1.694   3.805   8.944  1.00  0.00    -0.003 C 
ATOM      7  C   UNL     1      -1.062   2.596   9.628  1.00  0.00     0.004 C 
ENDBRANCH   5   6
ENDBRANCH   1   5
TORSDOF 3
ENDMDL
MODEL 7
REMARK VINA RESULT:    -2.703     18.782     19.774
REMARK INTER + INTRA:          -3.193
REMARK INTER:                  -3.174
REMARK INTRA:                  -0.019
REMARK UNBOUND:                -0.017
REMARK SMILES CCCCC(=O)[O-]
REMARK SMILES IDX 4 1 5 2 6 3 7 4 3 5 2 6 1 7
REMARK H PARENT
REMARK Flexibility Score: inf
ROOT
ATOM      1  C   UNL     1      -0.496   4.851   9.704  1.00  0.00     0.053 C 
ENDROOT
BRANCH   1   2
ATOM      2  C   UNL     1      -1.728   4.798   8.858  1.00  0.00     0.041 C 
ATOM      3  O   UNL     1      -2.341   3.710   8.700  1.00  0.00    -0.550 OA
ATOM      4  O   UNL     1      -2.227   5.959   8.284  1.00  0.00    -0.550 OA
ENDBRANCH   1   2
BRANCH   1   5
ATOM      5  C   UNL     1       0.370   3.610   9.469  1.00  0.00     0.006 C 
BRANCH   5   6
ATOM      6  C   UNL     1       1.862   3.957   9.551  1.00  0.00    -0.003 C 
ATOM      7  C   UNL     1       2.729   2.741   9.238  1.00  0.00     0.004 C 
ENDBRANCH   5   6
ENDBRANCH   1   5
TORSDOF 3
ENDMDL
MODEL 8
REMARK VINA RESULT:    -2.701     17.974     19.017
REMARK INTER + INTRA:          -3.192
REMARK INTER:                  -3.105
REMARK INTRA:                  -0.087
REMARK UNBOUND:                -0.017
REMARK SMILES CCCCC(=O)[O-]
REMARK SMILES IDX 4 1 5 2 6 3 7 4 3 5 2 6 1 7
REMARK H PARENT
REMARK Flexibility Score: inf
ROOT
ATOM      1  C   UNL     1       2.936  11.393   8.997  1.00  0.00     0.053 C 
ENDROOT
BRANCH   1   2
ATOM      2  C   UNL     1       1.659  10.622   9.105  1.00  0.00     0.041 C 
ATOM      3  O   UNL     1       0.823  10.905  10.003  1.00  0.00    -0.550 OA
ATOM      4  O   UNL     1       1.369   9.624   8.184  1.00  0.00    -0.550 OA
ENDBRANCH   1   2
BRANCH   1   5
ATOM      5  C   UNL     1       2.753  12.609   8.084  1.00  0.00     0.006 C 
BRANCH   5   6
ATOM      6  C   UNL     1       3.876  12.688   7.042  1.00  0.00    -0.003 C 
ATOM      7  C   UNL     1       4.028  11.367   6.293  1.00  0.00     0.004 C 
ENDBRANCH   5   6
ENDBRANCH   1   5
TORSDOF 3
ENDMDL
MODEL 9
REMARK VINA RESULT:    -2.672     20.348     21.012
REMARK INTER + INTRA:          -3.157
REMARK INTER:                  -3.140
REMARK INTRA:                  -0.018
REMARK UNBOUND:                -0.017
REMARK SMILES CCCCC(=O)[O-]
REMARK SMILES IDX 4 1 5 2 6 3 7 4 3 5 2 6 1 7
REMARK H PARENT
REMARK Flexibility Score: inf
ROOT
ATOM      1  C   UNL     1      -1.395   4.447   9.909  1.00  0.00     0.053 C 
ENDROOT
BRANCH   1   2
ATOM      2  C   UNL     1      -2.263   5.528   9.347  1.00  0.00     0.041 C 
ATOM      3  O   UNL     1      -3.052   6.160  10.096  1.00  0.00    -0.550 OA
ATOM      4  O   UNL     1      -2.165   5.870   8.005  1.00  0.00    -0.550 OA
ENDBRANCH   1   2
BRANCH   1   5
ATOM      5  C   UNL     1      -1.414   3.216   8.998  1.00  0.00     0.006 C 
BRANCH   5   6
ATOM      6  C   UNL     1      -1.471   1.924   9.823  1.00  0.00    -0.003 C 
ATOM      7  C   UNL     1      -0.071   1.380  10.094  1.00  0.00     0.004 C 
ENDBRANCH   5   6
ENDBRANCH   1   5
TORSDOF 3
ENDMDL
