MODEL 1
REMARK VINA RESULT:    -4.154      0.000      0.000
REMARK INTER + INTRA:          -5.140
REMARK INTER:                  -5.004
REMARK INTRA:                  -0.136
REMARK UNBOUND:                -0.136
REMARK SMILES NC(=O)C[C@@H]([NH3+])C(=O)[O-]
REMARK SMILES IDX 4 1 5 2 6 3 7 7 8 8 9 9 2 10 3 11 1 12
REMARK H PARENT 6 4 6 5 6 6 1 13 1 14
REMARK Flexibility Score: inf
ROOT
ATOM      1  C   UNL     1     -39.639  21.261 -29.468  1.00  0.00     0.171 C 
ENDROOT
BRANCH   1   2
ATOM      2  C   UNL     1     -38.779  19.993 -29.302  1.00  0.00     0.237 C 
BRANCH   2   3
ATOM      3  N   UNL     1     -39.479  18.968 -28.516  1.00  0.00    -0.350 N 
ATOM      4  H   UNL     1     -40.140  19.419 -27.843  1.00  0.00     0.345 HD
ATOM      5  H   UNL     1     -38.787  18.412 -27.960  1.00  0.00     0.345 HD
ATOM      6  H   UNL     1     -40.013  18.320 -29.141  1.00  0.00     0.345 HD
ENDBRANCH   2   3
BRANCH   2   7
ATOM      7  C   UNL     1     -38.417  19.446 -30.657  1.00  0.00     0.100 C 
ATOM      8  O   UNL     1     -37.788  20.160 -31.481  1.00  0.00    -0.544 OA
ATOM      9  O   UNL     1     -38.791  18.155 -31.015  1.00  0.00    -0.544 OA
ENDBRANCH   2   7
ENDBRANCH   1   2
BRANCH   1  10
ATOM     10  C   UNL     1     -38.985  22.461 -28.847  1.00  0.00     0.223 C 
ATOM     11  O   UNL     1     -37.729  22.562 -28.854  1.00  0.00    -0.275 OA
ATOM     12  N   UNL     1     -39.773  23.472 -28.219  1.00  0.00    -0.369 N 
ATOM     13  H   UNL     1     -40.814  23.393 -28.183  1.00  0.00     0.159 HD
ATOM     14  H   UNL     1     -39.313  24.300 -27.778  1.00  0.00     0.159 HD
ENDBRANCH   1  10
TORSDOF 4
ENDMDL
MODEL 2
REMARK VINA RESULT:    -4.128      1.914      3.527
REMARK INTER + INTRA:          -5.108
REMARK INTER:                  -4.700
REMARK INTRA:                  -0.409
REMARK UNBOUND:                -0.136
REMARK SMILES NC(=O)C[C@@H]([NH3+])C(=O)[O-]
REMARK SMILES IDX 4 1 5 2 6 3 7 7 8 8 9 9 2 10 3 11 1 12
REMARK H PARENT 6 4 6 5 6 6 1 13 1 14
REMARK Flexibility Score: inf
ROOT
ATOM      1  C   UNL     1     -38.783  19.587 -29.815  1.00  0.00     0.171 C 
ENDROOT
BRANCH   1   2
ATOM      2  C   UNL     1     -38.742  21.128 -29.838  1.00  0.00     0.237 C 
BRANCH   2   3
ATOM      3  N   UNL     1     -39.940  21.707 -29.215  1.00  0.00    -0.350 N 
ATOM      4  H   UNL     1     -40.430  22.335 -29.892  1.00  0.00     0.345 HD
ATOM      5  H   UNL     1     -39.665  22.284 -28.386  1.00  0.00     0.345 HD
ATOM      6  H   UNL     1     -40.598  20.955 -28.905  1.00  0.00     0.345 HD
ENDBRANCH   2   3
BRANCH   2   7
ATOM      7  C   UNL     1     -37.506  21.612 -29.129  1.00  0.00     0.100 C 
ATOM      8  O   UNL     1     -37.498  22.741 -28.571  1.00  0.00    -0.544 OA
ATOM      9  O   UNL     1     -36.360  20.825 -29.099  1.00  0.00    -0.544 OA
ENDBRANCH   2   7
ENDBRANCH   1   2
BRANCH   1  10
ATOM     10  C   UNL     1     -39.098  19.061 -28.444  1.00  0.00     0.223 C 
ATOM     11  O   UNL     1     -40.260  19.195 -27.975  1.00  0.00    -0.275 OA
ATOM     12  N   UNL     1     -38.083  18.441 -27.655  1.00  0.00    -0.369 N 
ATOM     13  H   UNL     1     -37.109  18.344 -28.018  1.00  0.00     0.159 HD
ATOM     14  H   UNL     1     -38.304  18.087 -26.698  1.00  0.00     0.159 HD
ENDBRANCH   1  10
TORSDOF 4
ENDMDL
MODEL 3
REMARK VINA RESULT:    -4.109      2.240      3.340
REMARK INTER + INTRA:          -5.085
REMARK INTER:                  -4.951
REMARK INTRA:                  -0.135
REMARK UNBOUND:                -0.136
REMARK SMILES NC(=O)C[C@@H]([NH3+])C(=O)[O-]
REMARK SMILES IDX 4 1 5 2 6 3 7 7 8 8 9 9 2 10 3 11 1 12
REMARK H PARENT 6 4 6 5 6 6 1 13 1 14
REMARK Flexibility Score: inf
ROOT
ATOM      1  C   UNL     1     -39.080  19.055 -29.924  1.00  0.00     0.171 C 
ENDROOT
BRANCH   1   2
ATOM      2  C   UNL     1     -38.242  20.270 -30.369  1.00  0.00     0.237 C 
BRANCH   2   3
ATOM      3  N   UNL     1     -38.222  20.402 -31.832  1.00  0.00    -0.350 N 
ATOM      4  H   UNL     1     -37.807  21.322 -32.105  1.00  0.00     0.345 HD
ATOM      5  H   UNL     1     -39.199  20.369 -32.205  1.00  0.00     0.345 HD
ATOM      6  H   UNL     1     -37.665  19.630 -32.267  1.00  0.00     0.345 HD
ENDBRANCH   2   3
BRANCH   2   7
ATOM      7  C   UNL     1     -38.796  21.523 -29.746  1.00  0.00     0.100 C 
ATOM      8  O   UNL     1     -38.050  22.274 -29.064  1.00  0.00    -0.544 OA
ATOM      9  O   UNL     1     -40.138  21.851 -29.903  1.00  0.00    -0.544 OA
ENDBRANCH   2   7
ENDBRANCH   1   2
BRANCH   1  10
ATOM     10  C   UNL     1     -39.260  19.020 -28.434  1.00  0.00     0.223 C 
ATOM     11  O   UNL     1     -38.338  18.570 -27.704  1.00  0.00    -0.275 OA
ATOM     12  N   UNL     1     -40.482  19.459 -27.841  1.00  0.00    -0.369 N 
ATOM     13  H   UNL     1     -41.267  19.811 -28.433  1.00  0.00     0.159 HD
ATOM     14  H   UNL     1     -40.607  19.421 -26.805  1.00  0.00     0.159 HD
ENDBRANCH   1  10
TORSDOF 4
ENDMDL
MODEL 4
REMARK VINA RESULT:    -4.083      2.514      3.830
REMARK INTER + INTRA:          -5.054
REMARK INTER:                  -4.914
REMARK INTRA:                  -0.140
REMARK UNBOUND:                -0.136
REMARK SMILES NC(=O)C[C@@H]([NH3+])C(=O)[O-]
REMARK SMILES IDX 4 1 5 2 6 3 7 7 8 8 9 9 2 10 3 11 1 12
REMARK H PARENT 6 4 6 5 6 6 1 13 1 14
REMARK Flexibility Score: inf
ROOT
ATOM      1  C   UNL     1     -37.524  18.948 -29.850  1.00  0.00     0.171 C 
ENDROOT
BRANCH   1   2
ATOM      2  C   UNL     1     -38.383  18.598 -28.619  1.00  0.00     0.237 C 
BRANCH   2   3
ATOM      3  N   UNL     1     -37.562  18.485 -27.406  1.00  0.00    -0.350 N 
ATOM      4  H   UNL     1     -37.942  19.105 -26.655  1.00  0.00     0.345 HD
ATOM      5  H   UNL     1     -36.583  18.793 -27.609  1.00  0.00     0.345 HD
ATOM      6  H   UNL     1     -37.543  17.497 -27.060  1.00  0.00     0.345 HD
ENDBRANCH   2   3
BRANCH   2   7
ATOM      7  C   UNL     1     -39.444  19.649 -28.427  1.00  0.00     0.100 C 
ATOM      8  O   UNL     1     -40.541  19.348 -27.888  1.00  0.00    -0.544 OA
ATOM      9  O   UNL     1     -39.227  20.952 -28.861  1.00  0.00    -0.544 OA
ENDBRANCH   2   7
ENDBRANCH   1   2
BRANCH   1  10
ATOM     10  C   UNL     1     -38.337  18.952 -31.112  1.00  0.00     0.223 C 
ATOM     11  O   UNL     1     -38.900  17.893 -31.496  1.00  0.00    -0.275 OA
ATOM     12  N   UNL     1     -38.448  20.138 -31.899  1.00  0.00    -0.369 N 
ATOM     13  H   UNL     1     -37.967  21.018 -31.608  1.00  0.00     0.159 HD
ATOM     14  H   UNL     1     -39.005  20.133 -32.782  1.00  0.00     0.159 HD
ENDBRANCH   1  10
TORSDOF 4
ENDMDL
MODEL 5
REMARK VINA RESULT:    -4.051      2.941      3.395
REMARK INTER + INTRA:          -5.016
REMARK INTER:                  -4.673
REMARK INTRA:                  -0.343
REMARK UNBOUND:                -0.136
REMARK SMILES NC(=O)C[C@@H]([NH3+])C(=O)[O-]
REMARK SMILES IDX 4 1 5 2 6 3 7 7 8 8 9 9 2 10 3 11 1 12
REMARK H PARENT 6 4 6 5 6 6 1 13 1 14
REMARK Flexibility Score: inf
ROOT
ATOM      1  C   UNL     1     -37.448  19.838 -28.955  1.00  0.00     0.171 C 
ENDROOT
BRANCH   1   2
ATOM      2  C   UNL     1     -37.536  19.524 -30.462  1.00  0.00     0.237 C 
BRANCH   2   3
ATOM      3  N   UNL     1     -38.361  18.336 -30.715  1.00  0.00    -0.350 N 
ATOM      4  H   UNL     1     -38.189  17.978 -31.682  1.00  0.00     0.345 HD
ATOM      5  H   UNL     1     -39.375  18.585 -30.643  1.00  0.00     0.345 HD
ATOM      6  H   UNL     1     -38.146  17.579 -30.025  1.00  0.00     0.345 HD
ENDBRANCH   2   3
BRANCH   2   7
ATOM      7  C   UNL     1     -38.103  20.711 -31.194  1.00  0.00     0.100 C 
ATOM      8  O   UNL     1     -39.198  21.215 -30.829  1.00  0.00    -0.544 OA
ATOM      9  O   UNL     1     -37.432  21.248 -32.287  1.00  0.00    -0.544 OA
ENDBRANCH   2   7
ENDBRANCH   1   2
BRANCH   1  10
ATOM     10  C   UNL     1     -38.212  18.841 -28.134  1.00  0.00     0.223 C 
ATOM     11  O   UNL     1     -39.472  18.876 -28.122  1.00  0.00    -0.275 OA
ATOM     12  N   UNL     1     -37.524  17.875 -27.340  1.00  0.00    -0.369 N 
ATOM     13  H   UNL     1     -36.480  17.847 -27.319  1.00  0.00     0.159 HD
ATOM     14  H   UNL     1     -38.060  17.191 -26.761  1.00  0.00     0.159 HD
ENDBRANCH   1  10
TORSDOF 4
ENDMDL
MODEL 6
REMARK VINA RESULT:    -4.017      1.521      1.888
REMARK INTER + INTRA:          -4.975
REMARK INTER:                  -4.853
REMARK INTRA:                  -0.122
REMARK UNBOUND:                -0.136
REMARK SMILES NC(=O)C[C@@H]([NH3+])C(=O)[O-]
REMARK SMILES IDX 4 1 5 2 6 3 7 7 8 8 9 9 2 10 3 11 1 12
REMARK H PARENT 6 4 6 5 6 6 1 13 1 14
REMARK Flexibility Score: inf
ROOT
ATOM      1  C   UNL     1     -39.326  19.663 -28.838  1.00  0.00     0.171 C 
ENDROOT
BRANCH   1   2
ATOM      2  C   UNL     1     -37.958  18.952 -28.817  1.00  0.00     0.237 C 
BRANCH   2   3
ATOM      3  N   UNL     1     -37.745  18.236 -27.552  1.00  0.00    -0.350 N 
ATOM      4  H   UNL     1     -37.614  17.215 -27.734  1.00  0.00     0.345 HD
ATOM      5  H   UNL     1     -38.583  18.346 -26.936  1.00  0.00     0.345 HD
ATOM      6  H   UNL     1     -36.903  18.607 -27.052  1.00  0.00     0.345 HD
ENDBRANCH   2   3
BRANCH   2   7
ATOM      7  C   UNL     1     -37.868  17.993 -29.974  1.00  0.00     0.100 C 
ATOM      8  O   UNL     1     -37.042  17.043 -29.946  1.00  0.00    -0.544 OA
ATOM      9  O   UNL     1     -38.682  18.160 -31.088  1.00  0.00    -0.544 OA
ENDBRANCH   2   7
ENDBRANCH   1   2
BRANCH   1  10
ATOM     10  C   UNL     1     -39.191  21.117 -29.186  1.00  0.00     0.223 C 
ATOM     11  O   UNL     1     -38.046  21.619 -29.340  1.00  0.00    -0.275 OA
ATOM     12  N   UNL     1     -40.349  21.943 -29.310  1.00  0.00    -0.369 N 
ATOM     13  H   UNL     1     -41.305  21.549 -29.162  1.00  0.00     0.159 HD
ATOM     14  H   UNL     1     -40.249  22.956 -29.541  1.00  0.00     0.159 HD
ENDBRANCH   1  10
TORSDOF 4
ENDMDL
MODEL 7
REMARK VINA RESULT:    -4.012      2.749      3.358
REMARK INTER + INTRA:          -4.969
REMARK INTER:                  -4.617
REMARK INTRA:                  -0.352
REMARK UNBOUND:                -0.136
REMARK SMILES NC(=O)C[C@@H]([NH3+])C(=O)[O-]
REMARK SMILES IDX 4 1 5 2 6 3 7 7 8 8 9 9 2 10 3 11 1 12
REMARK H PARENT 6 4 6 5 6 6 1 13 1 14
REMARK Flexibility Score: inf
ROOT
ATOM      1  C   UNL     1     -37.961  19.222 -30.649  1.00  0.00     0.171 C 
ENDROOT
BRANCH   1   2
ATOM      2  C   UNL     1     -37.220  19.302 -29.300  1.00  0.00     0.237 C 
BRANCH   2   3
ATOM      3  N   UNL     1     -36.948  20.695 -28.918  1.00  0.00    -0.350 N 
ATOM      4  H   UNL     1     -37.724  21.063 -28.323  1.00  0.00     0.345 HD
ATOM      5  H   UNL     1     -36.891  21.293 -29.775  1.00  0.00     0.345 HD
ATOM      6  H   UNL     1     -36.046  20.767 -28.392  1.00  0.00     0.345 HD
ENDBRANCH   2   3
BRANCH   2   7
ATOM      7  C   UNL     1     -38.037  18.626 -28.232  1.00  0.00     0.100 C 
ATOM      8  O   UNL     1     -37.496  17.805 -27.445  1.00  0.00    -0.544 OA
ATOM      9  O   UNL     1     -39.398  18.888 -28.118  1.00  0.00    -0.544 OA
ENDBRANCH   2   7
ENDBRANCH   1   2
BRANCH   1  10
ATOM     10  C   UNL     1     -38.342  20.583 -31.155  1.00  0.00     0.223 C 
ATOM     11  O   UNL     1     -39.215  21.256 -30.545  1.00  0.00    -0.275 OA
ATOM     12  N   UNL     1     -37.748  21.106 -32.344  1.00  0.00    -0.369 N 
ATOM     13  H   UNL     1     -37.041  20.552 -32.876  1.00  0.00     0.159 HD
ATOM     14  H   UNL     1     -38.025  22.048 -32.699  1.00  0.00     0.159 HD
ENDBRANCH   1  10
TORSDOF 4
ENDMDL
MODEL 8
REMARK VINA RESULT:    -3.977      2.499      4.143
REMARK INTER + INTRA:          -4.927
REMARK INTER:                  -4.573
REMARK INTRA:                  -0.354
REMARK UNBOUND:                -0.136
REMARK SMILES NC(=O)C[C@@H]([NH3+])C(=O)[O-]
REMARK SMILES IDX 4 1 5 2 6 3 7 7 8 8 9 9 2 10 3 11 1 12
REMARK H PARENT 6 4 6 5 6 6 1 13 1 14
REMARK Flexibility Score: inf
ROOT
ATOM      1  C   UNL     1     -38.358  18.378 -30.258  1.00  0.00     0.171 C 
ENDROOT
BRANCH   1   2
ATOM      2  C   UNL     1     -38.892  19.004 -28.955  1.00  0.00     0.237 C 
BRANCH   2   3
ATOM      3  N   UNL     1     -38.156  18.513 -27.782  1.00  0.00    -0.350 N 
ATOM      4  H   UNL     1     -37.412  19.196 -27.512  1.00  0.00     0.345 HD
ATOM      5  H   UNL     1     -37.689  17.605 -28.010  1.00  0.00     0.345 HD
ATOM      6  H   UNL     1     -38.802  18.370 -26.971  1.00  0.00     0.345 HD
ENDBRANCH   2   3
BRANCH   2   7
ATOM      7  C   UNL     1     -38.792  20.504 -29.035  1.00  0.00     0.100 C 
ATOM      8  O   UNL     1     -37.684  21.075 -28.854  1.00  0.00    -0.544 OA
ATOM      9  O   UNL     1     -39.923  21.270 -29.293  1.00  0.00    -0.544 OA
ENDBRANCH   2   7
ENDBRANCH   1   2
BRANCH   1  10
ATOM     10  C   UNL     1     -37.075  17.633 -30.031  1.00  0.00     0.223 C 
ATOM     11  O   UNL     1     -36.039  18.263 -29.687  1.00  0.00    -0.275 OA
ATOM     12  N   UNL     1     -37.009  16.222 -30.236  1.00  0.00    -0.369 N 
ATOM     13  H   UNL     1     -37.852  15.688 -30.545  1.00  0.00     0.159 HD
ATOM     14  H   UNL     1     -36.111  15.710 -30.089  1.00  0.00     0.159 HD
ENDBRANCH   1  10
TORSDOF 4
ENDMDL
MODEL 9
REMARK VINA RESULT:    -3.968     13.040     13.650
REMARK INTER + INTRA:          -4.916
REMARK INTER:                  -4.428
REMARK INTRA:                  -0.488
REMARK UNBOUND:                -0.136
REMARK SMILES NC(=O)C[C@@H]([NH3+])C(=O)[O-]
REMARK SMILES IDX 4 1 5 2 6 3 7 7 8 8 9 9 2 10 3 11 1 12
REMARK H PARENT 6 4 6 5 6 6 1 13 1 14
REMARK Flexibility Score: inf
ROOT
ATOM      1  C   UNL     1     -52.399  16.664 -30.833  1.00  0.00     0.171 C 
ENDROOT
BRANCH   1   2
ATOM      2  C   UNL     1     -51.412  15.490 -30.982  1.00  0.00     0.237 C 
BRANCH   2   3
ATOM      3  N   UNL     1     -50.022  15.962 -31.046  1.00  0.00    -0.350 N 
ATOM      4  H   UNL     1     -49.602  15.719 -31.971  1.00  0.00     0.345 HD
ATOM      5  H   UNL     1     -49.453  15.493 -30.303  1.00  0.00     0.345 HD
ATOM      6  H   UNL     1     -49.975  16.999 -30.908  1.00  0.00     0.345 HD
ENDBRANCH   2   3
BRANCH   2   7
ATOM      7  C   UNL     1     -51.580  14.537 -29.829  1.00  0.00     0.100 C 
ATOM      8  O   UNL     1     -50.977  13.432 -29.828  1.00  0.00    -0.544 OA
ATOM      9  O   UNL     1     -52.416  14.863 -28.766  1.00  0.00    -0.544 OA
ENDBRANCH   2   7
ENDBRANCH   1   2
BRANCH   1  10
ATOM     10  C   UNL     1     -51.758  17.849 -30.171  1.00  0.00     0.223 C 
ATOM     11  O   UNL     1     -51.168  18.713 -30.873  1.00  0.00    -0.275 OA
ATOM     12  N   UNL     1     -51.782  17.987 -28.750  1.00  0.00    -0.369 N 
ATOM     13  H   UNL     1     -52.245  17.267 -28.152  1.00  0.00     0.159 HD
ATOM     14  H   UNL     1     -51.324  18.807 -28.294  1.00  0.00     0.159 HD
ENDBRANCH   1  10
TORSDOF 4
ENDMDL
