MODEL 1
REMARK VINA RESULT:    -7.486      0.000      0.000
REMARK INTER + INTRA:          -8.384
REMARK INTER:                  -8.142
REMARK INTRA:                  -0.242
REMARK UNBOUND:                -0.242
REMARK SMILES CC1(C)CC[C@@]2(C(=O)[O-])CC[C@]3(C)C(=CC[C@@H]4[C@]5(C)CC[C@@H](O)C(C)(C)[C@@H]5CC[C@@]43C)[C@H]2C1
REMARK SMILES IDX 6 1 5 2 10 3 32 4 4 5 11 6 14 7 33 8 2 9 12 10 15 11 1 12
REMARK SMILES IDX 3 13 13 14 30 15 16 16 17 17 29 18 31 19 18 20 28 21 27 22
REMARK SMILES IDX 20 23 19 24 24 25 21 26 22 27 25 28 26 29 7 30 8 31 9 32
REMARK SMILES IDX 23 33
REMARK H PARENT 23 34
REMARK Flexibility Score: inf
ROOT
ATOM      1  C   UNL     1      47.223  36.297  54.930  1.00  0.00     0.017 C 
ATOM      2  C   UNL     1      47.865  35.409  53.807  1.00  0.00     0.014 C 
ATOM      3  C   UNL     1      47.273  37.796  54.460  1.00  0.00     0.014 C 
ATOM      4  C   UNL     1      45.751  35.788  55.243  1.00  0.00     0.028 C 
ATOM      5  C   UNL     1      47.422  33.944  53.901  1.00  0.00     0.007 C 
ATOM      6  C   UNL     1      45.909  38.467  54.277  1.00  0.00     0.013 C 
ATOM      7  C   UNL     1      44.779  36.842  55.782  1.00  0.00    -0.064 C 
ATOM      8  C   UNL     1      45.113  35.076  54.024  1.00  0.00     0.015 C 
ATOM      9  C   UNL     1      45.896  33.786  53.620  1.00  0.00    -0.035 C 
ATOM     10  C   UNL     1      44.975  38.331  55.527  1.00  0.00    -0.006 C 
ATOM     11  C   UNL     1      43.722  36.406  56.486  1.00  0.00    -0.027 C 
ATOM     12  C   UNL     1      45.357  32.573  54.410  1.00  0.00     0.011 C 
ATOM     13  C   UNL     1      45.668  33.515  52.117  1.00  0.00     0.011 C 
ATOM     14  C   UNL     1      45.714  38.899  56.780  1.00  0.00     0.017 C 
ATOM     15  C   UNL     1      43.563  39.084  55.300  1.00  0.00    -0.020 C 
ATOM     16  C   UNL     1      42.450  37.177  56.634  1.00  0.00     0.032 C 
ATOM     17  C   UNL     1      42.531  38.722  56.440  1.00  0.00     0.006 C 
ATOM     18  C   UNL     1      42.929  38.666  53.929  1.00  0.00     0.008 C 
ATOM     19  C   UNL     1      43.833  40.628  55.310  1.00  0.00     0.012 C 
ATOM     20  C   UNL     1      41.082  39.440  56.295  1.00  0.00    -0.025 C 
ATOM     21  C   UNL     1      41.382  38.652  53.850  1.00  0.00     0.005 C 
ATOM     22  C   UNL     1      40.690  39.696  54.763  1.00  0.00     0.003 C 
ATOM     23  C   UNL     1      39.979  38.588  57.025  1.00  0.00     0.010 C 
ATOM     24  C   UNL     1      41.154  40.809  57.056  1.00  0.00     0.012 C 
ATOM     25  C   UNL     1      39.135  39.926  54.449  1.00  0.00    -0.006 C 
ATOM     26  C   UNL     1      38.542  39.029  56.769  1.00  0.00     0.033 C 
ATOM     27  C   UNL     1      38.235  38.960  55.272  1.00  0.00     0.120 C 
ATOM     28  C   UNL     1      38.804  39.698  52.947  1.00  0.00     0.014 C 
ATOM     29  C   UNL     1      38.742  41.408  54.723  1.00  0.00     0.014 C 
ENDROOT
BRANCH   1  30
ATOM     30  C   UNL     1      48.115  36.159  56.171  1.00  0.00     0.048 C 
ATOM     31  O   UNL     1      47.755  35.415  57.125  1.00  0.00    -0.550 OA
ATOM     32  O   UNL     1      49.301  36.877  56.305  1.00  0.00    -0.550 OA
ENDBRANCH   1  30
BRANCH  27  33
ATOM     33  O   UNL     1      36.875  39.251  55.063  1.00  0.00    -0.393 OA
ATOM     34  H   UNL     1      36.772  39.480  54.104  1.00  0.00     0.210 HD
ENDBRANCH  27  33
TORSDOF 2
ENDMDL
MODEL 2
REMARK VINA RESULT:    -6.732     10.162     11.977
REMARK INTER + INTRA:          -7.564
REMARK INTER:                  -7.456
REMARK INTRA:                  -0.108
REMARK UNBOUND:                -0.242
REMARK SMILES CC1(C)CC[C@@]2(C(=O)[O-])CC[C@]3(C)C(=CC[C@@H]4[C@]5(C)CC[C@@H](O)C(C)(C)[C@@H]5CC[C@@]43C)[C@H]2C1
REMARK SMILES IDX 6 1 5 2 10 3 32 4 4 5 11 6 14 7 33 8 2 9 12 10 15 11 1 12
REMARK SMILES IDX 3 13 13 14 30 15 16 16 17 17 29 18 31 19 18 20 28 21 27 22
REMARK SMILES IDX 20 23 19 24 24 25 21 26 22 27 25 28 26 29 7 30 8 31 9 32
REMARK SMILES IDX 23 33
REMARK H PARENT 23 34
REMARK Flexibility Score: inf
ROOT
ATOM      1  C   UNL     1      52.077  32.156  48.979  1.00  0.00     0.017 C 
ATOM      2  C   UNL     1      52.664  31.480  50.267  1.00  0.00     0.014 C 
ATOM      3  C   UNL     1      50.585  32.556  49.270  1.00  0.00     0.014 C 
ATOM      4  C   UNL     1      52.985  33.390  48.558  1.00  0.00     0.028 C 
ATOM      5  C   UNL     1      54.196  31.518  50.297  1.00  0.00     0.007 C 
ATOM      6  C   UNL     1      50.290  34.057  49.211  1.00  0.00     0.013 C 
ATOM      7  C   UNL     1      52.277  34.510  47.788  1.00  0.00    -0.064 C 
ATOM      8  C   UNL     1      53.737  33.996  49.771  1.00  0.00     0.015 C 
ATOM      9  C   UNL     1      54.731  32.979  50.414  1.00  0.00    -0.035 C 
ATOM     10  C   UNL     1      50.775  34.736  47.885  1.00  0.00    -0.006 C 
ATOM     11  C   UNL     1      53.037  35.309  47.021  1.00  0.00    -0.027 C 
ATOM     12  C   UNL     1      56.107  33.073  49.716  1.00  0.00     0.011 C 
ATOM     13  C   UNL     1      54.927  33.345  51.901  1.00  0.00     0.011 C 
ATOM     14  C   UNL     1      50.137  33.992  46.669  1.00  0.00     0.017 C 
ATOM     15  C   UNL     1      50.409  36.310  47.854  1.00  0.00    -0.020 C 
ATOM     16  C   UNL     1      52.649  36.699  46.635  1.00  0.00     0.032 C 
ATOM     17  C   UNL     1      51.128  37.041  46.652  1.00  0.00     0.006 C 
ATOM     18  C   UNL     1      50.865  37.008  49.181  1.00  0.00     0.008 C 
ATOM     19  C   UNL     1      48.856  36.442  47.692  1.00  0.00     0.012 C 
ATOM     20  C   UNL     1      50.813  38.630  46.539  1.00  0.00    -0.025 C 
ATOM     21  C   UNL     1      51.284  38.496  49.079  1.00  0.00     0.005 C 
ATOM     22  C   UNL     1      50.544  39.291  47.973  1.00  0.00     0.003 C 
ATOM     23  C   UNL     1      51.987  39.363  45.792  1.00  0.00     0.010 C 
ATOM     24  C   UNL     1      49.544  38.798  45.634  1.00  0.00     0.012 C 
ATOM     25  C   UNL     1      50.712  40.882  48.073  1.00  0.00    -0.006 C 
ATOM     26  C   UNL     1      51.927  40.887  45.823  1.00  0.00     0.033 C 
ATOM     27  C   UNL     1      51.949  41.378  47.271  1.00  0.00     0.120 C 
ATOM     28  C   UNL     1      50.893  41.357  49.543  1.00  0.00     0.014 C 
ATOM     29  C   UNL     1      49.417  41.594  47.581  1.00  0.00     0.014 C 
ENDROOT
BRANCH   1  30
ATOM     30  C   UNL     1      52.075  31.089  47.877  1.00  0.00     0.048 C 
ATOM     31  O   UNL     1      52.235  31.429  46.672  1.00  0.00    -0.550 OA
ATOM     32  O   UNL     1      51.850  29.744  48.158  1.00  0.00    -0.550 OA
ENDBRANCH   1  30
BRANCH  27  33
ATOM     33  O   UNL     1      52.015  42.784  47.283  1.00  0.00    -0.393 OA
ATOM     34  H   UNL     1      52.955  43.028  47.485  1.00  0.00     0.210 HD
ENDBRANCH  27  33
TORSDOF 2
ENDMDL
MODEL 3
REMARK VINA RESULT:    -6.652      8.206     10.838
REMARK INTER + INTRA:          -7.477
REMARK INTER:                  -7.235
REMARK INTRA:                  -0.242
REMARK UNBOUND:                -0.242
REMARK SMILES CC1(C)CC[C@@]2(C(=O)[O-])CC[C@]3(C)C(=CC[C@@H]4[C@]5(C)CC[C@@H](O)C(C)(C)[C@@H]5CC[C@@]43C)[C@H]2C1
REMARK SMILES IDX 6 1 5 2 10 3 32 4 4 5 11 6 14 7 33 8 2 9 12 10 15 11 1 12
REMARK SMILES IDX 3 13 13 14 30 15 16 16 17 17 29 18 31 19 18 20 28 21 27 22
REMARK SMILES IDX 20 23 19 24 24 25 21 26 22 27 25 28 26 29 7 30 8 31 9 32
REMARK SMILES IDX 23 33
REMARK H PARENT 23 34
REMARK Flexibility Score: inf
ROOT
ATOM      1  C   UNL     1      53.388  41.131  47.948  1.00  0.00     0.017 C 
ATOM      2  C   UNL     1      52.830  40.094  46.911  1.00  0.00     0.014 C 
ATOM      3  C   UNL     1      52.763  42.536  47.622  1.00  0.00     0.014 C 
ATOM      4  C   UNL     1      53.076  40.634  49.425  1.00  0.00     0.028 C 
ATOM      5  C   UNL     1      52.941  38.651  47.415  1.00  0.00     0.007 C 
ATOM      6  C   UNL     1      51.881  43.128  48.725  1.00  0.00     0.013 C 
ATOM      7  C   UNL     1      52.945  41.732  50.486  1.00  0.00    -0.064 C 
ATOM      8  C   UNL     1      51.828  39.718  49.476  1.00  0.00     0.015 C 
ATOM      9  C   UNL     1      52.029  38.404  48.656  1.00  0.00    -0.035 C 
ATOM     10  C   UNL     1      52.578  43.166  50.128  1.00  0.00    -0.006 C 
ATOM     11  C   UNL     1      53.154  41.383  51.766  1.00  0.00    -0.027 C 
ATOM     12  C   UNL     1      52.668  37.317  49.549  1.00  0.00     0.011 C 
ATOM     13  C   UNL     1      50.648  37.889  48.194  1.00  0.00     0.011 C 
ATOM     14  C   UNL     1      53.924  43.949  50.007  1.00  0.00     0.017 C 
ATOM     15  C   UNL     1      51.623  43.830  51.249  1.00  0.00    -0.020 C 
ATOM     16  C   UNL     1      52.588  42.129  52.930  1.00  0.00     0.032 C 
ATOM     17  C   UNL     1      52.213  43.625  52.699  1.00  0.00     0.006 C 
ATOM     18  C   UNL     1      50.197  43.180  51.215  1.00  0.00     0.008 C 
ATOM     19  C   UNL     1      51.512  45.364  50.942  1.00  0.00     0.012 C 
ATOM     20  C   UNL     1      51.319  44.267  53.893  1.00  0.00    -0.025 C 
ATOM     21  C   UNL     1      49.430  43.107  52.560  1.00  0.00     0.005 C 
ATOM     22  C   UNL     1      49.756  44.263  53.540  1.00  0.00     0.003 C 
ATOM     23  C   UNL     1      51.594  43.510  55.244  1.00  0.00     0.010 C 
ATOM     24  C   UNL     1      51.806  45.742  54.109  1.00  0.00     0.012 C 
ATOM     25  C   UNL     1      48.742  44.392  54.774  1.00  0.00    -0.006 C 
ATOM     26  C   UNL     1      50.650  43.860  56.390  1.00  0.00     0.033 C 
ATOM     27  C   UNL     1      49.209  43.544  55.991  1.00  0.00     0.120 C 
ATOM     28  C   UNL     1      47.308  43.917  54.402  1.00  0.00     0.014 C 
ATOM     29  C   UNL     1      48.573  45.887  55.180  1.00  0.00     0.014 C 
ENDROOT
BRANCH   1  30
ATOM     30  C   UNL     1      54.902  41.220  47.719  1.00  0.00     0.048 C 
ATOM     31  O   UNL     1      55.694  40.642  48.514  1.00  0.00    -0.550 OA
ATOM     32  O   UNL     1      55.443  41.970  46.677  1.00  0.00    -0.550 OA
ENDBRANCH   1  30
BRANCH  27  33
ATOM     33  O   UNL     1      48.365  43.757  57.097  1.00  0.00    -0.393 OA
ATOM     34  H   UNL     1      47.655  44.385  56.803  1.00  0.00     0.210 HD
ENDBRANCH  27  33
TORSDOF 2
ENDMDL
MODEL 4
REMARK VINA RESULT:    -6.435      8.565     11.618
REMARK INTER + INTRA:          -7.241
REMARK INTER:                  -7.015
REMARK INTRA:                  -0.225
REMARK UNBOUND:                -0.242
REMARK SMILES CC1(C)CC[C@@]2(C(=O)[O-])CC[C@]3(C)C(=CC[C@@H]4[C@]5(C)CC[C@@H](O)C(C)(C)[C@@H]5CC[C@@]43C)[C@H]2C1
REMARK SMILES IDX 6 1 5 2 10 3 32 4 4 5 11 6 14 7 33 8 2 9 12 10 15 11 1 12
REMARK SMILES IDX 3 13 13 14 30 15 16 16 17 17 29 18 31 19 18 20 28 21 27 22
REMARK SMILES IDX 20 23 19 24 24 25 21 26 22 27 25 28 26 29 7 30 8 31 9 32
REMARK SMILES IDX 23 33
REMARK H PARENT 23 34
REMARK Flexibility Score: inf
ROOT
ATOM      1  C   UNL     1      52.725  40.141  47.499  1.00  0.00     0.017 C 
ATOM      2  C   UNL     1      54.130  39.568  47.102  1.00  0.00     0.014 C 
ATOM      3  C   UNL     1      52.046  39.131  48.494  1.00  0.00     0.014 C 
ATOM      4  C   UNL     1      52.891  41.601  48.105  1.00  0.00     0.028 C 
ATOM      5  C   UNL     1      55.074  40.657  46.577  1.00  0.00     0.007 C 
ATOM      6  C   UNL     1      51.766  39.685  49.894  1.00  0.00     0.013 C 
ATOM      7  C   UNL     1      51.810  42.040  49.098  1.00  0.00    -0.064 C 
ATOM      8  C   UNL     1      54.288  41.808  48.741  1.00  0.00     0.015 C 
ATOM      9  C   UNL     1      55.437  41.687  47.690  1.00  0.00    -0.035 C 
ATOM     10  C   UNL     1      50.975  41.038  49.884  1.00  0.00    -0.006 C 
ATOM     11  C   UNL     1      51.626  43.359  49.269  1.00  0.00    -0.027 C 
ATOM     12  C   UNL     1      55.704  43.064  47.040  1.00  0.00     0.011 C 
ATOM     13  C   UNL     1      56.728  41.244  48.412  1.00  0.00     0.011 C 
ATOM     14  C   UNL     1      49.648  40.845  49.083  1.00  0.00     0.017 C 
ATOM     15  C   UNL     1      50.674  41.562  51.382  1.00  0.00    -0.020 C 
ATOM     16  C   UNL     1      51.034  43.960  50.502  1.00  0.00     0.032 C 
ATOM     17  C   UNL     1      50.121  43.041  51.370  1.00  0.00     0.006 C 
ATOM     18  C   UNL     1      51.982  41.547  52.246  1.00  0.00     0.008 C 
ATOM     19  C   UNL     1      49.606  40.609  52.022  1.00  0.00     0.012 C 
ATOM     20  C   UNL     1      49.784  43.651  52.837  1.00  0.00    -0.025 C 
ATOM     21  C   UNL     1      52.099  42.621  53.356  1.00  0.00     0.005 C 
ATOM     22  C   UNL     1      50.742  43.050  53.971  1.00  0.00     0.003 C 
ATOM     23  C   UNL     1      49.867  45.222  52.803  1.00  0.00     0.010 C 
ATOM     24  C   UNL     1      48.292  43.298  53.166  1.00  0.00     0.012 C 
ATOM     25  C   UNL     1      50.866  43.894  55.328  1.00  0.00    -0.006 C 
ATOM     26  C   UNL     1      49.801  45.906  54.165  1.00  0.00     0.033 C 
ATOM     27  C   UNL     1      50.952  45.421  55.047  1.00  0.00     0.120 C 
ATOM     28  C   UNL     1      52.131  43.502  56.144  1.00  0.00     0.014 C 
ATOM     29  C   UNL     1      49.668  43.576  56.272  1.00  0.00     0.014 C 
ENDROOT
BRANCH   1  30
ATOM     30  C   UNL     1      51.883  40.183  46.218  1.00  0.00     0.048 C 
ATOM     31  O   UNL     1      51.851  39.180  45.453  1.00  0.00    -0.550 OA
ATOM     32  O   UNL     1      51.181  41.325  45.838  1.00  0.00    -0.550 OA
ENDBRANCH   1  30
BRANCH  27  33
ATOM     33  O   UNL     1      50.950  46.147  56.252  1.00  0.00    -0.393 OA
ATOM     34  H   UNL     1      50.023  46.470  56.395  1.00  0.00     0.210 HD
ENDBRANCH  27  33
TORSDOF 2
ENDMDL
MODEL 5
REMARK VINA RESULT:    -6.301      5.281      8.491
REMARK INTER + INTRA:          -7.096
REMARK INTER:                  -6.875
REMARK INTRA:                  -0.220
REMARK UNBOUND:                -0.242
REMARK SMILES CC1(C)CC[C@@]2(C(=O)[O-])CC[C@]3(C)C(=CC[C@@H]4[C@]5(C)CC[C@@H](O)C(C)(C)[C@@H]5CC[C@@]43C)[C@H]2C1
REMARK SMILES IDX 6 1 5 2 10 3 32 4 4 5 11 6 14 7 33 8 2 9 12 10 15 11 1 12
REMARK SMILES IDX 3 13 13 14 30 15 16 16 17 17 29 18 31 19 18 20 28 21 27 22
REMARK SMILES IDX 20 23 19 24 24 25 21 26 22 27 25 28 26 29 7 30 8 31 9 32
REMARK SMILES IDX 23 33
REMARK H PARENT 23 34
REMARK Flexibility Score: inf
ROOT
ATOM      1  C   UNL     1      51.779  36.975  47.973  1.00  0.00     0.017 C 
ATOM      2  C   UNL     1      52.176  35.908  46.894  1.00  0.00     0.014 C 
ATOM      3  C   UNL     1      50.308  37.447  47.679  1.00  0.00     0.014 C 
ATOM      4  C   UNL     1      51.960  36.361  49.428  1.00  0.00     0.028 C 
ATOM      5  C   UNL     1      53.337  35.019  47.356  1.00  0.00     0.007 C 
ATOM      6  C   UNL     1      49.293  37.138  48.782  1.00  0.00     0.013 C 
ATOM      7  C   UNL     1      51.061  36.951  50.519  1.00  0.00    -0.064 C 
ATOM      8  C   UNL     1      51.822  34.818  49.427  1.00  0.00     0.015 C 
ATOM      9  C   UNL     1      52.931  34.129  48.570  1.00  0.00    -0.035 C 
ATOM     10  C   UNL     1      49.740  37.636  50.199  1.00  0.00    -0.006 C 
ATOM     11  C   UNL     1      51.475  36.832  51.792  1.00  0.00    -0.027 C 
ATOM     12  C   UNL     1      54.179  33.859  49.441  1.00  0.00     0.011 C 
ATOM     13  C   UNL     1      52.399  32.770  48.066  1.00  0.00     0.011 C 
ATOM     14  C   UNL     1      50.042  39.167  50.129  1.00  0.00     0.017 C 
ATOM     15  C   UNL     1      48.621  37.320  51.321  1.00  0.00    -0.020 C 
ATOM     16  C   UNL     1      50.553  36.860  52.968  1.00  0.00     0.032 C 
ATOM     17  C   UNL     1      49.181  37.576  52.776  1.00  0.00     0.006 C 
ATOM     18  C   UNL     1      48.166  35.822  51.240  1.00  0.00     0.008 C 
ATOM     19  C   UNL     1      47.395  38.261  51.060  1.00  0.00     0.012 C 
ATOM     20  C   UNL     1      48.120  37.288  53.971  1.00  0.00    -0.025 C 
ATOM     21  C   UNL     1      47.726  35.152  52.566  1.00  0.00     0.005 C 
ATOM     22  C   UNL     1      47.086  36.126  53.589  1.00  0.00     0.003 C 
ATOM     23  C   UNL     1      48.884  36.947  55.304  1.00  0.00     0.010 C 
ATOM     24  C   UNL     1      47.339  38.620  54.243  1.00  0.00     0.012 C 
ATOM     25  C   UNL     1      46.331  35.408  54.806  1.00  0.00    -0.006 C 
ATOM     26  C   UNL     1      48.009  36.431  56.441  1.00  0.00     0.033 C 
ATOM     27  C   UNL     1      47.288  35.155  56.005  1.00  0.00     0.120 C 
ATOM     28  C   UNL     1      45.735  34.032  54.392  1.00  0.00     0.014 C 
ATOM     29  C   UNL     1      45.103  36.256  55.254  1.00  0.00     0.014 C 
ENDROOT
BRANCH   1  30
ATOM     30  C   UNL     1      52.711  38.177  47.776  1.00  0.00     0.048 C 
ATOM     31  O   UNL     1      52.933  38.617  46.614  1.00  0.00    -0.550 OA
ATOM     32  O   UNL     1      53.371  38.777  48.846  1.00  0.00    -0.550 OA
ENDBRANCH   1  30
BRANCH  27  33
ATOM     33  O   UNL     1      46.582  34.624  57.100  1.00  0.00    -0.393 OA
ATOM     34  H   UNL     1      47.235  34.120  57.650  1.00  0.00     0.210 HD
ENDBRANCH  27  33
TORSDOF 2
ENDMDL
MODEL 6
REMARK VINA RESULT:    -6.262      1.664      2.487
REMARK INTER + INTRA:          -7.052
REMARK INTER:                  -6.865
REMARK INTRA:                  -0.188
REMARK UNBOUND:                -0.242
REMARK SMILES CC1(C)CC[C@@]2(C(=O)[O-])CC[C@]3(C)C(=CC[C@@H]4[C@]5(C)CC[C@@H](O)C(C)(C)[C@@H]5CC[C@@]43C)[C@H]2C1
REMARK SMILES IDX 6 1 5 2 10 3 32 4 4 5 11 6 14 7 33 8 2 9 12 10 15 11 1 12
REMARK SMILES IDX 3 13 13 14 30 15 16 16 17 17 29 18 31 19 18 20 28 21 27 22
REMARK SMILES IDX 20 23 19 24 24 25 21 26 22 27 25 28 26 29 7 30 8 31 9 32
REMARK SMILES IDX 23 33
REMARK H PARENT 23 34
REMARK Flexibility Score: inf
ROOT
ATOM      1  C   UNL     1      47.217  36.612  55.149  1.00  0.00     0.017 C 
ATOM      2  C   UNL     1      48.554  36.982  54.419  1.00  0.00     0.014 C 
ATOM      3  C   UNL     1      46.913  37.729  56.213  1.00  0.00     0.014 C 
ATOM      4  C   UNL     1      46.053  36.431  54.082  1.00  0.00     0.028 C 
ATOM      5  C   UNL     1      48.684  36.288  53.057  1.00  0.00     0.007 C 
ATOM      6  C   UNL     1      45.621  38.517  55.979  1.00  0.00     0.013 C 
ATOM      7  C   UNL     1      44.634  36.710  54.586  1.00  0.00    -0.064 C 
ATOM      8  C   UNL     1      46.314  37.256  52.796  1.00  0.00     0.015 C 
ATOM      9  C   UNL     1      47.605  36.792  52.051  1.00  0.00    -0.035 C 
ATOM     10  C   UNL     1      44.361  37.606  55.786  1.00  0.00    -0.006 C 
ATOM     11  C   UNL     1      43.617  36.140  53.918  1.00  0.00    -0.027 C 
ATOM     12  C   UNL     1      47.263  35.655  51.062  1.00  0.00     0.011 C 
ATOM     13  C   UNL     1      48.164  37.979  51.236  1.00  0.00     0.011 C 
ATOM     14  C   UNL     1      44.223  36.660  57.021  1.00  0.00     0.017 C 
ATOM     15  C   UNL     1      43.019  38.482  55.579  1.00  0.00    -0.020 C 
ATOM     16  C   UNL     1      42.223  36.678  53.916  1.00  0.00     0.032 C 
ATOM     17  C   UNL     1      41.809  37.576  55.122  1.00  0.00     0.006 C 
ATOM     18  C   UNL     1      43.240  39.578  54.480  1.00  0.00     0.008 C 
ATOM     19  C   UNL     1      42.673  39.166  56.946  1.00  0.00     0.012 C 
ATOM     20  C   UNL     1      40.413  38.375  54.893  1.00  0.00    -0.025 C 
ATOM     21  C   UNL     1      42.003  39.986  53.641  1.00  0.00     0.005 C 
ATOM     22  C   UNL     1      40.656  39.880  54.402  1.00  0.00     0.003 C 
ATOM     23  C   UNL     1      39.500  37.591  53.879  1.00  0.00     0.010 C 
ATOM     24  C   UNL     1      39.644  38.384  56.259  1.00  0.00     0.012 C 
ATOM     25  C   UNL     1      39.426  40.606  53.677  1.00  0.00    -0.006 C 
ATOM     26  C   UNL     1      38.264  38.345  53.400  1.00  0.00     0.033 C 
ATOM     27  C   UNL     1      38.682  39.643  52.708  1.00  0.00     0.120 C 
ATOM     28  C   UNL     1      39.884  41.837  52.844  1.00  0.00     0.014 C 
ATOM     29  C   UNL     1      38.441  41.186  54.736  1.00  0.00     0.014 C 
ENDROOT
BRANCH   1  30
ATOM     30  C   UNL     1      47.468  35.298  55.899  1.00  0.00     0.048 C 
ATOM     31  O   UNL     1      47.769  35.321  57.125  1.00  0.00    -0.550 OA
ATOM     32  O   UNL     1      47.423  34.064  55.254  1.00  0.00    -0.550 OA
ENDBRANCH   1  30
BRANCH  27  33
ATOM     33  O   UNL     1      37.543  40.267  52.166  1.00  0.00    -0.393 OA
ATOM     34  H   UNL     1      37.839  40.757  51.356  1.00  0.00     0.210 HD
ENDBRANCH  27  33
TORSDOF 2
ENDMDL
MODEL 7
REMARK VINA RESULT:    -6.080      9.787     11.807
REMARK INTER + INTRA:          -6.855
REMARK INTER:                  -6.630
REMARK INTRA:                  -0.225
REMARK UNBOUND:                -0.242
REMARK SMILES CC1(C)CC[C@@]2(C(=O)[O-])CC[C@]3(C)C(=CC[C@@H]4[C@]5(C)CC[C@@H](O)C(C)(C)[C@@H]5CC[C@@]43C)[C@H]2C1
REMARK SMILES IDX 6 1 5 2 10 3 32 4 4 5 11 6 14 7 33 8 2 9 12 10 15 11 1 12
REMARK SMILES IDX 3 13 13 14 30 15 16 16 17 17 29 18 31 19 18 20 28 21 27 22
REMARK SMILES IDX 20 23 19 24 24 25 21 26 22 27 25 28 26 29 7 30 8 31 9 32
REMARK SMILES IDX 23 33
REMARK H PARENT 23 34
REMARK Flexibility Score: inf
ROOT
ATOM      1  C   UNL     1      50.026  29.612  48.097  1.00  0.00     0.017 C 
ATOM      2  C   UNL     1      49.242  28.768  47.033  1.00  0.00     0.014 C 
ATOM      3  C   UNL     1      51.474  29.878  47.543  1.00  0.00     0.014 C 
ATOM      4  C   UNL     1      49.226  30.947  48.421  1.00  0.00     0.028 C 
ATOM      5  C   UNL     1      47.722  28.884  47.204  1.00  0.00     0.007 C 
ATOM      6  C   UNL     1      51.821  31.350  47.307  1.00  0.00     0.013 C 
ATOM      7  C   UNL     1      50.070  32.137  48.888  1.00  0.00    -0.064 C 
ATOM      8  C   UNL     1      48.329  31.386  47.236  1.00  0.00     0.015 C 
ATOM      9  C   UNL     1      47.222  30.333  46.914  1.00  0.00    -0.035 C 
ATOM     10  C   UNL     1      51.550  32.262  48.552  1.00  0.00    -0.006 C 
ATOM     11  C   UNL     1      49.452  33.091  49.603  1.00  0.00    -0.027 C 
ATOM     12  C   UNL     1      45.963  30.614  47.765  1.00  0.00     0.011 C 
ATOM     13  C   UNL     1      46.829  30.461  45.427  1.00  0.00     0.011 C 
ATOM     14  C   UNL     1      52.331  31.693  49.779  1.00  0.00     0.017 C 
ATOM     15  C   UNL     1      51.965  33.797  48.266  1.00  0.00    -0.020 C 
ATOM     16  C   UNL     1      49.934  34.502  49.692  1.00  0.00     0.032 C 
ATOM     17  C   UNL     1      51.447  34.753  49.412  1.00  0.00     0.006 C 
ATOM     18  C   UNL     1      51.347  34.293  46.913  1.00  0.00     0.008 C 
ATOM     19  C   UNL     1      53.529  33.870  48.192  1.00  0.00     0.012 C 
ATOM     20  C   UNL     1      51.824  36.320  49.210  1.00  0.00    -0.025 C 
ATOM     21  C   UNL     1      50.993  35.799  46.817  1.00  0.00     0.005 C 
ATOM     22  C   UNL     1      51.908  36.722  47.662  1.00  0.00     0.003 C 
ATOM     23  C   UNL     1      50.792  37.229  49.974  1.00  0.00     0.010 C 
ATOM     24  C   UNL     1      53.214  36.565  49.894  1.00  0.00     0.012 C 
ATOM     25  C   UNL     1      51.776  38.282  47.318  1.00  0.00    -0.006 C 
ATOM     26  C   UNL     1      50.894  38.721  49.677  1.00  0.00     0.033 C 
ATOM     27  C   UNL     1      50.682  38.970  48.183  1.00  0.00     0.120 C 
ATOM     28  C   UNL     1      51.403  38.520  45.826  1.00  0.00     0.014 C 
ATOM     29  C   UNL     1      53.150  38.993  47.503  1.00  0.00     0.014 C 
ENDROOT
BRANCH   1  30
ATOM     30  C   UNL     1      50.151  28.742  49.353  1.00  0.00     0.048 C 
ATOM     31  O   UNL     1      51.093  27.907  49.449  1.00  0.00    -0.550 OA
ATOM     32  O   UNL     1      49.220  28.806  50.387  1.00  0.00    -0.550 OA
ENDBRANCH   1  30
BRANCH  27  33
ATOM     33  O   UNL     1      50.658  40.355  47.942  1.00  0.00    -0.393 OA
ATOM     34  H   UNL     1      51.112  40.506  47.073  1.00  0.00     0.210 HD
ENDBRANCH  27  33
TORSDOF 2
ENDMDL
MODEL 8
REMARK VINA RESULT:    -6.010      4.135      8.004
REMARK INTER + INTRA:          -6.779
REMARK INTER:                  -6.963
REMARK INTRA:                   0.184
REMARK UNBOUND:                -0.242
REMARK SMILES CC1(C)CC[C@@]2(C(=O)[O-])CC[C@]3(C)C(=CC[C@@H]4[C@]5(C)CC[C@@H](O)C(C)(C)[C@@H]5CC[C@@]43C)[C@H]2C1
REMARK SMILES IDX 6 1 5 2 10 3 32 4 4 5 11 6 14 7 33 8 2 9 12 10 15 11 1 12
REMARK SMILES IDX 3 13 13 14 30 15 16 16 17 17 29 18 31 19 18 20 28 21 27 22
REMARK SMILES IDX 20 23 19 24 24 25 21 26 22 27 25 28 26 29 7 30 8 31 9 32
REMARK SMILES IDX 23 33
REMARK H PARENT 23 34
REMARK Flexibility Score: inf
ROOT
ATOM      1  C   UNL     1      46.582  44.192  55.358  1.00  0.00     0.017 C 
ATOM      2  C   UNL     1      47.445  45.204  54.528  1.00  0.00     0.014 C 
ATOM      3  C   UNL     1      45.416  43.672  54.440  1.00  0.00     0.014 C 
ATOM      4  C   UNL     1      47.507  43.026  55.915  1.00  0.00     0.028 C 
ATOM      5  C   UNL     1      48.855  45.376  55.106  1.00  0.00     0.007 C 
ATOM      6  C   UNL     1      45.437  42.168  54.151  1.00  0.00     0.013 C 
ATOM      7  C   UNL     1      46.815  41.682  56.163  1.00  0.00    -0.064 C 
ATOM      8  C   UNL     1      48.757  42.805  55.027  1.00  0.00     0.015 C 
ATOM      9  C   UNL     1      49.685  44.061  54.994  1.00  0.00    -0.035 C 
ATOM     10  C   UNL     1      45.533  41.286  55.443  1.00  0.00    -0.006 C 
ATOM     11  C   UNL     1      47.389  40.843  57.039  1.00  0.00    -0.027 C 
ATOM     12  C   UNL     1      50.698  43.999  56.159  1.00  0.00     0.011 C 
ATOM     13  C   UNL     1      50.481  44.057  53.671  1.00  0.00     0.011 C 
ATOM     14  C   UNL     1      44.356  41.656  56.401  1.00  0.00     0.017 C 
ATOM     15  C   UNL     1      45.515  39.710  55.089  1.00  0.00    -0.020 C 
ATOM     16  C   UNL     1      47.184  39.363  57.026  1.00  0.00     0.032 C 
ATOM     17  C   UNL     1      45.879  38.835  56.353  1.00  0.00     0.006 C 
ATOM     18  C   UNL     1      46.558  39.384  53.965  1.00  0.00     0.008 C 
ATOM     19  C   UNL     1      44.073  39.341  54.597  1.00  0.00     0.012 C 
ATOM     20  C   UNL     1      45.881  37.232  56.091  1.00  0.00    -0.025 C 
ATOM     21  C   UNL     1      47.209  37.979  54.000  1.00  0.00     0.005 C 
ATOM     22  C   UNL     1      46.297  36.871  54.587  1.00  0.00     0.003 C 
ATOM     23  C   UNL     1      46.825  36.515  57.125  1.00  0.00     0.010 C 
ATOM     24  C   UNL     1      44.433  36.704  56.379  1.00  0.00     0.012 C 
ATOM     25  C   UNL     1      46.814  35.377  54.325  1.00  0.00    -0.006 C 
ATOM     26  C   UNL     1      47.096  35.041  56.844  1.00  0.00     0.033 C 
ATOM     27  C   UNL     1      47.747  34.885  55.469  1.00  0.00     0.120 C 
ATOM     28  C   UNL     1      47.614  35.262  52.996  1.00  0.00     0.014 C 
ATOM     29  C   UNL     1      45.606  34.410  54.148  1.00  0.00     0.014 C 
ENDROOT
BRANCH   1  30
ATOM     30  C   UNL     1      45.957  44.982  56.515  1.00  0.00     0.048 C 
ATOM     31  O   UNL     1      44.789  44.707  56.906  1.00  0.00    -0.550 OA
ATOM     32  O   UNL     1      46.625  46.042  57.125  1.00  0.00    -0.550 OA
ENDBRANCH   1  30
BRANCH  27  33
ATOM     33  O   UNL     1      48.102  33.538  55.273  1.00  0.00    -0.393 OA
ATOM     34  H   UNL     1      48.263  33.418  54.302  1.00  0.00     0.210 HD
ENDBRANCH  27  33
TORSDOF 2
ENDMDL
MODEL 9
REMARK VINA RESULT:    -5.813      8.834     12.241
REMARK INTER + INTRA:          -6.564
REMARK INTER:                  -6.322
REMARK INTRA:                  -0.242
REMARK UNBOUND:                -0.242
REMARK SMILES CC1(C)CC[C@@]2(C(=O)[O-])CC[C@]3(C)C(=CC[C@@H]4[C@]5(C)CC[C@@H](O)C(C)(C)[C@@H]5CC[C@@]43C)[C@H]2C1
REMARK SMILES IDX 6 1 5 2 10 3 32 4 4 5 11 6 14 7 33 8 2 9 12 10 15 11 1 12
REMARK SMILES IDX 3 13 13 14 30 15 16 16 17 17 29 18 31 19 18 20 28 21 27 22
REMARK SMILES IDX 20 23 19 24 24 25 21 26 22 27 25 28 26 29 7 30 8 31 9 32
REMARK SMILES IDX 23 33
REMARK H PARENT 23 34
REMARK Flexibility Score: inf
ROOT
ATOM      1  C   UNL     1      51.892  44.401  50.788  1.00  0.00     0.017 C 
ATOM      2  C   UNL     1      52.348  45.126  52.103  1.00  0.00     0.014 C 
ATOM      3  C   UNL     1      53.177  44.006  49.974  1.00  0.00     0.014 C 
ATOM      4  C   UNL     1      50.974  43.156  51.151  1.00  0.00     0.028 C 
ATOM      5  C   UNL     1      51.266  45.094  53.189  1.00  0.00     0.007 C 
ATOM      6  C   UNL     1      53.382  42.503  49.769  1.00  0.00     0.013 C 
ATOM      7  C   UNL     1      50.974  42.007  50.138  1.00  0.00    -0.064 C 
ATOM      8  C   UNL     1      51.287  42.597  52.562  1.00  0.00     0.015 C 
ATOM      9  C   UNL     1      50.994  43.641  53.687  1.00  0.00    -0.035 C 
ATOM     10  C   UNL     1      52.127  41.778  49.171  1.00  0.00    -0.006 C 
ATOM     11  C   UNL     1      49.913  41.184  50.137  1.00  0.00    -0.027 C 
ATOM     12  C   UNL     1      49.522  43.527  54.142  1.00  0.00     0.011 C 
ATOM     13  C   UNL     1      51.894  43.329  54.902  1.00  0.00     0.011 C 
ATOM     14  C   UNL     1      51.726  42.476  47.833  1.00  0.00     0.017 C 
ATOM     15  C   UNL     1      52.404  40.203  48.941  1.00  0.00    -0.020 C 
ATOM     16  C   UNL     1      49.955  39.779  49.630  1.00  0.00     0.032 C 
ATOM     17  C   UNL     1      51.070  39.432  48.596  1.00  0.00     0.006 C 
ATOM     18  C   UNL     1      53.013  39.555  50.231  1.00  0.00     0.008 C 
ATOM     19  C   UNL     1      53.414  40.059  47.750  1.00  0.00     0.012 C 
ATOM     20  C   UNL     1      51.254  37.839  48.342  1.00  0.00    -0.025 C 
ATOM     21  C   UNL     1      52.673  38.065  50.492  1.00  0.00     0.005 C 
ATOM     22  C   UNL     1      52.457  37.229  49.205  1.00  0.00     0.003 C 
ATOM     23  C   UNL     1      49.906  37.083  48.640  1.00  0.00     0.010 C 
ATOM     24  C   UNL     1      51.543  37.633  46.814  1.00  0.00     0.012 C 
ATOM     25  C   UNL     1      52.441  35.643  49.439  1.00  0.00    -0.006 C 
ATOM     26  C   UNL     1      50.006  35.561  48.664  1.00  0.00     0.033 C 
ATOM     27  C   UNL     1      51.005  35.123  49.735  1.00  0.00     0.120 C 
ATOM     28  C   UNL     1      53.340  35.222  50.636  1.00  0.00     0.014 C 
ATOM     29  C   UNL     1      53.047  34.909  48.207  1.00  0.00     0.014 C 
ENDROOT
BRANCH   1  30
ATOM     30  C   UNL     1      51.105  45.427  49.964  1.00  0.00     0.048 C 
ATOM     31  O   UNL     1      49.847  45.344  49.890  1.00  0.00    -0.550 OA
ATOM     32  O   UNL     1      51.743  46.433  49.241  1.00  0.00    -0.550 OA
ENDBRANCH   1  30
BRANCH  27  33
ATOM     33  O   UNL     1      50.997  33.719  49.830  1.00  0.00    -0.393 OA
ATOM     34  H   UNL     1      50.059  33.445  50.002  1.00  0.00     0.210 HD
ENDBRANCH  27  33
TORSDOF 2
ENDMDL
