MODEL 1
REMARK VINA RESULT:    -1.063      0.000      0.000
REMARK INTER + INTRA:          -3.087
REMARK INTER:                  -1.684
REMARK INTRA:                  -1.403
REMARK UNBOUND:                -1.403
REMARK SMILES CCCCCCCCCCCC(=O)[O-]
REMARK SMILES IDX 7 1 8 2 9 3 10 4 11 5 12 6 13 7 14 8 6 9 5 10 4 11 3 12 2 13
REMARK SMILES IDX 1 14
REMARK H PARENT
REMARK Flexibility Score: inf
ROOT
ATOM      1  C   UNL     1      37.834   3.708  42.093  1.00  0.00     0.000 C 
ENDROOT
BRANCH   1   2
ATOM      2  C   UNL     1      36.327   3.988  42.117  1.00  0.00     0.000 C 
BRANCH   2   3
ATOM      3  C   UNL     1      35.523   2.679  42.125  1.00  0.00     0.000 C 
BRANCH   3   4
ATOM      4  C   UNL     1      34.181   2.798  41.380  1.00  0.00     0.006 C 
BRANCH   4   5
ATOM      5  C   UNL     1      33.149   3.701  42.076  1.00  0.00     0.053 C 
BRANCH   5   6
ATOM      6  C   UNL     1      32.587   4.733  41.148  1.00  0.00     0.041 C 
ATOM      7  O   UNL     1      33.084   4.892  40.002  1.00  0.00    -0.550 OA
ATOM      8  O   UNL     1      31.493   5.496  41.535  1.00  0.00    -0.550 OA
ENDBRANCH   5   6
ENDBRANCH   4   5
ENDBRANCH   3   4
ENDBRANCH   2   3
ENDBRANCH   1   2
BRANCH   1   9
ATOM      9  C   UNL     1      38.113   2.207  41.927  1.00  0.00     0.000 C 
BRANCH   9  10
ATOM     10  C   UNL     1      39.032   1.902  40.734  1.00  0.00    -0.000 C 
BRANCH  10  11
ATOM     11  C   UNL     1      38.667   2.719  39.482  1.00  0.00    -0.000 C 
BRANCH  11  12
ATOM     12  C   UNL     1      37.832   1.912  38.474  1.00  0.00    -0.000 C 
BRANCH  12  13
ATOM     13  C   UNL     1      36.337   2.257  38.533  1.00  0.00    -0.003 C 
ATOM     14  C   UNL     1      36.113   3.758  38.372  1.00  0.00     0.004 C 
ENDBRANCH  12  13
ENDBRANCH  11  12
ENDBRANCH  10  11
ENDBRANCH   9  10
ENDBRANCH   1   9
TORSDOF 10
ENDMDL
MODEL 2
REMARK VINA RESULT:    -0.979      2.545      4.537
REMARK INTER + INTRA:          -2.955
REMARK INTER:                  -1.247
REMARK INTRA:                  -1.708
REMARK UNBOUND:                -1.403
REMARK SMILES CCCCCCCCCCCC(=O)[O-]
REMARK SMILES IDX 7 1 8 2 9 3 10 4 11 5 12 6 13 7 14 8 6 9 5 10 4 11 3 12 2 13
REMARK SMILES IDX 1 14
REMARK H PARENT
REMARK Flexibility Score: inf
ROOT
ATOM      1  C   UNL     1      39.629   4.683  40.106  1.00  0.00     0.000 C 
ENDROOT
BRANCH   1   2
ATOM      2  C   UNL     1      39.123   4.309  38.707  1.00  0.00     0.000 C 
BRANCH   2   3
ATOM      3  C   UNL     1      38.759   2.819  38.632  1.00  0.00     0.000 C 
BRANCH   3   4
ATOM      4  C   UNL     1      37.247   2.582  38.459  1.00  0.00     0.006 C 
BRANCH   4   5
ATOM      5  C   UNL     1      36.415   3.870  38.342  1.00  0.00     0.053 C 
BRANCH   5   6
ATOM      6  C   UNL     1      35.821   4.033  36.976  1.00  0.00     0.041 C 
ATOM      7  O   UNL     1      34.581   3.897  36.804  1.00  0.00    -0.550 OA
ATOM      8  O   UNL     1      36.632   4.370  35.900  1.00  0.00    -0.550 OA
ENDBRANCH   5   6
ENDBRANCH   4   5
ENDBRANCH   3   4
ENDBRANCH   2   3
ENDBRANCH   1   2
BRANCH   1   9
ATOM      9  C   UNL     1      38.868   5.898  40.659  1.00  0.00     0.000 C 
BRANCH   9  10
ATOM     10  C   UNL     1      37.626   5.501  41.471  1.00  0.00    -0.000 C 
BRANCH  10  11
ATOM     11  C   UNL     1      37.765   4.115  42.125  1.00  0.00    -0.000 C 
BRANCH  11  12
ATOM     12  C   UNL     1      36.459   3.304  42.073  1.00  0.00    -0.000 C 
BRANCH  12  13
ATOM     13  C   UNL     1      36.704   1.788  42.061  1.00  0.00    -0.003 C 
ATOM     14  C   UNL     1      38.197   1.473  42.090  1.00  0.00     0.004 C 
ENDBRANCH  12  13
ENDBRANCH  11  12
ENDBRANCH  10  11
ENDBRANCH   9  10
ENDBRANCH   1   9
TORSDOF 10
ENDMDL
MODEL 3
REMARK VINA RESULT:    -0.898      3.959      6.161
REMARK INTER + INTRA:          -2.827
REMARK INTER:                  -1.591
REMARK INTRA:                  -1.236
REMARK UNBOUND:                -1.403
REMARK SMILES CCCCCCCCCCCC(=O)[O-]
REMARK SMILES IDX 7 1 8 2 9 3 10 4 11 5 12 6 13 7 14 8 6 9 5 10 4 11 3 12 2 13
REMARK SMILES IDX 1 14
REMARK H PARENT
REMARK Flexibility Score: inf
ROOT
ATOM      1  C   UNL     1      36.641   1.402  40.304  1.00  0.00     0.000 C 
ENDROOT
BRANCH   1   2
ATOM      2  C   UNL     1      37.393   0.876  41.533  1.00  0.00     0.000 C 
BRANCH   2   3
ATOM      3  C   UNL     1      38.717   1.627  41.732  1.00  0.00     0.000 C 
BRANCH   3   4
ATOM      4  C   UNL     1      39.320   2.136  40.410  1.00  0.00     0.006 C 
BRANCH   4   5
ATOM      5  C   UNL     1      40.607   1.411  39.982  1.00  0.00     0.053 C 
BRANCH   5   6
ATOM      6  C   UNL     1      41.836   2.194  40.330  1.00  0.00     0.041 C 
ATOM      7  O   UNL     1      42.972   1.774  39.987  1.00  0.00    -0.550 OA
ATOM      8  O   UNL     1      41.723   3.403  41.004  1.00  0.00    -0.550 OA
ENDBRANCH   5   6
ENDBRANCH   4   5
ENDBRANCH   3   4
ENDBRANCH   2   3
ENDBRANCH   1   2
BRANCH   1   9
ATOM      9  C   UNL     1      35.206   1.810  40.670  1.00  0.00     0.000 C 
BRANCH   9  10
ATOM     10  C   UNL     1      35.093   2.369  42.097  1.00  0.00    -0.000 C 
BRANCH  10  11
ATOM     11  C   UNL     1      34.954   3.901  42.122  1.00  0.00    -0.000 C 
BRANCH  11  12
ATOM     12  C   UNL     1      36.314   4.618  42.125  1.00  0.00    -0.000 C 
BRANCH  12  13
ATOM     13  C   UNL     1      36.391   5.745  41.084  1.00  0.00    -0.003 C 
ATOM     14  C   UNL     1      36.930   5.227  39.753  1.00  0.00     0.004 C 
ENDBRANCH  12  13
ENDBRANCH  11  12
ENDBRANCH  10  11
ENDBRANCH   9  10
ENDBRANCH   1   9
TORSDOF 10
ENDMDL
MODEL 4
REMARK VINA RESULT:    -0.869      3.275      5.218
REMARK INTER + INTRA:          -2.780
REMARK INTER:                  -1.123
REMARK INTRA:                  -1.657
REMARK UNBOUND:                -1.403
REMARK SMILES CCCCCCCCCCCC(=O)[O-]
REMARK SMILES IDX 7 1 8 2 9 3 10 4 11 5 12 6 13 7 14 8 6 9 5 10 4 11 3 12 2 13
REMARK SMILES IDX 1 14
REMARK H PARENT
REMARK Flexibility Score: inf
ROOT
ATOM      1  C   UNL     1      38.391   2.791  38.054  1.00  0.00     0.000 C 
ENDROOT
BRANCH   1   2
ATOM      2  C   UNL     1      37.210   3.696  38.426  1.00  0.00     0.000 C 
BRANCH   2   3
ATOM      3  C   UNL     1      37.698   5.001  39.072  1.00  0.00     0.000 C 
BRANCH   3   4
ATOM      4  C   UNL     1      39.232   5.079  39.178  1.00  0.00     0.006 C 
BRANCH   4   5
ATOM      5  C   UNL     1      39.751   5.470  40.571  1.00  0.00     0.053 C 
BRANCH   5   6
ATOM      6  C   UNL     1      39.685   6.949  40.801  1.00  0.00     0.041 C 
ATOM      7  O   UNL     1      38.815   7.433  41.572  1.00  0.00    -0.550 OA
ATOM      8  O   UNL     1      40.609   7.790  40.191  1.00  0.00    -0.550 OA
ENDBRANCH   5   6
ENDBRANCH   4   5
ENDBRANCH   3   4
ENDBRANCH   2   3
ENDBRANCH   1   2
BRANCH   1   9
ATOM      9  C   UNL     1      38.232   1.395  38.674  1.00  0.00     0.000 C 
BRANCH   9  10
ATOM     10  C   UNL     1      39.486   0.937  39.435  1.00  0.00    -0.000 C 
BRANCH  10  11
ATOM     11  C   UNL     1      39.698   1.713  40.747  1.00  0.00    -0.000 C 
BRANCH  11  12
ATOM     12  C   UNL     1      38.553   1.499  41.751  1.00  0.00    -0.000 C 
BRANCH  12  13
ATOM     13  C   UNL     1      37.836   2.806  42.120  1.00  0.00    -0.003 C 
ATOM     14  C   UNL     1      36.337   2.703  41.853  1.00  0.00     0.004 C 
ENDBRANCH  12  13
ENDBRANCH  11  12
ENDBRANCH  10  11
ENDBRANCH   9  10
ENDBRANCH   1   9
TORSDOF 10
ENDMDL
MODEL 5
REMARK VINA RESULT:    -0.851      3.023      4.510
REMARK INTER + INTRA:          -2.752
REMARK INTER:                  -1.503
REMARK INTRA:                  -1.249
REMARK UNBOUND:                -1.403
REMARK SMILES CCCCCCCCCCCC(=O)[O-]
REMARK SMILES IDX 7 1 8 2 9 3 10 4 11 5 12 6 13 7 14 8 6 9 5 10 4 11 3 12 2 13
REMARK SMILES IDX 1 14
REMARK H PARENT
REMARK Flexibility Score: inf
ROOT
ATOM      1  C   UNL     1      35.180   3.536  40.861  1.00  0.00     0.000 C 
ENDROOT
BRANCH   1   2
ATOM      2  C   UNL     1      35.626   5.001  40.774  1.00  0.00     0.000 C 
BRANCH   2   3
ATOM      3  C   UNL     1      36.217   5.478  42.109  1.00  0.00     0.000 C 
BRANCH   3   4
ATOM      4  C   UNL     1      37.170   6.676  41.947  1.00  0.00     0.006 C 
BRANCH   4   5
ATOM      5  C   UNL     1      38.365   6.412  41.016  1.00  0.00     0.053 C 
BRANCH   5   6
ATOM      6  C   UNL     1      38.427   7.395  39.887  1.00  0.00     0.041 C 
ATOM      7  O   UNL     1      37.580   7.345  38.957  1.00  0.00    -0.550 OA
ATOM      8  O   UNL     1      39.398   8.389  39.882  1.00  0.00    -0.550 OA
ENDBRANCH   5   6
ENDBRANCH   4   5
ENDBRANCH   3   4
ENDBRANCH   2   3
ENDBRANCH   1   2
BRANCH   1   9
ATOM      9  C   UNL     1      35.738   2.865  42.125  1.00  0.00     0.000 C 
BRANCH   9  10
ATOM     10  C   UNL     1      36.409   1.514  41.832  1.00  0.00    -0.000 C 
BRANCH  10  11
ATOM     11  C   UNL     1      37.920   1.528  42.124  1.00  0.00    -0.000 C 
BRANCH  11  12
ATOM     12  C   UNL     1      38.627   2.749  41.512  1.00  0.00    -0.000 C 
BRANCH  12  13
ATOM     13  C   UNL     1      38.793   2.634  39.989  1.00  0.00    -0.003 C 
ATOM     14  C   UNL     1      39.462   1.317  39.608  1.00  0.00     0.004 C 
ENDBRANCH  12  13
ENDBRANCH  11  12
ENDBRANCH  10  11
ENDBRANCH   9  10
ENDBRANCH   1   9
TORSDOF 10
ENDMDL
MODEL 6
REMARK VINA RESULT:    -0.848      1.641      2.043
REMARK INTER + INTRA:          -2.747
REMARK INTER:                  -1.457
REMARK INTRA:                  -1.290
REMARK UNBOUND:                -1.403
REMARK SMILES CCCCCCCCCCCC(=O)[O-]
REMARK SMILES IDX 7 1 8 2 9 3 10 4 11 5 12 6 13 7 14 8 6 9 5 10 4 11 3 12 2 13
REMARK SMILES IDX 1 14
REMARK H PARENT
REMARK Flexibility Score: inf
ROOT
ATOM      1  C   UNL     1      39.206   4.908  41.254  1.00  0.00     0.000 C 
ENDROOT
BRANCH   1   2
ATOM      2  C   UNL     1      38.171   4.184  42.125  1.00  0.00     0.000 C 
BRANCH   2   3
ATOM      3  C   UNL     1      36.761   4.743  41.886  1.00  0.00     0.000 C 
BRANCH   3   4
ATOM      4  C   UNL     1      35.673   3.655  41.924  1.00  0.00     0.006 C 
BRANCH   4   5
ATOM      5  C   UNL     1      34.340   4.071  41.279  1.00  0.00     0.053 C 
BRANCH   5   6
ATOM      6  C   UNL     1      33.389   2.919  41.160  1.00  0.00     0.041 C 
ATOM      7  O   UNL     1      33.652   1.957  40.392  1.00  0.00    -0.550 OA
ATOM      8  O   UNL     1      32.230   2.892  41.926  1.00  0.00    -0.550 OA
ENDBRANCH   5   6
ENDBRANCH   4   5
ENDBRANCH   3   4
ENDBRANCH   2   3
ENDBRANCH   1   2
BRANCH   1   9
ATOM      9  C   UNL     1      40.281   3.933  40.752  1.00  0.00     0.000 C 
BRANCH   9  10
ATOM     10  C   UNL     1      39.915   2.463  41.006  1.00  0.00    -0.000 C 
BRANCH  10  11
ATOM     11  C   UNL     1      39.588   1.702  39.709  1.00  0.00    -0.000 C 
BRANCH  11  12
ATOM     12  C   UNL     1      38.269   0.917  39.801  1.00  0.00    -0.000 C 
BRANCH  12  13
ATOM     13  C   UNL     1      37.069   1.712  39.266  1.00  0.00    -0.003 C 
ATOM     14  C   UNL     1      37.529   2.918  38.451  1.00  0.00     0.004 C 
ENDBRANCH  12  13
ENDBRANCH  11  12
ENDBRANCH  10  11
ENDBRANCH   9  10
ENDBRANCH   1   9
TORSDOF 10
ENDMDL
MODEL 7
REMARK VINA RESULT:    -0.837      2.808      4.458
REMARK INTER + INTRA:          -2.729
REMARK INTER:                  -1.367
REMARK INTRA:                  -1.362
REMARK UNBOUND:                -1.403
REMARK SMILES CCCCCCCCCCCC(=O)[O-]
REMARK SMILES IDX 7 1 8 2 9 3 10 4 11 5 12 6 13 7 14 8 6 9 5 10 4 11 3 12 2 13
REMARK SMILES IDX 1 14
REMARK H PARENT
REMARK Flexibility Score: inf
ROOT
ATOM      1  C   UNL     1      34.706   3.766  39.061  1.00  0.00     0.000 C 
ENDROOT
BRANCH   1   2
ATOM      2  C   UNL     1      33.504   4.664  39.379  1.00  0.00     0.000 C 
BRANCH   2   3
ATOM      3  C   UNL     1      33.961   6.010  39.960  1.00  0.00     0.000 C 
BRANCH   3   4
ATOM      4  C   UNL     1      35.479   6.068  40.213  1.00  0.00     0.006 C 
BRANCH   4   5
ATOM      5  C   UNL     1      35.867   6.486  41.641  1.00  0.00     0.053 C 
BRANCH   5   6
ATOM      6  C   UNL     1      36.938   7.532  41.649  1.00  0.00     0.041 C 
ATOM      7  O   UNL     1      38.119   7.232  41.332  1.00  0.00    -0.550 OA
ATOM      8  O   UNL     1      36.625   8.847  41.973  1.00  0.00    -0.550 OA
ENDBRANCH   5   6
ENDBRANCH   4   5
ENDBRANCH   3   4
ENDBRANCH   2   3
ENDBRANCH   1   2
BRANCH   1   9
ATOM      9  C   UNL     1      34.576   2.404  39.760  1.00  0.00     0.000 C 
BRANCH   9  10
ATOM     10  C   UNL     1      34.243   2.534  41.255  1.00  0.00    -0.000 C 
BRANCH  10  11
ATOM     11  C   UNL     1      35.495   2.750  42.123  1.00  0.00    -0.000 C 
BRANCH  11  12
ATOM     12  C   UNL     1      36.561   1.665  41.901  1.00  0.00    -0.000 C 
BRANCH  12  13
ATOM     13  C   UNL     1      37.993   2.216  41.978  1.00  0.00    -0.003 C 
ATOM     14  C   UNL     1      38.082   3.600  41.342  1.00  0.00     0.004 C 
ENDBRANCH  12  13
ENDBRANCH  11  12
ENDBRANCH  10  11
ENDBRANCH   9  10
ENDBRANCH   1   9
TORSDOF 10
ENDMDL
MODEL 8
REMARK VINA RESULT:    -0.830      2.748      4.266
REMARK INTER + INTRA:          -2.718
REMARK INTER:                  -1.215
REMARK INTRA:                  -1.502
REMARK UNBOUND:                -1.403
REMARK SMILES CCCCCCCCCCCC(=O)[O-]
REMARK SMILES IDX 7 1 8 2 9 3 10 4 11 5 12 6 13 7 14 8 6 9 5 10 4 11 3 12 2 13
REMARK SMILES IDX 1 14
REMARK H PARENT
REMARK Flexibility Score: inf
ROOT
ATOM      1  C   UNL     1      38.599   3.696  39.281  1.00  0.00     0.000 C 
ENDROOT
BRANCH   1   2
ATOM      2  C   UNL     1      39.112   2.967  40.529  1.00  0.00     0.000 C 
BRANCH   2   3
ATOM      3  C   UNL     1      38.189   3.215  41.731  1.00  0.00     0.000 C 
BRANCH   3   4
ATOM      4  C   UNL     1      37.032   4.177  41.407  1.00  0.00     0.006 C 
BRANCH   4   5
ATOM      5  C   UNL     1      35.713   3.845  42.125  1.00  0.00     0.053 C 
BRANCH   5   6
ATOM      6  C   UNL     1      34.880   2.872  41.348  1.00  0.00     0.041 C 
ATOM      7  O   UNL     1      35.118   2.666  40.129  1.00  0.00    -0.550 OA
ATOM      8  O   UNL     1      33.863   2.168  41.980  1.00  0.00    -0.550 OA
ENDBRANCH   5   6
ENDBRANCH   4   5
ENDBRANCH   3   4
ENDBRANCH   2   3
ENDBRANCH   1   2
BRANCH   1   9
ATOM      9  C   UNL     1      39.744   4.419  38.556  1.00  0.00     0.000 C 
BRANCH   9  10
ATOM     10  C   UNL     1      39.406   5.881  38.224  1.00  0.00    -0.000 C 
BRANCH  10  11
ATOM     11  C   UNL     1      38.853   6.650  39.436  1.00  0.00    -0.000 C 
BRANCH  11  12
ATOM     12  C   UNL     1      39.965   7.176  40.359  1.00  0.00    -0.000 C 
BRANCH  12  13
ATOM     13  C   UNL     1      39.996   6.458  41.717  1.00  0.00    -0.003 C 
ATOM     14  C   UNL     1      41.269   5.632  41.871  1.00  0.00     0.004 C 
ENDBRANCH  12  13
ENDBRANCH  11  12
ENDBRANCH  10  11
ENDBRANCH   9  10
ENDBRANCH   1   9
TORSDOF 10
ENDMDL
MODEL 9
REMARK VINA RESULT:    -0.819      3.178      5.034
REMARK INTER + INTRA:          -2.701
REMARK INTER:                  -1.184
REMARK INTRA:                  -1.517
REMARK UNBOUND:                -1.403
REMARK SMILES CCCCCCCCCCCC(=O)[O-]
REMARK SMILES IDX 7 1 8 2 9 3 10 4 11 5 12 6 13 7 14 8 6 9 5 10 4 11 3 12 2 13
REMARK SMILES IDX 1 14
REMARK H PARENT
REMARK Flexibility Score: inf
ROOT
ATOM      1  C   UNL     1      38.490   5.332  41.087  1.00  0.00     0.000 C 
ENDROOT
BRANCH   1   2
ATOM      2  C   UNL     1      37.893   5.431  39.678  1.00  0.00     0.000 C 
BRANCH   2   3
ATOM      3  C   UNL     1      38.958   5.149  38.607  1.00  0.00     0.000 C 
BRANCH   3   4
ATOM      4  C   UNL     1      38.508   4.094  37.580  1.00  0.00     0.006 C 
BRANCH   4   5
ATOM      5  C   UNL     1      37.323   3.228  38.041  1.00  0.00     0.053 C 
BRANCH   5   6
ATOM      6  C   UNL     1      37.419   1.825  37.526  1.00  0.00     0.041 C 
ATOM      7  O   UNL     1      36.419   1.278  36.989  1.00  0.00    -0.550 OA
ATOM      8  O   UNL     1      38.621   1.134  37.606  1.00  0.00    -0.550 OA
ENDBRANCH   5   6
ENDBRANCH   4   5
ENDBRANCH   3   4
ENDBRANCH   2   3
ENDBRANCH   1   2
BRANCH   1   9
ATOM      9  C   UNL     1      37.494   4.688  42.063  1.00  0.00     0.000 C 
BRANCH   9  10
ATOM     10  C   UNL     1      36.409   3.868  41.348  1.00  0.00    -0.000 C 
BRANCH  10  11
ATOM     11  C   UNL     1      36.572   2.353  41.567  1.00  0.00    -0.000 C 
BRANCH  11  12
ATOM     12  C   UNL     1      37.956   1.984  42.125  1.00  0.00    -0.000 C 
BRANCH  12  13
ATOM     13  C   UNL     1      38.842   1.274  41.090  1.00  0.00    -0.003 C 
ATOM     14  C   UNL     1      40.066   2.118  40.746  1.00  0.00     0.004 C 
ENDBRANCH  12  13
ENDBRANCH  11  12
ENDBRANCH  10  11
ENDBRANCH   9  10
ENDBRANCH   1   9
TORSDOF 10
ENDMDL
