MODEL 1
REMARK VINA RESULT:    -3.220      0.000      0.000
REMARK INTER + INTRA:          -3.310
REMARK INTER:                  -4.913
REMARK INTRA:                   1.604
REMARK UNBOUND:                 1.604
REMARK SMILES CC1=CCC[C@H](C)C(=O)C[C@H](C(C)C)C(=O)C1
REMARK SMILES IDX 8 1 9 2 6 3 7 4 5 5 4 6 3 7 2 8 1 9 10 11 11 12 15 13 16 14
REMARK SMILES IDX 17 15 12 17 13 18 14 19
REMARK H PARENT
REMARK Flexibility Score: 70.00
ROOT
ATOM      1  C   UNL     1      10.167  16.175  13.496  1.00  0.00     0.136 C 
ATOM      2  O   UNL     1       9.283  15.791  14.250  1.00  0.00    -0.299 OA
ENDROOT
BRANCH   1   3
ATOM      3  C   UNL     1       9.824  16.609  12.080  1.00  0.00     0.053 C 
ATOM      4  C   UNL     1       9.201  18.012  12.086  1.00  0.00     0.016 C 
BRANCH   3   5
ATOM      5  C   UNL     1      11.084  16.551  11.170  1.00  0.00     0.015 C 
BRANCH   5   6
ATOM      6  C   UNL     1      11.136  15.352  10.198  1.00  0.00     0.028 C 
BRANCH   6   7
ATOM      7  C   UNL     1      12.509  14.790   9.899  1.00  0.00    -0.028 C 
ATOM      8  C   UNL     1      13.641  15.010  10.609  1.00  0.00    -0.070 CG0
ATOM      9  C   UNL     1      14.937  14.464  10.062  1.00  0.00     0.039 C 
ATOM     10  G   UNL     1      13.667  15.763  11.922  1.00  0.00     0.000 G0
ENDBRANCH   6   7
ENDBRANCH   5   6
ENDBRANCH   3   5
ENDBRANCH   1   3
BRANCH   1  11
ATOM     11  C   UNL     1      11.587  16.247  14.003  1.00  0.00     0.087 C 
BRANCH  11  12
ATOM     12  C   UNL     1      12.321  14.871  14.026  1.00  0.00     0.066 C 
BRANCH  12  13
ATOM     13  C   UNL     1      13.584  14.923  13.164  1.00  0.00     0.140 C 
ATOM     14  O   UNL     1      14.543  14.227  13.462  1.00  0.00    -0.299 OA
BRANCH  13  15
ATOM     15  C   UNL     1      13.682  15.784  11.928  1.00  0.00     0.106 CG0
ATOM     16  G   UNL     1      13.637  14.972  10.651  1.00  0.00     0.000 G0
ENDBRANCH  13  15
ENDBRANCH  12  13
BRANCH  12  17
ATOM     17  C   UNL     1      12.626  14.330  15.464  1.00  0.00    -0.006 C 
ATOM     18  C   UNL     1      12.989  12.833  15.473  1.00  0.00     0.008 C 
ATOM     19  C   UNL     1      13.784  15.116  16.112  1.00  0.00     0.008 C 
ENDBRANCH  12  17
ENDBRANCH  11  12
ENDBRANCH   1  11
TORSDOF 1
ENDMDL
MODEL 2
REMARK VINA RESULT:    -2.944      1.967      4.000
REMARK INTER + INTRA:          -2.889
REMARK INTER:                  -2.650
REMARK INTRA:                  -0.239
REMARK UNBOUND:                 1.604
REMARK SMILES CC1=CCC[C@H](C)C(=O)C[C@H](C(C)C)C(=O)C1
REMARK SMILES IDX 8 1 9 2 6 3 7 4 5 5 4 6 3 7 2 8 1 9 10 11 11 12 15 13 16 14
REMARK SMILES IDX 17 15 12 17 13 18 14 19
REMARK H PARENT
REMARK Flexibility Score: 70.00
ROOT
ATOM      1  C   UNL     1      12.866  14.661  10.901  1.00  0.00     0.136 C 
ATOM      2  O   UNL     1      12.747  13.869   9.976  1.00  0.00    -0.299 OA
ENDROOT
BRANCH   1   3
ATOM      3  C   UNL     1      13.570  15.990  10.678  1.00  0.00     0.053 C 
ATOM      4  C   UNL     1      14.916  15.773   9.974  1.00  0.00     0.016 C 
BRANCH   3   5
ATOM      5  C   UNL     1      12.659  16.963   9.875  1.00  0.00     0.015 C 
BRANCH   5   6
ATOM      6  C   UNL     1      11.152  16.631   9.913  1.00  0.00     0.028 C 
BRANCH   6   7
ATOM      7  C   UNL     1      10.278  17.568  10.720  1.00  0.00    -0.028 C 
ATOM      8  C   UNL     1       9.699  17.300  11.914  1.00  0.00    -0.070 CG0
ATOM      9  C   UNL     1       8.753  18.326  12.488  1.00  0.00     0.039 C 
ATOM     10  G   UNL     1       9.960  16.034  12.702  1.00  0.00     0.000 G0
ENDBRANCH   6   7
ENDBRANCH   5   6
ENDBRANCH   3   5
ENDBRANCH   1   3
BRANCH   1  11
ATOM     11  C   UNL     1      12.272  14.318  12.245  1.00  0.00     0.087 C 
BRANCH  11  12
ATOM     12  C   UNL     1      12.450  15.435  13.319  1.00  0.00     0.066 C 
BRANCH  12  13
ATOM     13  C   UNL     1      11.105  16.091  13.637  1.00  0.00     0.140 C 
ATOM     14  O   UNL     1      10.980  16.734  14.669  1.00  0.00    -0.299 OA
BRANCH  13  15
ATOM     15  C   UNL     1       9.923  16.003  12.702  1.00  0.00     0.106 CG0
ATOM     16  G   UNL     1       9.701  17.285  11.927  1.00  0.00     0.000 G0
ENDBRANCH  13  15
ENDBRANCH  12  13
BRANCH  12  17
ATOM     17  C   UNL     1      13.184  14.964  14.620  1.00  0.00    -0.006 C 
ATOM     18  C   UNL     1      12.638  13.630  15.164  1.00  0.00     0.008 C 
ATOM     19  C   UNL     1      14.698  14.805  14.370  1.00  0.00     0.008 C 
ENDBRANCH  12  17
ENDBRANCH  11  12
ENDBRANCH   1  11
TORSDOF 1
ENDMDL
MODEL 3
REMARK VINA RESULT:    -2.613      1.698      3.785
REMARK INTER + INTRA:          -2.384
REMARK INTER:                  -2.656
REMARK INTRA:                   0.272
REMARK UNBOUND:                 1.604
REMARK SMILES CC1=CCC[C@H](C)C(=O)C[C@H](C(C)C)C(=O)C1
REMARK SMILES IDX 8 1 9 2 6 3 7 4 5 5 4 6 3 7 2 8 1 9 10 11 11 12 15 13 16 14
REMARK SMILES IDX 17 15 12 17 13 18 14 19
REMARK H PARENT
REMARK Flexibility Score: 70.00
ROOT
ATOM      1  C   UNL     1      13.691  15.486  11.389  1.00  0.00     0.136 C 
ATOM      2  O   UNL     1      14.710  16.147  11.534  1.00  0.00    -0.299 OA
ENDROOT
BRANCH   1   3
ATOM      3  C   UNL     1      12.935  15.532  10.071  1.00  0.00     0.053 C 
ATOM      4  C   UNL     1      11.999  14.321   9.947  1.00  0.00     0.016 C 
BRANCH   3   5
ATOM      5  C   UNL     1      12.153  16.870   9.936  1.00  0.00     0.015 C 
BRANCH   5   6
ATOM      6  C   UNL     1      10.620  16.751  10.083  1.00  0.00     0.028 C 
BRANCH   6   7
ATOM      7  C   UNL     1      10.008  17.419  11.296  1.00  0.00    -0.028 C 
ATOM      8  C   UNL     1       9.895  16.888  12.536  1.00  0.00    -0.070 CG0
ATOM      9  C   UNL     1       9.129  17.670  13.574  1.00  0.00     0.039 C 
ATOM     10  G   UNL     1      10.506  15.560  12.932  1.00  0.00     0.000 G0
ENDBRANCH   6   7
ENDBRANCH   5   6
ENDBRANCH   3   5
ENDBRANCH   1   3
BRANCH   1  11
ATOM     11  C   UNL     1      13.222  14.600  12.518  1.00  0.00     0.087 C 
BRANCH  11  12
ATOM     12  C   UNL     1      12.989  15.357  13.862  1.00  0.00     0.066 C 
BRANCH  12  13
ATOM     13  C   UNL     1      11.504  15.668  14.051  1.00  0.00     0.140 C 
ATOM     14  O   UNL     1      11.104  16.047  15.142  1.00  0.00    -0.299 OA
BRANCH  13  15
ATOM     15  C   UNL     1      10.506  15.556  12.924  1.00  0.00     0.106 CG0
ATOM     16  G   UNL     1       9.922  16.897  12.531  1.00  0.00     0.000 G0
ENDBRANCH  13  15
ENDBRANCH  12  13
BRANCH  12  17
ATOM     17  C   UNL     1      13.593  14.639  15.116  1.00  0.00    -0.006 C 
ATOM     18  C   UNL     1      13.305  13.126  15.133  1.00  0.00     0.008 C 
ATOM     19  C   UNL     1      15.120  14.846  15.186  1.00  0.00     0.008 C 
ENDBRANCH  12  17
ENDBRANCH  11  12
ENDBRANCH   1  11
TORSDOF 1
ENDMDL
MODEL 4
REMARK VINA RESULT:    -2.583      1.842      4.943
REMARK INTER + INTRA:          -2.338
REMARK INTER:                  -2.606
REMARK INTRA:                   0.268
REMARK UNBOUND:                 1.604
REMARK SMILES CC1=CCC[C@H](C)C(=O)C[C@H](C(C)C)C(=O)C1
REMARK SMILES IDX 8 1 9 2 6 3 7 4 5 5 4 6 3 7 2 8 1 9 10 11 11 12 15 13 16 14
REMARK SMILES IDX 17 15 12 17 13 18 14 19
REMARK H PARENT
REMARK Flexibility Score: 70.00
ROOT
ATOM      1  C   UNL     1      13.987  14.709  13.561  1.00  0.00     0.136 C 
ATOM      2  O   UNL     1      15.105  14.237  13.717  1.00  0.00    -0.299 OA
ENDROOT
BRANCH   1   3
ATOM      3  C   UNL     1      12.844  14.275  14.466  1.00  0.00     0.053 C 
ATOM      4  C   UNL     1      13.369  13.387  15.603  1.00  0.00     0.016 C 
BRANCH   3   5
ATOM      5  C   UNL     1      12.084  15.515  15.018  1.00  0.00     0.015 C 
BRANCH   5   6
ATOM      6  C   UNL     1      10.558  15.507  14.780  1.00  0.00     0.028 C 
BRANCH   6   7
ATOM      7  C   UNL     1      10.016  16.585  13.865  1.00  0.00    -0.028 C 
ATOM      8  C   UNL     1      10.073  16.596  12.513  1.00  0.00    -0.070 CG0
ATOM      9  C   UNL     1       9.592  17.832  11.794  1.00  0.00     0.039 C 
ATOM     10  G   UNL     1      10.582  15.431  11.691  1.00  0.00     0.000 G0
ENDBRANCH   6   7
ENDBRANCH   5   6
ENDBRANCH   3   5
ENDBRANCH   1   3
BRANCH   1  11
ATOM     11  C   UNL     1      13.770  15.749  12.489  1.00  0.00     0.087 C 
BRANCH  11  12
ATOM     12  C   UNL     1      13.184  15.177  11.161  1.00  0.00     0.066 C 
BRANCH  12  13
ATOM     13  C   UNL     1      11.806  15.780  10.882  1.00  0.00     0.140 C 
ATOM     14  O   UNL     1      11.668  16.553   9.945  1.00  0.00    -0.299 OA
BRANCH  13  15
ATOM     15  C   UNL     1      10.589  15.428  11.703  1.00  0.00     0.106 CG0
ATOM     16  G   UNL     1      10.076  16.602  12.510  1.00  0.00     0.000 G0
ENDBRANCH  13  15
ENDBRANCH  12  13
BRANCH  12  17
ATOM     17  C   UNL     1      14.136  15.317   9.926  1.00  0.00    -0.006 C 
ATOM     18  C   UNL     1      14.852  16.680   9.875  1.00  0.00     0.008 C 
ATOM     19  C   UNL     1      15.205  14.205   9.928  1.00  0.00     0.008 C 
ENDBRANCH  12  17
ENDBRANCH  11  12
ENDBRANCH   1  11
TORSDOF 1
ENDMDL
MODEL 5
REMARK VINA RESULT:    -2.349      1.390      2.183
REMARK INTER + INTRA:          -1.980
REMARK INTER:                  -2.094
REMARK INTRA:                   0.114
REMARK UNBOUND:                 1.604
REMARK SMILES CC1=CCC[C@H](C)C(=O)C[C@H](C(C)C)C(=O)C1
REMARK SMILES IDX 8 1 9 2 6 3 7 4 5 5 4 6 3 7 2 8 1 9 10 11 11 12 15 13 16 14
REMARK SMILES IDX 17 15 12 17 13 18 14 19
REMARK H PARENT
REMARK Flexibility Score: 70.00
ROOT
ATOM      1  C   UNL     1      10.724  15.991  13.941  1.00  0.00     0.136 C 
ATOM      2  O   UNL     1      10.560  15.348  14.969  1.00  0.00    -0.299 OA
ENDROOT
BRANCH   1   3
ATOM      3  C   UNL     1       9.533  16.629  13.243  1.00  0.00     0.053 C 
ATOM      4  C   UNL     1       8.607  17.297  14.269  1.00  0.00     0.016 C 
BRANCH   3   5
ATOM      5  C   UNL     1      10.011  17.642  12.164  1.00  0.00     0.015 C 
BRANCH   5   6
ATOM      6  C   UNL     1       9.880  17.155  10.705  1.00  0.00     0.028 C 
BRANCH   6   7
ATOM      7  C   UNL     1      10.002  15.662  10.483  1.00  0.00    -0.028 C 
ATOM      8  C   UNL     1      11.147  14.970  10.276  1.00  0.00    -0.070 CG0
ATOM      9  C   UNL     1      11.038  13.503   9.941  1.00  0.00     0.039 C 
ATOM     10  G   UNL     1      12.525  15.591  10.376  1.00  0.00     0.000 G0
ENDBRANCH   6   7
ENDBRANCH   5   6
ENDBRANCH   3   5
ENDBRANCH   1   3
BRANCH   1  11
ATOM     11  C   UNL     1      12.122  16.173  13.402  1.00  0.00     0.087 C 
BRANCH  11  12
ATOM     12  C   UNL     1      12.795  14.847  12.928  1.00  0.00     0.066 C 
BRANCH  12  13
ATOM     13  C   UNL     1      13.350  15.006  11.511  1.00  0.00     0.140 C 
ATOM     14  O   UNL     1      14.485  14.624  11.265  1.00  0.00    -0.299 OA
BRANCH  13  15
ATOM     15  C   UNL     1      12.533  15.591  10.385  1.00  0.00     0.106 CG0
ATOM     16  G   UNL     1      11.154  14.973  10.286  1.00  0.00     0.000 G0
ENDBRANCH  13  15
ENDBRANCH  12  13
BRANCH  12  17
ATOM     17  C   UNL     1      13.877  14.288  13.912  1.00  0.00    -0.006 C 
ATOM     18  C   UNL     1      14.683  15.401  14.608  1.00  0.00     0.008 C 
ATOM     19  C   UNL     1      13.228  13.405  14.997  1.00  0.00     0.008 C 
ENDBRANCH  12  17
ENDBRANCH  11  12
ENDBRANCH   1  11
TORSDOF 1
ENDMDL
MODEL 6
REMARK VINA RESULT:    -2.305      1.435      4.137
REMARK INTER + INTRA:          -1.914
REMARK INTER:                  -3.231
REMARK INTRA:                   1.317
REMARK UNBOUND:                 1.604
REMARK SMILES CC1=CCC[C@H](C)C(=O)C[C@H](C(C)C)C(=O)C1
REMARK SMILES IDX 8 1 9 2 6 3 7 4 5 5 4 6 3 7 2 8 1 9 10 11 11 12 15 13 16 14
REMARK SMILES IDX 17 15 12 17 13 18 14 19
REMARK H PARENT
REMARK Flexibility Score: 70.00
ROOT
ATOM      1  C   UNL     1      12.373  14.796  14.619  1.00  0.00     0.136 C 
ATOM      2  O   UNL     1      12.249  13.632  14.263  1.00  0.00    -0.299 OA
ENDROOT
BRANCH   1   3
ATOM      3  C   UNL     1      13.712  15.295  15.137  1.00  0.00     0.053 C 
ATOM      4  C   UNL     1      14.030  14.661  16.498  1.00  0.00     0.016 C 
BRANCH   3   5
ATOM      5  C   UNL     1      14.838  15.011  14.102  1.00  0.00     0.015 C 
BRANCH   5   6
ATOM      6  C   UNL     1      14.349  14.562  12.708  1.00  0.00     0.028 C 
BRANCH   6   7
ATOM      7  C   UNL     1      14.060  15.665  11.711  1.00  0.00    -0.028 C 
ATOM      8  C   UNL     1      12.958  15.778  10.933  1.00  0.00    -0.070 CG0
ATOM      9  C   UNL     1      12.927  16.883   9.906  1.00  0.00     0.039 C 
ATOM     10  G   UNL     1      11.757  14.863  11.051  1.00  0.00     0.000 G0
ENDBRANCH   6   7
ENDBRANCH   5   6
ENDBRANCH   3   5
ENDBRANCH   1   3
BRANCH   1  11
ATOM     11  C   UNL     1      11.195  15.732  14.498  1.00  0.00     0.087 C 
BRANCH  11  12
ATOM     12  C   UNL     1      11.052  16.391  13.091  1.00  0.00     0.066 C 
BRANCH  12  13
ATOM     13  C   UNL     1      10.731  15.332  12.035  1.00  0.00     0.140 C 
ATOM     14  O   UNL     1       9.605  14.859  11.981  1.00  0.00    -0.299 OA
BRANCH  13  15
ATOM     15  C   UNL     1      11.751  14.865  11.024  1.00  0.00     0.106 CG0
ATOM     16  G   UNL     1      12.948  15.788  10.940  1.00  0.00     0.000 G0
ENDBRANCH  13  15
ENDBRANCH  12  13
BRANCH  12  17
ATOM     17  C   UNL     1      10.037  17.583  13.039  1.00  0.00    -0.006 C 
ATOM     18  C   UNL     1       9.554  17.894  11.610  1.00  0.00     0.008 C 
ATOM     19  C   UNL     1       8.803  17.291  13.917  1.00  0.00     0.008 C 
ENDBRANCH  12  17
ENDBRANCH  11  12
ENDBRANCH   1  11
TORSDOF 1
ENDMDL
MODEL 7
REMARK VINA RESULT:    -2.010      1.664      3.971
REMARK INTER + INTRA:          -1.464
REMARK INTER:                  -1.672
REMARK INTRA:                   0.208
REMARK UNBOUND:                 1.604
REMARK SMILES CC1=CCC[C@H](C)C(=O)C[C@H](C(C)C)C(=O)C1
REMARK SMILES IDX 8 1 9 2 6 3 7 4 5 5 4 6 3 7 2 8 1 9 10 11 11 12 15 13 16 14
REMARK SMILES IDX 17 15 12 17 13 18 14 19
REMARK H PARENT
REMARK Flexibility Score: 70.00
ROOT
ATOM      1  C   UNL     1      10.180  14.955  10.863  1.00  0.00     0.136 C 
ATOM      2  O   UNL     1       9.083  14.635  10.427  1.00  0.00    -0.299 OA
ENDROOT
BRANCH   1   3
ATOM      3  C   UNL     1      11.378  14.042  10.655  1.00  0.00     0.053 C 
ATOM      4  C   UNL     1      10.965  12.786   9.875  1.00  0.00     0.016 C 
BRANCH   3   5
ATOM      5  C   UNL     1      12.528  14.805   9.936  1.00  0.00     0.015 C 
BRANCH   5   6
ATOM      6  C   UNL     1      13.614  15.382  10.870  1.00  0.00     0.028 C 
BRANCH   6   7
ATOM      7  C   UNL     1      13.856  14.632  12.162  1.00  0.00    -0.028 C 
ATOM      8  C   UNL     1      13.437  14.999  13.396  1.00  0.00    -0.070 CG0
ATOM      9  C   UNL     1      13.900  14.179  14.575  1.00  0.00     0.039 C 
ATOM     10  G   UNL     1      12.522  16.179  13.649  1.00  0.00     0.000 G0
ENDBRANCH   6   7
ENDBRANCH   5   6
ENDBRANCH   3   5
ENDBRANCH   1   3
BRANCH   1  11
ATOM     11  C   UNL     1      10.333  16.279  11.571  1.00  0.00     0.087 C 
BRANCH  11  12
ATOM     12  C   UNL     1       9.923  16.243  13.076  1.00  0.00     0.066 C 
BRANCH  12  13
ATOM     13  C   UNL     1      11.097  15.777  13.939  1.00  0.00     0.140 C 
ATOM     14  O   UNL     1      10.888  15.031  14.885  1.00  0.00    -0.299 OA
BRANCH  13  15
ATOM     15  C   UNL     1      12.523  16.177  13.647  1.00  0.00     0.106 CG0
ATOM     16  G   UNL     1      13.416  14.985  13.375  1.00  0.00     0.000 G0
ENDBRANCH  13  15
ENDBRANCH  12  13
BRANCH  12  17
ATOM     17  C   UNL     1       9.312  17.583  13.609  1.00  0.00    -0.006 C 
ATOM     18  C   UNL     1       8.899  18.542  12.476  1.00  0.00     0.008 C 
ATOM     19  C   UNL     1       8.078  17.311  14.491  1.00  0.00     0.008 C 
ENDBRANCH  12  17
ENDBRANCH  11  12
ENDBRANCH   1  11
TORSDOF 1
ENDMDL
MODEL 8
REMARK VINA RESULT:    -1.770      1.828      4.461
REMARK INTER + INTRA:          -1.098
REMARK INTER:                  -1.469
REMARK INTRA:                   0.371
REMARK UNBOUND:                 1.604
REMARK SMILES CC1=CCC[C@H](C)C(=O)C[C@H](C(C)C)C(=O)C1
REMARK SMILES IDX 8 1 9 2 6 3 7 4 5 5 4 6 3 7 2 8 1 9 10 11 11 12 15 13 16 14
REMARK SMILES IDX 17 15 12 17 13 18 14 19
REMARK H PARENT
REMARK Flexibility Score: 70.00
ROOT
ATOM      1  C   UNL     1      11.402  16.118  10.545  1.00  0.00     0.136 C 
ATOM      2  O   UNL     1      10.422  15.760   9.905  1.00  0.00    -0.299 OA
ENDROOT
BRANCH   1   3
ATOM      3  C   UNL     1      12.800  15.837  10.018  1.00  0.00     0.053 C 
ATOM      4  C   UNL     1      13.592  17.143   9.875  1.00  0.00     0.016 C 
BRANCH   3   5
ATOM      5  C   UNL     1      13.537  14.823  10.939  1.00  0.00     0.015 C 
BRANCH   5   6
ATOM      6  C   UNL     1      13.952  15.375  12.320  1.00  0.00     0.028 C 
BRANCH   6   7
ATOM      7  C   UNL     1      13.624  14.507  13.516  1.00  0.00    -0.028 C 
ATOM      8  C   UNL     1      12.774  14.813  14.525  1.00  0.00    -0.070 CG0
ATOM      9  C   UNL     1      12.691  13.863  15.694  1.00  0.00     0.039 C 
ATOM     10  G   UNL     1      11.900  16.049  14.530  1.00  0.00     0.000 G0
ENDBRANCH   6   7
ENDBRANCH   5   6
ENDBRANCH   3   5
ENDBRANCH   1   3
BRANCH   1  11
ATOM     11  C   UNL     1      11.201  16.874  11.836  1.00  0.00     0.087 C 
BRANCH  11  12
ATOM     12  C   UNL     1       9.998  16.364  12.687  1.00  0.00     0.066 C 
BRANCH  12  13
ATOM     13  C   UNL     1      10.482  15.849  14.043  1.00  0.00     0.140 C 
ATOM     14  O   UNL     1       9.717  15.210  14.751  1.00  0.00    -0.299 OA
BRANCH  13  15
ATOM     15  C   UNL     1      11.892  16.070  14.534  1.00  0.00     0.106 CG0
ATOM     16  G   UNL     1      12.729  14.809  14.482  1.00  0.00     0.000 G0
ENDBRANCH  13  15
ENDBRANCH  12  13
BRANCH  12  17
ATOM     17  C   UNL     1       8.837  17.403  12.846  1.00  0.00    -0.006 C 
ATOM     18  C   UNL     1       8.903  18.173  14.178  1.00  0.00     0.008 C 
ATOM     19  C   UNL     1       8.853  18.426  11.691  1.00  0.00     0.008 C 
ENDBRANCH  12  17
ENDBRANCH  11  12
ENDBRANCH   1  11
TORSDOF 1
ENDMDL
