MODEL 1
REMARK VINA RESULT:    -4.623      0.000      0.000
REMARK INTER + INTRA:          -4.949
REMARK INTER:                  -5.704
REMARK INTRA:                   0.755
REMARK UNBOUND:                 0.755
REMARK SMILES CC1=CC=CC(C)(C)CC1=O
REMARK SMILES IDX 1 1 2 2 3 3 10 4 11 5 9 6 4 8 5 9 6 10 7 11 8 12
REMARK H PARENT
REMARK Flexibility Score: 80.00
ROOT
ATOM      1  C   UNL     1      -7.503  33.568  19.754  1.00  0.00     0.048 C 
ATOM      2  C   UNL     1      -8.110  33.483  21.135  1.00  0.00    -0.008 C 
ATOM      3  C   UNL     1      -7.650  34.338  22.073  1.00  0.00     0.007 C 
ENDROOT
BRANCH   2   4
ATOM      4  C   UNL     1      -9.113  32.415  21.367  1.00  0.00     0.159 C 
ATOM      5  O   UNL     1      -9.274  31.528  20.484  1.00  0.00    -0.295 OA
BRANCH   4   6
ATOM      6  C   UNL     1      -9.963  32.333  22.598  1.00  0.00     0.091 CG0
ATOM      7  G   UNL     1      -9.140  32.233  23.902  1.00  0.00     0.000 G0
ENDBRANCH   4   6
ENDBRANCH   2   4
BRANCH   3   8
ATOM      8  C   UNL     1      -8.025  34.474  23.501  1.00  0.00    -0.003 C 
ATOM      9  C   UNL     1      -8.647  33.597  24.298  1.00  0.00    -0.020 C 
BRANCH   9  10
ATOM     10  C   UNL     1      -9.152  32.229  23.906  1.00  0.00    -0.010 CG0
ATOM     11  C   UNL     1      -7.970  31.237  23.814  1.00  0.00     0.016 C 
ATOM     12  C   UNL     1     -10.109  31.730  25.013  1.00  0.00     0.016 C 
ATOM     13  G   UNL     1      -9.951  32.328  22.587  1.00  0.00     0.000 G0
ENDBRANCH   9  10
ENDBRANCH   3   8
TORSDOF 0
ENDMDL
MODEL 2
REMARK VINA RESULT:    -4.394      1.580      2.492
REMARK INTER + INTRA:          -4.667
REMARK INTER:                  -5.440
REMARK INTRA:                   0.773
REMARK UNBOUND:                 0.755
REMARK SMILES CC1=CC=CC(C)(C)CC1=O
REMARK SMILES IDX 1 1 2 2 3 3 10 4 11 5 9 6 4 8 5 9 6 10 7 11 8 12
REMARK H PARENT
REMARK Flexibility Score: 80.00
ROOT
ATOM      1  C   UNL     1      -7.875  32.609  20.006  1.00  0.00     0.048 C 
ATOM      2  C   UNL     1      -7.842  32.315  21.487  1.00  0.00    -0.008 C 
ATOM      3  C   UNL     1      -7.763  31.022  21.866  1.00  0.00     0.007 C 
ENDROOT
BRANCH   2   4
ATOM      4  C   UNL     1      -7.972  33.472  22.408  1.00  0.00     0.159 C 
ATOM      5  O   UNL     1      -8.279  34.599  21.931  1.00  0.00    -0.295 OA
BRANCH   4   6
ATOM      6  C   UNL     1      -7.746  33.380  23.886  1.00  0.00     0.091 CG0
ATOM      7  G   UNL     1      -8.674  32.360  24.583  1.00  0.00     0.000 G0
ENDBRANCH   4   6
ENDBRANCH   2   4
BRANCH   3   8
ATOM      8  C   UNL     1      -7.741  30.429  23.224  1.00  0.00    -0.003 C 
ATOM      9  C   UNL     1      -8.123  30.969  24.388  1.00  0.00    -0.020 C 
BRANCH   9  10
ATOM     10  C   UNL     1      -8.659  32.366  24.596  1.00  0.00    -0.010 CG0
ATOM     11  C   UNL     1     -10.125  32.446  24.111  1.00  0.00     0.016 C 
ATOM     12  C   UNL     1      -8.640  32.671  26.112  1.00  0.00     0.016 C 
ATOM     13  G   UNL     1      -7.740  33.386  23.888  1.00  0.00     0.000 G0
ENDBRANCH   9  10
ENDBRANCH   3   8
TORSDOF 0
ENDMDL
MODEL 3
REMARK VINA RESULT:    -4.344      1.940      3.336
REMARK INTER + INTRA:          -4.605
REMARK INTER:                  -5.382
REMARK INTRA:                   0.777
REMARK UNBOUND:                 0.755
REMARK SMILES CC1=CC=CC(C)(C)CC1=O
REMARK SMILES IDX 1 1 2 2 3 3 10 4 11 5 9 6 4 8 5 9 6 10 7 11 8 12
REMARK H PARENT
REMARK Flexibility Score: 80.00
ROOT
ATOM      1  C   UNL     1      -8.324  35.554  25.602  1.00  0.00     0.048 C 
ATOM      2  C   UNL     1      -8.106  34.534  24.509  1.00  0.00    -0.008 C 
ATOM      3  C   UNL     1      -7.724  34.989  23.297  1.00  0.00     0.007 C 
ENDROOT
BRANCH   2   4
ATOM      4  C   UNL     1      -8.403  33.118  24.839  1.00  0.00     0.159 C 
ATOM      5  O   UNL     1      -9.003  32.856  25.917  1.00  0.00    -0.295 OA
BRANCH   4   6
ATOM      6  C   UNL     1      -8.017  31.967  23.961  1.00  0.00     0.091 CG0
ATOM      7  G   UNL     1      -8.647  32.037  22.551  1.00  0.00     0.000 G0
ENDBRANCH   4   6
ENDBRANCH   2   4
BRANCH   3   8
ATOM      8  C   UNL     1      -7.464  34.245  22.041  1.00  0.00    -0.003 C 
ATOM      9  C   UNL     1      -7.848  33.009  21.696  1.00  0.00    -0.020 C 
BRANCH   9  10
ATOM     10  C   UNL     1      -8.638  32.044  22.548  1.00  0.00    -0.010 CG0
ATOM     11  C   UNL     1     -10.125  32.467  22.583  1.00  0.00     0.016 C 
ATOM     12  C   UNL     1      -8.554  30.644  21.899  1.00  0.00     0.016 C 
ATOM     13  G   UNL     1      -8.010  31.960  23.957  1.00  0.00     0.000 G0
ENDBRANCH   9  10
ENDBRANCH   3   8
TORSDOF 0
ENDMDL
MODEL 4
REMARK VINA RESULT:    -4.285      1.577      2.335
REMARK INTER + INTRA:          -4.532
REMARK INTER:                  -5.296
REMARK INTRA:                   0.764
REMARK UNBOUND:                 0.755
REMARK SMILES CC1=CC=CC(C)(C)CC1=O
REMARK SMILES IDX 1 1 2 2 3 3 10 4 11 5 9 6 4 8 5 9 6 10 7 11 8 12
REMARK H PARENT
REMARK Flexibility Score: 80.00
ROOT
ATOM      1  C   UNL     1      -7.541  34.955  22.167  1.00  0.00     0.048 C 
ATOM      2  C   UNL     1      -8.142  33.606  22.483  1.00  0.00    -0.008 C 
ATOM      3  C   UNL     1      -8.586  33.399  23.741  1.00  0.00     0.007 C 
ENDROOT
BRANCH   2   4
ATOM      4  C   UNL     1      -8.126  32.590  21.402  1.00  0.00     0.159 C 
ATOM      5  O   UNL     1      -7.453  32.820  20.360  1.00  0.00    -0.295 OA
BRANCH   4   6
ATOM      6  C   UNL     1      -8.881  31.298  21.472  1.00  0.00     0.091 CG0
ATOM      7  G   UNL     1      -8.471  30.416  22.672  1.00  0.00     0.000 G0
ENDBRANCH   4   6
ENDBRANCH   2   4
BRANCH   3   8
ATOM      8  C   UNL     1      -9.189  32.189  24.349  1.00  0.00    -0.003 C 
ATOM      9  C   UNL     1      -9.145  30.919  23.927  1.00  0.00    -0.020 C 
BRANCH   9  10
ATOM     10  C   UNL     1      -8.469  30.414  22.675  1.00  0.00    -0.010 CG0
ATOM     11  C   UNL     1      -6.938  30.359  22.886  1.00  0.00     0.016 C 
ATOM     12  C   UNL     1      -8.964  28.975  22.404  1.00  0.00     0.016 C 
ATOM     13  G   UNL     1      -8.873  31.296  21.473  1.00  0.00     0.000 G0
ENDBRANCH   9  10
ENDBRANCH   3   8
TORSDOF 0
ENDMDL
MODEL 5
REMARK VINA RESULT:    -4.225      2.117      4.050
REMARK INTER + INTRA:          -4.458
REMARK INTER:                  -5.201
REMARK INTRA:                   0.743
REMARK UNBOUND:                 0.755
REMARK SMILES CC1=CC=CC(C)(C)CC1=O
REMARK SMILES IDX 1 1 2 2 3 3 10 4 11 5 9 6 4 8 5 9 6 10 7 11 8 12
REMARK H PARENT
REMARK Flexibility Score: 80.00
ROOT
ATOM      1  C   UNL     1      -7.640  30.340  26.723  1.00  0.00     0.048 C 
ATOM      2  C   UNL     1      -7.955  30.546  25.260  1.00  0.00    -0.008 C 
ATOM      3  C   UNL     1      -7.123  29.987  24.356  1.00  0.00     0.007 C 
ENDROOT
BRANCH   2   4
ATOM      4  C   UNL     1      -9.116  31.411  24.936  1.00  0.00     0.159 C 
ATOM      5  O   UNL     1      -9.664  32.069  25.862  1.00  0.00    -0.295 OA
BRANCH   4   6
ATOM      6  C   UNL     1      -9.691  31.540  23.558  1.00  0.00     0.091 CG0
ATOM      7  G   UNL     1      -8.668  32.044  22.516  1.00  0.00     0.000 G0
ENDBRANCH   4   6
ENDBRANCH   2   4
BRANCH   3   8
ATOM      8  C   UNL     1      -7.156  30.037  22.875  1.00  0.00    -0.003 C 
ATOM      9  C   UNL     1      -7.794  30.898  22.073  1.00  0.00    -0.020 C 
BRANCH   9  10
ATOM     10  C   UNL     1      -8.682  32.040  22.507  1.00  0.00    -0.010 CG0
ATOM     11  C   UNL     1      -7.817  33.225  22.993  1.00  0.00     0.016 C 
ATOM     12  C   UNL     1      -9.497  32.514  21.282  1.00  0.00     0.016 C 
ATOM     13  G   UNL     1      -9.674  31.547  23.584  1.00  0.00     0.000 G0
ENDBRANCH   9  10
ENDBRANCH   3   8
TORSDOF 0
ENDMDL
MODEL 6
REMARK VINA RESULT:    -4.149      1.755      3.615
REMARK INTER + INTRA:          -4.364
REMARK INTER:                  -5.113
REMARK INTRA:                   0.749
REMARK UNBOUND:                 0.755
REMARK SMILES CC1=CC=CC(C)(C)CC1=O
REMARK SMILES IDX 1 1 2 2 3 3 10 4 11 5 9 6 4 8 5 9 6 10 7 11 8 12
REMARK H PARENT
REMARK Flexibility Score: 80.00
ROOT
ATOM      1  C   UNL     1      -8.674  31.938  26.842  1.00  0.00     0.048 C 
ATOM      2  C   UNL     1      -8.367  32.432  25.448  1.00  0.00    -0.008 C 
ATOM      3  C   UNL     1      -8.408  33.765  25.234  1.00  0.00     0.007 C 
ENDROOT
BRANCH   2   4
ATOM      4  C   UNL     1      -8.116  31.405  24.407  1.00  0.00     0.159 C 
ATOM      5  O   UNL     1      -8.383  30.199  24.665  1.00  0.00    -0.295 OA
BRANCH   4   6
ATOM      6  C   UNL     1      -7.547  31.718  23.058  1.00  0.00     0.091 CG0
ATOM      7  G   UNL     1      -8.416  32.701  22.242  1.00  0.00     0.000 G0
ENDBRANCH   4   6
ENDBRANCH   2   4
BRANCH   3   8
ATOM      8  C   UNL     1      -8.183  34.535  23.988  1.00  0.00    -0.003 C 
ATOM      9  C   UNL     1      -8.195  34.110  22.718  1.00  0.00    -0.020 C 
BRANCH   9  10
ATOM     10  C   UNL     1      -8.420  32.692  22.249  1.00  0.00    -0.010 CG0
ATOM     11  C   UNL     1      -9.926  32.348  22.315  1.00  0.00     0.016 C 
ATOM     12  C   UNL     1      -7.972  32.594  20.773  1.00  0.00     0.016 C 
ATOM     13  G   UNL     1      -7.551  31.724  23.082  1.00  0.00     0.000 G0
ENDBRANCH   9  10
ENDBRANCH   3   8
TORSDOF 0
ENDMDL
MODEL 7
REMARK VINA RESULT:    -4.072      1.961      3.024
REMARK INTER + INTRA:          -4.270
REMARK INTER:                  -5.308
REMARK INTRA:                   1.039
REMARK UNBOUND:                 0.755
REMARK SMILES CC1=CC=CC(C)(C)CC1=O
REMARK SMILES IDX 1 1 2 2 3 3 10 4 11 5 9 6 4 8 5 9 6 10 7 11 8 12
REMARK H PARENT
REMARK Flexibility Score: 80.00
ROOT
ATOM      1  C   UNL     1      -7.603  34.867  23.208  1.00  0.00     0.048 C 
ATOM      2  C   UNL     1      -8.105  33.462  22.975  1.00  0.00    -0.008 C 
ATOM      3  C   UNL     1      -8.221  33.044  21.697  1.00  0.00     0.007 C 
ENDROOT
BRANCH   2   4
ATOM      4  C   UNL     1      -8.501  32.679  24.172  1.00  0.00     0.159 C 
ATOM      5  O   UNL     1      -8.132  33.080  25.311  1.00  0.00    -0.295 OA
BRANCH   4   6
ATOM      6  C   UNL     1      -9.311  31.421  24.106  1.00  0.00     0.091 CG0
ATOM      7  G   UNL     1      -8.654  30.318  23.246  1.00  0.00     0.000 G0
ENDBRANCH   4   6
ENDBRANCH   2   4
BRANCH   3   8
ATOM      8  C   UNL     1      -8.704  31.749  21.161  1.00  0.00    -0.003 C 
ATOM      9  C   UNL     1      -8.903  30.590  21.802  1.00  0.00    -0.020 C 
BRANCH   9  10
ATOM     10  C   UNL     1      -8.647  30.319  23.265  1.00  0.00    -0.010 CG0
ATOM     11  C   UNL     1      -9.150  28.905  23.636  1.00  0.00     0.016 C 
ATOM     12  C   UNL     1      -7.121  30.361  23.506  1.00  0.00     0.016 C 
ATOM     13  G   UNL     1      -9.300  31.427  24.121  1.00  0.00     0.000 G0
ENDBRANCH   9  10
ENDBRANCH   3   8
TORSDOF 0
ENDMDL
MODEL 8
REMARK VINA RESULT:    -3.517      2.123      3.998
REMARK INTER + INTRA:          -3.585
REMARK INTER:                  -4.349
REMARK INTRA:                   0.764
REMARK UNBOUND:                 0.755
REMARK SMILES CC1=CC=CC(C)(C)CC1=O
REMARK SMILES IDX 1 1 2 2 3 3 10 4 11 5 9 6 4 8 5 9 6 10 7 11 8 12
REMARK H PARENT
REMARK Flexibility Score: 80.00
ROOT
ATOM      1  C   UNL     1      -7.920  33.076  27.388  1.00  0.00     0.048 C 
ATOM      2  C   UNL     1      -8.590  32.760  26.072  1.00  0.00    -0.008 C 
ATOM      3  C   UNL     1      -9.292  31.610  25.987  1.00  0.00     0.007 C 
ENDROOT
BRANCH   2   4
ATOM      4  C   UNL     1      -8.361  33.708  24.953  1.00  0.00     0.159 C 
ATOM      5  O   UNL     1      -7.491  34.611  25.088  1.00  0.00    -0.295 OA
BRANCH   4   6
ATOM      6  C   UNL     1      -9.119  33.660  23.662  1.00  0.00     0.091 CG0
ATOM      7  G   UNL     1      -8.972  32.314  22.917  1.00  0.00     0.000 G0
ENDBRANCH   4   6
ENDBRANCH   2   4
BRANCH   3   8
ATOM      8  C   UNL     1     -10.025  31.026  24.839  1.00  0.00    -0.003 C 
ATOM      9  C   UNL     1      -9.908  31.300  23.534  1.00  0.00    -0.020 C 
BRANCH   9  10
ATOM     10  C   UNL     1      -8.990  32.325  22.912  1.00  0.00    -0.010 CG0
ATOM     11  C   UNL     1      -7.540  31.790  22.890  1.00  0.00     0.016 C 
ATOM     12  C   UNL     1      -9.437  32.550  21.449  1.00  0.00     0.016 C 
ATOM     13  G   UNL     1      -9.119  33.666  23.667  1.00  0.00     0.000 G0
ENDBRANCH   9  10
ENDBRANCH   3   8
TORSDOF 0
ENDMDL
MODEL 9
REMARK VINA RESULT:    -3.278     17.552     18.745
REMARK INTER + INTRA:          -3.289
REMARK INTER:                  -4.053
REMARK INTRA:                   0.764
REMARK UNBOUND:                 0.755
REMARK SMILES CC1=CC=CC(C)(C)CC1=O
REMARK SMILES IDX 1 1 2 2 3 3 10 4 11 5 9 6 4 8 5 9 6 10 7 11 8 12
REMARK H PARENT
REMARK Flexibility Score: 80.00
ROOT
ATOM      1  C   UNL     1      -2.796  46.072  13.445  1.00  0.00     0.048 C 
ATOM      2  C   UNL     1      -1.342  46.087  13.853  1.00  0.00    -0.008 C 
ATOM      3  C   UNL     1      -0.797  44.924  14.268  1.00  0.00     0.007 C 
ENDROOT
BRANCH   2   4
ATOM      4  C   UNL     1      -0.650  47.399  13.836  1.00  0.00     0.159 C 
ATOM      5  O   UNL     1      -1.336  48.448  13.686  1.00  0.00    -0.295 OA
BRANCH   4   6
ATOM      6  C   UNL     1       0.834  47.552  13.975  1.00  0.00     0.091 CG0
ATOM      7  G   UNL     1       1.382  46.994  15.308  1.00  0.00     0.000 G0
ENDBRANCH   4   6
ENDBRANCH   2   4
BRANCH   3   8
ATOM      8  C   UNL     1       0.575  44.635  14.750  1.00  0.00    -0.003 C 
ATOM      9  C   UNL     1       1.508  45.483  15.201  1.00  0.00    -0.020 C 
BRANCH   9  10
ATOM     10  C   UNL     1       1.382  46.984  15.301  1.00  0.00    -0.010 CG0
ATOM     11  C   UNL     1       0.507  47.361  16.518  1.00  0.00     0.016 C 
ATOM     12  C   UNL     1       2.793  47.574  15.526  1.00  0.00     0.016 C 
ATOM     13  G   UNL     1       0.831  47.550  13.973  1.00  0.00     0.000 G0
ENDBRANCH   9  10
ENDBRANCH   3   8
TORSDOF 0
ENDMDL
