MODEL 1
REMARK VINA RESULT:    -6.481      0.000      0.000
REMARK INTER + INTRA:          -6.481
REMARK INTER:                  -6.481
REMARK INTRA:                   0.000
REMARK UNBOUND:                 0.000
REMARK SMILES C=C1CCC[C@@]2(C)CC(=O)C(=C(C)C)C[C@H]12
REMARK SMILES IDX 13 1 12 2 11 3 15 4 16 5 2 6 1 7 3 8 4 9 5 10 6 11 8 12 9 13
REMARK SMILES IDX 10 14 7 15 14 16
REMARK H PARENT
REMARK Flexibility Score: inf
ROOT
ATOM      1  C   UNL     1       9.874  22.393  56.309  1.00  0.00     0.039 C 
ATOM      2  C   UNL     1      11.361  22.161  56.173  1.00  0.00    -0.070 C 
ATOM      3  C   UNL     1      12.187  22.101  57.261  1.00  0.00    -0.006 C 
ATOM      4  C   UNL     1      13.692  21.936  57.091  1.00  0.00     0.047 C 
ATOM      5  C   UNL     1      14.508  22.554  58.253  1.00  0.00     0.025 C 
ATOM      6  C   UNL     1      16.022  22.362  58.155  1.00  0.00    -0.073 C 
ATOM      7  C   UNL     1      16.639  21.740  57.129  1.00  0.00     0.008 C 
ATOM      8  C   UNL     1      16.852  22.990  59.252  1.00  0.00     0.031 C 
ATOM      9  C   UNL     1      16.340  22.550  60.625  1.00  0.00     0.005 C 
ATOM     10  C   UNL     1      14.827  22.785  60.769  1.00  0.00     0.008 C 
ATOM     11  C   UNL     1      13.994  22.088  59.651  1.00  0.00    -0.018 C 
ATOM     12  C   UNL     1      12.518  22.530  59.803  1.00  0.00     0.088 C 
ATOM     13  C   UNL     1      11.663  22.063  58.660  1.00  0.00     0.159 C 
ATOM     14  O   UNL     1      10.507  21.628  58.916  1.00  0.00    -0.295 OA
ATOM     15  C   UNL     1      14.090  20.545  59.818  1.00  0.00     0.012 C 
ATOM     16  C   UNL     1      11.905  22.030  54.767  1.00  0.00     0.039 C 
ENDROOT
TORSDOF 0
ENDMDL
MODEL 2
REMARK VINA RESULT:    -6.192     11.024     12.977
REMARK INTER + INTRA:          -6.192
REMARK INTER:                  -6.192
REMARK INTRA:                   0.000
REMARK UNBOUND:                 0.000
REMARK SMILES C=C1CCC[C@@]2(C)CC(=O)C(=C(C)C)C[C@H]12
REMARK SMILES IDX 13 1 12 2 11 3 15 4 16 5 2 6 1 7 3 8 4 9 5 10 6 11 8 12 9 13
REMARK SMILES IDX 10 14 7 15 14 16
REMARK H PARENT
REMARK Flexibility Score: inf
ROOT
ATOM      1  C   UNL     1       9.728  31.792  53.225  1.00  0.00     0.039 C 
ATOM      2  C   UNL     1       8.903  30.644  52.691  1.00  0.00    -0.070 C 
ATOM      3  C   UNL     1       7.553  30.565  52.899  1.00  0.00    -0.006 C 
ATOM      4  C   UNL     1       6.758  29.361  52.411  1.00  0.00     0.047 C 
ATOM      5  C   UNL     1       5.495  29.078  53.264  1.00  0.00     0.025 C 
ATOM      6  C   UNL     1       4.633  27.913  52.777  1.00  0.00    -0.073 C 
ATOM      7  C   UNL     1       4.936  27.143  51.712  1.00  0.00     0.008 C 
ATOM      8  C   UNL     1       3.416  27.583  53.611  1.00  0.00     0.031 C 
ATOM      9  C   UNL     1       2.562  28.835  53.825  1.00  0.00     0.005 C 
ATOM     10  C   UNL     1       3.398  30.006  54.368  1.00  0.00     0.008 C 
ATOM     11  C   UNL     1       4.618  30.353  53.463  1.00  0.00    -0.018 C 
ATOM     12  C   UNL     1       5.468  31.424  54.191  1.00  0.00     0.088 C 
ATOM     13  C   UNL     1       6.769  31.691  53.489  1.00  0.00     0.159 C 
ATOM     14  O   UNL     1       7.167  32.884  53.402  1.00  0.00    -0.295 OA
ATOM     15  C   UNL     1       4.115  30.927  52.110  1.00  0.00     0.012 C 
ATOM     16  C   UNL     1       9.646  29.560  51.942  1.00  0.00     0.039 C 
ENDROOT
TORSDOF 0
ENDMDL
MODEL 3
REMARK VINA RESULT:    -6.094      1.343      1.668
REMARK INTER + INTRA:          -6.094
REMARK INTER:                  -6.094
REMARK INTRA:                   0.000
REMARK UNBOUND:                 0.000
REMARK SMILES C=C1CCC[C@@]2(C)CC(=O)C(=C(C)C)C[C@H]12
REMARK SMILES IDX 13 1 12 2 11 3 15 4 16 5 2 6 1 7 3 8 4 9 5 10 6 11 8 12 9 13
REMARK SMILES IDX 10 14 7 15 14 16
REMARK H PARENT
REMARK Flexibility Score: inf
ROOT
ATOM      1  C   UNL     1      11.625  23.667  54.642  1.00  0.00     0.039 C 
ATOM      2  C   UNL     1      12.998  23.375  55.202  1.00  0.00    -0.070 C 
ATOM      3  C   UNL     1      13.174  22.887  56.468  1.00  0.00    -0.006 C 
ATOM      4  C   UNL     1      14.572  22.668  57.032  1.00  0.00     0.047 C 
ATOM      5  C   UNL     1      14.632  22.791  58.575  1.00  0.00     0.025 C 
ATOM      6  C   UNL     1      16.005  22.523  59.192  1.00  0.00    -0.073 C 
ATOM      7  C   UNL     1      17.111  22.235  58.477  1.00  0.00     0.008 C 
ATOM      8  C   UNL     1      16.109  22.677  60.693  1.00  0.00     0.031 C 
ATOM      9  C   UNL     1      15.031  21.843  61.390  1.00  0.00     0.005 C 
ATOM     10  C   UNL     1      13.631  22.137  60.822  1.00  0.00     0.008 C 
ATOM     11  C   UNL     1      13.543  21.925  59.281  1.00  0.00    -0.018 C 
ATOM     12  C   UNL     1      12.150  22.407  58.808  1.00  0.00     0.088 C 
ATOM     13  C   UNL     1      12.031  22.422  57.311  1.00  0.00     0.159 C 
ATOM     14  O   UNL     1      10.954  22.021  56.792  1.00  0.00    -0.295 OA
ATOM     15  C   UNL     1      13.704  20.414  58.954  1.00  0.00     0.012 C 
ATOM     16  C   UNL     1      14.178  23.682  54.308  1.00  0.00     0.039 C 
ENDROOT
TORSDOF 0
ENDMDL
MODEL 4
REMARK VINA RESULT:    -5.992      2.809      4.833
REMARK INTER + INTRA:          -5.992
REMARK INTER:                  -5.992
REMARK INTRA:                   0.000
REMARK UNBOUND:                 0.000
REMARK SMILES C=C1CCC[C@@]2(C)CC(=O)C(=C(C)C)C[C@H]12
REMARK SMILES IDX 13 1 12 2 11 3 15 4 16 5 2 6 1 7 3 8 4 9 5 10 6 11 8 12 9 13
REMARK SMILES IDX 10 14 7 15 14 16
REMARK H PARENT
REMARK Flexibility Score: inf
ROOT
ATOM      1  C   UNL     1      12.434  22.787  59.981  1.00  0.00     0.039 C 
ATOM      2  C   UNL     1      13.492  21.740  59.719  1.00  0.00    -0.070 C 
ATOM      3  C   UNL     1      13.748  21.269  58.461  1.00  0.00    -0.006 C 
ATOM      4  C   UNL     1      14.770  20.163  58.235  1.00  0.00     0.047 C 
ATOM      5  C   UNL     1      14.469  19.300  56.985  1.00  0.00     0.025 C 
ATOM      6  C   UNL     1      15.501  18.212  56.685  1.00  0.00    -0.073 C 
ATOM      7  C   UNL     1      16.585  17.969  57.449  1.00  0.00     0.008 C 
ATOM      8  C   UNL     1      15.214  17.324  55.495  1.00  0.00     0.031 C 
ATOM      9  C   UNL     1      14.945  18.172  54.250  1.00  0.00     0.005 C 
ATOM     10  C   UNL     1      13.869  19.239  54.511  1.00  0.00     0.008 C 
ATOM     11  C   UNL     1      14.213  20.168  55.714  1.00  0.00    -0.018 C 
ATOM     12  C   UNL     1      12.993  21.082  55.981  1.00  0.00     0.088 C 
ATOM     13  C   UNL     1      13.149  21.887  57.240  1.00  0.00     0.159 C 
ATOM     14  O   UNL     1      12.776  23.092  57.229  1.00  0.00    -0.295 OA
ATOM     15  C   UNL     1      15.445  21.046  55.355  1.00  0.00     0.012 C 
ATOM     16  C   UNL     1      14.237  21.208  60.923  1.00  0.00     0.039 C 
ENDROOT
TORSDOF 0
ENDMDL
MODEL 5
REMARK VINA RESULT:    -5.895      1.938      5.467
REMARK INTER + INTRA:          -5.895
REMARK INTER:                  -5.895
REMARK INTRA:                   0.000
REMARK UNBOUND:                 0.000
REMARK SMILES C=C1CCC[C@@]2(C)CC(=O)C(=C(C)C)C[C@H]12
REMARK SMILES IDX 13 1 12 2 11 3 15 4 16 5 2 6 1 7 3 8 4 9 5 10 6 11 8 12 9 13
REMARK SMILES IDX 10 14 7 15 14 16
REMARK H PARENT
REMARK Flexibility Score: inf
ROOT
ATOM      1  C   UNL     1      17.204  22.838  60.218  1.00  0.00     0.039 C 
ATOM      2  C   UNL     1      15.735  22.492  60.151  1.00  0.00    -0.070 C 
ATOM      3  C   UNL     1      15.085  22.319  58.960  1.00  0.00    -0.006 C 
ATOM      4  C   UNL     1      13.588  22.041  58.921  1.00  0.00     0.047 C 
ATOM      5  C   UNL     1      12.909  22.540  57.621  1.00  0.00     0.025 C 
ATOM      6  C   UNL     1      11.415  22.232  57.511  1.00  0.00    -0.073 C 
ATOM      7  C   UNL     1      10.702  21.607  58.469  1.00  0.00     0.008 C 
ATOM      8  C   UNL     1      10.713  22.743  56.274  1.00  0.00     0.031 C 
ATOM      9  C   UNL     1      11.453  22.287  55.014  1.00  0.00     0.005 C 
ATOM     10  C   UNL     1      12.950  22.637  55.077  1.00  0.00     0.008 C 
ATOM     11  C   UNL     1      13.657  22.057  56.340  1.00  0.00    -0.018 C 
ATOM     12  C   UNL     1      15.102  22.610  56.378  1.00  0.00     0.088 C 
ATOM     13  C   UNL     1      15.811  22.263  57.655  1.00  0.00     0.159 C 
ATOM     14  O   UNL     1      17.021  21.913  57.592  1.00  0.00    -0.295 OA
ATOM     15  C   UNL     1      13.700  20.507  56.245  1.00  0.00     0.012 C 
ATOM     16  C   UNL     1      15.001  22.379  61.469  1.00  0.00     0.039 C 
ENDROOT
TORSDOF 0
ENDMDL
MODEL 6
REMARK VINA RESULT:    -5.826     11.413     13.280
REMARK INTER + INTRA:          -5.826
REMARK INTER:                  -5.826
REMARK INTRA:                   0.000
REMARK UNBOUND:                 0.000
REMARK SMILES C=C1CCC[C@@]2(C)CC(=O)C(=C(C)C)C[C@H]12
REMARK SMILES IDX 13 1 12 2 11 3 15 4 16 5 2 6 1 7 3 8 4 9 5 10 6 11 8 12 9 13
REMARK SMILES IDX 10 14 7 15 14 16
REMARK H PARENT
REMARK Flexibility Score: inf
ROOT
ATOM      1  C   UNL     1       2.540  28.631  53.997  1.00  0.00     0.039 C 
ATOM      2  C   UNL     1       2.973  29.996  53.516  1.00  0.00    -0.070 C 
ATOM      3  C   UNL     1       4.293  30.339  53.404  1.00  0.00    -0.006 C 
ATOM      4  C   UNL     1       4.700  31.746  52.984  1.00  0.00     0.047 C 
ATOM      5  C   UNL     1       6.079  32.174  53.546  1.00  0.00     0.025 C 
ATOM      6  C   UNL     1       6.556  33.558  53.103  1.00  0.00    -0.073 C 
ATOM      7  C   UNL     1       5.842  34.386  52.315  1.00  0.00     0.008 C 
ATOM      8  C   UNL     1       7.879  34.024  53.668  1.00  0.00     0.031 C 
ATOM      9  C   UNL     1       8.964  32.973  53.421  1.00  0.00     0.005 C 
ATOM     10  C   UNL     1       8.528  31.581  53.909  1.00  0.00     0.008 C 
ATOM     11  C   UNL     1       7.185  31.108  53.275  1.00  0.00    -0.018 C 
ATOM     12  C   UNL     1       6.769  29.784  53.961  1.00  0.00     0.088 C 
ATOM     13  C   UNL     1       5.393  29.340  53.555  1.00  0.00     0.159 C 
ATOM     14  O   UNL     1       5.201  28.114  53.335  1.00  0.00    -0.295 OA
ATOM     15  C   UNL     1       7.389  30.858  51.754  1.00  0.00     0.012 C 
ATOM     16  C   UNL     1       1.875  30.986  53.194  1.00  0.00     0.039 C 
ENDROOT
TORSDOF 0
ENDMDL
MODEL 7
REMARK VINA RESULT:    -5.768      2.439      5.550
REMARK INTER + INTRA:          -5.768
REMARK INTER:                  -5.768
REMARK INTRA:                   0.000
REMARK UNBOUND:                 0.000
REMARK SMILES C=C1CCC[C@@]2(C)CC(=O)C(=C(C)C)C[C@H]12
REMARK SMILES IDX 13 1 12 2 11 3 15 4 16 5 2 6 1 7 3 8 4 9 5 10 6 11 8 12 9 13
REMARK SMILES IDX 10 14 7 15 14 16
REMARK H PARENT
REMARK Flexibility Score: inf
ROOT
ATOM      1  C   UNL     1      16.545  22.733  60.404  1.00  0.00     0.039 C 
ATOM      2  C   UNL     1      15.196  22.489  59.769  1.00  0.00    -0.070 C 
ATOM      3  C   UNL     1      14.965  22.739  58.444  1.00  0.00    -0.006 C 
ATOM      4  C   UNL     1      13.576  22.552  57.845  1.00  0.00     0.047 C 
ATOM      5  C   UNL     1      13.308  23.473  56.630  1.00  0.00     0.025 C 
ATOM      6  C   UNL     1      11.947  23.281  55.959  1.00  0.00    -0.073 C 
ATOM      7  C   UNL     1      11.011  22.410  56.389  1.00  0.00     0.008 C 
ATOM      8  C   UNL     1      11.636  24.194  54.795  1.00  0.00     0.031 C 
ATOM      9  C   UNL     1      12.761  24.139  53.759  1.00  0.00     0.005 C 
ATOM     10  C   UNL     1      14.136  24.386  54.402  1.00  0.00     0.008 C 
ATOM     11  C   UNL     1      14.449  23.400  55.568  1.00  0.00    -0.018 C 
ATOM     12  C   UNL     1      15.771  23.849  56.237  1.00  0.00     0.088 C 
ATOM     13  C   UNL     1      16.065  23.077  57.491  1.00  0.00     0.159 C 
ATOM     14  O   UNL     1      17.253  22.715  57.706  1.00  0.00    -0.295 OA
ATOM     15  C   UNL     1      14.620  21.963  55.001  1.00  0.00     0.012 C 
ATOM     16  C   UNL     1      14.095  21.987  60.676  1.00  0.00     0.039 C 
ENDROOT
TORSDOF 0
ENDMDL
MODEL 8
REMARK VINA RESULT:    -5.654      1.622      4.648
REMARK INTER + INTRA:          -5.654
REMARK INTER:                  -5.654
REMARK INTRA:                   0.000
REMARK UNBOUND:                 0.000
REMARK SMILES C=C1CCC[C@@]2(C)CC(=O)C(=C(C)C)C[C@H]12
REMARK SMILES IDX 13 1 12 2 11 3 15 4 16 5 2 6 1 7 3 8 4 9 5 10 6 11 8 12 9 13
REMARK SMILES IDX 10 14 7 15 14 16
REMARK H PARENT
REMARK Flexibility Score: inf
ROOT
ATOM      1  C   UNL     1      14.628  22.007  61.500  1.00  0.00     0.039 C 
ATOM      2  C   UNL     1      15.284  22.408  60.199  1.00  0.00    -0.070 C 
ATOM      3  C   UNL     1      14.596  22.424  59.017  1.00  0.00    -0.006 C 
ATOM      4  C   UNL     1      15.299  22.765  57.710  1.00  0.00     0.047 C 
ATOM      5  C   UNL     1      14.642  22.102  56.473  1.00  0.00     0.025 C 
ATOM      6  C   UNL     1      15.280  22.461  55.131  1.00  0.00    -0.073 C 
ATOM      7  C   UNL     1      16.357  23.261  54.997  1.00  0.00     0.008 C 
ATOM      8  C   UNL     1      14.688  21.797  53.908  1.00  0.00     0.031 C 
ATOM      9  C   UNL     1      13.174  22.015  53.862  1.00  0.00     0.005 C 
ATOM     10  C   UNL     1      12.503  21.609  55.185  1.00  0.00     0.008 C 
ATOM     11  C   UNL     1      13.101  22.343  56.422  1.00  0.00    -0.018 C 
ATOM     12  C   UNL     1      12.467  21.734  57.696  1.00  0.00     0.088 C 
ATOM     13  C   UNL     1      13.115  22.242  58.953  1.00  0.00     0.159 C 
ATOM     14  O   UNL     1      12.376  22.520  59.937  1.00  0.00    -0.295 OA
ATOM     15  C   UNL     1      12.754  23.856  56.346  1.00  0.00     0.012 C 
ATOM     16  C   UNL     1      16.754  22.761  60.257  1.00  0.00     0.039 C 
ENDROOT
TORSDOF 0
ENDMDL
MODEL 9
REMARK VINA RESULT:    -5.618     10.708     12.151
REMARK INTER + INTRA:          -5.618
REMARK INTER:                  -5.618
REMARK INTRA:                   0.000
REMARK UNBOUND:                 0.000
REMARK SMILES C=C1CCC[C@@]2(C)CC(=O)C(=C(C)C)C[C@H]12
REMARK SMILES IDX 13 1 12 2 11 3 15 4 16 5 2 6 1 7 3 8 4 9 5 10 6 11 8 12 9 13
REMARK SMILES IDX 10 14 7 15 14 16
REMARK H PARENT
REMARK Flexibility Score: inf
ROOT
ATOM      1  C   UNL     1       2.958  28.525  53.571  1.00  0.00     0.039 C 
ATOM      2  C   UNL     1       4.403  28.316  53.183  1.00  0.00    -0.070 C 
ATOM      3  C   UNL     1       5.323  29.327  53.246  1.00  0.00    -0.006 C 
ATOM      4  C   UNL     1       6.756  29.108  52.782  1.00  0.00     0.047 C 
ATOM      5  C   UNL     1       7.438  30.403  52.273  1.00  0.00     0.025 C 
ATOM      6  C   UNL     1       8.898  30.243  51.850  1.00  0.00    -0.073 C 
ATOM      7  C   UNL     1       9.565  29.071  51.868  1.00  0.00     0.008 C 
ATOM      8  C   UNL     1       9.580  31.479  51.309  1.00  0.00     0.031 C 
ATOM      9  C   UNL     1       9.426  32.645  52.289  1.00  0.00     0.005 C 
ATOM     10  C   UNL     1       7.956  32.861  52.687  1.00  0.00     0.008 C 
ATOM     11  C   UNL     1       7.294  31.583  53.284  1.00  0.00    -0.018 C 
ATOM     12  C   UNL     1       5.787  31.873  53.489  1.00  0.00     0.088 C 
ATOM     13  C   UNL     1       5.019  30.644  53.884  1.00  0.00     0.159 C 
ATOM     14  O   UNL     1       4.131  30.753  54.772  1.00  0.00    -0.295 OA
ATOM     15  C   UNL     1       7.946  31.253  54.656  1.00  0.00     0.012 C 
ATOM     16  C   UNL     1       4.783  26.940  52.685  1.00  0.00     0.039 C 
ENDROOT
TORSDOF 0
ENDMDL
