MODEL 1
REMARK VINA RESULT:    -4.879      0.000      0.000
REMARK INTER + INTRA:          -5.558
REMARK INTER:                  -5.450
REMARK INTRA:                  -0.108
REMARK UNBOUND:                -0.108
REMARK SMILES COc1cc(OC)c2ccc(=O)oc2c1
REMARK SMILES IDX 3 1 15 2 14 3 8 4 9 5 10 6 11 7 12 8 13 9 5 10 4 11 2 12
REMARK SMILES IDX 1 13 6 14 7 15
REMARK H PARENT
REMARK Flexibility Score: inf
ROOT
ATOM      1  C   UNL     1      -4.415   0.200  30.611  1.00  0.00     0.126 A 
ATOM      2  C   UNL     1      -4.432  -0.181  29.257  1.00  0.00     0.094 A 
ATOM      3  C   UNL     1      -3.323   0.058  28.443  1.00  0.00     0.145 A 
ATOM      4  C   UNL     1      -2.176   0.688  28.977  1.00  0.00     0.060 A 
ATOM      5  C   UNL     1      -1.086   0.908  28.121  1.00  0.00     0.023 A 
ATOM      6  C   UNL     1      -1.166   0.506  26.788  1.00  0.00     0.095 A 
ATOM      7  C   UNL     1      -2.335  -0.109  26.334  1.00  0.00     0.336 A 
ATOM      8  O   UNL     1      -2.426  -0.480  25.134  1.00  0.00    -0.246 OA
ATOM      9  O   UNL     1      -3.355  -0.308  27.163  1.00  0.00    -0.422 OA
ATOM     10  C   UNL     1      -2.149   1.073  30.331  1.00  0.00     0.133 A 
ATOM     11  C   UNL     1      -3.278   0.822  31.136  1.00  0.00     0.093 A 
ENDROOT
BRANCH   1  12
ATOM     12  O   UNL     1      -5.505  -0.022  31.466  1.00  0.00    -0.496 OA
ATOM     13  C   UNL     1      -5.812   0.779  32.604  1.00  0.00     0.278 C 
ENDBRANCH   1  12
BRANCH  10  14
ATOM     14  O   UNL     1      -0.998   1.697  30.844  1.00  0.00    -0.496 OA
ATOM     15  C   UNL     1      -0.995   2.932  31.553  1.00  0.00     0.278 C 
ENDBRANCH  10  14
TORSDOF 2
ENDMDL
MODEL 2
REMARK VINA RESULT:    -4.825      1.381      3.912
REMARK INTER + INTRA:          -5.497
REMARK INTER:                  -5.381
REMARK INTRA:                  -0.116
REMARK UNBOUND:                -0.108
REMARK SMILES COc1cc(OC)c2ccc(=O)oc2c1
REMARK SMILES IDX 3 1 15 2 14 3 8 4 9 5 10 6 11 7 12 8 13 9 5 10 4 11 2 12
REMARK SMILES IDX 1 13 6 14 7 15
REMARK H PARENT
REMARK Flexibility Score: inf
ROOT
ATOM      1  C   UNL     1      -3.763  -0.268  30.107  1.00  0.00     0.126 A 
ATOM      2  C   UNL     1      -3.166   0.793  30.810  1.00  0.00     0.094 A 
ATOM      3  C   UNL     1      -2.060   1.459  30.277  1.00  0.00     0.145 A 
ATOM      4  C   UNL     1      -1.534   1.067  29.025  1.00  0.00     0.060 A 
ATOM      5  C   UNL     1      -0.422   1.765  28.530  1.00  0.00     0.023 A 
ATOM      6  C   UNL     1       0.125   2.809  29.277  1.00  0.00     0.095 A 
ATOM      7  C   UNL     1      -0.452   3.136  30.507  1.00  0.00     0.336 A 
ATOM      8  O   UNL     1       0.027   4.075  31.195  1.00  0.00    -0.246 OA
ATOM      9  O   UNL     1      -1.505   2.462  30.956  1.00  0.00    -0.422 OA
ATOM     10  C   UNL     1      -2.124   0.006  28.313  1.00  0.00     0.133 A 
ATOM     11  C   UNL     1      -3.240  -0.652  28.868  1.00  0.00     0.093 A 
ENDROOT
BRANCH   1  12
ATOM     12  O   UNL     1      -4.875  -0.964  30.602  1.00  0.00    -0.496 OA
ATOM     13  C   UNL     1      -5.471  -0.730  31.875  1.00  0.00     0.278 C 
ENDBRANCH   1  12
BRANCH  10  14
ATOM     14  O   UNL     1      -1.587  -0.368  27.068  1.00  0.00    -0.496 OA
ATOM     15  C   UNL     1      -2.288  -0.301  25.831  1.00  0.00     0.278 C 
ENDBRANCH  10  14
TORSDOF 2
ENDMDL
MODEL 3
REMARK VINA RESULT:    -4.704      1.341      4.785
REMARK INTER + INTRA:          -5.362
REMARK INTER:                  -5.256
REMARK INTRA:                  -0.106
REMARK UNBOUND:                -0.108
REMARK SMILES COc1cc(OC)c2ccc(=O)oc2c1
REMARK SMILES IDX 3 1 15 2 14 3 8 4 9 5 10 6 11 7 12 8 13 9 5 10 4 11 2 12
REMARK SMILES IDX 1 13 6 14 7 15
REMARK H PARENT
REMARK Flexibility Score: inf
ROOT
ATOM      1  C   UNL     1      -0.866   2.180  30.225  1.00  0.00     0.126 A 
ATOM      2  C   UNL     1      -1.971   1.955  31.066  1.00  0.00     0.094 A 
ATOM      3  C   UNL     1      -2.908   0.968  30.752  1.00  0.00     0.145 A 
ATOM      4  C   UNL     1      -2.750   0.190  29.582  1.00  0.00     0.060 A 
ATOM      5  C   UNL     1      -3.716  -0.789  29.307  1.00  0.00     0.023 A 
ATOM      6  C   UNL     1      -4.789  -0.963  30.181  1.00  0.00     0.095 A 
ATOM      7  C   UNL     1      -4.876  -0.153  31.317  1.00  0.00     0.336 A 
ATOM      8  O   UNL     1      -5.836  -0.296  32.118  1.00  0.00    -0.246 OA
ATOM      9  O   UNL     1      -3.948   0.768  31.558  1.00  0.00    -0.422 OA
ATOM     10  C   UNL     1      -1.647   0.407  28.733  1.00  0.00     0.133 A 
ATOM     11  C   UNL     1      -0.713   1.408  29.069  1.00  0.00     0.093 A 
ENDROOT
BRANCH   1  12
ATOM     12  O   UNL     1       0.100   3.159  30.502  1.00  0.00    -0.496 OA
ATOM     13  C   UNL     1       0.018   4.091  31.576  1.00  0.00     0.278 C 
ENDBRANCH   1  12
BRANCH  10  14
ATOM     14  O   UNL     1      -1.507  -0.378  27.576  1.00  0.00    -0.496 OA
ATOM     15  C   UNL     1      -1.800   0.067  26.256  1.00  0.00     0.278 C 
ENDBRANCH  10  14
TORSDOF 2
ENDMDL
MODEL 4
REMARK VINA RESULT:    -4.687      9.726     11.564
REMARK INTER + INTRA:          -5.343
REMARK INTER:                  -5.240
REMARK INTRA:                  -0.102
REMARK UNBOUND:                -0.108
REMARK SMILES COc1cc(OC)c2ccc(=O)oc2c1
REMARK SMILES IDX 3 1 15 2 14 3 8 4 9 5 10 6 11 7 12 8 13 9 5 10 4 11 2 12
REMARK SMILES IDX 1 13 6 14 7 15
REMARK H PARENT
REMARK Flexibility Score: inf
ROOT
ATOM      1  C   UNL     1     -12.819   0.759  28.895  1.00  0.00     0.126 A 
ATOM      2  C   UNL     1     -14.133   1.255  28.836  1.00  0.00     0.094 A 
ATOM      3  C   UNL     1     -14.535   2.063  27.769  1.00  0.00     0.145 A 
ATOM      4  C   UNL     1     -13.619   2.387  26.743  1.00  0.00     0.060 A 
ATOM      5  C   UNL     1     -14.068   3.200  25.692  1.00  0.00     0.023 A 
ATOM      6  C   UNL     1     -15.384   3.661  25.691  1.00  0.00     0.095 A 
ATOM      7  C   UNL     1     -16.230   3.298  26.742  1.00  0.00     0.336 A 
ATOM      8  O   UNL     1     -17.421   3.702  26.759  1.00  0.00    -0.246 OA
ATOM      9  O   UNL     1     -15.783   2.525  27.727  1.00  0.00    -0.422 OA
ATOM     10  C   UNL     1     -12.300   1.895  26.793  1.00  0.00     0.133 A 
ATOM     11  C   UNL     1     -11.915   1.082  27.877  1.00  0.00     0.093 A 
ENDROOT
BRANCH   1  12
ATOM     12  O   UNL     1     -12.371  -0.055  29.946  1.00  0.00    -0.496 OA
ATOM     13  C   UNL     1     -12.874  -0.001  31.278  1.00  0.00     0.278 C 
ENDBRANCH   1  12
BRANCH  10  14
ATOM     14  O   UNL     1     -11.404   2.228  25.762  1.00  0.00    -0.496 OA
ATOM     15  C   UNL     1     -10.195   1.530  25.485  1.00  0.00     0.278 C 
ENDBRANCH  10  14
TORSDOF 2
ENDMDL
MODEL 5
REMARK VINA RESULT:    -4.669     10.110     11.537
REMARK INTER + INTRA:          -5.323
REMARK INTER:                  -5.213
REMARK INTRA:                  -0.110
REMARK UNBOUND:                -0.108
REMARK SMILES COc1cc(OC)c2ccc(=O)oc2c1
REMARK SMILES IDX 3 1 15 2 14 3 8 4 9 5 10 6 11 7 12 8 13 9 5 10 4 11 2 12
REMARK SMILES IDX 1 13 6 14 7 15
REMARK H PARENT
REMARK Flexibility Score: inf
ROOT
ATOM      1  C   UNL     1     -14.579   3.119  27.401  1.00  0.00     0.126 A 
ATOM      2  C   UNL     1     -14.532   1.891  28.083  1.00  0.00     0.094 A 
ATOM      3  C   UNL     1     -13.737   1.746  29.223  1.00  0.00     0.145 A 
ATOM      4  C   UNL     1     -12.972   2.837  29.695  1.00  0.00     0.060 A 
ATOM      5  C   UNL     1     -12.189   2.644  30.842  1.00  0.00     0.023 A 
ATOM      6  C   UNL     1     -12.186   1.400  31.474  1.00  0.00     0.095 A 
ATOM      7  C   UNL     1     -12.968   0.370  30.945  1.00  0.00     0.336 A 
ATOM      8  O   UNL     1     -12.980  -0.759  31.501  1.00  0.00    -0.246 OA
ATOM      9  O   UNL     1     -13.704   0.576  29.857  1.00  0.00    -0.422 OA
ATOM     10  C   UNL     1     -13.012   4.071  29.019  1.00  0.00     0.133 A 
ATOM     11  C   UNL     1     -13.821   4.197  27.872  1.00  0.00     0.093 A 
ENDROOT
BRANCH   1  12
ATOM     12  O   UNL     1     -15.363   3.311  26.254  1.00  0.00    -0.496 OA
ATOM     13  C   UNL     1     -16.018   4.532  25.920  1.00  0.00     0.278 C 
ENDBRANCH   1  12
BRANCH  10  14
ATOM     14  O   UNL     1     -12.245   5.145  29.505  1.00  0.00    -0.496 OA
ATOM     15  C   UNL     1     -12.785   6.355  30.025  1.00  0.00     0.278 C 
ENDBRANCH  10  14
TORSDOF 2
ENDMDL
MODEL 6
REMARK VINA RESULT:    -4.628      9.756     11.844
REMARK INTER + INTRA:          -5.278
REMARK INTER:                  -5.164
REMARK INTRA:                  -0.113
REMARK UNBOUND:                -0.108
REMARK SMILES COc1cc(OC)c2ccc(=O)oc2c1
REMARK SMILES IDX 3 1 15 2 14 3 8 4 9 5 10 6 11 7 12 8 13 9 5 10 4 11 2 12
REMARK SMILES IDX 1 13 6 14 7 15
REMARK H PARENT
REMARK Flexibility Score: inf
ROOT
ATOM      1  C   UNL     1     -11.629   1.565  26.572  1.00  0.00     0.126 A 
ATOM      2  C   UNL     1     -12.456   2.527  25.965  1.00  0.00     0.094 A 
ATOM      3  C   UNL     1     -13.725   2.794  26.483  1.00  0.00     0.145 A 
ATOM      4  C   UNL     1     -14.186   2.096  27.622  1.00  0.00     0.060 A 
ATOM      5  C   UNL     1     -15.468   2.398  28.106  1.00  0.00     0.023 A 
ATOM      6  C   UNL     1     -16.239   3.363  27.458  1.00  0.00     0.095 A 
ATOM      7  C   UNL     1     -15.714   4.009  26.337  1.00  0.00     0.336 A 
ATOM      8  O   UNL     1     -16.394   4.883  25.740  1.00  0.00    -0.246 OA
ATOM      9  O   UNL     1     -14.497   3.708  25.896  1.00  0.00    -0.422 OA
ATOM     10  C   UNL     1     -13.366   1.130  28.237  1.00  0.00     0.133 A 
ATOM     11  C   UNL     1     -12.088   0.876  27.700  1.00  0.00     0.093 A 
ENDROOT
BRANCH   1  12
ATOM     12  O   UNL     1     -10.347   1.265  26.088  1.00  0.00    -0.496 OA
ATOM     13  C   UNL     1      -9.921   1.483  24.746  1.00  0.00     0.278 C 
ENDBRANCH   1  12
BRANCH  10  14
ATOM     14  O   UNL     1     -13.842   0.447  29.370  1.00  0.00    -0.496 OA
ATOM     15  C   UNL     1     -13.168   0.390  30.623  1.00  0.00     0.278 C 
ENDBRANCH  10  14
TORSDOF 2
ENDMDL
MODEL 7
REMARK VINA RESULT:    -4.606     15.145     16.622
REMARK INTER + INTRA:          -5.252
REMARK INTER:                  -5.150
REMARK INTRA:                  -0.102
REMARK UNBOUND:                -0.108
REMARK SMILES COc1cc(OC)c2ccc(=O)oc2c1
REMARK SMILES IDX 3 1 15 2 14 3 8 4 9 5 10 6 11 7 12 8 13 9 5 10 4 11 2 12
REMARK SMILES IDX 1 13 6 14 7 15
REMARK H PARENT
REMARK Flexibility Score: inf
ROOT
ATOM      1  C   UNL     1     -10.784   7.397  18.976  1.00  0.00     0.126 A 
ATOM      2  C   UNL     1      -9.879   8.374  19.428  1.00  0.00     0.094 A 
ATOM      3  C   UNL     1     -10.033   9.709  19.047  1.00  0.00     0.145 A 
ATOM      4  C   UNL     1     -11.102  10.084  18.201  1.00  0.00     0.060 A 
ATOM      5  C   UNL     1     -11.216  11.436  17.844  1.00  0.00     0.023 A 
ATOM      6  C   UNL     1     -10.286  12.357  18.327  1.00  0.00     0.095 A 
ATOM      7  C   UNL     1      -9.257  11.908  19.159  1.00  0.00     0.336 A 
ATOM      8  O   UNL     1      -8.408  12.723  19.605  1.00  0.00    -0.246 OA
ATOM      9  O   UNL     1      -9.168  10.622  19.484  1.00  0.00    -0.422 OA
ATOM     10  C   UNL     1     -12.013   9.114  17.742  1.00  0.00     0.133 A 
ATOM     11  C   UNL     1     -11.840   7.772  18.138  1.00  0.00     0.093 A 
ENDROOT
BRANCH   1  12
ATOM     12  O   UNL     1     -10.669   6.045  19.333  1.00  0.00    -0.496 OA
ATOM     13  C   UNL     1     -10.900   4.955  18.446  1.00  0.00     0.278 C 
ENDBRANCH   1  12
BRANCH  10  14
ATOM     14  O   UNL     1     -13.069   9.507  16.902  1.00  0.00    -0.496 OA
ATOM     15  C   UNL     1     -14.392   8.986  16.968  1.00  0.00     0.278 C 
ENDBRANCH  10  14
TORSDOF 2
ENDMDL
MODEL 8
REMARK VINA RESULT:    -4.543     15.718     17.021
REMARK INTER + INTRA:          -5.182
REMARK INTER:                  -5.079
REMARK INTRA:                  -0.103
REMARK UNBOUND:                -0.108
REMARK SMILES COc1cc(OC)c2ccc(=O)oc2c1
REMARK SMILES IDX 3 1 15 2 14 3 8 4 9 5 10 6 11 7 12 8 13 9 5 10 4 11 2 12
REMARK SMILES IDX 1 13 6 14 7 15
REMARK H PARENT
REMARK Flexibility Score: inf
ROOT
ATOM      1  C   UNL     1     -13.103   9.251  17.458  1.00  0.00     0.126 A 
ATOM      2  C   UNL     1     -12.576  10.553  17.511  1.00  0.00     0.094 A 
ATOM      3  C   UNL     1     -11.331  10.787  18.100  1.00  0.00     0.145 A 
ATOM      4  C   UNL     1     -10.595   9.711  18.648  1.00  0.00     0.060 A 
ATOM      5  C   UNL     1      -9.350   9.994  19.229  1.00  0.00     0.023 A 
ATOM      6  C   UNL     1      -8.882  11.308  19.251  1.00  0.00     0.095 A 
ATOM      7  C   UNL     1      -9.669  12.317  18.689  1.00  0.00     0.336 A 
ATOM      8  O   UNL     1      -9.264  13.508  18.698  1.00  0.00    -0.246 OA
ATOM      9  O   UNL     1     -10.845  12.026  18.143  1.00  0.00    -0.422 OA
ATOM     10  C   UNL     1     -11.114   8.404  18.600  1.00  0.00     0.133 A 
ATOM     11  C   UNL     1     -12.372   8.189  18.001  1.00  0.00     0.093 A 
ENDROOT
BRANCH   1  12
ATOM     12  O   UNL     1     -14.348   8.969  16.875  1.00  0.00    -0.496 OA
ATOM     13  C   UNL     1     -15.318   8.088  17.434  1.00  0.00     0.278 C 
ENDBRANCH   1  12
BRANCH  10  14
ATOM     14  O   UNL     1     -10.366   7.347  19.150  1.00  0.00    -0.496 OA
ATOM     15  C   UNL     1     -10.206   6.069  18.545  1.00  0.00     0.278 C 
ENDBRANCH  10  14
TORSDOF 2
ENDMDL
MODEL 9
REMARK VINA RESULT:    -4.411      1.699      5.433
REMARK INTER + INTRA:          -5.034
REMARK INTER:                  -4.934
REMARK INTRA:                  -0.100
REMARK UNBOUND:                -0.108
REMARK SMILES COc1cc(OC)c2ccc(=O)oc2c1
REMARK SMILES IDX 3 1 15 2 14 3 8 4 9 5 10 6 11 7 12 8 13 9 5 10 4 11 2 12
REMARK SMILES IDX 1 13 6 14 7 15
REMARK H PARENT
REMARK Flexibility Score: inf
ROOT
ATOM      1  C   UNL     1      -1.084   0.667  28.650  1.00  0.00     0.126 A 
ATOM      2  C   UNL     1      -0.359   1.704  29.264  1.00  0.00     0.094 A 
ATOM      3  C   UNL     1      -0.860   2.335  30.405  1.00  0.00     0.145 A 
ATOM      4  C   UNL     1      -2.102   1.935  30.948  1.00  0.00     0.060 A 
ATOM      5  C   UNL     1      -2.565   2.598  32.094  1.00  0.00     0.023 A 
ATOM      6  C   UNL     1      -1.799   3.619  32.655  1.00  0.00     0.095 A 
ATOM      7  C   UNL     1      -0.581   3.958  32.060  1.00  0.00     0.336 A 
ATOM      8  O   UNL     1       0.125   4.877  32.552  1.00  0.00    -0.246 OA
ATOM      9  O   UNL     1      -0.162   3.316  30.974  1.00  0.00    -0.422 OA
ATOM     10  C   UNL     1      -2.836   0.897  30.341  1.00  0.00     0.133 A 
ATOM     11  C   UNL     1      -2.313   0.273  29.191  1.00  0.00     0.093 A 
ENDROOT
BRANCH   1  12
ATOM     12  O   UNL     1      -0.620   0.003  27.505  1.00  0.00    -0.496 OA
ATOM     13  C   UNL     1      -1.444  -0.749  26.620  1.00  0.00     0.278 C 
ENDBRANCH   1  12
BRANCH  10  14
ATOM     14  O   UNL     1      -4.069   0.512  30.896  1.00  0.00    -0.496 OA
ATOM     15  C   UNL     1      -4.689  -0.752  30.691  1.00  0.00     0.278 C 
ENDBRANCH  10  14
TORSDOF 2
ENDMDL
