MODEL 1
REMARK VINA RESULT:    -3.425      0.000      0.000
REMARK INTER + INTRA:          -4.405
REMARK INTER:                  -4.226
REMARK INTRA:                  -0.179
REMARK UNBOUND:                -0.179
REMARK SMILES CCCCC=CC(C)=O
REMARK SMILES IDX 4 1 3 2 2 3 1 4 5 5 6 6 7 7 9 8 8 9
REMARK H PARENT
REMARK Flexibility Score: inf
ROOT
ATOM      1  C   UNL     1       1.367  -2.335  14.933  1.00  0.00     0.027 C 
ENDROOT
BRANCH   1   2
ATOM      2  C   UNL     1       0.891  -0.994  15.500  1.00  0.00     0.004 C 
BRANCH   2   3
ATOM      3  C   UNL     1       0.698   0.038  14.382  1.00  0.00    -0.003 C 
ATOM      4  C   UNL     1      -0.736   0.558  14.353  1.00  0.00     0.004 C 
ENDBRANCH   2   3
ENDBRANCH   1   2
BRANCH   1   5
ATOM      5  C   UNL     1       0.938  -3.479  15.807  1.00  0.00    -0.023 C 
ATOM      6  C   UNL     1       0.604  -3.292  17.089  1.00  0.00     0.042 C 
BRANCH   6   7
ATOM      7  C   UNL     1       0.169  -4.398  17.961  1.00  0.00     0.152 C 
ATOM      8  O   UNL     1       0.991  -4.991  18.710  1.00  0.00    -0.295 OA
ATOM      9  C   UNL     1      -1.265  -4.822  17.958  1.00  0.00     0.093 C 
ENDBRANCH   6   7
ENDBRANCH   1   5
TORSDOF 4
ENDMDL
MODEL 2
REMARK VINA RESULT:    -3.383      8.970      9.328
REMARK INTER + INTRA:          -4.353
REMARK INTER:                  -4.183
REMARK INTRA:                  -0.171
REMARK UNBOUND:                -0.179
REMARK SMILES CCCCC=CC(C)=O
REMARK SMILES IDX 4 1 3 2 2 3 1 4 5 5 6 6 7 7 9 8 8 9
REMARK H PARENT
REMARK Flexibility Score: inf
ROOT
ATOM      1  C   UNL     1       3.408   2.571  23.547  1.00  0.00     0.027 C 
ENDROOT
BRANCH   1   2
ATOM      2  C   UNL     1       2.362   3.691  23.521  1.00  0.00     0.004 C 
BRANCH   2   3
ATOM      3  C   UNL     1       1.554   3.658  22.219  1.00  0.00    -0.003 C 
ATOM      4  C   UNL     1       0.244   4.425  22.363  1.00  0.00     0.004 C 
ENDBRANCH   2   3
ENDBRANCH   1   2
BRANCH   1   5
ATOM      5  C   UNL     1       3.176   1.637  24.700  1.00  0.00    -0.023 C 
ATOM      6  C   UNL     1       2.248   0.676  24.646  1.00  0.00     0.042 C 
BRANCH   6   7
ATOM      7  C   UNL     1       2.012  -0.259  25.761  1.00  0.00     0.152 C 
ATOM      8  O   UNL     1       2.975  -0.846  26.326  1.00  0.00    -0.295 OA
ATOM      9  C   UNL     1       0.616  -0.515  26.230  1.00  0.00     0.093 C 
ENDBRANCH   6   7
ENDBRANCH   1   5
TORSDOF 4
ENDMDL
MODEL 3
REMARK VINA RESULT:    -3.364      2.685      5.104
REMARK INTER + INTRA:          -4.330
REMARK INTER:                  -4.178
REMARK INTRA:                  -0.152
REMARK UNBOUND:                -0.179
REMARK SMILES CCCCC=CC(C)=O
REMARK SMILES IDX 4 1 3 2 2 3 1 4 5 5 6 6 7 7 9 8 8 9
REMARK H PARENT
REMARK Flexibility Score: inf
ROOT
ATOM      1  C   UNL     1       1.775  -2.805  15.854  1.00  0.00     0.027 C 
ENDROOT
BRANCH   1   2
ATOM      2  C   UNL     1       0.641  -3.802  16.115  1.00  0.00     0.004 C 
BRANCH   2   3
ATOM      3  C   UNL     1       0.410  -3.989  17.619  1.00  0.00    -0.003 C 
ATOM      4  C   UNL     1      -0.960  -4.602  17.895  1.00  0.00     0.004 C 
ENDBRANCH   2   3
ENDBRANCH   1   2
BRANCH   1   5
ATOM      5  C   UNL     1       1.372  -1.778  14.834  1.00  0.00    -0.023 C 
ATOM      6  C   UNL     1       0.630  -0.717  15.166  1.00  0.00     0.042 C 
BRANCH   6   7
ATOM      7  C   UNL     1       0.234   0.309  14.183  1.00  0.00     0.152 C 
ATOM      8  O   UNL     1       1.053   0.726  13.320  1.00  0.00    -0.295 OA
ATOM      9  C   UNL     1      -1.155   0.861  14.209  1.00  0.00     0.093 C 
ENDBRANCH   6   7
ENDBRANCH   1   5
TORSDOF 4
ENDMDL
MODEL 4
REMARK VINA RESULT:    -3.359      9.019     10.250
REMARK INTER + INTRA:          -4.324
REMARK INTER:                  -4.135
REMARK INTRA:                  -0.189
REMARK UNBOUND:                -0.179
REMARK SMILES CCCCC=CC(C)=O
REMARK SMILES IDX 4 1 3 2 2 3 1 4 5 5 6 6 7 7 9 8 8 9
REMARK H PARENT
REMARK Flexibility Score: inf
ROOT
ATOM      1  C   UNL     1       3.304   1.558  24.793  1.00  0.00     0.027 C 
ENDROOT
BRANCH   1   2
ATOM      2  C   UNL     1       2.806   0.162  25.180  1.00  0.00     0.004 C 
BRANCH   2   3
ATOM      3  C   UNL     1       1.280   0.072  25.069  1.00  0.00    -0.003 C 
ATOM      4  C   UNL     1       0.667  -0.519  26.334  1.00  0.00     0.004 C 
ENDBRANCH   2   3
ENDBRANCH   1   2
BRANCH   1   5
ATOM      5  C   UNL     1       2.555   2.093  23.606  1.00  0.00    -0.023 C 
ATOM      6  C   UNL     1       2.403   3.408  23.409  1.00  0.00     0.042 C 
BRANCH   6   7
ATOM      7  C   UNL     1       1.682   3.954  22.245  1.00  0.00     0.152 C 
ATOM      8  O   UNL     1       2.230   4.000  21.110  1.00  0.00    -0.295 OA
ATOM      9  C   UNL     1       0.285   4.458  22.410  1.00  0.00     0.093 C 
ENDBRANCH   6   7
ENDBRANCH   1   5
TORSDOF 4
ENDMDL
MODEL 5
REMARK VINA RESULT:    -3.348      1.551      2.738
REMARK INTER + INTRA:          -4.311
REMARK INTER:                  -4.080
REMARK INTRA:                  -0.231
REMARK UNBOUND:                -0.179
REMARK SMILES CCCCC=CC(C)=O
REMARK SMILES IDX 4 1 3 2 2 3 1 4 5 5 6 6 7 7 9 8 8 9
REMARK H PARENT
REMARK Flexibility Score: inf
ROOT
ATOM      1  C   UNL     1       1.394  -2.259  14.984  1.00  0.00     0.027 C 
ENDROOT
BRANCH   1   2
ATOM      2  C   UNL     1       2.743  -1.710  15.463  1.00  0.00     0.004 C 
BRANCH   2   3
ATOM      3  C   UNL     1       3.904  -2.538  14.901  1.00  0.00    -0.003 C 
ATOM      4  C   UNL     1       4.600  -3.332  16.002  1.00  0.00     0.004 C 
ENDBRANCH   2   3
ENDBRANCH   1   2
BRANCH   1   5
ATOM      5  C   UNL     1       0.951  -3.422  15.824  1.00  0.00    -0.023 C 
ATOM      6  C   UNL     1       0.586  -3.264  17.101  1.00  0.00     0.042 C 
BRANCH   6   7
ATOM      7  C   UNL     1       0.136  -4.390  17.940  1.00  0.00     0.152 C 
ATOM      8  O   UNL     1       0.950  -5.011  18.677  1.00  0.00    -0.295 OA
ATOM      9  C   UNL     1      -1.301  -4.801  17.919  1.00  0.00     0.093 C 
ENDBRANCH   6   7
ENDBRANCH   1   5
TORSDOF 4
ENDMDL
MODEL 6
REMARK VINA RESULT:    -3.320      2.074      4.880
REMARK INTER + INTRA:          -4.276
REMARK INTER:                  -4.063
REMARK INTRA:                  -0.213
REMARK UNBOUND:                -0.179
REMARK SMILES CCCCC=CC(C)=O
REMARK SMILES IDX 4 1 3 2 2 3 1 4 5 5 6 6 7 7 9 8 8 9
REMARK H PARENT
REMARK Flexibility Score: inf
ROOT
ATOM      1  C   UNL     1       0.588  -4.481  17.969  1.00  0.00     0.027 C 
ENDROOT
BRANCH   1   2
ATOM      2  C   UNL     1      -0.937  -4.619  17.913  1.00  0.00     0.004 C 
BRANCH   2   3
ATOM      3  C   UNL     1      -1.597  -3.900  19.095  1.00  0.00    -0.003 C 
ATOM      4  C   UNL     1      -0.846  -4.171  20.395  1.00  0.00     0.004 C 
ENDBRANCH   2   3
ENDBRANCH   1   2
BRANCH   1   5
ATOM      5  C   UNL     1       1.057  -3.300  17.168  1.00  0.00    -0.023 C 
ATOM      6  C   UNL     1       1.065  -3.320  15.831  1.00  0.00     0.042 C 
BRANCH   6   7
ATOM      7  C   UNL     1       1.509  -2.167  15.026  1.00  0.00     0.152 C 
ATOM      8  O   UNL     1       2.617  -2.189  14.424  1.00  0.00    -0.295 OA
ATOM      9  C   UNL     1       0.637  -0.958  14.921  1.00  0.00     0.093 C 
ENDBRANCH   6   7
ENDBRANCH   1   5
TORSDOF 4
ENDMDL
MODEL 7
REMARK VINA RESULT:    -3.313      1.728      2.161
REMARK INTER + INTRA:          -4.267
REMARK INTER:                  -4.081
REMARK INTRA:                  -0.185
REMARK UNBOUND:                -0.179
REMARK SMILES CCCCC=CC(C)=O
REMARK SMILES IDX 4 1 3 2 2 3 1 4 5 5 6 6 7 7 9 8 8 9
REMARK H PARENT
REMARK Flexibility Score: inf
ROOT
ATOM      1  C   UNL     1       1.428  -2.523  14.957  1.00  0.00     0.027 C 
ENDROOT
BRANCH   1   2
ATOM      2  C   UNL     1       2.854  -2.148  15.376  1.00  0.00     0.004 C 
BRANCH   2   3
ATOM      3  C   UNL     1       3.780  -2.065  14.157  1.00  0.00    -0.003 C 
ATOM      4  C   UNL     1       3.503  -0.809  13.337  1.00  0.00     0.004 C 
ENDBRANCH   2   3
ENDBRANCH   1   2
BRANCH   1   5
ATOM      5  C   UNL     1       0.754  -3.358  16.007  1.00  0.00    -0.023 C 
ATOM      6  C   UNL     1       1.386  -3.712  17.131  1.00  0.00     0.042 C 
BRANCH   6   7
ATOM      7  C   UNL     1       0.739  -4.521  18.180  1.00  0.00     0.152 C 
ATOM      8  O   UNL     1       1.425  -5.086  19.075  1.00  0.00    -0.295 OA
ATOM      9  C   UNL     1      -0.748  -4.673  18.186  1.00  0.00     0.093 C 
ENDBRANCH   6   7
ENDBRANCH   1   5
TORSDOF 4
ENDMDL
MODEL 8
REMARK VINA RESULT:    -3.269      2.776      5.152
REMARK INTER + INTRA:          -4.213
REMARK INTER:                  -4.039
REMARK INTRA:                  -0.174
REMARK UNBOUND:                -0.179
REMARK SMILES CCCCC=CC(C)=O
REMARK SMILES IDX 4 1 3 2 2 3 1 4 5 5 6 6 7 7 9 8 8 9
REMARK H PARENT
REMARK Flexibility Score: inf
ROOT
ATOM      1  C   UNL     1       0.601  -3.783  16.435  1.00  0.00     0.027 C 
ENDROOT
BRANCH   1   2
ATOM      2  C   UNL     1       1.032  -4.112  17.869  1.00  0.00     0.004 C 
BRANCH   2   3
ATOM      3  C   UNL     1      -0.168  -4.550  18.716  1.00  0.00    -0.003 C 
ATOM      4  C   UNL     1      -1.378  -4.861  17.841  1.00  0.00     0.004 C 
ENDBRANCH   2   3
ENDBRANCH   1   2
BRANCH   1   5
ATOM      5  C   UNL     1       1.691  -3.067  15.690  1.00  0.00    -0.023 C 
ATOM      6  C   UNL     1       1.460  -1.916  15.048  1.00  0.00     0.042 C 
BRANCH   6   7
ATOM      7  C   UNL     1       2.518  -1.191  14.321  1.00  0.00     0.152 C 
ATOM      8  O   UNL     1       2.334  -0.009  13.924  1.00  0.00    -0.295 OA
ATOM      9  C   UNL     1       3.825  -1.865  14.052  1.00  0.00     0.093 C 
ENDBRANCH   6   7
ENDBRANCH   1   5
TORSDOF 4
ENDMDL
MODEL 9
REMARK VINA RESULT:    -3.156      2.185      5.152
REMARK INTER + INTRA:          -4.073
REMARK INTER:                  -3.933
REMARK INTRA:                  -0.140
REMARK UNBOUND:                -0.179
REMARK SMILES CCCCC=CC(C)=O
REMARK SMILES IDX 4 1 3 2 2 3 1 4 5 5 6 6 7 7 9 8 8 9
REMARK H PARENT
REMARK Flexibility Score: inf
ROOT
ATOM      1  C   UNL     1      -0.749  -4.572  17.968  1.00  0.00     0.027 C 
ENDROOT
BRANCH   1   2
ATOM      2  C   UNL     1      -1.272  -4.117  19.334  1.00  0.00     0.004 C 
BRANCH   2   3
ATOM      3  C   UNL     1      -0.249  -4.405  20.439  1.00  0.00    -0.003 C 
ATOM      4  C   UNL     1      -0.794  -4.021  21.810  1.00  0.00     0.004 C 
ENDBRANCH   2   3
ENDBRANCH   1   2
BRANCH   1   5
ATOM      5  C   UNL     1       0.302  -3.634  17.447  1.00  0.00    -0.023 C 
ATOM      6  C   UNL     1       0.809  -3.765  16.216  1.00  0.00     0.042 C 
BRANCH   6   7
ATOM      7  C   UNL     1       1.832  -2.848  15.681  1.00  0.00     0.152 C 
ATOM      8  O   UNL     1       3.059  -3.076  15.858  1.00  0.00    -0.295 OA
ATOM      9  C   UNL     1       1.410  -1.633  14.919  1.00  0.00     0.093 C 
ENDBRANCH   6   7
ENDBRANCH   1   5
TORSDOF 4
ENDMDL
