MODEL 1
REMARK VINA RESULT:    -4.618      0.000      0.000
REMARK INTER + INTRA:          -9.985
REMARK INTER:                  -8.397
REMARK INTRA:                  -1.588
REMARK UNBOUND:                -1.588
REMARK SMILES CCCCCCCCCCCCCCCC(=O)[O-]
REMARK SMILES IDX 9 1 10 2 11 3 12 4 13 5 14 6 15 7 16 8 17 9 18 10 8 11 7 12
REMARK SMILES IDX 6 13 5 14 4 15 3 16 2 17 1 18
REMARK H PARENT
REMARK Flexibility Score: inf
ROOT
ATOM      1  C   UNL     1      39.574 118.146  14.579  1.00  0.00     0.000 C 
ENDROOT
BRANCH   1   2
ATOM      2  C   UNL     1      39.658 118.582  13.108  1.00  0.00     0.000 C 
BRANCH   2   3
ATOM      3  C   UNL     1      39.773 117.392  12.143  1.00  0.00     0.000 C 
BRANCH   3   4
ATOM      4  C   UNL     1      41.012 117.527  11.251  1.00  0.00     0.000 C 
BRANCH   4   5
ATOM      5  C   UNL     1      42.106 116.536  11.677  1.00  0.00     0.000 C 
BRANCH   5   6
ATOM      6  C   UNL     1      43.453 116.795  10.974  1.00  0.00     0.006 C 
BRANCH   6   7
ATOM      7  C   UNL     1      43.357 116.901   9.443  1.00  0.00     0.053 C 
BRANCH   7   8
ATOM      8  C   UNL     1      44.029 115.752   8.757  1.00  0.00     0.041 C 
ATOM      9  O   UNL     1      43.790 114.570   9.120  1.00  0.00    -0.550 OA
ATOM     10  O   UNL     1      44.945 115.988   7.740  1.00  0.00    -0.550 OA
ENDBRANCH   7   8
ENDBRANCH   6   7
ENDBRANCH   5   6
ENDBRANCH   4   5
ENDBRANCH   3   4
ENDBRANCH   2   3
ENDBRANCH   1   2
BRANCH   1  11
ATOM     11  C   UNL     1      39.633 116.620  14.748  1.00  0.00     0.000 C 
BRANCH  11  12
ATOM     12  C   UNL     1      38.417 116.110  15.537  1.00  0.00    -0.000 C 
BRANCH  12  13
ATOM     13  C   UNL     1      37.085 116.662  15.001  1.00  0.00    -0.000 C 
BRANCH  13  14
ATOM     14  C   UNL     1      36.280 117.501  16.012  1.00  0.00    -0.000 C 
BRANCH  14  15
ATOM     15  C   UNL     1      35.521 118.684  15.373  1.00  0.00    -0.000 C 
BRANCH  15  16
ATOM     16  C   UNL     1      35.658 118.703  13.841  1.00  0.00    -0.000 C 
BRANCH  16  17
ATOM     17  C   UNL     1      36.418 119.937  13.330  1.00  0.00    -0.003 C 
ATOM     18  C   UNL     1      37.003 120.781  14.461  1.00  0.00     0.004 C 
ENDBRANCH  16  17
ENDBRANCH  15  16
ENDBRANCH  14  15
ENDBRANCH  13  14
ENDBRANCH  12  13
ENDBRANCH  11  12
ENDBRANCH   1  11
TORSDOF 14
ENDMDL
MODEL 2
REMARK VINA RESULT:    -4.600      1.178      1.680
REMARK INTER + INTRA:          -9.954
REMARK INTER:                  -8.515
REMARK INTRA:                  -1.438
REMARK UNBOUND:                -1.588
REMARK SMILES CCCCCCCCCCCCCCCC(=O)[O-]
REMARK SMILES IDX 9 1 10 2 11 3 12 4 13 5 14 6 15 7 16 8 17 9 18 10 8 11 7 12
REMARK SMILES IDX 6 13 5 14 4 15 3 16 2 17 1 18
REMARK H PARENT
REMARK Flexibility Score: inf
ROOT
ATOM      1  C   UNL     1      39.908 118.658  13.005  1.00  0.00     0.000 C 
ENDROOT
BRANCH   1   2
ATOM      2  C   UNL     1      39.950 117.796  11.734  1.00  0.00     0.000 C 
BRANCH   2   3
ATOM      3  C   UNL     1      41.363 117.285  11.412  1.00  0.00     0.000 C 
BRANCH   3   4
ATOM      4  C   UNL     1      41.858 117.848  10.075  1.00  0.00     0.000 C 
BRANCH   4   5
ATOM      5  C   UNL     1      42.914 116.925   9.448  1.00  0.00     0.000 C 
BRANCH   5   6
ATOM      6  C   UNL     1      44.064 116.588  10.417  1.00  0.00     0.006 C 
BRANCH   6   7
ATOM      7  C   UNL     1      45.212 115.787   9.782  1.00  0.00     0.053 C 
BRANCH   7   8
ATOM      8  C   UNL     1      44.818 114.371   9.495  1.00  0.00     0.041 C 
ATOM      9  O   UNL     1      44.441 113.616  10.429  1.00  0.00    -0.550 OA
ATOM     10  O   UNL     1      44.901 113.875   8.200  1.00  0.00    -0.550 OA
ENDBRANCH   7   8
ENDBRANCH   6   7
ENDBRANCH   5   6
ENDBRANCH   4   5
ENDBRANCH   3   4
ENDBRANCH   2   3
ENDBRANCH   1   2
BRANCH   1  11
ATOM     11  C   UNL     1      40.275 117.867  14.270  1.00  0.00     0.000 C 
BRANCH  11  12
ATOM     12  C   UNL     1      39.067 117.749  15.212  1.00  0.00    -0.000 C 
BRANCH  12  13
ATOM     13  C   UNL     1      37.981 116.803  14.671  1.00  0.00    -0.000 C 
BRANCH  13  14
ATOM     14  C   UNL     1      36.579 117.432  14.553  1.00  0.00    -0.000 C 
BRANCH  14  15
ATOM     15  C   UNL     1      36.254 117.965  13.141  1.00  0.00    -0.000 C 
BRANCH  15  16
ATOM     16  C   UNL     1      36.275 119.503  13.081  1.00  0.00    -0.000 C 
BRANCH  16  17
ATOM     17  C   UNL     1      36.362 120.148  14.473  1.00  0.00    -0.003 C 
ATOM     18  C   UNL     1      37.206 121.422  14.483  1.00  0.00     0.004 C 
ENDBRANCH  16  17
ENDBRANCH  15  16
ENDBRANCH  14  15
ENDBRANCH  13  14
ENDBRANCH  12  13
ENDBRANCH  11  12
ENDBRANCH   1  11
TORSDOF 14
ENDMDL
MODEL 3
REMARK VINA RESULT:    -4.586      2.434      4.060
REMARK INTER + INTRA:          -9.927
REMARK INTER:                  -9.149
REMARK INTRA:                  -0.779
REMARK UNBOUND:                -1.588
REMARK SMILES CCCCCCCCCCCCCCCC(=O)[O-]
REMARK SMILES IDX 9 1 10 2 11 3 12 4 13 5 14 6 15 7 16 8 17 9 18 10 8 11 7 12
REMARK SMILES IDX 6 13 5 14 4 15 3 16 2 17 1 18
REMARK H PARENT
REMARK Flexibility Score: inf
ROOT
ATOM      1  C   UNL     1      42.335 117.100  10.788  1.00  0.00     0.000 C 
ENDROOT
BRANCH   1   2
ATOM      2  C   UNL     1      42.562 117.496   9.320  1.00  0.00     0.000 C 
BRANCH   2   3
ATOM      3  C   UNL     1      42.953 116.300   8.438  1.00  0.00     0.000 C 
BRANCH   3   4
ATOM      4  C   UNL     1      44.440 115.965   8.597  1.00  0.00     0.000 C 
BRANCH   4   5
ATOM      5  C   UNL     1      44.651 114.448   8.718  1.00  0.00     0.000 C 
BRANCH   5   6
ATOM      6  C   UNL     1      45.154 114.024  10.111  1.00  0.00     0.006 C 
BRANCH   6   7
ATOM      7  C   UNL     1      44.037 113.729  11.124  1.00  0.00     0.053 C 
BRANCH   7   8
ATOM      8  C   UNL     1      44.515 112.870  12.254  1.00  0.00     0.041 C 
ATOM      9  O   UNL     1      44.873 111.682  12.040  1.00  0.00    -0.550 OA
ATOM     10  O   UNL     1      44.531 113.370  13.550  1.00  0.00    -0.550 OA
ENDBRANCH   7   8
ENDBRANCH   6   7
ENDBRANCH   5   6
ENDBRANCH   4   5
ENDBRANCH   3   4
ENDBRANCH   2   3
ENDBRANCH   1   2
BRANCH   1  11
ATOM     11  C   UNL     1      40.962 117.544  11.315  1.00  0.00     0.000 C 
BRANCH  11  12
ATOM     12  C   UNL     1      40.639 116.851  12.648  1.00  0.00    -0.000 C 
BRANCH  12  13
ATOM     13  C   UNL     1      40.004 117.804  13.676  1.00  0.00    -0.000 C 
BRANCH  13  14
ATOM     14  C   UNL     1      38.587 118.290  13.316  1.00  0.00    -0.000 C 
BRANCH  14  15
ATOM     15  C   UNL     1      38.424 119.824  13.369  1.00  0.00    -0.000 C 
BRANCH  15  16
ATOM     16  C   UNL     1      37.061 120.245  13.948  1.00  0.00    -0.000 C 
BRANCH  16  17
ATOM     17  C   UNL     1      37.102 121.631  14.609  1.00  0.00    -0.003 C 
ATOM     18  C   UNL     1      36.703 121.595  16.084  1.00  0.00     0.004 C 
ENDBRANCH  16  17
ENDBRANCH  15  16
ENDBRANCH  14  15
ENDBRANCH  13  14
ENDBRANCH  12  13
ENDBRANCH  11  12
ENDBRANCH   1  11
TORSDOF 14
ENDMDL
MODEL 4
REMARK VINA RESULT:    -4.518      3.531      8.305
REMARK INTER + INTRA:          -9.803
REMARK INTER:                  -8.532
REMARK INTRA:                  -1.271
REMARK UNBOUND:                -1.588
REMARK SMILES CCCCCCCCCCCCCCCC(=O)[O-]
REMARK SMILES IDX 9 1 10 2 11 3 12 4 13 5 14 6 15 7 16 8 17 9 18 10 8 11 7 12
REMARK SMILES IDX 6 13 5 14 4 15 3 16 2 17 1 18
REMARK H PARENT
REMARK Flexibility Score: inf
ROOT
ATOM      1  C   UNL     1      41.059 116.921  12.270  1.00  0.00     0.000 C 
ENDROOT
BRANCH   1   2
ATOM      2  C   UNL     1      40.272 118.185  11.890  1.00  0.00     0.000 C 
BRANCH   2   3
ATOM      3  C   UNL     1      39.593 118.846  13.099  1.00  0.00     0.000 C 
BRANCH   3   4
ATOM      4  C   UNL     1      39.746 117.981  14.354  1.00  0.00     0.000 C 
BRANCH   4   5
ATOM      5  C   UNL     1      38.445 117.964  15.172  1.00  0.00     0.000 C 
BRANCH   5   6
ATOM      6  C   UNL     1      37.458 119.067  14.745  1.00  0.00     0.006 C 
BRANCH   6   7
ATOM      7  C   UNL     1      36.018 118.577  14.525  1.00  0.00     0.053 C 
BRANCH   7   8
ATOM      8  C   UNL     1      35.708 118.381  13.072  1.00  0.00     0.041 C 
ATOM      9  O   UNL     1      34.725 118.968  12.550  1.00  0.00    -0.550 OA
ATOM     10  O   UNL     1      36.483 117.521  12.305  1.00  0.00    -0.550 OA
ENDBRANCH   7   8
ENDBRANCH   6   7
ENDBRANCH   5   6
ENDBRANCH   4   5
ENDBRANCH   3   4
ENDBRANCH   2   3
ENDBRANCH   1   2
BRANCH   1  11
ATOM     11  C   UNL     1      42.275 116.684  11.361  1.00  0.00     0.000 C 
BRANCH  11  12
ATOM     12  C   UNL     1      42.160 117.507  10.069  1.00  0.00    -0.000 C 
BRANCH  12  13
ATOM     13  C   UNL     1      42.988 116.920   8.913  1.00  0.00    -0.000 C 
BRANCH  13  14
ATOM     14  C   UNL     1      44.295 116.225   9.343  1.00  0.00    -0.000 C 
BRANCH  14  15
ATOM     15  C   UNL     1      44.664 115.004   8.474  1.00  0.00    -0.000 C 
BRANCH  15  16
ATOM     16  C   UNL     1      45.011 113.769   9.323  1.00  0.00    -0.000 C 
BRANCH  16  17
ATOM     17  C   UNL     1      44.953 114.053  10.832  1.00  0.00    -0.003 C 
ATOM     18  C   UNL     1      43.801 113.329  11.527  1.00  0.00     0.004 C 
ENDBRANCH  16  17
ENDBRANCH  15  16
ENDBRANCH  14  15
ENDBRANCH  13  14
ENDBRANCH  12  13
ENDBRANCH  11  12
ENDBRANCH   1  11
TORSDOF 14
ENDMDL
MODEL 5
REMARK VINA RESULT:    -4.455      1.731      3.384
REMARK INTER + INTRA:          -9.690
REMARK INTER:                  -8.695
REMARK INTRA:                  -0.995
REMARK UNBOUND:                -1.588
REMARK SMILES CCCCCCCCCCCCCCCC(=O)[O-]
REMARK SMILES IDX 9 1 10 2 11 3 12 4 13 5 14 6 15 7 16 8 17 9 18 10 8 11 7 12
REMARK SMILES IDX 6 13 5 14 4 15 3 16 2 17 1 18
REMARK H PARENT
REMARK Flexibility Score: inf
ROOT
ATOM      1  C   UNL     1      41.592 116.789  11.865  1.00  0.00     0.000 C 
ENDROOT
BRANCH   1   2
ATOM      2  C   UNL     1      42.698 117.036  10.826  1.00  0.00     0.000 C 
BRANCH   2   3
ATOM      3  C   UNL     1      42.142 117.462   9.459  1.00  0.00     0.000 C 
BRANCH   3   4
ATOM      4  C   UNL     1      42.865 116.731   8.322  1.00  0.00     0.000 C 
BRANCH   4   5
ATOM      5  C   UNL     1      44.159 116.075   8.825  1.00  0.00     0.000 C 
BRANCH   5   6
ATOM      6  C   UNL     1      44.066 114.538   8.884  1.00  0.00     0.006 C 
BRANCH   6   7
ATOM      7  C   UNL     1      45.244 113.860   9.600  1.00  0.00     0.053 C 
BRANCH   7   8
ATOM      8  C   UNL     1      44.848 113.301  10.932  1.00  0.00     0.041 C 
ATOM      9  O   UNL     1      43.725 113.582  11.428  1.00  0.00    -0.550 OA
ATOM     10  O   UNL     1      45.732 112.498  11.640  1.00  0.00    -0.550 OA
ENDBRANCH   7   8
ENDBRANCH   6   7
ENDBRANCH   5   6
ENDBRANCH   4   5
ENDBRANCH   3   4
ENDBRANCH   2   3
ENDBRANCH   1   2
BRANCH   1  11
ATOM     11  C   UNL     1      40.295 117.545  11.540  1.00  0.00     0.000 C 
BRANCH  11  12
ATOM     12  C   UNL     1      40.162 118.803  12.413  1.00  0.00    -0.000 C 
BRANCH  12  13
ATOM     13  C   UNL     1      38.944 118.751  13.351  1.00  0.00    -0.000 C 
BRANCH  13  14
ATOM     14  C   UNL     1      38.618 117.351  13.907  1.00  0.00    -0.000 C 
BRANCH  14  15
ATOM     15  C   UNL     1      37.105 117.066  14.024  1.00  0.00    -0.000 C 
BRANCH  15  16
ATOM     16  C   UNL     1      36.290 117.797  12.942  1.00  0.00    -0.000 C 
BRANCH  16  17
ATOM     17  C   UNL     1      35.426 118.930  13.517  1.00  0.00    -0.003 C 
ATOM     18  C   UNL     1      35.382 118.924  15.044  1.00  0.00     0.004 C 
ENDBRANCH  16  17
ENDBRANCH  15  16
ENDBRANCH  14  15
ENDBRANCH  13  14
ENDBRANCH  12  13
ENDBRANCH  11  12
ENDBRANCH   1  11
TORSDOF 14
ENDMDL
MODEL 6
REMARK VINA RESULT:    -4.446      1.922      3.457
REMARK INTER + INTRA:          -9.673
REMARK INTER:                  -8.913
REMARK INTRA:                  -0.760
REMARK UNBOUND:                -1.588
REMARK SMILES CCCCCCCCCCCCCCCC(=O)[O-]
REMARK SMILES IDX 9 1 10 2 11 3 12 4 13 5 14 6 15 7 16 8 17 9 18 10 8 11 7 12
REMARK SMILES IDX 6 13 5 14 4 15 3 16 2 17 1 18
REMARK H PARENT
REMARK Flexibility Score: inf
ROOT
ATOM      1  C   UNL     1      41.863 116.728  11.544  1.00  0.00     0.000 C 
ENDROOT
BRANCH   1   2
ATOM      2  C   UNL     1      41.848 117.745  10.392  1.00  0.00     0.000 C 
BRANCH   2   3
ATOM      3  C   UNL     1      42.651 117.268   9.171  1.00  0.00     0.000 C 
BRANCH   3   4
ATOM      4  C   UNL     1      43.951 116.582   9.604  1.00  0.00     0.000 C 
BRANCH   4   5
ATOM      5  C   UNL     1      44.587 115.821   8.432  1.00  0.00     0.000 C 
BRANCH   5   6
ATOM      6  C   UNL     1      44.349 114.300   8.507  1.00  0.00     0.006 C 
BRANCH   6   7
ATOM      7  C   UNL     1      45.629 113.468   8.682  1.00  0.00     0.053 C 
BRANCH   7   8
ATOM      8  C   UNL     1      45.999 112.735   7.429  1.00  0.00     0.041 C 
ATOM      9  O   UNL     1      45.810 111.493   7.342  1.00  0.00    -0.550 OA
ATOM     10  O   UNL     1      46.585 113.417   6.371  1.00  0.00    -0.550 OA
ENDBRANCH   7   8
ENDBRANCH   6   7
ENDBRANCH   5   6
ENDBRANCH   4   5
ENDBRANCH   3   4
ENDBRANCH   2   3
ENDBRANCH   1   2
BRANCH   1  11
ATOM     11  C   UNL     1      40.940 117.133  12.703  1.00  0.00     0.000 C 
BRANCH  11  12
ATOM     12  C   UNL     1      39.485 117.261  12.225  1.00  0.00    -0.000 C 
BRANCH  12  13
ATOM     13  C   UNL     1      38.557 117.862  13.294  1.00  0.00    -0.000 C 
BRANCH  13  14
ATOM     14  C   UNL     1      38.714 119.380  13.506  1.00  0.00    -0.000 C 
BRANCH  14  15
ATOM     15  C   UNL     1      37.372 120.129  13.655  1.00  0.00    -0.000 C 
BRANCH  15  16
ATOM     16  C   UNL     1      36.489 119.525  14.761  1.00  0.00    -0.000 C 
BRANCH  16  17
ATOM     17  C   UNL     1      35.161 118.971  14.221  1.00  0.00    -0.003 C 
ATOM     18  C   UNL     1      35.121 118.915  12.694  1.00  0.00     0.004 C 
ENDBRANCH  16  17
ENDBRANCH  15  16
ENDBRANCH  14  15
ENDBRANCH  13  14
ENDBRANCH  12  13
ENDBRANCH  11  12
ENDBRANCH   1  11
TORSDOF 14
ENDMDL
MODEL 7
REMARK VINA RESULT:    -4.431      3.910      8.409
REMARK INTER + INTRA:          -9.646
REMARK INTER:                  -8.319
REMARK INTRA:                  -1.327
REMARK UNBOUND:                -1.588
REMARK SMILES CCCCCCCCCCCCCCCC(=O)[O-]
REMARK SMILES IDX 9 1 10 2 11 3 12 4 13 5 14 6 15 7 16 8 17 9 18 10 8 11 7 12
REMARK SMILES IDX 6 13 5 14 4 15 3 16 2 17 1 18
REMARK H PARENT
REMARK Flexibility Score: inf
ROOT
ATOM      1  C   UNL     1      41.702 117.751  10.423  1.00  0.00     0.000 C 
ENDROOT
BRANCH   1   2
ATOM      2  C   UNL     1      41.930 116.760  11.575  1.00  0.00     0.000 C 
BRANCH   2   3
ATOM      3  C   UNL     1      40.778 116.759  12.592  1.00  0.00     0.000 C 
BRANCH   3   4
ATOM      4  C   UNL     1      39.652 117.697  12.145  1.00  0.00     0.000 C 
BRANCH   4   5
ATOM      5  C   UNL     1      38.524 117.737  13.188  1.00  0.00     0.000 C 
BRANCH   5   6
ATOM      6  C   UNL     1      38.333 119.135  13.807  1.00  0.00     0.006 C 
BRANCH   6   7
ATOM      7  C   UNL     1      37.045 119.849  13.370  1.00  0.00     0.053 C 
BRANCH   7   8
ATOM      8  C   UNL     1      35.827 119.012  13.614  1.00  0.00     0.041 C 
ATOM      9  O   UNL     1      35.469 118.741  14.790  1.00  0.00    -0.550 OA
ATOM     10  O   UNL     1      35.108 118.501  12.540  1.00  0.00    -0.550 OA
ENDBRANCH   7   8
ENDBRANCH   6   7
ENDBRANCH   5   6
ENDBRANCH   4   5
ENDBRANCH   3   4
ENDBRANCH   2   3
ENDBRANCH   1   2
BRANCH   1  11
ATOM     11  C   UNL     1      42.636 117.497   9.230  1.00  0.00     0.000 C 
BRANCH  11  12
ATOM     12  C   UNL     1      42.961 116.001   9.098  1.00  0.00    -0.000 C 
BRANCH  12  13
ATOM     13  C   UNL     1      44.473 115.726   9.011  1.00  0.00    -0.000 C 
BRANCH  13  14
ATOM     14  C   UNL     1      44.860 114.235   9.053  1.00  0.00    -0.000 C 
BRANCH  14  15
ATOM     15  C   UNL     1      45.270 113.739  10.456  1.00  0.00    -0.000 C 
BRANCH  15  16
ATOM     16  C   UNL     1      44.053 113.354  11.315  1.00  0.00    -0.000 C 
BRANCH  16  17
ATOM     17  C   UNL     1      44.051 114.052  12.684  1.00  0.00    -0.003 C 
ATOM     18  C   UNL     1      45.106 115.152  12.788  1.00  0.00     0.004 C 
ENDBRANCH  16  17
ENDBRANCH  15  16
ENDBRANCH  14  15
ENDBRANCH  13  14
ENDBRANCH  12  13
ENDBRANCH  11  12
ENDBRANCH   1  11
TORSDOF 14
ENDMDL
MODEL 8
REMARK VINA RESULT:    -4.386      3.572      7.708
REMARK INTER + INTRA:          -9.564
REMARK INTER:                  -8.148
REMARK INTRA:                  -1.416
REMARK UNBOUND:                -1.588
REMARK SMILES CCCCCCCCCCCCCCCC(=O)[O-]
REMARK SMILES IDX 9 1 10 2 11 3 12 4 13 5 14 6 15 7 16 8 17 9 18 10 8 11 7 12
REMARK SMILES IDX 6 13 5 14 4 15 3 16 2 17 1 18
REMARK H PARENT
REMARK Flexibility Score: inf
ROOT
ATOM      1  C   UNL     1      42.867 117.119   9.129  1.00  0.00     0.000 C 
ENDROOT
BRANCH   1   2
ATOM      2  C   UNL     1      42.353 117.104  10.577  1.00  0.00     0.000 C 
BRANCH   2   3
ATOM      3  C   UNL     1      41.157 118.045  10.790  1.00  0.00     0.000 C 
BRANCH   3   4
ATOM      4  C   UNL     1      40.414 117.701  12.086  1.00  0.00     0.000 C 
BRANCH   4   5
ATOM      5  C   UNL     1      39.768 118.954  12.697  1.00  0.00     0.000 C 
BRANCH   5   6
ATOM      6  C   UNL     1      38.858 118.631  13.898  1.00  0.00     0.006 C 
BRANCH   6   7
ATOM      7  C   UNL     1      37.474 119.296  13.839  1.00  0.00     0.053 C 
BRANCH   7   8
ATOM      8  C   UNL     1      36.458 118.422  13.170  1.00  0.00     0.041 C 
ATOM      9  O   UNL     1      36.689 117.196  13.002  1.00  0.00    -0.550 OA
ATOM     10  O   UNL     1      35.271 118.969  12.700  1.00  0.00    -0.550 OA
ENDBRANCH   7   8
ENDBRANCH   6   7
ENDBRANCH   5   6
ENDBRANCH   4   5
ENDBRANCH   3   4
ENDBRANCH   2   3
ENDBRANCH   1   2
BRANCH   1  11
ATOM     11  C   UNL     1      44.117 116.246   8.935  1.00  0.00     0.000 C 
BRANCH  11  12
ATOM     12  C   UNL     1      43.747 114.755   8.935  1.00  0.00    -0.000 C 
BRANCH  12  13
ATOM     13  C   UNL     1      44.593 113.932   9.923  1.00  0.00    -0.000 C 
BRANCH  13  14
ATOM     14  C   UNL     1      43.973 113.772  11.325  1.00  0.00    -0.000 C 
BRANCH  14  15
ATOM     15  C   UNL     1      44.656 114.634  12.408  1.00  0.00    -0.000 C 
BRANCH  15  16
ATOM     16  C   UNL     1      43.644 115.224  13.406  1.00  0.00    -0.000 C 
BRANCH  16  17
ATOM     17  C   UNL     1      42.260 114.565  13.305  1.00  0.00    -0.003 C 
ATOM     18  C   UNL     1      41.486 114.609  14.621  1.00  0.00     0.004 C 
ENDBRANCH  16  17
ENDBRANCH  15  16
ENDBRANCH  14  15
ENDBRANCH  13  14
ENDBRANCH  12  13
ENDBRANCH  11  12
ENDBRANCH   1  11
TORSDOF 14
ENDMDL
MODEL 9
REMARK VINA RESULT:    -4.325      3.700      7.843
REMARK INTER + INTRA:          -9.453
REMARK INTER:                  -7.567
REMARK INTRA:                  -1.886
REMARK UNBOUND:                -1.588
REMARK SMILES CCCCCCCCCCCCCCCC(=O)[O-]
REMARK SMILES IDX 9 1 10 2 11 3 12 4 13 5 14 6 15 7 16 8 17 9 18 10 8 11 7 12
REMARK SMILES IDX 6 13 5 14 4 15 3 16 2 17 1 18
REMARK H PARENT
REMARK Flexibility Score: inf
ROOT
ATOM      1  C   UNL     1      42.804 117.111   8.897  1.00  0.00     0.000 C 
ENDROOT
BRANCH   1   2
ATOM      2  C   UNL     1      42.452 117.126  10.393  1.00  0.00     0.000 C 
BRANCH   2   3
ATOM      3  C   UNL     1      41.172 117.920  10.693  1.00  0.00     0.000 C 
BRANCH   3   4
ATOM      4  C   UNL     1      40.378 117.271  11.832  1.00  0.00     0.000 C 
BRANCH   4   5
ATOM      5  C   UNL     1      41.290 116.403  12.712  1.00  0.00     0.000 C 
BRANCH   5   6
ATOM      6  C   UNL     1      41.008 116.576  14.217  1.00  0.00     0.006 C 
BRANCH   6   7
ATOM      7  C   UNL     1      40.369 117.923  14.590  1.00  0.00     0.053 C 
BRANCH   7   8
ATOM      8  C   UNL     1      38.896 117.800  14.828  1.00  0.00     0.041 C 
ATOM      9  O   UNL     1      38.157 118.817  14.764  1.00  0.00    -0.550 OA
ATOM     10  O   UNL     1      38.344 116.568  15.154  1.00  0.00    -0.550 OA
ENDBRANCH   7   8
ENDBRANCH   6   7
ENDBRANCH   5   6
ENDBRANCH   4   5
ENDBRANCH   3   4
ENDBRANCH   2   3
ENDBRANCH   1   2
BRANCH   1  11
ATOM     11  C   UNL     1      43.872 116.063   8.550  1.00  0.00     0.000 C 
BRANCH  11  12
ATOM     12  C   UNL     1      43.734 114.824   9.448  1.00  0.00    -0.000 C 
BRANCH  12  13
ATOM     13  C   UNL     1      45.088 114.165   9.765  1.00  0.00    -0.000 C 
BRANCH  13  14
ATOM     14  C   UNL     1      45.148 113.434  11.121  1.00  0.00    -0.000 C 
BRANCH  14  15
ATOM     15  C   UNL     1      44.375 114.151  12.248  1.00  0.00    -0.000 C 
BRANCH  15  16
ATOM     16  C   UNL     1      45.294 115.028  13.117  1.00  0.00    -0.000 C 
BRANCH  16  17
ATOM     17  C   UNL     1      44.990 116.528  12.974  1.00  0.00    -0.003 C 
ATOM     18  C   UNL     1      45.795 117.191  11.857  1.00  0.00     0.004 C 
ENDBRANCH  16  17
ENDBRANCH  15  16
ENDBRANCH  14  15
ENDBRANCH  13  14
ENDBRANCH  12  13
ENDBRANCH  11  12
ENDBRANCH   1  11
TORSDOF 14
ENDMDL
