MODEL 1
REMARK VINA RESULT:    -3.867      0.000      0.000
REMARK INTER + INTRA:          -6.247
REMARK INTER:                  -5.675
REMARK INTRA:                  -0.572
REMARK UNBOUND:                -0.572
REMARK SMILES O=C([O-])CCCCCCCC(=O)[O-]
REMARK SMILES IDX 7 1 6 2 5 3 4 4 2 5 1 6 3 7 8 8 9 9 10 10 11 11 12 12 13 13
REMARK H PARENT
REMARK Flexibility Score: inf
ROOT
ATOM      1  C   UNL     1      15.023  32.013  68.852  1.00  0.00     0.000 C 
ENDROOT
BRANCH   1   2
ATOM      2  C   UNL     1      15.366  32.318  67.384  1.00  0.00     0.000 C 
BRANCH   2   3
ATOM      3  C   UNL     1      15.695  33.800  67.151  1.00  0.00     0.006 C 
BRANCH   3   4
ATOM      4  C   UNL     1      14.438  34.669  67.015  1.00  0.00     0.053 C 
BRANCH   4   5
ATOM      5  C   UNL     1      14.765  36.105  67.277  1.00  0.00     0.041 C 
ATOM      6  O   UNL     1      15.960  36.461  67.450  1.00  0.00    -0.550 OA
ATOM      7  O   UNL     1      13.745  37.043  67.378  1.00  0.00    -0.550 OA
ENDBRANCH   4   5
ENDBRANCH   3   4
ENDBRANCH   2   3
ENDBRANCH   1   2
BRANCH   1   8
ATOM      8  C   UNL     1      13.680  31.279  69.012  1.00  0.00     0.000 C 
BRANCH   8   9
ATOM      9  C   UNL     1      12.453  32.212  68.922  1.00  0.00     0.006 C 
BRANCH   9  10
ATOM     10  C   UNL     1      11.272  31.550  68.199  1.00  0.00     0.053 C 
BRANCH  10  11
ATOM     11  C   UNL     1      11.127  32.106  66.818  1.00  0.00     0.041 C 
ATOM     12  O   UNL     1      10.099  32.762  66.503  1.00  0.00    -0.550 OA
ATOM     13  O   UNL     1      12.149  31.943  65.891  1.00  0.00    -0.550 OA
ENDBRANCH  10  11
ENDBRANCH   9  10
ENDBRANCH   8   9
ENDBRANCH   1   8
TORSDOF 8
ENDMDL
MODEL 2
REMARK VINA RESULT:    -3.865      3.074      6.039
REMARK INTER + INTRA:          -6.245
REMARK INTER:                  -5.780
REMARK INTRA:                  -0.465
REMARK UNBOUND:                -0.572
REMARK SMILES O=C([O-])CCCCCCCC(=O)[O-]
REMARK SMILES IDX 7 1 6 2 5 3 4 4 2 5 1 6 3 7 8 8 9 9 10 10 11 11 12 12 13 13
REMARK H PARENT
REMARK Flexibility Score: inf
ROOT
ATOM      1  C   UNL     1      15.533  36.187  67.375  1.00  0.00     0.000 C 
ENDROOT
BRANCH   1   2
ATOM      2  C   UNL     1      14.101  35.639  67.493  1.00  0.00     0.000 C 
BRANCH   2   3
ATOM      3  C   UNL     1      14.017  34.135  67.189  1.00  0.00     0.006 C 
BRANCH   3   4
ATOM      4  C   UNL     1      13.404  33.333  68.343  1.00  0.00     0.053 C 
BRANCH   4   5
ATOM      5  C   UNL     1      14.277  32.169  68.693  1.00  0.00     0.041 C 
ATOM      6  O   UNL     1      13.770  31.109  69.143  1.00  0.00    -0.550 OA
ATOM      7  O   UNL     1      15.657  32.273  68.566  1.00  0.00    -0.550 OA
ENDBRANCH   4   5
ENDBRANCH   3   4
ENDBRANCH   2   3
ENDBRANCH   1   2
BRANCH   1   8
ATOM      8  C   UNL     1      16.085  36.111  65.941  1.00  0.00     0.000 C 
BRANCH   8   9
ATOM      9  C   UNL     1      17.557  35.652  65.870  1.00  0.00     0.006 C 
BRANCH   9  10
ATOM     10  C   UNL     1      17.732  34.191  66.307  1.00  0.00     0.053 C 
BRANCH  10  11
ATOM     11  C   UNL     1      18.961  33.604  65.690  1.00  0.00     0.041 C 
ATOM     12  O   UNL     1      18.862  32.730  64.789  1.00  0.00    -0.550 OA
ATOM     13  O   UNL     1      20.216  34.058  66.074  1.00  0.00    -0.550 OA
ENDBRANCH  10  11
ENDBRANCH   9  10
ENDBRANCH   8   9
ENDBRANCH   1   8
TORSDOF 8
ENDMDL
MODEL 3
REMARK VINA RESULT:    -3.856      3.477      5.548
REMARK INTER + INTRA:          -6.231
REMARK INTER:                  -5.908
REMARK INTRA:                  -0.324
REMARK UNBOUND:                -0.572
REMARK SMILES O=C([O-])CCCCCCCC(=O)[O-]
REMARK SMILES IDX 7 1 6 2 5 3 4 4 2 5 1 6 3 7 8 8 9 9 10 10 11 11 12 12 13 13
REMARK H PARENT
REMARK Flexibility Score: inf
ROOT
ATOM      1  C   UNL     1      15.597  32.129  68.529  1.00  0.00     0.000 C 
ENDROOT
BRANCH   1   2
ATOM      2  C   UNL     1      15.629  30.754  69.218  1.00  0.00     0.000 C 
BRANCH   2   3
ATOM      3  C   UNL     1      15.650  30.863  70.751  1.00  0.00     0.006 C 
BRANCH   3   4
ATOM      4  C   UNL     1      16.633  29.879  71.398  1.00  0.00     0.053 C 
BRANCH   4   5
ATOM      5  C   UNL     1      17.988  30.011  70.777  1.00  0.00     0.041 C 
ATOM      6  O   UNL     1      18.531  29.019  70.226  1.00  0.00    -0.550 OA
ATOM      7  O   UNL     1      18.671  31.219  70.848  1.00  0.00    -0.550 OA
ENDBRANCH   4   5
ENDBRANCH   3   4
ENDBRANCH   2   3
ENDBRANCH   1   2
BRANCH   1   8
ATOM      8  C   UNL     1      14.172  32.692  68.384  1.00  0.00     0.000 C 
BRANCH   8   9
ATOM      9  C   UNL     1      14.050  33.795  67.312  1.00  0.00     0.006 C 
BRANCH   9  10
ATOM     10  C   UNL     1      13.519  35.113  67.892  1.00  0.00     0.053 C 
BRANCH  10  11
ATOM     11  C   UNL     1      14.394  36.255  67.484  1.00  0.00     0.041 C 
ATOM     12  O   UNL     1      13.885  37.358  67.153  1.00  0.00    -0.550 OA
ATOM     13  O   UNL     1      15.776  36.117  67.516  1.00  0.00    -0.550 OA
ENDBRANCH  10  11
ENDBRANCH   9  10
ENDBRANCH   8   9
ENDBRANCH   1   8
TORSDOF 8
ENDMDL
MODEL 4
REMARK VINA RESULT:    -3.835     11.909     12.857
REMARK INTER + INTRA:          -6.200
REMARK INTER:                  -5.725
REMARK INTRA:                  -0.475
REMARK UNBOUND:                -0.572
REMARK SMILES O=C([O-])CCCCCCCC(=O)[O-]
REMARK SMILES IDX 7 1 6 2 5 3 4 4 2 5 1 6 3 7 8 8 9 9 10 10 11 11 12 12 13 13
REMARK H PARENT
REMARK Flexibility Score: inf
ROOT
ATOM      1  C   UNL     1      16.232  44.258  60.027  1.00  0.00     0.000 C 
ENDROOT
BRANCH   1   2
ATOM      2  C   UNL     1      17.536  43.450  59.904  1.00  0.00     0.000 C 
BRANCH   2   3
ATOM      3  C   UNL     1      18.478  43.665  61.099  1.00  0.00     0.006 C 
BRANCH   3   4
ATOM      4  C   UNL     1      19.133  42.362  61.574  1.00  0.00     0.053 C 
BRANCH   4   5
ATOM      5  C   UNL     1      20.485  42.201  60.955  1.00  0.00     0.041 C 
ATOM      6  O   UNL     1      20.868  41.072  60.553  1.00  0.00    -0.550 OA
ATOM      7  O   UNL     1      21.342  43.291  60.864  1.00  0.00    -0.550 OA
ENDBRANCH   4   5
ENDBRANCH   3   4
ENDBRANCH   2   3
ENDBRANCH   1   2
BRANCH   1   8
ATOM      8  C   UNL     1      14.973  43.386  59.875  1.00  0.00     0.000 C 
BRANCH   8   9
ATOM      9  C   UNL     1      14.171  43.228  61.183  1.00  0.00     0.006 C 
BRANCH   9  10
ATOM     10  C   UNL     1      14.047  44.550  61.953  1.00  0.00     0.053 C 
BRANCH  10  11
ATOM     11  C   UNL     1      14.553  44.390  63.352  1.00  0.00     0.041 C 
ATOM     12  O   UNL     1      15.753  44.067  63.560  1.00  0.00    -0.550 OA
ATOM     13  O   UNL     1      13.713  44.646  64.428  1.00  0.00    -0.550 OA
ENDBRANCH  10  11
ENDBRANCH   9  10
ENDBRANCH   8   9
ENDBRANCH   1   8
TORSDOF 8
ENDMDL
MODEL 5
REMARK VINA RESULT:    -3.833     12.229     13.312
REMARK INTER + INTRA:          -6.198
REMARK INTER:                  -5.829
REMARK INTRA:                  -0.369
REMARK UNBOUND:                -0.572
REMARK SMILES O=C([O-])CCCCCCCC(=O)[O-]
REMARK SMILES IDX 7 1 6 2 5 3 4 4 2 5 1 6 3 7 8 8 9 9 10 10 11 11 12 12 13 13
REMARK H PARENT
REMARK Flexibility Score: inf
ROOT
ATOM      1  C   UNL     1      17.993  43.358  60.714  1.00  0.00     0.000 C 
ENDROOT
BRANCH   1   2
ATOM      2  C   UNL     1      19.467  43.284  61.146  1.00  0.00     0.000 C 
BRANCH   2   3
ATOM      3  C   UNL     1      19.943  41.841  61.376  1.00  0.00     0.006 C 
BRANCH   3   4
ATOM      4  C   UNL     1      21.282  41.546  60.689  1.00  0.00     0.053 C 
BRANCH   4   5
ATOM      5  C   UNL     1      22.375  42.362  61.302  1.00  0.00     0.041 C 
ATOM      6  O   UNL     1      22.710  42.175  62.501  1.00  0.00    -0.550 OA
ATOM      7  O   UNL     1      22.993  43.364  60.563  1.00  0.00    -0.550 OA
ENDBRANCH   4   5
ENDBRANCH   3   4
ENDBRANCH   2   3
ENDBRANCH   1   2
BRANCH   1   8
ATOM      8  C   UNL     1      17.039  42.707  61.731  1.00  0.00     0.000 C 
BRANCH   8   9
ATOM      9  C   UNL     1      15.550  42.831  61.346  1.00  0.00     0.006 C 
BRANCH   9  10
ATOM     10  C   UNL     1      15.354  43.544  60.002  1.00  0.00     0.053 C 
BRANCH  10  11
ATOM     11  C   UNL     1      14.728  44.887  60.208  1.00  0.00     0.041 C 
ATOM     12  O   UNL     1      15.422  45.933  60.106  1.00  0.00    -0.550 OA
ATOM     13  O   UNL     1      13.367  44.987  60.466  1.00  0.00    -0.550 OA
ENDBRANCH  10  11
ENDBRANCH   9  10
ENDBRANCH   8   9
ENDBRANCH   1   8
TORSDOF 8
ENDMDL
MODEL 6
REMARK VINA RESULT:    -3.831      3.743      6.992
REMARK INTER + INTRA:          -6.195
REMARK INTER:                  -5.727
REMARK INTRA:                  -0.469
REMARK UNBOUND:                -0.572
REMARK SMILES O=C([O-])CCCCCCCC(=O)[O-]
REMARK SMILES IDX 7 1 6 2 5 3 4 4 2 5 1 6 3 7 8 8 9 9 10 10 11 11 12 12 13 13
REMARK H PARENT
REMARK Flexibility Score: inf
ROOT
ATOM      1  C   UNL     1      16.848  35.768  65.995  1.00  0.00     0.000 C 
ENDROOT
BRANCH   1   2
ATOM      2  C   UNL     1      15.981  36.175  67.199  1.00  0.00     0.000 C 
BRANCH   2   3
ATOM      3  C   UNL     1      14.477  36.132  66.885  1.00  0.00     0.006 C 
BRANCH   3   4
ATOM      4  C   UNL     1      13.722  35.118  67.754  1.00  0.00     0.053 C 
BRANCH   4   5
ATOM      5  C   UNL     1      14.181  33.727  67.451  1.00  0.00     0.041 C 
ATOM      6  O   UNL     1      14.082  33.268  66.283  1.00  0.00    -0.550 OA
ATOM      7  O   UNL     1      14.673  32.920  68.469  1.00  0.00    -0.550 OA
ENDBRANCH   4   5
ENDBRANCH   3   4
ENDBRANCH   2   3
ENDBRANCH   1   2
BRANCH   1   8
ATOM      8  C   UNL     1      17.710  34.524  66.273  1.00  0.00     0.000 C 
BRANCH   8   9
ATOM      9  C   UNL     1      19.022  34.490  65.463  1.00  0.00     0.006 C 
BRANCH   9  10
ATOM     10  C   UNL     1      19.961  35.648  65.827  1.00  0.00     0.053 C 
BRANCH  10  11
ATOM     11  C   UNL     1      21.206  35.129  66.474  1.00  0.00     0.041 C 
ATOM     12  O   UNL     1      21.147  34.550  67.591  1.00  0.00    -0.550 OA
ATOM     13  O   UNL     1      22.427  35.242  65.821  1.00  0.00    -0.550 OA
ENDBRANCH  10  11
ENDBRANCH   9  10
ENDBRANCH   8   9
ENDBRANCH   1   8
TORSDOF 8
ENDMDL
MODEL 7
REMARK VINA RESULT:    -3.828     10.998     12.307
REMARK INTER + INTRA:          -6.191
REMARK INTER:                  -5.473
REMARK INTRA:                  -0.718
REMARK UNBOUND:                -0.572
REMARK SMILES O=C([O-])CCCCCCCC(=O)[O-]
REMARK SMILES IDX 7 1 6 2 5 3 4 4 2 5 1 6 3 7 8 8 9 9 10 10 11 11 12 12 13 13
REMARK H PARENT
REMARK Flexibility Score: inf
ROOT
ATOM      1  C   UNL     1      15.618  43.306  60.133  1.00  0.00     0.000 C 
ENDROOT
BRANCH   1   2
ATOM      2  C   UNL     1      17.105  43.631  59.910  1.00  0.00     0.000 C 
BRANCH   2   3
ATOM      3  C   UNL     1      17.987  43.200  61.092  1.00  0.00     0.006 C 
BRANCH   3   4
ATOM      4  C   UNL     1      17.224  42.352  62.118  1.00  0.00     0.053 C 
BRANCH   4   5
ATOM      5  C   UNL     1      18.031  42.196  63.369  1.00  0.00     0.041 C 
ATOM      6  O   UNL     1      19.035  41.437  63.384  1.00  0.00    -0.550 OA
ATOM      7  O   UNL     1      17.646  42.852  64.531  1.00  0.00    -0.550 OA
ENDBRANCH   4   5
ENDBRANCH   3   4
ENDBRANCH   2   3
ENDBRANCH   1   2
BRANCH   1   8
ATOM      8  C   UNL     1      14.698  44.512  59.877  1.00  0.00     0.000 C 
BRANCH   8   9
ATOM      9  C   UNL     1      13.713  44.792  61.031  1.00  0.00     0.006 C 
BRANCH   9  10
ATOM     10  C   UNL     1      13.799  43.733  62.139  1.00  0.00     0.053 C 
BRANCH  10  11
ATOM     11  C   UNL     1      14.315  44.341  63.405  1.00  0.00     0.041 C 
ATOM     12  O   UNL     1      15.346  45.063  63.388  1.00  0.00    -0.550 OA
ATOM     13  O   UNL     1      13.627  44.150  64.597  1.00  0.00    -0.550 OA
ENDBRANCH  10  11
ENDBRANCH   9  10
ENDBRANCH   8   9
ENDBRANCH   1   8
TORSDOF 8
ENDMDL
MODEL 8
REMARK VINA RESULT:    -3.775      3.129      4.494
REMARK INTER + INTRA:          -6.113
REMARK INTER:                  -5.559
REMARK INTRA:                  -0.554
REMARK UNBOUND:                -0.572
REMARK SMILES O=C([O-])CCCCCCCC(=O)[O-]
REMARK SMILES IDX 7 1 6 2 5 3 4 4 2 5 1 6 3 7 8 8 9 9 10 10 11 11 12 12 13 13
REMARK H PARENT
REMARK Flexibility Score: inf
ROOT
ATOM      1  C   UNL     1      14.564  35.651  66.676  1.00  0.00     0.000 C 
ENDROOT
BRANCH   1   2
ATOM      2  C   UNL     1      15.986  36.151  66.982  1.00  0.00     0.000 C 
BRANCH   2   3
ATOM      3  C   UNL     1      16.978  35.837  65.851  1.00  0.00     0.006 C 
BRANCH   3   4
ATOM      4  C   UNL     1      17.873  34.633  66.169  1.00  0.00     0.053 C 
BRANCH   4   5
ATOM      5  C   UNL     1      19.288  34.916  65.777  1.00  0.00     0.041 C 
ATOM      6  O   UNL     1      19.589  36.013  65.238  1.00  0.00    -0.550 OA
ATOM      7  O   UNL     1      20.268  33.949  65.965  1.00  0.00    -0.550 OA
ENDBRANCH   4   5
ENDBRANCH   3   4
ENDBRANCH   2   3
ENDBRANCH   1   2
BRANCH   1   8
ATOM      8  C   UNL     1      14.032  34.674  67.739  1.00  0.00     0.000 C 
BRANCH   8   9
ATOM      9  C   UNL     1      14.161  33.191  67.333  1.00  0.00     0.006 C 
BRANCH   9  10
ATOM     10  C   UNL     1      15.377  32.514  67.980  1.00  0.00     0.053 C 
BRANCH  10  11
ATOM     11  C   UNL     1      14.949  31.653  69.126  1.00  0.00     0.041 C 
ATOM     12  O   UNL     1      13.762  31.238  69.199  1.00  0.00    -0.550 OA
ATOM     13  O   UNL     1      15.873  31.269  70.089  1.00  0.00    -0.550 OA
ENDBRANCH  10  11
ENDBRANCH   9  10
ENDBRANCH   8   9
ENDBRANCH   1   8
TORSDOF 8
ENDMDL
MODEL 9
REMARK VINA RESULT:    -3.710     11.283     12.626
REMARK INTER + INTRA:          -6.017
REMARK INTER:                  -5.439
REMARK INTRA:                  -0.578
REMARK UNBOUND:                -0.572
REMARK SMILES O=C([O-])CCCCCCCC(=O)[O-]
REMARK SMILES IDX 7 1 6 2 5 3 4 4 2 5 1 6 3 7 8 8 9 9 10 10 11 11 12 12 13 13
REMARK H PARENT
REMARK Flexibility Score: inf
ROOT
ATOM      1  C   UNL     1      15.879  44.144  59.888  1.00  0.00     0.000 C 
ENDROOT
BRANCH   1   2
ATOM      2  C   UNL     1      14.866  43.007  60.101  1.00  0.00     0.000 C 
BRANCH   2   3
ATOM      3  C   UNL     1      13.983  43.227  61.340  1.00  0.00     0.006 C 
BRANCH   3   4
ATOM      4  C   UNL     1      14.253  44.572  62.025  1.00  0.00     0.053 C 
BRANCH   4   5
ATOM      5  C   UNL     1      14.630  44.363  63.457  1.00  0.00     0.041 C 
ATOM      6  O   UNL     1      15.737  43.841  63.752  1.00  0.00    -0.550 OA
ATOM      7  O   UNL     1      13.738  44.701  64.468  1.00  0.00    -0.550 OA
ENDBRANCH   4   5
ENDBRANCH   3   4
ENDBRANCH   2   3
ENDBRANCH   1   2
BRANCH   1   8
ATOM      8  C   UNL     1      17.336  43.651  59.875  1.00  0.00     0.000 C 
BRANCH   8   9
ATOM      9  C   UNL     1      18.069  43.856  61.217  1.00  0.00     0.006 C 
BRANCH   9  10
ATOM     10  C   UNL     1      19.171  42.812  61.443  1.00  0.00     0.053 C 
BRANCH  10  11
ATOM     11  C   UNL     1      18.975  42.119  62.754  1.00  0.00     0.041 C 
ATOM     12  O   UNL     1      17.976  41.375  62.936  1.00  0.00    -0.550 OA
ATOM     13  O   UNL     1      19.923  42.258  63.761  1.00  0.00    -0.550 OA
ENDBRANCH  10  11
ENDBRANCH   9  10
ENDBRANCH   8   9
ENDBRANCH   1   8
TORSDOF 8
ENDMDL
