MODEL 1
REMARK VINA RESULT:    -5.508      0.000      0.000
REMARK INTER + INTRA:          -8.629
REMARK INTER:                  -7.439
REMARK INTRA:                  -1.189
REMARK UNBOUND:                -1.189
REMARK SMILES O=c1c(-c2ccc(O)cc2)coc2c([C@@H]3O[C@@H](CO)[C@H](O)[C@H](O)[C@H]3O)c(O)ccc12
REMARK SMILES IDX 3 1 11 2 12 3 13 4 30 5 2 6 1 7 29 8 28 9 26 10 14 11 4 12
REMARK SMILES IDX 5 13 6 14 7 15 10 16 9 17 8 18 15 20 24 21 16 22 22 23 17 24
REMARK SMILES IDX 20 25 25 26 23 28 18 30 19 31 21 33 27 35
REMARK H PARENT 8 19 25 27 23 29 19 32 21 34 27 36
REMARK Flexibility Score: inf
ROOT
ATOM      1  C   UNL     1      -8.259  13.538 -14.235  1.00  0.00     0.065 A 
ATOM      2  C   UNL     1      -7.232  13.509 -15.189  1.00  0.00     0.208 A 
ATOM      3  O   UNL     1      -7.469  13.115 -16.434  1.00  0.00    -0.463 OA
ATOM      4  C   UNL     1      -8.669  12.727 -16.860  1.00  0.00     0.147 A 
ATOM      5  C   UNL     1      -9.760  12.717 -15.960  1.00  0.00     0.066 A 
ATOM      6  C   UNL     1      -9.543  13.124 -14.631  1.00  0.00     0.200 A 
ATOM      7  O   UNL     1     -10.489  13.101 -13.795  1.00  0.00    -0.288 OA
ATOM      8  C   UNL     1     -11.021  12.292 -16.406  1.00  0.00     0.020 A 
ATOM      9  C   UNL     1     -11.198  11.878 -17.725  1.00  0.00     0.047 A 
ATOM     10  C   UNL     1     -10.124  11.883 -18.623  1.00  0.00     0.125 A 
ATOM     11  C   UNL     1      -8.848  12.323 -18.203  1.00  0.00     0.069 A 
ENDROOT
BRANCH   1  12
ATOM     12  C   UNL     1      -7.970  13.990 -12.850  1.00  0.00    -0.011 A 
ATOM     13  C   UNL     1      -8.141  15.339 -12.495  1.00  0.00     0.013 A 
ATOM     14  C   UNL     1      -7.876  15.766 -11.190  1.00  0.00     0.047 A 
ATOM     15  C   UNL     1      -7.445  14.852 -10.224  1.00  0.00     0.115 A 
ATOM     16  C   UNL     1      -7.542  13.075 -11.873  1.00  0.00     0.013 A 
ATOM     17  C   UNL     1      -7.279  13.504 -10.568  1.00  0.00     0.047 A 
BRANCH  15  18
ATOM     18  O   UNL     1      -7.185  15.291  -8.928  1.00  0.00    -0.508 OA
ATOM     19  H   UNL     1      -7.533  14.789  -8.119  1.00  0.00     0.293 HD
ENDBRANCH  15  18
ENDBRANCH   1  12
BRANCH  11  20
ATOM     20  C   UNL     1      -7.673  12.308 -19.170  1.00  0.00     0.188 C 
ATOM     21  C   UNL     1      -7.115  10.866 -19.318  1.00  0.00     0.179 C 
ATOM     22  O   UNL     1      -8.082  12.894 -20.403  1.00  0.00    -0.362 OA
ATOM     23  C   UNL     1      -5.880  10.846 -20.248  1.00  0.00     0.177 C 
ATOM     24  C   UNL     1      -7.383  12.428 -21.554  1.00  0.00     0.176 C 
ATOM     25  C   UNL     1      -5.915  12.018 -21.259  1.00  0.00     0.177 C 
BRANCH  21  26
ATOM     26  O   UNL     1      -6.801  10.301 -18.068  1.00  0.00    -0.387 OA
ATOM     27  H   UNL     1      -6.030  10.804 -17.696  1.00  0.00     0.211 HD
ENDBRANCH  21  26
BRANCH  23  28
ATOM     28  O   UNL     1      -5.842   9.608 -20.915  1.00  0.00    -0.387 OA
ATOM     29  H   UNL     1      -4.924   9.246 -20.809  1.00  0.00     0.211 HD
ENDBRANCH  23  28
BRANCH  24  30
ATOM     30  C   UNL     1      -7.466  13.516 -22.637  1.00  0.00     0.191 C 
BRANCH  30  31
ATOM     31  O   UNL     1      -7.513  12.952 -23.920  1.00  0.00    -0.394 OA
ATOM     32  H   UNL     1      -8.304  13.341 -24.375  1.00  0.00     0.210 HD
ENDBRANCH  30  31
ENDBRANCH  24  30
BRANCH  25  33
ATOM     33  O   UNL     1      -5.252  11.648 -22.444  1.00  0.00    -0.388 OA
ATOM     34  H   UNL     1      -5.364  12.394 -23.090  1.00  0.00     0.211 HD
ENDBRANCH  25  33
ENDBRANCH  11  20
BRANCH  10  35
ATOM     35  O   UNL     1     -10.325  11.449 -19.934  1.00  0.00    -0.507 OA
ATOM     36  H   UNL     1     -10.588  12.090 -20.673  1.00  0.00     0.293 HD
ENDBRANCH  10  35
TORSDOF 9
ENDMDL
MODEL 2
REMARK VINA RESULT:    -5.478      3.206      5.199
REMARK INTER + INTRA:          -8.588
REMARK INTER:                  -7.401
REMARK INTRA:                  -1.188
REMARK UNBOUND:                -1.189
REMARK SMILES O=c1c(-c2ccc(O)cc2)coc2c([C@@H]3O[C@@H](CO)[C@H](O)[C@H](O)[C@H]3O)c(O)ccc12
REMARK SMILES IDX 3 1 11 2 12 3 13 4 30 5 2 6 1 7 29 8 28 9 26 10 14 11 4 12
REMARK SMILES IDX 5 13 6 14 7 15 10 16 9 17 8 18 15 20 24 21 16 22 22 23 17 24
REMARK SMILES IDX 20 25 25 26 23 28 18 30 19 31 21 33 27 35
REMARK H PARENT 8 19 25 27 23 29 19 32 21 34 27 36
REMARK Flexibility Score: inf
ROOT
ATOM      1  C   UNL     1      -8.035  12.221 -17.563  1.00  0.00     0.065 A 
ATOM      2  C   UNL     1      -9.021  11.325 -18.001  1.00  0.00     0.208 A 
ATOM      3  O   UNL     1      -9.004  10.844 -19.238  1.00  0.00    -0.463 OA
ATOM      4  C   UNL     1      -8.075  11.168 -20.134  1.00  0.00     0.147 A 
ATOM      5  C   UNL     1      -7.047  12.073 -19.779  1.00  0.00     0.066 A 
ATOM      6  C   UNL     1      -7.037  12.606 -18.477  1.00  0.00     0.200 A 
ATOM      7  O   UNL     1      -6.151  13.437 -18.135  1.00  0.00    -0.288 OA
ATOM      8  C   UNL     1      -6.076  12.425 -20.729  1.00  0.00     0.020 A 
ATOM      9  C   UNL     1      -6.125  11.892 -22.015  1.00  0.00     0.047 A 
ATOM     10  C   UNL     1      -7.140  10.997 -22.377  1.00  0.00     0.125 A 
ATOM     11  C   UNL     1      -8.119  10.613 -21.433  1.00  0.00     0.069 A 
ENDROOT
BRANCH   1  12
ATOM     12  C   UNL     1      -8.072  12.739 -16.172  1.00  0.00    -0.011 A 
ATOM     13  C   UNL     1      -8.750  13.935 -15.879  1.00  0.00     0.013 A 
ATOM     14  C   UNL     1      -8.792  14.420 -14.568  1.00  0.00     0.047 A 
ATOM     15  C   UNL     1      -8.164  13.717 -13.536  1.00  0.00     0.115 A 
ATOM     16  C   UNL     1      -7.448  12.033 -15.129  1.00  0.00     0.013 A 
ATOM     17  C   UNL     1      -7.492  12.521 -13.819  1.00  0.00     0.047 A 
BRANCH  15  18
ATOM     18  O   UNL     1      -8.214  14.213 -12.235  1.00  0.00    -0.508 OA
ATOM     19  H   UNL     1      -8.720  13.728 -11.503  1.00  0.00     0.293 HD
ENDBRANCH  15  18
ENDBRANCH   1  12
BRANCH  11  20
ATOM     20  C   UNL     1      -9.236   9.658 -21.830  1.00  0.00     0.188 C 
ATOM     21  C   UNL     1     -10.403  10.439 -22.492  1.00  0.00     0.179 C 
ATOM     22  O   UNL     1      -8.693   8.630 -22.654  1.00  0.00    -0.362 OA
ATOM     23  C   UNL     1     -11.573   9.490 -22.842  1.00  0.00     0.177 C 
ATOM     24  C   UNL     1      -9.609   8.053 -23.581  1.00  0.00     0.176 C 
ATOM     25  C   UNL     1     -11.076   8.041 -23.071  1.00  0.00     0.177 C 
BRANCH  21  26
ATOM     26  O   UNL     1     -10.850  11.494 -21.674  1.00  0.00    -0.387 OA
ATOM     27  H   UNL     1     -11.604  11.150 -21.126  1.00  0.00     0.211 HD
ENDBRANCH  21  26
BRANCH  23  28
ATOM     28  O   UNL     1     -12.224   9.985 -23.986  1.00  0.00    -0.387 OA
ATOM     29  H   UNL     1     -13.155  10.207 -23.721  1.00  0.00     0.211 HD
ENDBRANCH  23  28
BRANCH  24  30
ATOM     30  C   UNL     1      -9.113   6.639 -23.926  1.00  0.00     0.191 C 
BRANCH  30  31
ATOM     31  O   UNL     1      -9.675   5.682 -23.067  1.00  0.00    -0.394 OA
ATOM     32  H   UNL     1     -10.657   5.824 -23.083  1.00  0.00     0.210 HD
ENDBRANCH  30  31
ENDBRANCH  24  30
BRANCH  25  33
ATOM     33  O   UNL     1     -11.918   7.386 -23.989  1.00  0.00    -0.388 OA
ATOM     34  H   UNL     1     -12.285   8.079 -24.599  1.00  0.00     0.211 HD
ENDBRANCH  25  33
ENDBRANCH  11  20
BRANCH  10  35
ATOM     35  O   UNL     1      -7.175  10.490 -23.677  1.00  0.00    -0.507 OA
ATOM     36  H   UNL     1      -7.673  10.965 -24.421  1.00  0.00     0.293 HD
ENDBRANCH  10  35
TORSDOF 9
ENDMDL
MODEL 3
REMARK VINA RESULT:    -5.418      7.423     11.890
REMARK INTER + INTRA:          -8.508
REMARK INTER:                  -7.305
REMARK INTRA:                  -1.203
REMARK UNBOUND:                -1.189
REMARK SMILES O=c1c(-c2ccc(O)cc2)coc2c([C@@H]3O[C@@H](CO)[C@H](O)[C@H](O)[C@H]3O)c(O)ccc12
REMARK SMILES IDX 3 1 11 2 12 3 13 4 30 5 2 6 1 7 29 8 28 9 26 10 14 11 4 12
REMARK SMILES IDX 5 13 6 14 7 15 10 16 9 17 8 18 15 20 24 21 16 22 22 23 17 24
REMARK SMILES IDX 20 25 25 26 23 28 18 30 19 31 21 33 27 35
REMARK H PARENT 8 19 25 27 23 29 19 32 21 34 27 36
REMARK Flexibility Score: inf
ROOT
ATOM      1  C   UNL     1     -11.898  14.560 -11.304  1.00  0.00     0.065 A 
ATOM      2  C   UNL     1     -12.952  15.331 -11.812  1.00  0.00     0.208 A 
ATOM      3  O   UNL     1     -14.078  15.485 -11.126  1.00  0.00    -0.463 OA
ATOM      4  C   UNL     1     -14.286  14.931  -9.934  1.00  0.00     0.147 A 
ATOM      5  C   UNL     1     -13.277  14.130  -9.349  1.00  0.00     0.066 A 
ATOM      6  C   UNL     1     -12.073  13.942 -10.052  1.00  0.00     0.200 A 
ATOM      7  O   UNL     1     -11.163  13.210  -9.573  1.00  0.00    -0.288 OA
ATOM      8  C   UNL     1     -13.503  13.534  -8.099  1.00  0.00     0.020 A 
ATOM      9  C   UNL     1     -14.715  13.726  -7.438  1.00  0.00     0.047 A 
ATOM     10  C   UNL     1     -15.720  14.517  -8.008  1.00  0.00     0.125 A 
ATOM     11  C   UNL     1     -15.510  15.141  -9.258  1.00  0.00     0.069 A 
ENDROOT
BRANCH   1  12
ATOM     12  C   UNL     1     -10.646  14.410 -12.087  1.00  0.00    -0.011 A 
ATOM     13  C   UNL     1     -10.525  13.384 -13.041  1.00  0.00     0.013 A 
ATOM     14  C   UNL     1      -9.349  13.246 -13.786  1.00  0.00     0.047 A 
ATOM     15  C   UNL     1      -8.285  14.132 -13.592  1.00  0.00     0.115 A 
ATOM     16  C   UNL     1      -9.574  15.301 -11.902  1.00  0.00     0.013 A 
ATOM     17  C   UNL     1      -8.400  15.161 -12.649  1.00  0.00     0.047 A 
BRANCH  15  18
ATOM     18  O   UNL     1      -7.120  13.982 -14.341  1.00  0.00    -0.508 OA
ATOM     19  H   UNL     1      -7.067  13.324 -15.110  1.00  0.00     0.293 HD
ENDBRANCH  15  18
ENDBRANCH   1  12
BRANCH  11  20
ATOM     20  C   UNL     1     -16.609  15.982  -9.891  1.00  0.00     0.188 C 
ATOM     21  C   UNL     1     -17.614  15.074 -10.650  1.00  0.00     0.179 C 
ATOM     22  O   UNL     1     -17.213  16.788  -8.883  1.00  0.00    -0.362 OA
ATOM     23  C   UNL     1     -18.700  15.920 -11.353  1.00  0.00     0.177 C 
ATOM     24  C   UNL     1     -18.573  17.138  -9.124  1.00  0.00     0.176 C 
ATOM     25  C   UNL     1     -18.916  17.274 -10.632  1.00  0.00     0.177 C 
BRANCH  21  26
ATOM     26  O   UNL     1     -16.961  14.240 -11.577  1.00  0.00    -0.387 OA
ATOM     27  H   UNL     1     -17.441  14.319 -12.443  1.00  0.00     0.211 HD
ENDBRANCH  21  26
BRANCH  23  28
ATOM     28  O   UNL     1     -19.894  15.175 -11.391  1.00  0.00    -0.387 OA
ATOM     29  H   UNL     1     -20.479  15.595 -12.073  1.00  0.00     0.211 HD
ENDBRANCH  23  28
BRANCH  24  30
ATOM     30  C   UNL     1     -18.878  18.431  -8.350  1.00  0.00     0.191 C 
BRANCH  30  31
ATOM     31  O   UNL     1     -18.650  19.564  -9.146  1.00  0.00    -0.394 OA
ATOM     32  H   UNL     1     -19.351  19.565  -9.849  1.00  0.00     0.210 HD
ENDBRANCH  30  31
ENDBRANCH  24  30
BRANCH  25  33
ATOM     33  O   UNL     1     -20.246  17.701 -10.805  1.00  0.00    -0.388 OA
ATOM     34  H   UNL     1     -20.752  17.427  -9.995  1.00  0.00     0.211 HD
ENDBRANCH  25  33
ENDBRANCH  11  20
BRANCH  10  35
ATOM     35  O   UNL     1     -16.930  14.680  -7.332  1.00  0.00    -0.507 OA
ATOM     36  H   UNL     1     -17.477  13.886  -7.019  1.00  0.00     0.293 HD
ENDBRANCH  10  35
TORSDOF 9
ENDMDL
MODEL 4
REMARK VINA RESULT:    -5.258     12.050     15.326
REMARK INTER + INTRA:          -8.292
REMARK INTER:                  -7.199
REMARK INTRA:                  -1.093
REMARK UNBOUND:                -1.189
REMARK SMILES O=c1c(-c2ccc(O)cc2)coc2c([C@@H]3O[C@@H](CO)[C@H](O)[C@H](O)[C@H]3O)c(O)ccc12
REMARK SMILES IDX 3 1 11 2 12 3 13 4 30 5 2 6 1 7 29 8 28 9 26 10 14 11 4 12
REMARK SMILES IDX 5 13 6 14 7 15 10 16 9 17 8 18 15 20 24 21 16 22 22 23 17 24
REMARK SMILES IDX 20 25 25 26 23 28 18 30 19 31 21 33 27 35
REMARK H PARENT 8 19 25 27 23 29 19 32 21 34 27 36
REMARK Flexibility Score: inf
ROOT
ATOM      1  C   UNL     1     -17.412  15.624  -9.443  1.00  0.00     0.065 A 
ATOM      2  C   UNL     1     -17.842  16.671 -10.271  1.00  0.00     0.208 A 
ATOM      3  O   UNL     1     -19.134  16.939 -10.415  1.00  0.00    -0.463 OA
ATOM      4  C   UNL     1     -20.094  16.252  -9.802  1.00  0.00     0.147 A 
ATOM      5  C   UNL     1     -19.749  15.174  -8.954  1.00  0.00     0.066 A 
ATOM      6  C   UNL     1     -18.389  14.859  -8.781  1.00  0.00     0.200 A 
ATOM      7  O   UNL     1     -18.047  13.885  -8.054  1.00  0.00    -0.288 OA
ATOM      8  C   UNL     1     -20.764  14.440  -8.319  1.00  0.00     0.020 A 
ATOM      9  C   UNL     1     -22.102  14.768  -8.525  1.00  0.00     0.047 A 
ATOM     10  C   UNL     1     -22.454  15.833  -9.364  1.00  0.00     0.125 A 
ATOM     11  C   UNL     1     -21.450  16.597 -10.000  1.00  0.00     0.069 A 
ENDROOT
BRANCH   1  12
ATOM     12  C   UNL     1     -15.960  15.349  -9.291  1.00  0.00    -0.011 A 
ATOM     13  C   UNL     1     -15.269  14.628 -10.280  1.00  0.00     0.013 A 
ATOM     14  C   UNL     1     -13.901  14.375 -10.143  1.00  0.00     0.047 A 
ATOM     15  C   UNL     1     -13.206  14.842  -9.023  1.00  0.00     0.115 A 
ATOM     16  C   UNL     1     -15.255  15.822  -8.171  1.00  0.00     0.013 A 
ATOM     17  C   UNL     1     -13.887  15.568  -8.037  1.00  0.00     0.047 A 
BRANCH  15  18
ATOM     18  O   UNL     1     -11.843  14.582  -8.901  1.00  0.00    -0.508 OA
ATOM     19  H   UNL     1     -11.285  14.298  -9.697  1.00  0.00     0.293 HD
ENDBRANCH  15  18
ENDBRANCH   1  12
BRANCH  11  20
ATOM     20  C   UNL     1     -21.830  17.741 -10.931  1.00  0.00     0.188 C 
ATOM     21  C   UNL     1     -22.515  17.191 -12.210  1.00  0.00     0.179 C 
ATOM     22  O   UNL     1     -22.627  18.677 -10.210  1.00  0.00    -0.362 OA
ATOM     23  C   UNL     1     -22.848  18.336 -13.194  1.00  0.00     0.177 C 
ATOM     24  C   UNL     1     -23.544  19.426 -11.004  1.00  0.00     0.176 C 
ATOM     25  C   UNL     1     -23.041  19.681 -12.450  1.00  0.00     0.177 C 
BRANCH  21  26
ATOM     26  O   UNL     1     -21.725  16.212 -12.841  1.00  0.00    -0.387 OA
ATOM     27  H   UNL     1     -22.111  16.049 -13.742  1.00  0.00     0.211 HD
ENDBRANCH  21  26
BRANCH  23  28
ATOM     28  O   UNL     1     -24.007  17.988 -13.912  1.00  0.00    -0.387 OA
ATOM     29  H   UNL     1     -24.210  18.742 -14.525  1.00  0.00     0.211 HD
ENDBRANCH  23  28
BRANCH  24  30
ATOM     30  C   UNL     1     -23.853  20.739 -10.266  1.00  0.00     0.191 C 
BRANCH  30  31
ATOM     31  O   UNL     1     -25.122  21.229 -10.613  1.00  0.00    -0.394 OA
ATOM     32  H   UNL     1     -25.325  21.967  -9.982  1.00  0.00     0.210 HD
ENDBRANCH  30  31
ENDBRANCH  24  30
BRANCH  25  33
ATOM     33  O   UNL     1     -23.947  20.493 -13.158  1.00  0.00    -0.388 OA
ATOM     34  H   UNL     1     -23.627  21.430 -13.079  1.00  0.00     0.211 HD
ENDBRANCH  25  33
ENDBRANCH  11  20
BRANCH  10  35
ATOM     35  O   UNL     1     -23.802  16.130  -9.566  1.00  0.00    -0.507 OA
ATOM     36  H   UNL     1     -24.321  15.747 -10.347  1.00  0.00     0.293 HD
ENDBRANCH  10  35
TORSDOF 9
ENDMDL
MODEL 5
REMARK VINA RESULT:    -5.217      2.544      4.243
REMARK INTER + INTRA:          -8.236
REMARK INTER:                  -7.090
REMARK INTRA:                  -1.146
REMARK UNBOUND:                -1.189
REMARK SMILES O=c1c(-c2ccc(O)cc2)coc2c([C@@H]3O[C@@H](CO)[C@H](O)[C@H](O)[C@H]3O)c(O)ccc12
REMARK SMILES IDX 3 1 11 2 12 3 13 4 30 5 2 6 1 7 29 8 28 9 26 10 14 11 4 12
REMARK SMILES IDX 5 13 6 14 7 15 10 16 9 17 8 18 15 20 24 21 16 22 22 23 17 24
REMARK SMILES IDX 20 25 25 26 23 28 18 30 19 31 21 33 27 35
REMARK H PARENT 8 19 25 27 23 29 19 32 21 34 27 36
REMARK Flexibility Score: inf
ROOT
ATOM      1  C   UNL     1      -8.569  12.135 -15.982  1.00  0.00     0.065 A 
ATOM      2  C   UNL     1      -9.237  11.171 -16.750  1.00  0.00     0.208 A 
ATOM      3  O   UNL     1      -8.891  10.944 -18.011  1.00  0.00    -0.463 OA
ATOM      4  C   UNL     1      -7.909  11.598 -18.626  1.00  0.00     0.147 A 
ATOM      5  C   UNL     1      -7.187  12.594 -17.928  1.00  0.00     0.066 A 
ATOM      6  C   UNL     1      -7.531  12.863 -16.591  1.00  0.00     0.200 A 
ATOM      7  O   UNL     1      -6.926  13.765 -15.947  1.00  0.00    -0.288 OA
ATOM      8  C   UNL     1      -6.162  13.293 -18.583  1.00  0.00     0.020 A 
ATOM      9  C   UNL     1      -5.858  13.013 -19.913  1.00  0.00     0.047 A 
ATOM     10  C   UNL     1      -6.568  12.030 -20.614  1.00  0.00     0.125 A 
ATOM     11  C   UNL     1      -7.593  11.300 -19.972  1.00  0.00     0.069 A 
ENDROOT
BRANCH   1  12
ATOM     12  C   UNL     1      -8.970  12.365 -14.571  1.00  0.00    -0.011 A 
ATOM     13  C   UNL     1      -8.238  11.782 -13.522  1.00  0.00     0.013 A 
ATOM     14  C   UNL     1      -8.610  12.004 -12.192  1.00  0.00     0.047 A 
ATOM     15  C   UNL     1      -9.710  12.813 -11.894  1.00  0.00     0.115 A 
ATOM     16  C   UNL     1     -10.071  13.183 -14.264  1.00  0.00     0.013 A 
ATOM     17  C   UNL     1     -10.439  13.404 -12.933  1.00  0.00     0.047 A 
BRANCH  15  18
ATOM     18  O   UNL     1     -10.067  13.025 -10.565  1.00  0.00    -0.508 OA
ATOM     19  H   UNL     1     -10.611  12.343 -10.048  1.00  0.00     0.293 HD
ENDBRANCH  15  18
ENDBRANCH   1  12
BRANCH  11  20
ATOM     20  C   UNL     1      -8.381  10.246 -20.737  1.00  0.00     0.188 C 
ATOM     21  C   UNL     1      -9.379  10.924 -21.715  1.00  0.00     0.179 C 
ATOM     22  O   UNL     1      -7.467   9.358 -21.375  1.00  0.00    -0.362 OA
ATOM     23  C   UNL     1     -10.233   9.867 -22.453  1.00  0.00     0.177 C 
ATOM     24  C   UNL     1      -7.954   8.743 -22.565  1.00  0.00     0.176 C 
ATOM     25  C   UNL     1      -9.489   8.512 -22.556  1.00  0.00     0.177 C 
BRANCH  21  26
ATOM     26  O   UNL     1     -10.205  11.851 -21.052  1.00  0.00    -0.387 OA
ATOM     27  H   UNL     1      -9.851  11.965 -20.131  1.00  0.00     0.211 HD
ENDBRANCH  21  26
BRANCH  23  28
ATOM     28  O   UNL     1     -10.554  10.362 -23.730  1.00  0.00    -0.387 OA
ATOM     29  H   UNL     1     -11.528  10.229 -23.859  1.00  0.00     0.211 HD
ENDBRANCH  23  28
BRANCH  24  30
ATOM     30  C   UNL     1      -7.180   7.431 -22.776  1.00  0.00     0.191 C 
BRANCH  30  31
ATOM     31  O   UNL     1      -7.897   6.334 -22.276  1.00  0.00    -0.394 OA
ATOM     32  H   UNL     1      -8.705   6.238 -22.844  1.00  0.00     0.210 HD
ENDBRANCH  30  31
ENDBRANCH  24  30
BRANCH  25  33
ATOM     33  O   UNL     1      -9.898   7.829 -23.716  1.00  0.00    -0.388 OA
ATOM     34  H   UNL     1     -10.786   7.428 -23.524  1.00  0.00     0.211 HD
ENDBRANCH  25  33
ENDBRANCH  11  20
BRANCH  10  35
ATOM     35  O   UNL     1      -6.254  11.780 -21.951  1.00  0.00    -0.507 OA
ATOM     36  H   UNL     1      -5.295  11.687 -22.265  1.00  0.00     0.293 HD
ENDBRANCH  10  35
TORSDOF 9
ENDMDL
MODEL 6
REMARK VINA RESULT:    -5.206      2.649      4.655
REMARK INTER + INTRA:          -8.221
REMARK INTER:                  -7.426
REMARK INTRA:                  -0.795
REMARK UNBOUND:                -1.189
REMARK SMILES O=c1c(-c2ccc(O)cc2)coc2c([C@@H]3O[C@@H](CO)[C@H](O)[C@H](O)[C@H]3O)c(O)ccc12
REMARK SMILES IDX 3 1 11 2 12 3 13 4 30 5 2 6 1 7 29 8 28 9 26 10 14 11 4 12
REMARK SMILES IDX 5 13 6 14 7 15 10 16 9 17 8 18 15 20 24 21 16 22 22 23 17 24
REMARK SMILES IDX 20 25 25 26 23 28 18 30 19 31 21 33 27 35
REMARK H PARENT 8 19 25 27 23 29 19 32 21 34 27 36
REMARK Flexibility Score: inf
ROOT
ATOM      1  C   UNL     1      -8.501  12.181 -16.920  1.00  0.00     0.065 A 
ATOM      2  C   UNL     1      -9.348  12.209 -18.037  1.00  0.00     0.208 A 
ATOM      3  O   UNL     1      -9.055  11.520 -19.133  1.00  0.00    -0.463 OA
ATOM      4  C   UNL     1      -7.963  10.770 -19.252  1.00  0.00     0.147 A 
ATOM      5  C   UNL     1      -7.048  10.691 -18.176  1.00  0.00     0.066 A 
ATOM      6  C   UNL     1      -7.326  11.413 -17.000  1.00  0.00     0.200 A 
ATOM      7  O   UNL     1      -6.517  11.387 -16.031  1.00  0.00    -0.288 OA
ATOM      8  C   UNL     1      -5.889   9.912 -18.308  1.00  0.00     0.020 A 
ATOM      9  C   UNL     1      -5.636   9.223 -19.493  1.00  0.00     0.047 A 
ATOM     10  C   UNL     1      -6.534   9.296 -20.565  1.00  0.00     0.125 A 
ATOM     11  C   UNL     1      -7.717  10.060 -20.450  1.00  0.00     0.069 A 
ENDROOT
BRANCH   1  12
ATOM     12  C   UNL     1      -8.855  12.954 -15.703  1.00  0.00    -0.011 A 
ATOM     13  C   UNL     1      -9.744  12.418 -14.756  1.00  0.00     0.013 A 
ATOM     14  C   UNL     1     -10.072  13.141 -13.606  1.00  0.00     0.047 A 
ATOM     15  C   UNL     1      -9.514  14.404 -13.384  1.00  0.00     0.115 A 
ATOM     16  C   UNL     1      -8.292  14.222 -15.472  1.00  0.00     0.013 A 
ATOM     17  C   UNL     1      -8.622  14.942 -14.320  1.00  0.00     0.047 A 
BRANCH  15  18
ATOM     18  O   UNL     1      -9.851  15.112 -12.233  1.00  0.00    -0.508 OA
ATOM     19  H   UNL     1      -9.182  15.713 -11.767  1.00  0.00     0.293 HD
ENDBRANCH  15  18
ENDBRANCH   1  12
BRANCH  11  20
ATOM     20  C   UNL     1      -8.684  10.159 -21.621  1.00  0.00     0.188 C 
ATOM     21  C   UNL     1      -7.960  10.728 -22.871  1.00  0.00     0.179 C 
ATOM     22  O   UNL     1      -9.282   8.884 -21.836  1.00  0.00    -0.362 OA
ATOM     23  C   UNL     1      -8.946  10.896 -24.051  1.00  0.00     0.177 C 
ATOM     24  C   UNL     1      -9.694   8.628 -23.176  1.00  0.00     0.176 C 
ATOM     25  C   UNL     1     -10.132   9.906 -23.941  1.00  0.00     0.177 C 
BRANCH  21  26
ATOM     26  O   UNL     1      -7.318  11.948 -22.587  1.00  0.00    -0.387 OA
ATOM     27  H   UNL     1      -6.919  11.874 -21.680  1.00  0.00     0.211 HD
ENDBRANCH  21  26
BRANCH  23  28
ATOM     28  O   UNL     1      -8.242  10.705 -25.254  1.00  0.00    -0.387 OA
ATOM     29  H   UNL     1      -8.900  10.406 -25.934  1.00  0.00     0.211 HD
ENDBRANCH  23  28
BRANCH  24  30
ATOM     30  C   UNL     1     -10.811   7.573 -23.140  1.00  0.00     0.191 C 
BRANCH  30  31
ATOM     31  O   UNL     1     -11.986   8.098 -22.582  1.00  0.00    -0.394 OA
ATOM     32  H   UNL     1     -12.621   7.341 -22.487  1.00  0.00     0.210 HD
ENDBRANCH  30  31
ENDBRANCH  24  30
BRANCH  25  33
ATOM     33  O   UNL     1     -10.605   9.582 -25.226  1.00  0.00    -0.388 OA
ATOM     34  H   UNL     1      -9.972   9.976 -25.881  1.00  0.00     0.211 HD
ENDBRANCH  25  33
ENDBRANCH  11  20
BRANCH  10  35
ATOM     35  O   UNL     1      -6.248   8.609 -21.745  1.00  0.00    -0.507 OA
ATOM     36  H   UNL     1      -6.679   7.718 -21.961  1.00  0.00     0.293 HD
ENDBRANCH  10  35
TORSDOF 9
ENDMDL
MODEL 7
REMARK VINA RESULT:    -5.037      2.503      3.783
REMARK INTER + INTRA:          -7.993
REMARK INTER:                  -6.864
REMARK INTRA:                  -1.129
REMARK UNBOUND:                -1.189
REMARK SMILES O=c1c(-c2ccc(O)cc2)coc2c([C@@H]3O[C@@H](CO)[C@H](O)[C@H](O)[C@H]3O)c(O)ccc12
REMARK SMILES IDX 3 1 11 2 12 3 13 4 30 5 2 6 1 7 29 8 28 9 26 10 14 11 4 12
REMARK SMILES IDX 5 13 6 14 7 15 10 16 9 17 8 18 15 20 24 21 16 22 22 23 17 24
REMARK SMILES IDX 20 25 25 26 23 28 18 30 19 31 21 33 27 35
REMARK H PARENT 8 19 25 27 23 29 19 32 21 34 27 36
REMARK Flexibility Score: inf
ROOT
ATOM      1  C   UNL     1      -9.789  13.536 -13.394  1.00  0.00     0.065 A 
ATOM      2  C   UNL     1     -10.163  12.614 -14.382  1.00  0.00     0.208 A 
ATOM      3  O   UNL     1      -9.438  12.464 -15.484  1.00  0.00    -0.463 OA
ATOM      4  C   UNL     1      -8.330  13.159 -15.728  1.00  0.00     0.147 A 
ATOM      5  C   UNL     1      -7.885  14.118 -14.788  1.00  0.00     0.066 A 
ATOM      6  C   UNL     1      -8.632  14.307 -13.611  1.00  0.00     0.200 A 
ATOM      7  O   UNL     1      -8.279  15.173 -12.764  1.00  0.00    -0.288 OA
ATOM      8  C   UNL     1      -6.725  14.862 -15.054  1.00  0.00     0.020 A 
ATOM      9  C   UNL     1      -6.018  14.662 -16.238  1.00  0.00     0.047 A 
ATOM     10  C   UNL     1      -6.451  13.717 -17.176  1.00  0.00     0.125 A 
ATOM     11  C   UNL     1      -7.606  12.943 -16.923  1.00  0.00     0.069 A 
ENDROOT
BRANCH   1  12
ATOM     12  C   UNL     1     -10.612  13.681 -12.167  1.00  0.00    -0.011 A 
ATOM     13  C   UNL     1     -11.704  14.565 -12.146  1.00  0.00     0.013 A 
ATOM     14  C   UNL     1     -12.486  14.697 -10.994  1.00  0.00     0.047 A 
ATOM     15  C   UNL     1     -12.191  13.944  -9.854  1.00  0.00     0.115 A 
ATOM     16  C   UNL     1     -10.325  12.922 -11.019  1.00  0.00     0.013 A 
ATOM     17  C   UNL     1     -11.109  13.055  -9.869  1.00  0.00     0.047 A 
BRANCH  15  18
ATOM     18  O   UNL     1     -12.979  14.086  -8.714  1.00  0.00    -0.508 OA
ATOM     19  H   UNL     1     -13.831  13.551  -8.589  1.00  0.00     0.293 HD
ENDBRANCH  15  18
ENDBRANCH   1  12
BRANCH  11  20
ATOM     20  C   UNL     1      -8.092  11.931 -17.951  1.00  0.00     0.188 C 
ATOM     21  C   UNL     1      -9.017  12.620 -18.990  1.00  0.00     0.179 C 
ATOM     22  O   UNL     1      -6.964  11.281 -18.529  1.00  0.00    -0.362 OA
ATOM     23  C   UNL     1      -9.572  11.591 -20.003  1.00  0.00     0.177 C 
ATOM     24  C   UNL     1      -7.157  10.804 -19.858  1.00  0.00     0.176 C 
ATOM     25  C   UNL     1      -8.621  10.378 -20.153  1.00  0.00     0.177 C 
BRANCH  21  26
ATOM     26  O   UNL     1     -10.070  13.315 -18.366  1.00  0.00    -0.387 OA
ATOM     27  H   UNL     1      -9.794  13.503 -17.431  1.00  0.00     0.211 HD
ENDBRANCH  21  26
BRANCH  23  28
ATOM     28  O   UNL     1      -9.761  12.236 -21.239  1.00  0.00    -0.387 OA
ATOM     29  H   UNL     1     -10.391  12.987 -21.083  1.00  0.00     0.211 HD
ENDBRANCH  23  28
BRANCH  24  30
ATOM     30  C   UNL     1      -6.166   9.654 -20.102  1.00  0.00     0.191 C 
BRANCH  30  31
ATOM     31  O   UNL     1      -5.826   9.558 -21.460  1.00  0.00    -0.394 OA
ATOM     32  H   UNL     1      -6.615   9.869 -21.975  1.00  0.00     0.210 HD
ENDBRANCH  30  31
ENDBRANCH  24  30
BRANCH  25  33
ATOM     33  O   UNL     1      -8.733   9.839 -21.448  1.00  0.00    -0.388 OA
ATOM     34  H   UNL     1      -8.653   8.853 -21.365  1.00  0.00     0.211 HD
ENDBRANCH  25  33
ENDBRANCH  11  20
BRANCH  10  35
ATOM     35  O   UNL     1      -5.733  13.548 -18.360  1.00  0.00    -0.507 OA
ATOM     36  H   UNL     1      -6.053  12.927 -19.094  1.00  0.00     0.293 HD
ENDBRANCH  10  35
TORSDOF 9
ENDMDL
MODEL 8
REMARK VINA RESULT:    -5.018      2.671      8.830
REMARK INTER + INTRA:          -7.968
REMARK INTER:                  -7.386
REMARK INTRA:                  -0.582
REMARK UNBOUND:                -1.189
REMARK SMILES O=c1c(-c2ccc(O)cc2)coc2c([C@@H]3O[C@@H](CO)[C@H](O)[C@H](O)[C@H]3O)c(O)ccc12
REMARK SMILES IDX 3 1 11 2 12 3 13 4 30 5 2 6 1 7 29 8 28 9 26 10 14 11 4 12
REMARK SMILES IDX 5 13 6 14 7 15 10 16 9 17 8 18 15 20 24 21 16 22 22 23 17 24
REMARK SMILES IDX 20 25 25 26 23 28 18 30 19 31 21 33 27 35
REMARK H PARENT 8 19 25 27 23 29 19 32 21 34 27 36
REMARK Flexibility Score: inf
ROOT
ATOM      1  C   UNL     1      -9.023  10.843 -20.666  1.00  0.00     0.065 A 
ATOM      2  C   UNL     1      -9.706  11.669 -19.762  1.00  0.00     0.208 A 
ATOM      3  O   UNL     1      -9.155  12.017 -18.606  1.00  0.00    -0.463 OA
ATOM      4  C   UNL     1      -7.944  11.617 -18.226  1.00  0.00     0.147 A 
ATOM      5  C   UNL     1      -7.188  10.774 -19.074  1.00  0.00     0.066 A 
ATOM      6  C   UNL     1      -7.744  10.382 -20.306  1.00  0.00     0.200 A 
ATOM      7  O   UNL     1      -7.108   9.608 -21.074  1.00  0.00    -0.288 OA
ATOM      8  C   UNL     1      -5.917  10.341 -18.666  1.00  0.00     0.020 A 
ATOM      9  C   UNL     1      -5.404  10.734 -17.431  1.00  0.00     0.047 A 
ATOM     10  C   UNL     1      -6.145  11.567 -16.584  1.00  0.00     0.125 A 
ATOM     11  C   UNL     1      -7.419  12.030 -16.980  1.00  0.00     0.069 A 
ENDROOT
BRANCH   1  12
ATOM     12  C   UNL     1      -9.658  10.474 -21.957  1.00  0.00    -0.011 A 
ATOM     13  C   UNL     1     -11.024  10.147 -22.007  1.00  0.00     0.013 A 
ATOM     14  C   UNL     1     -11.625   9.807 -23.223  1.00  0.00     0.047 A 
ATOM     15  C   UNL     1     -10.873   9.796 -24.402  1.00  0.00     0.115 A 
ATOM     16  C   UNL     1      -8.909  10.468 -23.147  1.00  0.00     0.013 A 
ATOM     17  C   UNL     1      -9.513  10.129 -24.361  1.00  0.00     0.047 A 
BRANCH  15  18
ATOM     18  O   UNL     1     -11.486   9.456 -25.606  1.00  0.00    -0.508 OA
ATOM     19  H   UNL     1     -12.288   9.967 -25.954  1.00  0.00     0.293 HD
ENDBRANCH  15  18
ENDBRANCH   1  12
BRANCH  11  20
ATOM     20  C   UNL     1      -8.237  12.917 -16.052  1.00  0.00     0.188 C 
ATOM     21  C   UNL     1      -8.954  12.056 -14.977  1.00  0.00     0.179 C 
ATOM     22  O   UNL     1      -7.388  13.923 -15.507  1.00  0.00    -0.362 OA
ATOM     23  C   UNL     1      -9.841  12.937 -14.066  1.00  0.00     0.177 C 
ATOM     24  C   UNL     1      -7.777  14.415 -14.227  1.00  0.00     0.176 C 
ATOM     25  C   UNL     1      -9.313  14.391 -14.000  1.00  0.00     0.177 C 
BRANCH  21  26
ATOM     26  O   UNL     1      -9.716  11.027 -15.561  1.00  0.00    -0.387 OA
ATOM     27  H   UNL     1      -9.913  11.293 -16.498  1.00  0.00     0.211 HD
ENDBRANCH  21  26
BRANCH  23  28
ATOM     28  O   UNL     1      -9.880  12.358 -12.784  1.00  0.00    -0.387 OA
ATOM     29  H   UNL     1     -10.264  13.036 -12.169  1.00  0.00     0.211 HD
ENDBRANCH  23  28
BRANCH  24  30
ATOM     30  C   UNL     1      -7.196  15.828 -14.061  1.00  0.00     0.191 C 
BRANCH  30  31
ATOM     31  O   UNL     1      -7.049  16.465 -15.303  1.00  0.00    -0.394 OA
ATOM     32  H   UNL     1      -7.924  16.882 -15.515  1.00  0.00     0.210 HD
ENDBRANCH  30  31
ENDBRANCH  24  30
BRANCH  25  33
ATOM     33  O   UNL     1      -9.642  14.964 -12.757  1.00  0.00    -0.388 OA
ATOM     34  H   UNL     1      -9.471  15.939 -12.827  1.00  0.00     0.211 HD
ENDBRANCH  25  33
ENDBRANCH  11  20
BRANCH  10  35
ATOM     35  O   UNL     1      -5.614  11.932 -15.346  1.00  0.00    -0.507 OA
ATOM     36  H   UNL     1      -4.974  11.329 -14.842  1.00  0.00     0.293 HD
ENDBRANCH  10  35
TORSDOF 9
ENDMDL
MODEL 9
REMARK VINA RESULT:    -4.949     10.881     14.530
REMARK INTER + INTRA:          -7.875
REMARK INTER:                  -6.882
REMARK INTRA:                  -0.993
REMARK UNBOUND:                -1.189
REMARK SMILES O=c1c(-c2ccc(O)cc2)coc2c([C@@H]3O[C@@H](CO)[C@H](O)[C@H](O)[C@H]3O)c(O)ccc12
REMARK SMILES IDX 3 1 11 2 12 3 13 4 30 5 2 6 1 7 29 8 28 9 26 10 14 11 4 12
REMARK SMILES IDX 5 13 6 14 7 15 10 16 9 17 8 18 15 20 24 21 16 22 22 23 17 24
REMARK SMILES IDX 20 25 25 26 23 28 18 30 19 31 21 33 27 35
REMARK H PARENT 8 19 25 27 23 29 19 32 21 34 27 36
REMARK Flexibility Score: inf
ROOT
ATOM      1  C   UNL     1     -15.893  15.989  -9.845  1.00  0.00     0.065 A 
ATOM      2  C   UNL     1     -17.017  15.589 -10.581  1.00  0.00     0.208 A 
ATOM      3  O   UNL     1     -18.123  16.323 -10.589  1.00  0.00    -0.463 OA
ATOM      4  C   UNL     1     -18.246  17.464  -9.915  1.00  0.00     0.147 A 
ATOM      5  C   UNL     1     -17.162  17.938  -9.139  1.00  0.00     0.066 A 
ATOM      6  C   UNL     1     -15.976  17.182  -9.105  1.00  0.00     0.200 A 
ATOM      7  O   UNL     1     -14.999  17.561  -8.400  1.00  0.00    -0.288 OA
ATOM      8  C   UNL     1     -17.298  19.133  -8.417  1.00  0.00     0.020 A 
ATOM      9  C   UNL     1     -18.493  19.848  -8.460  1.00  0.00     0.047 A 
ATOM     10  C   UNL     1     -19.573  19.387  -9.224  1.00  0.00     0.125 A 
ATOM     11  C   UNL     1     -19.454  18.195  -9.973  1.00  0.00     0.069 A 
ENDROOT
BRANCH   1  12
ATOM     12  C   UNL     1     -14.665  15.155  -9.858  1.00  0.00    -0.011 A 
ATOM     13  C   UNL     1     -13.690  15.344 -10.854  1.00  0.00     0.013 A 
ATOM     14  C   UNL     1     -12.530  14.564 -10.864  1.00  0.00     0.047 A 
ATOM     15  C   UNL     1     -12.324  13.594  -9.879  1.00  0.00     0.115 A 
ATOM     16  C   UNL     1     -14.449  14.182  -8.867  1.00  0.00     0.013 A 
ATOM     17  C   UNL     1     -13.287  13.405  -8.879  1.00  0.00     0.047 A 
BRANCH  15  18
ATOM     18  O   UNL     1     -11.163  12.825  -9.902  1.00  0.00    -0.508 OA
ATOM     19  H   UNL     1     -10.555  12.761  -9.094  1.00  0.00     0.293 HD
ENDBRANCH  15  18
ENDBRANCH   1  12
BRANCH  11  20
ATOM     20  C   UNL     1     -20.633  17.679 -10.787  1.00  0.00     0.188 C 
ATOM     21  C   UNL     1     -21.657  16.969  -9.861  1.00  0.00     0.179 C 
ATOM     22  O   UNL     1     -21.187  18.759 -11.533  1.00  0.00    -0.362 OA
ATOM     23  C   UNL     1     -22.829  16.382 -10.682  1.00  0.00     0.177 C 
ATOM     24  C   UNL     1     -22.576  18.637 -11.832  1.00  0.00     0.176 C 
ATOM     25  C   UNL     1     -23.042  17.166 -12.001  1.00  0.00     0.177 C 
BRANCH  21  26
ATOM     26  O   UNL     1     -21.046  15.965  -9.087  1.00  0.00    -0.387 OA
ATOM     27  H   UNL     1     -21.279  16.135  -8.136  1.00  0.00     0.211 HD
ENDBRANCH  21  26
BRANCH  23  28
ATOM     28  O   UNL     1     -23.990  16.410  -9.889  1.00  0.00    -0.387 OA
ATOM     29  H   UNL     1     -24.738  16.698 -10.474  1.00  0.00     0.211 HD
ENDBRANCH  23  28
BRANCH  24  30
ATOM     30  C   UNL     1     -22.871  19.478 -13.084  1.00  0.00     0.191 C 
BRANCH  30  31
ATOM     31  O   UNL     1     -22.852  20.850 -12.790  1.00  0.00    -0.394 OA
ATOM     32  H   UNL     1     -23.547  21.003 -12.098  1.00  0.00     0.210 HD
ENDBRANCH  30  31
ENDBRANCH  24  30
BRANCH  25  33
ATOM     33  O   UNL     1     -24.397  17.112 -12.376  1.00  0.00    -0.388 OA
ATOM     34  H   UNL     1     -24.616  16.160 -12.554  1.00  0.00     0.211 HD
ENDBRANCH  25  33
ENDBRANCH  11  20
BRANCH  10  35
ATOM     35  O   UNL     1     -20.763  20.114  -9.236  1.00  0.00    -0.507 OA
ATOM     36  H   UNL     1     -21.397  20.112  -8.446  1.00  0.00     0.293 HD
ENDBRANCH  10  35
TORSDOF 9
ENDMDL
