MODEL 1
REMARK VINA RESULT:    -5.316      0.000      0.000
REMARK INTER + INTRA:          -8.307
REMARK INTER:                  -7.181
REMARK INTRA:                  -1.126
REMARK UNBOUND:                -1.126
REMARK SMILES CC(=O)CCC=C(C)CCC=C(C)C
REMARK SMILES IDX 7 1 6 2 8 3 9 4 10 5 11 6 13 7 12 8 14 9 5 10 4 11 2 12 3 13
REMARK SMILES IDX 1 14
REMARK H PARENT
REMARK Flexibility Score: inf
ROOT
ATOM      1  C   UNL     1      -1.383 -23.555 -10.543  1.00  0.00    -0.077 C 
ATOM      2  C   UNL     1      -1.199 -24.407 -11.576  1.00  0.00    -0.028 C 
ATOM      3  C   UNL     1      -0.338 -22.537 -10.152  1.00  0.00     0.039 C 
ENDROOT
BRANCH   1   4
ATOM      4  C   UNL     1      -2.663 -23.643  -9.740  1.00  0.00     0.034 C 
BRANCH   4   5
ATOM      5  C   UNL     1      -3.860 -23.164 -10.570  1.00  0.00     0.032 C 
BRANCH   5   6
ATOM      6  C   UNL     1      -3.665 -21.737 -11.017  1.00  0.00    -0.028 C 
ATOM      7  C   UNL     1      -3.601 -22.341 -13.447  1.00  0.00     0.039 C 
ATOM      8  C   UNL     1      -3.515 -21.357 -12.307  1.00  0.00    -0.080 C 
ATOM      9  C   UNL     1      -3.298 -19.904 -12.640  1.00  0.00     0.039 C 
ENDBRANCH   5   6
ENDBRANCH   4   5
ENDBRANCH   1   4
BRANCH   2  10
ATOM     10  C   UNL     1       0.001 -24.396 -12.494  1.00  0.00     0.035 C 
BRANCH  10  11
ATOM     11  C   UNL     1       0.861 -25.656 -12.322  1.00  0.00     0.079 C 
BRANCH  11  12
ATOM     12  C   UNL     1       1.782 -25.547 -11.135  1.00  0.00     0.130 C 
ATOM     13  O   UNL     1       2.779 -24.844 -11.202  1.00  0.00    -0.300 OA
ATOM     14  C   UNL     1       1.495 -26.314  -9.880  1.00  0.00     0.087 C 
ENDBRANCH  11  12
ENDBRANCH  10  11
ENDBRANCH   2  10
TORSDOF 6
ENDMDL
MODEL 2
REMARK VINA RESULT:    -5.276      2.533      6.278
REMARK INTER + INTRA:          -8.252
REMARK INTER:                  -7.413
REMARK INTRA:                  -0.839
REMARK UNBOUND:                -1.126
REMARK SMILES CC(=O)CCC=C(C)CCC=C(C)C
REMARK SMILES IDX 7 1 6 2 8 3 9 4 10 5 11 6 13 7 12 8 14 9 5 10 4 11 2 12 3 13
REMARK SMILES IDX 1 14
REMARK H PARENT
REMARK Flexibility Score: inf
ROOT
ATOM      1  C   UNL     1       0.374 -24.183 -10.813  1.00  0.00    -0.077 C 
ATOM      2  C   UNL     1      -0.281 -23.089 -10.365  1.00  0.00    -0.028 C 
ATOM      3  C   UNL     1       0.133 -24.750 -12.192  1.00  0.00     0.039 C 
ENDROOT
BRANCH   1   4
ATOM      4  C   UNL     1       1.358 -24.876  -9.894  1.00  0.00     0.034 C 
BRANCH   4   5
ATOM      5  C   UNL     1       1.073 -26.381  -9.825  1.00  0.00     0.032 C 
BRANCH   5   6
ATOM      6  C   UNL     1       2.270 -27.175 -10.285  1.00  0.00    -0.028 C 
ATOM      7  C   UNL     1       0.955 -28.485 -11.966  1.00  0.00     0.039 C 
ATOM      8  C   UNL     1       2.224 -28.147 -11.224  1.00  0.00    -0.080 C 
ATOM      9  C   UNL     1       3.479 -28.897 -11.588  1.00  0.00     0.039 C 
ENDBRANCH   5   6
ENDBRANCH   4   5
ENDBRANCH   1   4
BRANCH   2  10
ATOM     10  C   UNL     1      -1.246 -22.270 -11.189  1.00  0.00     0.035 C 
BRANCH  10  11
ATOM     11  C   UNL     1      -2.590 -22.080 -10.471  1.00  0.00     0.079 C 
BRANCH  11  12
ATOM     12  C   UNL     1      -3.343 -23.378 -10.343  1.00  0.00     0.130 C 
ATOM     13  O   UNL     1      -3.836 -23.690  -9.269  1.00  0.00    -0.300 OA
ATOM     14  C   UNL     1      -3.471 -24.300 -11.517  1.00  0.00     0.087 C 
ENDBRANCH  11  12
ENDBRANCH  10  11
ENDBRANCH   2  10
TORSDOF 6
ENDMDL
MODEL 3
REMARK VINA RESULT:    -5.265      2.326      5.984
REMARK INTER + INTRA:          -8.238
REMARK INTER:                  -7.344
REMARK INTRA:                  -0.893
REMARK UNBOUND:                -1.126
REMARK SMILES CC(=O)CCC=C(C)CCC=C(C)C
REMARK SMILES IDX 7 1 6 2 8 3 9 4 10 5 11 6 13 7 12 8 14 9 5 10 4 11 2 12 3 13
REMARK SMILES IDX 1 14
REMARK H PARENT
REMARK Flexibility Score: inf
ROOT
ATOM      1  C   UNL     1      -0.077 -24.559  -9.949  1.00  0.00    -0.077 C 
ATOM      2  C   UNL     1      -1.033 -24.132  -9.093  1.00  0.00    -0.028 C 
ATOM      3  C   UNL     1       0.096 -23.952 -11.321  1.00  0.00     0.039 C 
ENDROOT
BRANCH   1   4
ATOM      4  C   UNL     1       0.830 -25.696  -9.527  1.00  0.00     0.034 C 
BRANCH   4   5
ATOM      5  C   UNL     1       1.863 -26.002 -10.619  1.00  0.00     0.032 C 
BRANCH   5   6
ATOM      6  C   UNL     1       1.642 -27.378 -11.195  1.00  0.00    -0.028 C 
ATOM      7  C   UNL     1       1.417 -26.532 -13.542  1.00  0.00     0.039 C 
ATOM      8  C   UNL     1       1.408 -27.627 -12.504  1.00  0.00    -0.080 C 
ATOM      9  C   UNL     1       1.172 -29.041 -12.967  1.00  0.00     0.039 C 
ENDBRANCH   5   6
ENDBRANCH   4   5
ENDBRANCH   1   4
BRANCH   2  10
ATOM     10  C   UNL     1      -1.968 -22.976  -9.360  1.00  0.00     0.035 C 
BRANCH  10  11
ATOM     11  C   UNL     1      -3.370 -23.457  -9.758  1.00  0.00     0.079 C 
BRANCH  11  12
ATOM     12  C   UNL     1      -3.485 -23.678 -11.243  1.00  0.00     0.130 C 
ATOM     13  O   UNL     1      -3.654 -24.808 -11.677  1.00  0.00    -0.300 OA
ATOM     14  C   UNL     1      -3.370 -22.524 -12.192  1.00  0.00     0.087 C 
ENDBRANCH  11  12
ENDBRANCH  10  11
ENDBRANCH   2  10
TORSDOF 6
ENDMDL
MODEL 4
REMARK VINA RESULT:    -5.193      1.741      2.440
REMARK INTER + INTRA:          -8.141
REMARK INTER:                  -7.305
REMARK INTRA:                  -0.835
REMARK UNBOUND:                -1.126
REMARK SMILES CC(=O)CCC=C(C)CCC=C(C)C
REMARK SMILES IDX 7 1 6 2 8 3 9 4 10 5 11 6 13 7 12 8 14 9 5 10 4 11 2 12 3 13
REMARK SMILES IDX 1 14
REMARK H PARENT
REMARK Flexibility Score: inf
ROOT
ATOM      1  C   UNL     1      -0.522 -24.391 -10.293  1.00  0.00    -0.077 C 
ATOM      2  C   UNL     1       0.456 -25.080  -9.663  1.00  0.00    -0.028 C 
ATOM      3  C   UNL     1      -0.397 -23.966 -11.736  1.00  0.00     0.039 C 
ENDROOT
BRANCH   1   4
ATOM      4  C   UNL     1      -1.768 -24.014  -9.519  1.00  0.00     0.034 C 
BRANCH   4   5
ATOM      5  C   UNL     1      -1.978 -22.495  -9.532  1.00  0.00     0.032 C 
BRANCH   5   6
ATOM      6  C   UNL     1      -3.175 -22.127 -10.372  1.00  0.00    -0.028 C 
ATOM      7  C   UNL     1      -1.880 -20.533 -11.806  1.00  0.00     0.039 C 
ATOM      8  C   UNL     1      -3.152 -21.222 -11.377  1.00  0.00    -0.080 C 
ATOM      9  C   UNL     1      -4.416 -20.910 -12.134  1.00  0.00     0.039 C 
ENDBRANCH   5   6
ENDBRANCH   4   5
ENDBRANCH   1   4
BRANCH   2  10
ATOM     10  C   UNL     1       1.724 -25.567 -10.323  1.00  0.00     0.035 C 
BRANCH  10  11
ATOM     11  C   UNL     1       1.868 -27.092 -10.222  1.00  0.00     0.079 C 
BRANCH  11  12
ATOM     12  C   UNL     1       1.344 -27.787 -11.451  1.00  0.00     0.130 C 
ATOM     13  O   UNL     1       0.890 -28.918 -11.362  1.00  0.00    -0.300 OA
ATOM     14  C   UNL     1       1.397 -27.108 -12.787  1.00  0.00     0.087 C 
ENDBRANCH  11  12
ENDBRANCH  10  11
ENDBRANCH   2  10
TORSDOF 6
ENDMDL
MODEL 5
REMARK VINA RESULT:    -5.174      2.474      6.064
REMARK INTER + INTRA:          -8.114
REMARK INTER:                  -7.181
REMARK INTRA:                  -0.933
REMARK UNBOUND:                -1.126
REMARK SMILES CC(=O)CCC=C(C)CCC=C(C)C
REMARK SMILES IDX 7 1 6 2 8 3 9 4 10 5 11 6 13 7 12 8 14 9 5 10 4 11 2 12 3 13
REMARK SMILES IDX 1 14
REMARK H PARENT
REMARK Flexibility Score: inf
ROOT
ATOM      1  C   UNL     1      -0.639 -23.930 -10.908  1.00  0.00    -0.077 C 
ATOM      2  C   UNL     1      -1.747 -23.847 -10.138  1.00  0.00    -0.028 C 
ATOM      3  C   UNL     1      -0.701 -23.817 -12.412  1.00  0.00     0.039 C 
ENDROOT
BRANCH   1   4
ATOM      4  C   UNL     1       0.700 -24.170 -10.242  1.00  0.00     0.034 C 
BRANCH   4   5
ATOM      5  C   UNL     1       1.626 -24.981 -11.158  1.00  0.00     0.032 C 
BRANCH   5   6
ATOM      6  C   UNL     1       1.395 -26.460 -10.978  1.00  0.00    -0.028 C 
ATOM      7  C   UNL     1       1.438 -26.928 -13.438  1.00  0.00     0.039 C 
ATOM      8  C   UNL     1       1.276 -27.342 -11.997  1.00  0.00    -0.080 C 
ATOM      9  C   UNL     1       1.018 -28.797 -11.703  1.00  0.00     0.039 C 
ENDBRANCH   5   6
ENDBRANCH   4   5
ENDBRANCH   1   4
BRANCH   2  10
ATOM     10  C   UNL     1      -3.134 -23.558 -10.660  1.00  0.00     0.035 C 
BRANCH  10  11
ATOM     11  C   UNL     1      -3.494 -22.071 -10.528  1.00  0.00     0.079 C 
BRANCH  11  12
ATOM     12  C   UNL     1      -3.311 -21.333 -11.828  1.00  0.00     0.130 C 
ATOM     13  O   UNL     1      -4.031 -21.593 -12.780  1.00  0.00    -0.300 OA
ATOM     14  C   UNL     1      -2.234 -20.300 -11.968  1.00  0.00     0.087 C 
ENDBRANCH  11  12
ENDBRANCH  10  11
ENDBRANCH   2  10
TORSDOF 6
ENDMDL
MODEL 6
REMARK VINA RESULT:    -5.154      2.230      5.514
REMARK INTER + INTRA:          -8.088
REMARK INTER:                  -7.067
REMARK INTRA:                  -1.021
REMARK UNBOUND:                -1.126
REMARK SMILES CC(=O)CCC=C(C)CCC=C(C)C
REMARK SMILES IDX 7 1 6 2 8 3 9 4 10 5 11 6 13 7 12 8 14 9 5 10 4 11 2 12 3 13
REMARK SMILES IDX 1 14
REMARK H PARENT
REMARK Flexibility Score: inf
ROOT
ATOM      1  C   UNL     1      -1.246 -23.719  -9.928  1.00  0.00    -0.077 C 
ATOM      2  C   UNL     1      -2.489 -24.004 -10.378  1.00  0.00    -0.028 C 
ATOM      3  C   UNL     1      -0.583 -22.390 -10.204  1.00  0.00     0.039 C 
ENDROOT
BRANCH   1   4
ATOM      4  C   UNL     1      -0.490 -24.771  -9.146  1.00  0.00     0.034 C 
BRANCH   4   5
ATOM      5  C   UNL     1       0.946 -24.910  -9.667  1.00  0.00     0.032 C 
BRANCH   5   6
ATOM      6  C   UNL     1       1.119 -26.205 -10.421  1.00  0.00    -0.028 C 
ATOM      7  C   UNL     1       0.762 -25.136 -12.657  1.00  0.00     0.039 C 
ATOM      8  C   UNL     1       1.007 -26.326 -11.763  1.00  0.00    -0.080 C 
ATOM      9  C   UNL     1       1.172 -27.676 -12.410  1.00  0.00     0.039 C 
ENDBRANCH   5   6
ENDBRANCH   4   5
ENDBRANCH   1   4
BRANCH   2  10
ATOM     10  C   UNL     1      -3.376 -23.033 -11.121  1.00  0.00     0.035 C 
BRANCH  10  11
ATOM     11  C   UNL     1      -3.199 -23.149 -12.641  1.00  0.00     0.079 C 
BRANCH  11  12
ATOM     12  C   UNL     1      -3.017 -21.802 -13.288  1.00  0.00     0.130 C 
ATOM     13  O   UNL     1      -2.905 -21.721 -14.502  1.00  0.00    -0.300 OA
ATOM     14  C   UNL     1      -2.946 -20.562 -12.449  1.00  0.00     0.087 C 
ENDBRANCH  11  12
ENDBRANCH  10  11
ENDBRANCH   2  10
TORSDOF 6
ENDMDL
MODEL 7
REMARK VINA RESULT:    -5.145      2.287      5.539
REMARK INTER + INTRA:          -8.075
REMARK INTER:                  -7.004
REMARK INTRA:                  -1.071
REMARK UNBOUND:                -1.126
REMARK SMILES CC(=O)CCC=C(C)CCC=C(C)C
REMARK SMILES IDX 7 1 6 2 8 3 9 4 10 5 11 6 13 7 12 8 14 9 5 10 4 11 2 12 3 13
REMARK SMILES IDX 1 14
REMARK H PARENT
REMARK Flexibility Score: inf
ROOT
ATOM      1  C   UNL     1      -1.295 -23.726  -9.708  1.00  0.00    -0.077 C 
ATOM      2  C   UNL     1      -0.716 -22.575 -10.120  1.00  0.00    -0.028 C 
ATOM      3  C   UNL     1      -2.780 -23.964  -9.840  1.00  0.00     0.039 C 
ENDROOT
BRANCH   1   4
ATOM      4  C   UNL     1      -0.431 -24.795  -9.074  1.00  0.00     0.034 C 
BRANCH   4   5
ATOM      5  C   UNL     1       0.962 -24.821  -9.716  1.00  0.00     0.032 C 
BRANCH   5   6
ATOM      6  C   UNL     1       1.178 -26.107 -10.474  1.00  0.00    -0.028 C 
ATOM      7  C   UNL     1       0.534 -25.103 -12.677  1.00  0.00     0.039 C 
ATOM      8  C   UNL     1       0.958 -26.255 -11.801  1.00  0.00    -0.080 C 
ATOM      9  C   UNL     1       1.181 -27.595 -12.452  1.00  0.00     0.039 C 
ENDBRANCH   5   6
ENDBRANCH   4   5
ENDBRANCH   1   4
BRANCH   2  10
ATOM     10  C   UNL     1      -1.444 -21.450 -10.816  1.00  0.00     0.035 C 
BRANCH  10  11
ATOM     11  C   UNL     1      -1.543 -21.686 -12.329  1.00  0.00     0.079 C 
BRANCH  11  12
ATOM     12  C   UNL     1      -2.968 -21.636 -12.812  1.00  0.00     0.130 C 
ATOM     13  O   UNL     1      -3.247 -22.049 -13.928  1.00  0.00    -0.300 OA
ATOM     14  C   UNL     1      -4.044 -21.060 -11.941  1.00  0.00     0.087 C 
ENDBRANCH  11  12
ENDBRANCH  10  11
ENDBRANCH   2  10
TORSDOF 6
ENDMDL
MODEL 8
REMARK VINA RESULT:    -5.110      1.842      2.359
REMARK INTER + INTRA:          -8.028
REMARK INTER:                  -7.193
REMARK INTRA:                  -0.835
REMARK UNBOUND:                -1.126
REMARK SMILES CC(=O)CCC=C(C)CCC=C(C)C
REMARK SMILES IDX 7 1 6 2 8 3 9 4 10 5 11 6 13 7 12 8 14 9 5 10 4 11 2 12 3 13
REMARK SMILES IDX 1 14
REMARK H PARENT
REMARK Flexibility Score: inf
ROOT
ATOM      1  C   UNL     1       0.064 -24.607 -10.272  1.00  0.00    -0.077 C 
ATOM      2  C   UNL     1       0.398 -24.549 -11.581  1.00  0.00    -0.028 C 
ATOM      3  C   UNL     1       0.808 -25.487  -9.296  1.00  0.00     0.039 C 
ENDROOT
BRANCH   1   4
ATOM      4  C   UNL     1      -1.106 -23.783  -9.777  1.00  0.00     0.034 C 
BRANCH   4   5
ATOM      5  C   UNL     1      -0.959 -22.317 -10.203  1.00  0.00     0.032 C 
BRANCH   5   6
ATOM      6  C   UNL     1      -2.301 -21.723 -10.549  1.00  0.00    -0.028 C 
ATOM      7  C   UNL     1      -2.118 -22.317 -12.975  1.00  0.00     0.039 C 
ATOM      8  C   UNL     1      -2.820 -21.688 -11.798  1.00  0.00    -0.080 C 
ATOM      9  C   UNL     1      -4.160 -21.043 -12.034  1.00  0.00     0.039 C 
ENDBRANCH   5   6
ENDBRANCH   4   5
ENDBRANCH   1   4
BRANCH   2  10
ATOM     10  C   UNL     1       1.571 -25.272 -12.199  1.00  0.00     0.035 C 
BRANCH  10  11
ATOM     11  C   UNL     1       1.146 -26.122 -13.404  1.00  0.00     0.079 C 
BRANCH  11  12
ATOM     12  C   UNL     1       1.457 -27.581 -13.199  1.00  0.00     0.130 C 
ATOM     13  O   UNL     1       1.932 -28.235 -14.115  1.00  0.00    -0.300 OA
ATOM     14  C   UNL     1       1.165 -28.241 -11.886  1.00  0.00     0.087 C 
ENDBRANCH  11  12
ENDBRANCH  10  11
ENDBRANCH   2  10
TORSDOF 6
ENDMDL
MODEL 9
REMARK VINA RESULT:    -5.099      2.520      5.856
REMARK INTER + INTRA:          -8.014
REMARK INTER:                  -7.221
REMARK INTRA:                  -0.792
REMARK UNBOUND:                -1.126
REMARK SMILES CC(=O)CCC=C(C)CCC=C(C)C
REMARK SMILES IDX 7 1 6 2 8 3 9 4 10 5 11 6 13 7 12 8 14 9 5 10 4 11 2 12 3 13
REMARK SMILES IDX 1 14
REMARK H PARENT
REMARK Flexibility Score: inf
ROOT
ATOM      1  C   UNL     1      -1.507 -23.332  -9.898  1.00  0.00    -0.077 C 
ATOM      2  C   UNL     1      -0.959 -22.187 -10.361  1.00  0.00    -0.028 C 
ATOM      3  C   UNL     1      -2.992 -23.465  -9.654  1.00  0.00     0.039 C 
ENDROOT
BRANCH   1   4
ATOM      4  C   UNL     1      -0.603 -24.507  -9.592  1.00  0.00     0.034 C 
BRANCH   4   5
ATOM      5  C   UNL     1       0.727 -24.381 -10.346  1.00  0.00     0.032 C 
BRANCH   5   6
ATOM      6  C   UNL     1       0.744 -25.284 -11.554  1.00  0.00    -0.028 C 
ATOM      7  C   UNL     1       1.778 -27.196 -10.310  1.00  0.00     0.039 C 
ATOM      8  C   UNL     1       1.244 -26.541 -11.560  1.00  0.00    -0.080 C 
ATOM      9  C   UNL     1       1.236 -27.345 -12.833  1.00  0.00     0.039 C 
ENDBRANCH   5   6
ENDBRANCH   4   5
ENDBRANCH   1   4
BRANCH   2  10
ATOM     10  C   UNL     1      -1.744 -20.959 -10.758  1.00  0.00     0.035 C 
BRANCH  10  11
ATOM     11  C   UNL     1      -2.035 -20.932 -12.265  1.00  0.00     0.079 C 
BRANCH  11  12
ATOM     12  C   UNL     1      -3.435 -21.390 -12.573  1.00  0.00     0.130 C 
ATOM     13  O   UNL     1      -4.389 -20.770 -12.129  1.00  0.00    -0.300 OA
ATOM     14  C   UNL     1      -3.666 -22.619 -13.401  1.00  0.00     0.087 C 
ENDBRANCH  11  12
ENDBRANCH  10  11
ENDBRANCH   2  10
TORSDOF 6
ENDMDL
