MODEL 1
REMARK VINA RESULT:    -3.598      0.000      0.000
REMARK INTER + INTRA:          -7.035
REMARK INTER:                  -5.701
REMARK INTRA:                  -1.334
REMARK UNBOUND:                -1.334
REMARK SMILES CCCCCCCCCCCC(=O)[O-]
REMARK SMILES IDX 7 1 8 2 9 3 10 4 11 5 12 6 13 7 14 8 6 9 5 10 4 11 3 12 2 13
REMARK SMILES IDX 1 14
REMARK H PARENT
REMARK Flexibility Score: inf
ROOT
ATOM      1  C   UNL     1       2.854   0.353  -4.152  1.00  0.00     0.000 C 
ENDROOT
BRANCH   1   2
ATOM      2  C   UNL     1       2.392   1.231  -5.328  1.00  0.00     0.000 C 
BRANCH   2   3
ATOM      3  C   UNL     1       3.372   1.190  -6.512  1.00  0.00     0.000 C 
BRANCH   3   4
ATOM      4  C   UNL     1       2.659   1.257  -7.875  1.00  0.00     0.006 C 
BRANCH   4   5
ATOM      5  C   UNL     1       1.380   2.104  -7.818  1.00  0.00     0.053 C 
BRANCH   5   6
ATOM      6  C   UNL     1       0.225   1.410  -8.472  1.00  0.00     0.041 C 
ATOM      7  O   UNL     1       0.230   0.157  -8.603  1.00  0.00    -0.550 OA
ATOM      8  O   UNL     1      -0.841   2.150  -8.969  1.00  0.00    -0.550 OA
ENDBRANCH   5   6
ENDBRANCH   4   5
ENDBRANCH   3   4
ENDBRANCH   2   3
ENDBRANCH   1   2
BRANCH   1   9
ATOM      9  C   UNL     1       4.355   0.029  -4.213  1.00  0.00     0.000 C 
BRANCH   9  10
ATOM     10  C   UNL     1       4.652  -1.462  -3.965  1.00  0.00    -0.000 C 
BRANCH  10  11
ATOM     11  C   UNL     1       3.647  -2.387  -4.668  1.00  0.00    -0.000 C 
BRANCH  11  12
ATOM     12  C   UNL     1       3.892  -2.479  -6.185  1.00  0.00    -0.000 C 
BRANCH  12  13
ATOM     13  C   UNL     1       2.586  -2.445  -6.994  1.00  0.00    -0.003 C 
ATOM     14  C   UNL     1       2.827  -2.412  -8.503  1.00  0.00     0.004 C 
ENDBRANCH  12  13
ENDBRANCH  11  12
ENDBRANCH  10  11
ENDBRANCH   9  10
ENDBRANCH   1   9
TORSDOF 10
ENDMDL
MODEL 2
REMARK VINA RESULT:    -3.565      1.998      2.621
REMARK INTER + INTRA:          -6.982
REMARK INTER:                  -5.607
REMARK INTRA:                  -1.375
REMARK UNBOUND:                -1.334
REMARK SMILES CCCCCCCCCCCC(=O)[O-]
REMARK SMILES IDX 7 1 8 2 9 3 10 4 11 5 12 6 13 7 14 8 6 9 5 10 4 11 3 12 2 13
REMARK SMILES IDX 1 14
REMARK H PARENT
REMARK Flexibility Score: inf
ROOT
ATOM      1  C   UNL     1       4.355  -0.020  -3.964  1.00  0.00     0.000 C 
ENDROOT
BRANCH   1   2
ATOM      2  C   UNL     1       2.828   0.163  -3.976  1.00  0.00     0.000 C 
BRANCH   2   3
ATOM      3  C   UNL     1       2.359   1.127  -5.079  1.00  0.00     0.000 C 
BRANCH   3   4
ATOM      4  C   UNL     1       3.517   1.935  -5.692  1.00  0.00     0.006 C 
BRANCH   4   5
ATOM      5  C   UNL     1       3.034   2.899  -6.784  1.00  0.00     0.053 C 
BRANCH   5   6
ATOM      6  C   UNL     1       1.950   3.805  -6.286  1.00  0.00     0.041 C 
ATOM      7  O   UNL     1       0.795   3.745  -6.785  1.00  0.00    -0.550 OA
ATOM      8  O   UNL     1       2.224   4.740  -5.295  1.00  0.00    -0.550 OA
ENDBRANCH   5   6
ENDBRANCH   4   5
ENDBRANCH   3   4
ENDBRANCH   2   3
ENDBRANCH   1   2
BRANCH   1   9
ATOM      9  C   UNL     1       4.770  -1.500  -3.910  1.00  0.00     0.000 C 
BRANCH   9  10
ATOM     10  C   UNL     1       3.775  -2.423  -4.637  1.00  0.00    -0.000 C 
BRANCH  10  11
ATOM     11  C   UNL     1       4.047  -2.511  -6.146  1.00  0.00    -0.000 C 
BRANCH  11  12
ATOM     12  C   UNL     1       2.792  -2.224  -6.989  1.00  0.00    -0.000 C 
BRANCH  12  13
ATOM     13  C   UNL     1       2.998  -1.059  -7.972  1.00  0.00    -0.003 C 
ATOM     14  C   UNL     1       1.687  -0.379  -8.363  1.00  0.00     0.004 C 
ENDBRANCH  12  13
ENDBRANCH  11  12
ENDBRANCH  10  11
ENDBRANCH   9  10
ENDBRANCH   1   9
TORSDOF 10
ENDMDL
MODEL 3
REMARK VINA RESULT:    -3.546      1.445      3.076
REMARK INTER + INTRA:          -6.954
REMARK INTER:                  -5.482
REMARK INTRA:                  -1.472
REMARK UNBOUND:                -1.334
REMARK SMILES CCCCCCCCCCCC(=O)[O-]
REMARK SMILES IDX 7 1 8 2 9 3 10 4 11 5 12 6 13 7 14 8 6 9 5 10 4 11 3 12 2 13
REMARK SMILES IDX 1 14
REMARK H PARENT
REMARK Flexibility Score: inf
ROOT
ATOM      1  C   UNL     1       3.164  -2.346  -4.920  1.00  0.00     0.000 C 
ENDROOT
BRANCH   1   2
ATOM      2  C   UNL     1       2.893  -2.344  -6.434  1.00  0.00     0.000 C 
BRANCH   2   3
ATOM      3  C   UNL     1       3.919  -1.506  -7.215  1.00  0.00     0.000 C 
BRANCH   3   4
ATOM      4  C   UNL     1       3.259  -0.558  -8.232  1.00  0.00     0.006 C 
BRANCH   4   5
ATOM      5  C   UNL     1       2.061  -1.209  -8.937  1.00  0.00     0.053 C 
BRANCH   5   6
ATOM      6  C   UNL     1       0.817  -0.387  -8.790  1.00  0.00     0.041 C 
ATOM      7  O   UNL     1      -0.315  -0.915  -8.954  1.00  0.00    -0.550 OA
ATOM      8  O   UNL     1       0.908   0.970  -8.506  1.00  0.00    -0.550 OA
ENDBRANCH   5   6
ENDBRANCH   4   5
ENDBRANCH   3   4
ENDBRANCH   2   3
ENDBRANCH   1   2
BRANCH   1   9
ATOM      9  C   UNL     1       4.665  -2.313  -4.590  1.00  0.00     0.000 C 
BRANCH   9  10
ATOM     10  C   UNL     1       5.025  -1.227  -3.560  1.00  0.00    -0.000 C 
BRANCH  10  11
ATOM     11  C   UNL     1       4.166   0.038  -3.714  1.00  0.00    -0.000 C 
BRANCH  11  12
ATOM     12  C   UNL     1       4.790   1.060  -4.680  1.00  0.00    -0.000 C 
BRANCH  12  13
ATOM     13  C   UNL     1       3.731   1.892  -5.420  1.00  0.00    -0.003 C 
ATOM     14  C   UNL     1       2.324   1.310  -5.285  1.00  0.00     0.004 C 
ENDBRANCH  12  13
ENDBRANCH  11  12
ENDBRANCH  10  11
ENDBRANCH   9  10
ENDBRANCH   1   9
TORSDOF 10
ENDMDL
MODEL 4
REMARK VINA RESULT:    -3.507      2.309      2.656
REMARK INTER + INTRA:          -6.892
REMARK INTER:                  -5.785
REMARK INTRA:                  -1.107
REMARK UNBOUND:                -1.334
REMARK SMILES CCCCCCCCCCCC(=O)[O-]
REMARK SMILES IDX 7 1 8 2 9 3 10 4 11 5 12 6 13 7 14 8 6 9 5 10 4 11 3 12 2 13
REMARK SMILES IDX 1 14
REMARK H PARENT
REMARK Flexibility Score: inf
ROOT
ATOM      1  C   UNL     1       2.858   0.138  -3.888  1.00  0.00     0.000 C 
ENDROOT
BRANCH   1   2
ATOM      2  C   UNL     1       2.496   1.107  -5.026  1.00  0.00     0.000 C 
BRANCH   2   3
ATOM      3  C   UNL     1       3.689   1.972  -5.465  1.00  0.00     0.000 C 
BRANCH   3   4
ATOM      4  C   UNL     1       3.257   3.243  -6.217  1.00  0.00     0.006 C 
BRANCH   4   5
ATOM      5  C   UNL     1       1.730   3.358  -6.329  1.00  0.00     0.053 C 
BRANCH   5   6
ATOM      6  C   UNL     1       1.245   4.720  -5.934  1.00  0.00     0.041 C 
ATOM      7  O   UNL     1       0.253   5.232  -6.516  1.00  0.00    -0.550 OA
ATOM      8  O   UNL     1       1.913   5.438  -4.949  1.00  0.00    -0.550 OA
ENDBRANCH   5   6
ENDBRANCH   4   5
ENDBRANCH   3   4
ENDBRANCH   2   3
ENDBRANCH   1   2
BRANCH   1   9
ATOM      9  C   UNL     1       4.374  -0.088  -3.767  1.00  0.00     0.000 C 
BRANCH   9  10
ATOM     10  C   UNL     1       4.768  -1.569  -3.912  1.00  0.00    -0.000 C 
BRANCH  10  11
ATOM     11  C   UNL     1       3.702  -2.392  -4.652  1.00  0.00    -0.000 C 
BRANCH  11  12
ATOM     12  C   UNL     1       3.996  -2.521  -6.157  1.00  0.00    -0.000 C 
BRANCH  12  13
ATOM     13  C   UNL     1       2.758  -2.240  -7.024  1.00  0.00    -0.003 C 
ATOM     14  C   UNL     1       2.924  -1.001  -7.904  1.00  0.00     0.004 C 
ENDBRANCH  12  13
ENDBRANCH  11  12
ENDBRANCH  10  11
ENDBRANCH   9  10
ENDBRANCH   1   9
TORSDOF 10
ENDMDL
MODEL 5
REMARK VINA RESULT:    -3.295      2.093      3.895
REMARK INTER + INTRA:          -6.554
REMARK INTER:                  -5.543
REMARK INTRA:                  -1.011
REMARK UNBOUND:                -1.334
REMARK SMILES CCCCCCCCCCCC(=O)[O-]
REMARK SMILES IDX 7 1 8 2 9 3 10 4 11 5 12 6 13 7 14 8 6 9 5 10 4 11 3 12 2 13
REMARK SMILES IDX 1 14
REMARK H PARENT
REMARK Flexibility Score: inf
ROOT
ATOM      1  C   UNL     1       0.950  -1.961  -8.816  1.00  0.00     0.000 C 
ENDROOT
BRANCH   1   2
ATOM      2  C   UNL     1       1.558  -0.572  -9.080  1.00  0.00     0.000 C 
BRANCH   2   3
ATOM      3  C   UNL     1       0.532   0.561  -8.913  1.00  0.00     0.000 C 
BRANCH   3   4
ATOM      4  C   UNL     1       0.963   1.602  -7.864  1.00  0.00     0.006 C 
BRANCH   4   5
ATOM      5  C   UNL     1       2.214   1.162  -7.092  1.00  0.00     0.053 C 
BRANCH   5   6
ATOM      6  C   UNL     1       2.273   1.782  -5.730  1.00  0.00     0.041 C 
ATOM      7  O   UNL     1       2.293   1.054  -4.702  1.00  0.00    -0.550 OA
ATOM      8  O   UNL     1       2.268   3.165  -5.594  1.00  0.00    -0.550 OA
ENDBRANCH   5   6
ENDBRANCH   4   5
ENDBRANCH   3   4
ENDBRANCH   2   3
ENDBRANCH   1   2
BRANCH   1   9
ATOM      9  C   UNL     1       2.004  -2.992  -8.383  1.00  0.00     0.000 C 
BRANCH   9  10
ATOM     10  C   UNL     1       3.418  -2.390  -8.280  1.00  0.00    -0.000 C 
BRANCH  10  11
ATOM     11  C   UNL     1       4.054  -2.613  -6.899  1.00  0.00    -0.000 C 
BRANCH  11  12
ATOM     12  C   UNL     1       3.132  -2.173  -5.748  1.00  0.00    -0.000 C 
BRANCH  12  13
ATOM     13  C   UNL     1       3.839  -2.209  -4.383  1.00  0.00    -0.003 C 
ATOM     14  C   UNL     1       5.040  -3.154  -4.366  1.00  0.00     0.004 C 
ENDBRANCH  12  13
ENDBRANCH  11  12
ENDBRANCH  10  11
ENDBRANCH   9  10
ENDBRANCH   1   9
TORSDOF 10
ENDMDL
MODEL 6
REMARK VINA RESULT:    -3.242      1.618      2.794
REMARK INTER + INTRA:          -6.471
REMARK INTER:                  -5.156
REMARK INTRA:                  -1.315
REMARK UNBOUND:                -1.334
REMARK SMILES CCCCCCCCCCCC(=O)[O-]
REMARK SMILES IDX 7 1 8 2 9 3 10 4 11 5 12 6 13 7 14 8 6 9 5 10 4 11 3 12 2 13
REMARK SMILES IDX 1 14
REMARK H PARENT
REMARK Flexibility Score: inf
ROOT
ATOM      1  C   UNL     1       4.416   1.916  -6.938  1.00  0.00     0.000 C 
ENDROOT
BRANCH   1   2
ATOM      2  C   UNL     1       3.327   1.570  -7.967  1.00  0.00     0.000 C 
BRANCH   2   3
ATOM      3  C   UNL     1       1.969   1.271  -7.310  1.00  0.00     0.000 C 
BRANCH   3   4
ATOM      4  C   UNL     1       0.961   0.644  -8.289  1.00  0.00     0.006 C 
BRANCH   4   5
ATOM      5  C   UNL     1       1.528  -0.599  -8.986  1.00  0.00     0.053 C 
BRANCH   5   6
ATOM      6  C   UNL     1       0.594  -1.767  -8.886  1.00  0.00     0.041 C 
ATOM      7  O   UNL     1       1.049  -2.941  -8.861  1.00  0.00    -0.550 OA
ATOM      8  O   UNL     1      -0.779  -1.559  -8.855  1.00  0.00    -0.550 OA
ENDBRANCH   5   6
ENDBRANCH   4   5
ENDBRANCH   3   4
ENDBRANCH   2   3
ENDBRANCH   1   2
BRANCH   1   9
ATOM      9  C   UNL     1       3.909   1.822  -5.490  1.00  0.00     0.000 C 
BRANCH   9  10
ATOM     10  C   UNL     1       4.950   1.209  -4.534  1.00  0.00    -0.000 C 
BRANCH  10  11
ATOM     11  C   UNL     1       4.374   0.057  -3.697  1.00  0.00    -0.000 C 
BRANCH  11  12
ATOM     12  C   UNL     1       3.080  -0.519  -4.299  1.00  0.00    -0.000 C 
BRANCH  12  13
ATOM     13  C   UNL     1       3.263  -1.952  -4.825  1.00  0.00    -0.003 C 
ATOM     14  C   UNL     1       3.738  -1.990  -6.278  1.00  0.00     0.004 C 
ENDBRANCH  12  13
ENDBRANCH  11  12
ENDBRANCH  10  11
ENDBRANCH   9  10
ENDBRANCH   1   9
TORSDOF 10
ENDMDL
MODEL 7
REMARK VINA RESULT:    -3.228      1.898      3.308
REMARK INTER + INTRA:          -6.449
REMARK INTER:                  -5.087
REMARK INTRA:                  -1.362
REMARK UNBOUND:                -1.334
REMARK SMILES CCCCCCCCCCCC(=O)[O-]
REMARK SMILES IDX 7 1 8 2 9 3 10 4 11 5 12 6 13 7 14 8 6 9 5 10 4 11 3 12 2 13
REMARK SMILES IDX 1 14
REMARK H PARENT
REMARK Flexibility Score: inf
ROOT
ATOM      1  C   UNL     1       2.489  -1.093  -7.567  1.00  0.00     0.000 C 
ENDROOT
BRANCH   1   2
ATOM      2  C   UNL     1       3.707  -0.319  -8.099  1.00  0.00     0.000 C 
BRANCH   2   3
ATOM      3  C   UNL     1       3.546   1.203  -7.954  1.00  0.00     0.000 C 
BRANCH   3   4
ATOM      4  C   UNL     1       2.099   1.620  -7.635  1.00  0.00     0.006 C 
BRANCH   4   5
ATOM      5  C   UNL     1       1.885   3.131  -7.790  1.00  0.00     0.053 C 
BRANCH   5   6
ATOM      6  C   UNL     1       1.483   3.771  -6.496  1.00  0.00     0.041 C 
ATOM      7  O   UNL     1       2.273   3.767  -5.515  1.00  0.00    -0.550 OA
ATOM      8  O   UNL     1       0.222   4.339  -6.363  1.00  0.00    -0.550 OA
ENDBRANCH   5   6
ENDBRANCH   4   5
ENDBRANCH   3   4
ENDBRANCH   2   3
ENDBRANCH   1   2
BRANCH   1   9
ATOM      9  C   UNL     1       2.860  -2.496  -7.058  1.00  0.00     0.000 C 
BRANCH   9  10
ATOM     10  C   UNL     1       4.054  -2.479  -6.086  1.00  0.00    -0.000 C 
BRANCH  10  11
ATOM     11  C   UNL     1       3.624  -2.248  -4.629  1.00  0.00    -0.000 C 
BRANCH  11  12
ATOM     12  C   UNL     1       4.477  -1.176  -3.926  1.00  0.00    -0.000 C 
BRANCH  12  13
ATOM     13  C   UNL     1       4.034   0.252  -4.280  1.00  0.00    -0.003 C 
ATOM     14  C   UNL     1       2.518   0.433  -4.216  1.00  0.00     0.004 C 
ENDBRANCH  12  13
ENDBRANCH  11  12
ENDBRANCH  10  11
ENDBRANCH   9  10
ENDBRANCH   1   9
TORSDOF 10
ENDMDL
MODEL 8
REMARK VINA RESULT:    -3.189      2.004      4.045
REMARK INTER + INTRA:          -6.386
REMARK INTER:                  -4.898
REMARK INTRA:                  -1.488
REMARK UNBOUND:                -1.334
REMARK SMILES CCCCCCCCCCCC(=O)[O-]
REMARK SMILES IDX 7 1 8 2 9 3 10 4 11 5 12 6 13 7 14 8 6 9 5 10 4 11 3 12 2 13
REMARK SMILES IDX 1 14
REMARK H PARENT
REMARK Flexibility Score: inf
ROOT
ATOM      1  C   UNL     1       3.246  -0.628  -4.251  1.00  0.00     0.000 C 
ENDROOT
BRANCH   1   2
ATOM      2  C   UNL     1       3.249  -2.092  -4.724  1.00  0.00     0.000 C 
BRANCH   2   3
ATOM      3  C   UNL     1       4.440  -2.410  -5.644  1.00  0.00     0.000 C 
BRANCH   3   4
ATOM      4  C   UNL     1       4.041  -2.479  -7.129  1.00  0.00     0.006 C 
BRANCH   4   5
ATOM      5  C   UNL     1       2.518  -2.499  -7.319  1.00  0.00     0.053 C 
BRANCH   5   6
ATOM      6  C   UNL     1       2.123  -3.231  -8.565  1.00  0.00     0.041 C 
ATOM      7  O   UNL     1       0.998  -3.024  -9.091  1.00  0.00    -0.550 OA
ATOM      8  O   UNL     1       2.984  -4.167  -9.125  1.00  0.00    -0.550 OA
ENDBRANCH   5   6
ENDBRANCH   4   5
ENDBRANCH   3   4
ENDBRANCH   2   3
ENDBRANCH   1   2
BRANCH   1   9
ATOM      9  C   UNL     1       4.651  -0.127  -3.879  1.00  0.00     0.000 C 
BRANCH   9  10
ATOM     10  C   UNL     1       5.027   1.179  -4.603  1.00  0.00    -0.000 C 
BRANCH  10  11
ATOM     11  C   UNL     1       3.937   1.646  -5.580  1.00  0.00    -0.000 C 
BRANCH  11  12
ATOM     12  C   UNL     1       4.349   1.470  -7.052  1.00  0.00    -0.000 C 
BRANCH  12  13
ATOM     13  C   UNL     1       3.154   1.144  -7.962  1.00  0.00    -0.003 C 
ATOM     14  C   UNL     1       1.820   1.169  -7.216  1.00  0.00     0.004 C 
ENDBRANCH  12  13
ENDBRANCH  11  12
ENDBRANCH  10  11
ENDBRANCH   9  10
ENDBRANCH   1   9
TORSDOF 10
ENDMDL
MODEL 9
REMARK VINA RESULT:    -3.187     21.502     22.850
REMARK INTER + INTRA:          -6.385
REMARK INTER:                  -5.522
REMARK INTRA:                  -0.862
REMARK UNBOUND:                -1.334
REMARK SMILES CCCCCCCCCCCC(=O)[O-]
REMARK SMILES IDX 7 1 8 2 9 3 10 4 11 5 12 6 13 7 14 8 6 9 5 10 4 11 3 12 2 13
REMARK SMILES IDX 1 14
REMARK H PARENT
REMARK Flexibility Score: inf
ROOT
ATOM      1  C   UNL     1     -11.751 -10.003   5.000  1.00  0.00     0.000 C 
ENDROOT
BRANCH   1   2
ATOM      2  C   UNL     1     -12.897 -10.229   3.999  1.00  0.00     0.000 C 
BRANCH   2   3
ATOM      3  C   UNL     1     -12.794 -11.587   3.284  1.00  0.00     0.000 C 
BRANCH   3   4
ATOM      4  C   UNL     1     -12.698 -12.769   4.266  1.00  0.00     0.006 C 
BRANCH   4   5
ATOM      5  C   UNL     1     -11.421 -13.594   4.054  1.00  0.00     0.053 C 
BRANCH   5   6
ATOM      6  C   UNL     1     -10.458 -13.426   5.190  1.00  0.00     0.041 C 
ATOM      7  O   UNL     1      -9.226 -13.614   5.008  1.00  0.00    -0.550 OA
ATOM      8  O   UNL     1     -10.925 -13.097   6.456  1.00  0.00    -0.550 OA
ENDBRANCH   5   6
ENDBRANCH   4   5
ENDBRANCH   3   4
ENDBRANCH   2   3
ENDBRANCH   1   2
BRANCH   1   9
ATOM      9  C   UNL     1     -12.259  -9.664   6.410  1.00  0.00     0.000 C 
BRANCH   9  10
ATOM     10  C   UNL     1     -13.780  -9.856   6.557  1.00  0.00    -0.000 C 
BRANCH  10  11
ATOM     11  C   UNL     1     -14.354  -9.106   7.768  1.00  0.00    -0.000 C 
BRANCH  11  12
ATOM     12  C   UNL     1     -13.296  -8.840   8.853  1.00  0.00    -0.000 C 
BRANCH  12  13
ATOM     13  C   UNL     1     -13.181  -7.349   9.209  1.00  0.00    -0.003 C 
ATOM     14  C   UNL     1     -14.463  -6.572   8.914  1.00  0.00     0.004 C 
ENDBRANCH  12  13
ENDBRANCH  11  12
ENDBRANCH  10  11
ENDBRANCH   9  10
ENDBRANCH   1   9
TORSDOF 10
ENDMDL
