MODEL 1
REMARK VINA RESULT:    -2.973      0.000      0.000
REMARK INTER + INTRA:         -10.639
REMARK INTER:                  -6.449
REMARK INTRA:                  -4.189
REMARK UNBOUND:                -4.189
REMARK SMILES CCCCCCCCCCCCCCCCCCCCCC(=O)[O-]
REMARK SMILES IDX 12 1 11 2 10 3 9 4 8 5 7 6 6 7 5 8 4 9 3 10 2 11 1 12 13 13
REMARK SMILES IDX 14 14 15 15 16 16 17 17 18 18 19 19 20 20 21 21 22 22 23 23
REMARK SMILES IDX 24 24
REMARK H PARENT
REMARK Flexibility Score: inf
ROOT
ATOM      1  C   UNL     1     -24.690 -14.545   2.978  1.00  0.00     0.000 C 
ENDROOT
BRANCH   1   2
ATOM      2  C   UNL     1     -23.706 -13.988   4.022  1.00  0.00     0.000 C 
BRANCH   2   3
ATOM      3  C   UNL     1     -24.370 -13.712   5.380  1.00  0.00     0.000 C 
BRANCH   3   4
ATOM      4  C   UNL     1     -25.180 -12.403   5.390  1.00  0.00    -0.000 C 
BRANCH   4   5
ATOM      5  C   UNL     1     -26.586 -12.573   5.993  1.00  0.00    -0.000 C 
BRANCH   5   6
ATOM      6  C   UNL     1     -27.744 -12.262   5.027  1.00  0.00    -0.000 C 
BRANCH   6   7
ATOM      7  C   UNL     1     -27.294 -12.171   3.557  1.00  0.00    -0.000 C 
BRANCH   7   8
ATOM      8  C   UNL     1     -28.422 -12.556   2.578  1.00  0.00    -0.000 C 
BRANCH   8   9
ATOM      9  C   UNL     1     -29.653 -11.639   2.666  1.00  0.00    -0.000 C 
BRANCH   9  10
ATOM     10  C   UNL     1     -30.512 -11.671   1.390  1.00  0.00    -0.000 C 
BRANCH  10  11
ATOM     11  C   UNL     1     -29.795 -12.355   0.215  1.00  0.00    -0.003 C 
ATOM     12  C   UNL     1     -29.424 -11.374  -0.899  1.00  0.00     0.004 C 
ENDBRANCH  10  11
ENDBRANCH   9  10
ENDBRANCH   8   9
ENDBRANCH   7   8
ENDBRANCH   6   7
ENDBRANCH   5   6
ENDBRANCH   4   5
ENDBRANCH   3   4
ENDBRANCH   2   3
ENDBRANCH   1   2
BRANCH   1  13
ATOM     13  C   UNL     1     -25.307 -15.894   3.408  1.00  0.00     0.000 C 
BRANCH  13  14
ATOM     14  C   UNL     1     -26.833 -15.846   3.631  1.00  0.00     0.000 C 
BRANCH  14  15
ATOM     15  C   UNL     1     -27.295 -16.183   5.059  1.00  0.00     0.000 C 
BRANCH  15  16
ATOM     16  C   UNL     1     -28.803 -16.456   5.152  1.00  0.00     0.000 C 
BRANCH  16  17
ATOM     17  C   UNL     1     -29.524 -15.311   5.874  1.00  0.00     0.000 C 
BRANCH  17  18
ATOM     18  C   UNL     1     -30.518 -14.611   4.937  1.00  0.00     0.000 C 
BRANCH  18  19
ATOM     19  C   UNL     1     -31.169 -15.615   3.975  1.00  0.00     0.000 C 
BRANCH  19  20
ATOM     20  C   UNL     1     -31.173 -15.123   2.520  1.00  0.00     0.006 C 
BRANCH  20  21
ATOM     21  C   UNL     1     -30.071 -15.776   1.674  1.00  0.00     0.053 C 
BRANCH  21  22
ATOM     22  C   UNL     1     -30.295 -17.252   1.568  1.00  0.00     0.041 C 
ATOM     23  O   UNL     1     -29.445 -18.058   2.029  1.00  0.00    -0.550 OA
ATOM     24  O   UNL     1     -31.438 -17.739   0.944  1.00  0.00    -0.550 OA
ENDBRANCH  21  22
ENDBRANCH  20  21
ENDBRANCH  19  20
ENDBRANCH  18  19
ENDBRANCH  17  18
ENDBRANCH  16  17
ENDBRANCH  15  16
ENDBRANCH  14  15
ENDBRANCH  13  14
ENDBRANCH   1  13
TORSDOF 20
ENDMDL
MODEL 2
REMARK VINA RESULT:    -2.952      2.173      4.771
REMARK INTER + INTRA:         -10.592
REMARK INTER:                  -7.742
REMARK INTRA:                  -2.851
REMARK UNBOUND:                -4.189
REMARK SMILES CCCCCCCCCCCCCCCCCCCCCC(=O)[O-]
REMARK SMILES IDX 12 1 11 2 10 3 9 4 8 5 7 6 6 7 5 8 4 9 3 10 2 11 1 12 13 13
REMARK SMILES IDX 14 14 15 15 16 16 17 17 18 18 19 19 20 20 21 21 22 22 23 23
REMARK SMILES IDX 24 24
REMARK H PARENT
REMARK Flexibility Score: inf
ROOT
ATOM      1  C   UNL     1     -22.147 -13.248   3.444  1.00  0.00     0.000 C 
ENDROOT
BRANCH   1   2
ATOM      2  C   UNL     1     -23.032 -14.398   2.931  1.00  0.00     0.000 C 
BRANCH   2   3
ATOM      3  C   UNL     1     -23.921 -15.002   4.029  1.00  0.00     0.000 C 
BRANCH   3   4
ATOM      4  C   UNL     1     -25.363 -15.259   3.552  1.00  0.00    -0.000 C 
BRANCH   4   5
ATOM      5  C   UNL     1     -26.296 -15.721   4.685  1.00  0.00    -0.000 C 
BRANCH   5   6
ATOM      6  C   UNL     1     -27.388 -16.718   4.255  1.00  0.00    -0.000 C 
BRANCH   6   7
ATOM      7  C   UNL     1     -27.327 -17.068   2.756  1.00  0.00    -0.000 C 
BRANCH   7   8
ATOM      8  C   UNL     1     -28.630 -17.729   2.261  1.00  0.00    -0.000 C 
BRANCH   8   9
ATOM      9  C   UNL     1     -29.622 -16.738   1.631  1.00  0.00    -0.000 C 
BRANCH   9  10
ATOM     10  C   UNL     1     -30.998 -17.368   1.354  1.00  0.00    -0.000 C 
BRANCH  10  11
ATOM     11  C   UNL     1     -32.042 -16.995   2.419  1.00  0.00    -0.003 C 
ATOM     12  C   UNL     1     -31.694 -15.700   3.156  1.00  0.00     0.004 C 
ENDBRANCH  10  11
ENDBRANCH   9  10
ENDBRANCH   8   9
ENDBRANCH   7   8
ENDBRANCH   6   7
ENDBRANCH   5   6
ENDBRANCH   4   5
ENDBRANCH   3   4
ENDBRANCH   2   3
ENDBRANCH   1   2
BRANCH   1  13
ATOM     13  C   UNL     1     -22.724 -12.577   4.709  1.00  0.00     0.000 C 
BRANCH  13  14
ATOM     14  C   UNL     1     -23.030 -11.075   4.542  1.00  0.00     0.000 C 
BRANCH  14  15
ATOM     15  C   UNL     1     -24.470 -10.659   4.891  1.00  0.00     0.000 C 
BRANCH  15  16
ATOM     16  C   UNL     1     -25.417 -11.857   5.055  1.00  0.00     0.000 C 
BRANCH  16  17
ATOM     17  C   UNL     1     -26.587 -11.769   4.068  1.00  0.00     0.000 C 
BRANCH  17  18
ATOM     18  C   UNL     1     -27.872 -12.335   4.689  1.00  0.00     0.000 C 
BRANCH  18  19
ATOM     19  C   UNL     1     -28.682 -13.126   3.651  1.00  0.00     0.000 C 
BRANCH  19  20
ATOM     20  C   UNL     1     -28.791 -12.395   2.304  1.00  0.00     0.006 C 
BRANCH  20  21
ATOM     21  C   UNL     1     -29.786 -13.068   1.348  1.00  0.00     0.053 C 
BRANCH  21  22
ATOM     22  C   UNL     1     -30.981 -12.193   1.134  1.00  0.00     0.041 C 
ATOM     23  O   UNL     1     -30.894 -11.163   0.414  1.00  0.00    -0.550 OA
ATOM     24  O   UNL     1     -32.190 -12.505   1.744  1.00  0.00    -0.550 OA
ENDBRANCH  21  22
ENDBRANCH  20  21
ENDBRANCH  19  20
ENDBRANCH  18  19
ENDBRANCH  17  18
ENDBRANCH  16  17
ENDBRANCH  15  16
ENDBRANCH  14  15
ENDBRANCH  13  14
ENDBRANCH   1  13
TORSDOF 20
ENDMDL
MODEL 3
REMARK VINA RESULT:    -2.814     12.352     14.775
REMARK INTER + INTRA:         -10.293
REMARK INTER:                  -7.209
REMARK INTRA:                  -3.084
REMARK UNBOUND:                -4.189
REMARK SMILES CCCCCCCCCCCCCCCCCCCCCC(=O)[O-]
REMARK SMILES IDX 12 1 11 2 10 3 9 4 8 5 7 6 6 7 5 8 4 9 3 10 2 11 1 12 13 13
REMARK SMILES IDX 14 14 15 15 16 16 17 17 18 18 19 19 20 20 21 21 22 22 23 23
REMARK SMILES IDX 24 24
REMARK H PARENT
REMARK Flexibility Score: inf
ROOT
ATOM      1  C   UNL     1     -18.986 -25.698  -3.631  1.00  0.00     0.000 C 
ENDROOT
BRANCH   1   2
ATOM      2  C   UNL     1     -20.239 -26.473  -4.077  1.00  0.00     0.000 C 
BRANCH   2   3
ATOM      3  C   UNL     1     -21.267 -25.586  -4.794  1.00  0.00     0.000 C 
BRANCH   3   4
ATOM      4  C   UNL     1     -22.347 -25.040  -3.842  1.00  0.00    -0.000 C 
BRANCH   4   5
ATOM      5  C   UNL     1     -22.317 -23.507  -3.717  1.00  0.00    -0.000 C 
BRANCH   5   6
ATOM      6  C   UNL     1     -21.403 -22.969  -2.600  1.00  0.00    -0.000 C 
BRANCH   6   7
ATOM      7  C   UNL     1     -20.146 -22.260  -3.140  1.00  0.00    -0.000 C 
BRANCH   7   8
ATOM      8  C   UNL     1     -20.390 -21.614  -4.519  1.00  0.00    -0.000 C 
BRANCH   8   9
ATOM      9  C   UNL     1     -20.462 -20.079  -4.476  1.00  0.00    -0.000 C 
BRANCH   9  10
ATOM     10  C   UNL     1     -19.438 -19.462  -3.507  1.00  0.00    -0.000 C 
BRANCH  10  11
ATOM     11  C   UNL     1     -18.260 -18.798  -4.239  1.00  0.00    -0.003 C 
ATOM     12  C   UNL     1     -17.818 -17.491  -3.578  1.00  0.00     0.004 C 
ENDBRANCH  10  11
ENDBRANCH   9  10
ENDBRANCH   8   9
ENDBRANCH   7   8
ENDBRANCH   6   7
ENDBRANCH   5   6
ENDBRANCH   4   5
ENDBRANCH   3   4
ENDBRANCH   2   3
ENDBRANCH   1   2
BRANCH   1  13
ATOM     13  C   UNL     1     -18.236 -26.398  -2.478  1.00  0.00     0.000 C 
BRANCH  13  14
ATOM     14  C   UNL     1     -18.688 -27.851  -2.222  1.00  0.00     0.000 C 
BRANCH  14  15
ATOM     15  C   UNL     1     -18.402 -28.385  -0.808  1.00  0.00     0.000 C 
BRANCH  15  16
ATOM     16  C   UNL     1     -19.310 -29.561  -0.417  1.00  0.00     0.000 C 
BRANCH  16  17
ATOM     17  C   UNL     1     -20.589 -29.570  -1.263  1.00  0.00     0.000 C 
BRANCH  17  18
ATOM     18  C   UNL     1     -21.767 -28.968  -0.484  1.00  0.00     0.000 C 
BRANCH  18  19
ATOM     19  C   UNL     1     -22.234 -27.652  -1.123  1.00  0.00     0.000 C 
BRANCH  19  20
ATOM     20  C   UNL     1     -21.567 -26.420  -0.494  1.00  0.00     0.006 C 
BRANCH  20  21
ATOM     21  C   UNL     1     -21.540 -26.484   1.040  1.00  0.00     0.053 C 
BRANCH  21  22
ATOM     22  C   UNL     1     -22.875 -26.112   1.604  1.00  0.00     0.041 C 
ATOM     23  O   UNL     1     -23.434 -26.854   2.454  1.00  0.00    -0.550 OA
ATOM     24  O   UNL     1     -23.513 -24.953   1.178  1.00  0.00    -0.550 OA
ENDBRANCH  21  22
ENDBRANCH  20  21
ENDBRANCH  19  20
ENDBRANCH  18  19
ENDBRANCH  17  18
ENDBRANCH  16  17
ENDBRANCH  15  16
ENDBRANCH  14  15
ENDBRANCH  13  14
ENDBRANCH   1  13
TORSDOF 20
ENDMDL
MODEL 4
REMARK VINA RESULT:    -2.790      2.767      6.332
REMARK INTER + INTRA:         -10.241
REMARK INTER:                  -6.151
REMARK INTRA:                  -4.090
REMARK UNBOUND:                -4.189
REMARK SMILES CCCCCCCCCCCCCCCCCCCCCC(=O)[O-]
REMARK SMILES IDX 12 1 11 2 10 3 9 4 8 5 7 6 6 7 5 8 4 9 3 10 2 11 1 12 13 13
REMARK SMILES IDX 14 14 15 15 16 16 17 17 18 18 19 19 20 20 21 21 22 22 23 23
REMARK SMILES IDX 24 24
REMARK H PARENT
REMARK Flexibility Score: inf
ROOT
ATOM      1  C   UNL     1     -30.497 -17.219   1.479  1.00  0.00     0.000 C 
ENDROOT
BRANCH   1   2
ATOM      2  C   UNL     1     -31.788 -16.891   2.251  1.00  0.00     0.000 C 
BRANCH   2   3
ATOM      3  C   UNL     1     -31.757 -15.501   2.904  1.00  0.00     0.000 C 
BRANCH   3   4
ATOM      4  C   UNL     1     -32.129 -15.538   4.398  1.00  0.00    -0.000 C 
BRANCH   4   5
ATOM      5  C   UNL     1     -30.943 -15.916   5.302  1.00  0.00    -0.000 C 
BRANCH   5   6
ATOM      6  C   UNL     1     -30.969 -17.363   5.829  1.00  0.00    -0.000 C 
BRANCH   6   7
ATOM      7  C   UNL     1     -29.600 -18.061   5.740  1.00  0.00    -0.000 C 
BRANCH   7   8
ATOM      8  C   UNL     1     -29.684 -19.413   5.002  1.00  0.00    -0.000 C 
BRANCH   8   9
ATOM      9  C   UNL     1     -31.106 -19.777   4.544  1.00  0.00    -0.000 C 
BRANCH   9  10
ATOM     10  C   UNL     1     -31.136 -20.418   3.146  1.00  0.00    -0.000 C 
BRANCH  10  11
ATOM     11  C   UNL     1     -29.728 -20.648   2.573  1.00  0.00    -0.003 C 
ATOM     12  C   UNL     1     -29.756 -21.267   1.174  1.00  0.00     0.004 C 
ENDBRANCH  10  11
ENDBRANCH   9  10
ENDBRANCH   8   9
ENDBRANCH   7   8
ENDBRANCH   6   7
ENDBRANCH   5   6
ENDBRANCH   4   5
ENDBRANCH   3   4
ENDBRANCH   2   3
ENDBRANCH   1   2
BRANCH   1  13
ATOM     13  C   UNL     1     -29.279 -16.425   2.000  1.00  0.00     0.000 C 
BRANCH  13  14
ATOM     14  C   UNL     1     -28.083 -17.306   2.413  1.00  0.00     0.000 C 
BRANCH  14  15
ATOM     15  C   UNL     1     -27.107 -16.658   3.410  1.00  0.00     0.000 C 
BRANCH  15  16
ATOM     16  C   UNL     1     -27.626 -15.328   3.977  1.00  0.00     0.000 C 
BRANCH  16  17
ATOM     17  C   UNL     1     -26.605 -14.204   3.758  1.00  0.00     0.000 C 
BRANCH  17  18
ATOM     18  C   UNL     1     -27.308 -12.849   3.595  1.00  0.00     0.000 C 
BRANCH  18  19
ATOM     19  C   UNL     1     -28.744 -13.032   3.082  1.00  0.00     0.000 C 
BRANCH  19  20
ATOM     20  C   UNL     1     -29.017 -12.238   1.795  1.00  0.00     0.006 C 
BRANCH  20  21
ATOM     21  C   UNL     1     -30.032 -12.935   0.878  1.00  0.00     0.053 C 
BRANCH  21  22
ATOM     22  C   UNL     1     -30.538 -11.985  -0.162  1.00  0.00     0.041 C 
ATOM     23  O   UNL     1     -31.743 -11.620  -0.156  1.00  0.00    -0.550 OA
ATOM     24  O   UNL     1     -29.682 -11.516  -1.151  1.00  0.00    -0.550 OA
ENDBRANCH  21  22
ENDBRANCH  20  21
ENDBRANCH  19  20
ENDBRANCH  18  19
ENDBRANCH  17  18
ENDBRANCH  16  17
ENDBRANCH  15  16
ENDBRANCH  14  15
ENDBRANCH  13  14
ENDBRANCH   1  13
TORSDOF 20
ENDMDL
MODEL 5
REMARK VINA RESULT:    -2.770      1.953      2.630
REMARK INTER + INTRA:         -10.198
REMARK INTER:                  -7.108
REMARK INTRA:                  -3.090
REMARK UNBOUND:                -4.189
REMARK SMILES CCCCCCCCCCCCCCCCCCCCCC(=O)[O-]
REMARK SMILES IDX 12 1 11 2 10 3 9 4 8 5 7 6 6 7 5 8 4 9 3 10 2 11 1 12 13 13
REMARK SMILES IDX 14 14 15 15 16 16 17 17 18 18 19 19 20 20 21 21 22 22 23 23
REMARK SMILES IDX 24 24
REMARK H PARENT
REMARK Flexibility Score: inf
ROOT
ATOM      1  C   UNL     1     -24.883 -15.611   3.224  1.00  0.00     0.000 C 
ENDROOT
BRANCH   1   2
ATOM      2  C   UNL     1     -23.889 -14.438   3.298  1.00  0.00     0.000 C 
BRANCH   2   3
ATOM      3  C   UNL     1     -23.925 -13.709   4.649  1.00  0.00     0.000 C 
BRANCH   3   4
ATOM      4  C   UNL     1     -24.539 -12.300   4.548  1.00  0.00    -0.000 C 
BRANCH   4   5
ATOM      5  C   UNL     1     -26.039 -12.274   4.887  1.00  0.00    -0.000 C 
BRANCH   5   6
ATOM      6  C   UNL     1     -26.977 -12.478   3.683  1.00  0.00    -0.000 C 
BRANCH   6   7
ATOM      7  C   UNL     1     -28.416 -12.842   4.094  1.00  0.00    -0.000 C 
BRANCH   7   8
ATOM      8  C   UNL     1     -29.465 -12.219   3.151  1.00  0.00    -0.000 C 
BRANCH   8   9
ATOM      9  C   UNL     1     -29.050 -12.236   1.671  1.00  0.00    -0.000 C 
BRANCH   9  10
ATOM     10  C   UNL     1     -30.009 -13.058   0.793  1.00  0.00    -0.000 C 
BRANCH  10  11
ATOM     11  C   UNL     1     -30.573 -12.246  -0.384  1.00  0.00    -0.003 C 
ATOM     12  C   UNL     1     -29.511 -11.381  -1.065  1.00  0.00     0.004 C 
ENDBRANCH  10  11
ENDBRANCH   9  10
ENDBRANCH   8   9
ENDBRANCH   7   8
ENDBRANCH   6   7
ENDBRANCH   5   6
ENDBRANCH   4   5
ENDBRANCH   3   4
ENDBRANCH   2   3
ENDBRANCH   1   2
BRANCH   1  13
ATOM     13  C   UNL     1     -25.459 -15.986   4.607  1.00  0.00     0.000 C 
BRANCH  13  14
ATOM     14  C   UNL     1     -26.964 -16.320   4.593  1.00  0.00     0.000 C 
BRANCH  14  15
ATOM     15  C   UNL     1     -27.525 -16.755   3.228  1.00  0.00     0.000 C 
BRANCH  15  16
ATOM     16  C   UNL     1     -28.885 -16.118   2.908  1.00  0.00     0.000 C 
BRANCH  16  17
ATOM     17  C   UNL     1     -29.406 -16.592   1.545  1.00  0.00     0.000 C 
BRANCH  17  18
ATOM     18  C   UNL     1     -30.910 -16.889   1.606  1.00  0.00     0.000 C 
BRANCH  18  19
ATOM     19  C   UNL     1     -31.322 -17.361   3.008  1.00  0.00     0.000 C 
BRANCH  19  20
ATOM     20  C   UNL     1     -32.539 -16.598   3.555  1.00  0.00     0.006 C 
BRANCH  20  21
ATOM     21  C   UNL     1     -32.516 -15.109   3.183  1.00  0.00     0.053 C 
BRANCH  21  22
ATOM     22  C   UNL     1     -32.194 -14.274   4.383  1.00  0.00     0.041 C 
ATOM     23  O   UNL     1     -31.511 -14.754   5.326  1.00  0.00    -0.550 OA
ATOM     24  O   UNL     1     -32.662 -12.968   4.468  1.00  0.00    -0.550 OA
ENDBRANCH  21  22
ENDBRANCH  20  21
ENDBRANCH  19  20
ENDBRANCH  18  19
ENDBRANCH  17  18
ENDBRANCH  16  17
ENDBRANCH  15  16
ENDBRANCH  14  15
ENDBRANCH  13  14
ENDBRANCH   1  13
TORSDOF 20
ENDMDL
MODEL 6
REMARK VINA RESULT:    -2.768      2.340      5.771
REMARK INTER + INTRA:         -10.195
REMARK INTER:                  -6.500
REMARK INTRA:                  -3.695
REMARK UNBOUND:                -4.189
REMARK SMILES CCCCCCCCCCCCCCCCCCCCCC(=O)[O-]
REMARK SMILES IDX 12 1 11 2 10 3 9 4 8 5 7 6 6 7 5 8 4 9 3 10 2 11 1 12 13 13
REMARK SMILES IDX 14 14 15 15 16 16 17 17 18 18 19 19 20 20 21 21 22 22 23 23
REMARK SMILES IDX 24 24
REMARK H PARENT
REMARK Flexibility Score: inf
ROOT
ATOM      1  C   UNL     1     -27.018 -16.721   3.052  1.00  0.00     0.000 C 
ENDROOT
BRANCH   1   2
ATOM      2  C   UNL     1     -27.699 -16.471   4.409  1.00  0.00     0.000 C 
BRANCH   2   3
ATOM      3  C   UNL     1     -28.906 -15.526   4.307  1.00  0.00     0.000 C 
BRANCH   3   4
ATOM      4  C   UNL     1     -29.381 -15.324   2.857  1.00  0.00    -0.000 C 
BRANCH   4   5
ATOM      5  C   UNL     1     -30.909 -15.179   2.741  1.00  0.00    -0.000 C 
BRANCH   5   6
ATOM      6  C   UNL     1     -31.657 -16.484   2.412  1.00  0.00    -0.000 C 
BRANCH   6   7
ATOM      7  C   UNL     1     -30.896 -17.379   1.416  1.00  0.00    -0.000 C 
BRANCH   7   8
ATOM      8  C   UNL     1     -30.823 -18.845   1.891  1.00  0.00    -0.000 C 
BRANCH   8   9
ATOM      9  C   UNL     1     -29.411 -19.288   2.307  1.00  0.00    -0.000 C 
BRANCH   9  10
ATOM     10  C   UNL     1     -29.355 -19.824   3.748  1.00  0.00    -0.000 C 
BRANCH  10  11
ATOM     11  C   UNL     1     -30.266 -19.039   4.705  1.00  0.00    -0.003 C 
ATOM     12  C   UNL     1     -31.249 -19.942   5.453  1.00  0.00     0.004 C 
ENDBRANCH  10  11
ENDBRANCH   9  10
ENDBRANCH   8   9
ENDBRANCH   7   8
ENDBRANCH   6   7
ENDBRANCH   5   6
ENDBRANCH   4   5
ENDBRANCH   3   4
ENDBRANCH   2   3
ENDBRANCH   1   2
BRANCH   1  13
ATOM     13  C   UNL     1     -25.551 -16.241   3.029  1.00  0.00     0.000 C 
BRANCH  13  14
ATOM     14  C   UNL     1     -25.143 -15.401   4.256  1.00  0.00     0.000 C 
BRANCH  14  15
ATOM     15  C   UNL     1     -24.750 -13.945   3.950  1.00  0.00     0.000 C 
BRANCH  15  16
ATOM     16  C   UNL     1     -25.650 -12.921   4.657  1.00  0.00     0.000 C 
BRANCH  16  17
ATOM     17  C   UNL     1     -26.829 -12.518   3.762  1.00  0.00     0.000 C 
BRANCH  17  18
ATOM     18  C   UNL     1     -27.979 -11.938   4.598  1.00  0.00     0.000 C 
BRANCH  18  19
ATOM     19  C   UNL     1     -29.124 -11.453   3.696  1.00  0.00     0.000 C 
BRANCH  19  20
ATOM     20  C   UNL     1     -28.946 -11.884   2.232  1.00  0.00     0.006 C 
BRANCH  20  21
ATOM     21  C   UNL     1     -30.183 -11.579   1.375  1.00  0.00     0.053 C 
BRANCH  21  22
ATOM     22  C   UNL     1     -30.038 -12.183   0.013  1.00  0.00     0.041 C 
ATOM     23  O   UNL     1     -29.911 -13.429  -0.120  1.00  0.00    -0.550 OA
ATOM     24  O   UNL     1     -30.027 -11.366  -1.112  1.00  0.00    -0.550 OA
ENDBRANCH  21  22
ENDBRANCH  20  21
ENDBRANCH  19  20
ENDBRANCH  18  19
ENDBRANCH  17  18
ENDBRANCH  16  17
ENDBRANCH  15  16
ENDBRANCH  14  15
ENDBRANCH  13  14
ENDBRANCH   1  13
TORSDOF 20
ENDMDL
MODEL 7
REMARK VINA RESULT:    -2.729     12.314     15.446
REMARK INTER + INTRA:         -10.109
REMARK INTER:                  -7.692
REMARK INTRA:                  -2.416
REMARK UNBOUND:                -4.189
REMARK SMILES CCCCCCCCCCCCCCCCCCCCCC(=O)[O-]
REMARK SMILES IDX 12 1 11 2 10 3 9 4 8 5 7 6 6 7 5 8 4 9 3 10 2 11 1 12 13 13
REMARK SMILES IDX 14 14 15 15 16 16 17 17 18 18 19 19 20 20 21 21 22 22 23 23
REMARK SMILES IDX 24 24
REMARK H PARENT
REMARK Flexibility Score: inf
ROOT
ATOM      1  C   UNL     1     -18.773 -27.222  -2.383  1.00  0.00     0.000 C 
ENDROOT
BRANCH   1   2
ATOM      2  C   UNL     1     -19.655 -28.176  -3.208  1.00  0.00     0.000 C 
BRANCH   2   3
ATOM      3  C   UNL     1     -20.069 -29.432  -2.427  1.00  0.00     0.000 C 
BRANCH   3   4
ATOM      4  C   UNL     1     -19.686 -29.359  -0.937  1.00  0.00    -0.000 C 
BRANCH   4   5
ATOM      5  C   UNL     1     -20.889 -29.060  -0.024  1.00  0.00    -0.000 C 
BRANCH   5   6
ATOM      6  C   UNL     1     -20.775 -27.755   0.786  1.00  0.00    -0.000 C 
BRANCH   6   7
ATOM      7  C   UNL     1     -21.584 -26.595   0.176  1.00  0.00    -0.000 C 
BRANCH   7   8
ATOM      8  C   UNL     1     -22.535 -27.074  -0.940  1.00  0.00    -0.000 C 
BRANCH   8   9
ATOM      9  C   UNL     1     -23.095 -25.931  -1.803  1.00  0.00    -0.000 C 
BRANCH   9  10
ATOM     10  C   UNL     1     -22.514 -24.558  -1.424  1.00  0.00    -0.000 C 
BRANCH  10  11
ATOM     11  C   UNL     1     -23.604 -23.500  -1.194  1.00  0.00    -0.003 C 
ATOM     12  C   UNL     1     -24.048 -23.420   0.268  1.00  0.00     0.004 C 
ENDBRANCH  10  11
ENDBRANCH   9  10
ENDBRANCH   8   9
ENDBRANCH   7   8
ENDBRANCH   6   7
ENDBRANCH   5   6
ENDBRANCH   4   5
ENDBRANCH   3   4
ENDBRANCH   2   3
ENDBRANCH   1   2
BRANCH   1  13
ATOM     13  C   UNL     1     -19.206 -25.746  -2.523  1.00  0.00     0.000 C 
BRANCH  13  14
ATOM     14  C   UNL     1     -19.424 -25.289  -3.979  1.00  0.00     0.000 C 
BRANCH  14  15
ATOM     15  C   UNL     1     -20.330 -24.056  -4.148  1.00  0.00     0.000 C 
BRANCH  15  16
ATOM     16  C   UNL     1     -19.762 -22.799  -3.474  1.00  0.00     0.000 C 
BRANCH  16  17
ATOM     17  C   UNL     1     -19.610 -21.656  -4.486  1.00  0.00     0.000 C 
BRANCH  17  18
ATOM     18  C   UNL     1     -19.579 -20.295  -3.776  1.00  0.00     0.000 C 
BRANCH  18  19
ATOM     19  C   UNL     1     -18.557 -19.355  -4.433  1.00  0.00     0.000 C 
BRANCH  19  20
ATOM     20  C   UNL     1     -18.244 -18.125  -3.568  1.00  0.00     0.006 C 
BRANCH  20  21
ATOM     21  C   UNL     1     -16.937 -17.433  -3.979  1.00  0.00     0.053 C 
BRANCH  21  22
ATOM     22  C   UNL     1     -16.546 -16.405  -2.963  1.00  0.00     0.041 C 
ATOM     23  O   UNL     1     -15.344 -16.047  -2.853  1.00  0.00    -0.550 OA
ATOM     24  O   UNL     1     -17.508 -15.854  -2.125  1.00  0.00    -0.550 OA
ENDBRANCH  21  22
ENDBRANCH  20  21
ENDBRANCH  19  20
ENDBRANCH  18  19
ENDBRANCH  17  18
ENDBRANCH  16  17
ENDBRANCH  15  16
ENDBRANCH  14  15
ENDBRANCH  13  14
ENDBRANCH   1  13
TORSDOF 20
ENDMDL
MODEL 8
REMARK VINA RESULT:    -2.714      2.629      5.120
REMARK INTER + INTRA:         -10.075
REMARK INTER:                  -6.535
REMARK INTRA:                  -3.540
REMARK UNBOUND:                -4.189
REMARK SMILES CCCCCCCCCCCCCCCCCCCCCC(=O)[O-]
REMARK SMILES IDX 12 1 11 2 10 3 9 4 8 5 7 6 6 7 5 8 4 9 3 10 2 11 1 12 13 13
REMARK SMILES IDX 14 14 15 15 16 16 17 17 18 18 19 19 20 20 21 21 22 22 23 23
REMARK SMILES IDX 24 24
REMARK H PARENT
REMARK Flexibility Score: inf
ROOT
ATOM      1  C   UNL     1     -28.199 -17.385   2.632  1.00  0.00     0.000 C 
ENDROOT
BRANCH   1   2
ATOM      2  C   UNL     1     -29.192 -16.472   1.892  1.00  0.00     0.000 C 
BRANCH   2   3
ATOM      3  C   UNL     1     -30.540 -17.155   1.616  1.00  0.00     0.000 C 
BRANCH   3   4
ATOM      4  C   UNL     1     -31.716 -16.457   2.323  1.00  0.00    -0.000 C 
BRANCH   4   5
ATOM      5  C   UNL     1     -31.291 -15.718   3.604  1.00  0.00    -0.000 C 
BRANCH   5   6
ATOM      6  C   UNL     1     -32.158 -14.495   3.960  1.00  0.00    -0.000 C 
BRANCH   6   7
ATOM      7  C   UNL     1     -32.604 -13.693   2.724  1.00  0.00    -0.000 C 
BRANCH   7   8
ATOM      8  C   UNL     1     -33.831 -12.806   3.019  1.00  0.00    -0.000 C 
BRANCH   8   9
ATOM      9  C   UNL     1     -33.498 -11.548   3.838  1.00  0.00    -0.000 C 
BRANCH   9  10
ATOM     10  C   UNL     1     -32.180 -10.884   3.402  1.00  0.00    -0.000 C 
BRANCH  10  11
ATOM     11  C   UNL     1     -31.377 -10.330   4.589  1.00  0.00    -0.003 C 
ATOM     12  C   UNL     1     -31.165 -11.368   5.692  1.00  0.00     0.004 C 
ENDBRANCH  10  11
ENDBRANCH   9  10
ENDBRANCH   8   9
ENDBRANCH   7   8
ENDBRANCH   6   7
ENDBRANCH   5   6
ENDBRANCH   4   5
ENDBRANCH   3   4
ENDBRANCH   2   3
ENDBRANCH   1   2
BRANCH   1  13
ATOM     13  C   UNL     1     -27.423 -16.640   3.739  1.00  0.00     0.000 C 
BRANCH  13  14
ATOM     14  C   UNL     1     -26.008 -16.187   3.322  1.00  0.00     0.000 C 
BRANCH  14  15
ATOM     15  C   UNL     1     -25.414 -15.044   4.163  1.00  0.00     0.000 C 
BRANCH  15  16
ATOM     16  C   UNL     1     -25.925 -13.659   3.737  1.00  0.00     0.000 C 
BRANCH  16  17
ATOM     17  C   UNL     1     -26.982 -13.140   4.720  1.00  0.00     0.000 C 
BRANCH  17  18
ATOM     18  C   UNL     1     -28.019 -12.266   3.999  1.00  0.00     0.000 C 
BRANCH  18  19
ATOM     19  C   UNL     1     -28.719 -13.053   2.880  1.00  0.00     0.000 C 
BRANCH  19  20
ATOM     20  C   UNL     1     -29.230 -12.146   1.751  1.00  0.00     0.006 C 
BRANCH  20  21
ATOM     21  C   UNL     1     -29.897 -12.938   0.617  1.00  0.00     0.053 C 
BRANCH  21  22
ATOM     22  C   UNL     1     -30.566 -12.009  -0.348  1.00  0.00     0.041 C 
ATOM     23  O   UNL     1     -29.973 -11.651  -1.399  1.00  0.00    -0.550 OA
ATOM     24  O   UNL     1     -31.840 -11.524  -0.077  1.00  0.00    -0.550 OA
ENDBRANCH  21  22
ENDBRANCH  20  21
ENDBRANCH  19  20
ENDBRANCH  18  19
ENDBRANCH  17  18
ENDBRANCH  16  17
ENDBRANCH  15  16
ENDBRANCH  14  15
ENDBRANCH  13  14
ENDBRANCH   1  13
TORSDOF 20
ENDMDL
MODEL 9
REMARK VINA RESULT:    -2.689      1.596      2.871
REMARK INTER + INTRA:         -10.022
REMARK INTER:                  -6.545
REMARK INTRA:                  -3.477
REMARK UNBOUND:                -4.189
REMARK SMILES CCCCCCCCCCCCCCCCCCCCCC(=O)[O-]
REMARK SMILES IDX 12 1 11 2 10 3 9 4 8 5 7 6 6 7 5 8 4 9 3 10 2 11 1 12 13 13
REMARK SMILES IDX 14 14 15 15 16 16 17 17 18 18 19 19 20 20 21 21 22 22 23 23
REMARK SMILES IDX 24 24
REMARK H PARENT
REMARK Flexibility Score: inf
ROOT
ATOM      1  C   UNL     1     -26.760 -16.280   3.346  1.00  0.00     0.000 C 
ENDROOT
BRANCH   1   2
ATOM      2  C   UNL     1     -25.379 -15.843   3.868  1.00  0.00     0.000 C 
BRANCH   2   3
ATOM      3  C   UNL     1     -24.359 -15.621   2.741  1.00  0.00     0.000 C 
BRANCH   3   4
ATOM      4  C   UNL     1     -23.519 -14.346   2.943  1.00  0.00    -0.000 C 
BRANCH   4   5
ATOM      5  C   UNL     1     -23.580 -13.811   4.385  1.00  0.00    -0.000 C 
BRANCH   5   6
ATOM      6  C   UNL     1     -24.167 -12.394   4.522  1.00  0.00    -0.000 C 
BRANCH   6   7
ATOM      7  C   UNL     1     -25.485 -12.363   5.318  1.00  0.00    -0.000 C 
BRANCH   7   8
ATOM      8  C   UNL     1     -26.627 -11.692   4.527  1.00  0.00    -0.000 C 
BRANCH   8   9
ATOM      9  C   UNL     1     -27.141 -12.539   3.351  1.00  0.00    -0.000 C 
BRANCH   9  10
ATOM     10  C   UNL     1     -28.600 -12.221   2.982  1.00  0.00    -0.000 C 
BRANCH  10  11
ATOM     11  C   UNL     1     -29.191 -13.234   1.989  1.00  0.00    -0.003 C 
ATOM     12  C   UNL     1     -29.932 -12.561   0.832  1.00  0.00     0.004 C 
ENDBRANCH  10  11
ENDBRANCH   9  10
ENDBRANCH   8   9
ENDBRANCH   7   8
ENDBRANCH   6   7
ENDBRANCH   5   6
ENDBRANCH   4   5
ENDBRANCH   3   4
ENDBRANCH   2   3
ENDBRANCH   1   2
BRANCH   1  13
ATOM     13  C   UNL     1     -27.760 -16.565   4.487  1.00  0.00     0.000 C 
BRANCH  13  14
ATOM     14  C   UNL     1     -27.982 -15.375   5.443  1.00  0.00     0.000 C 
BRANCH  14  15
ATOM     15  C   UNL     1     -29.420 -14.829   5.483  1.00  0.00     0.000 C 
BRANCH  15  16
ATOM     16  C   UNL     1     -30.421 -15.723   4.735  1.00  0.00     0.000 C 
BRANCH  16  17
ATOM     17  C   UNL     1     -31.634 -14.910   4.263  1.00  0.00     0.000 C 
BRANCH  17  18
ATOM     18  C   UNL     1     -32.047 -15.318   2.842  1.00  0.00     0.000 C 
BRANCH  18  19
ATOM     19  C   UNL     1     -31.036 -16.303   2.236  1.00  0.00     0.000 C 
BRANCH  19  20
ATOM     20  C   UNL     1     -31.690 -17.618   1.783  1.00  0.00     0.006 C 
BRANCH  20  21
ATOM     21  C   UNL     1     -30.951 -18.856   2.311  1.00  0.00     0.053 C 
BRANCH  21  22
ATOM     22  C   UNL     1     -31.728 -19.500   3.415  1.00  0.00     0.041 C 
ATOM     23  O   UNL     1     -32.082 -18.827   4.419  1.00  0.00    -0.550 OA
ATOM     24  O   UNL     1     -32.048 -20.851   3.344  1.00  0.00    -0.550 OA
ENDBRANCH  21  22
ENDBRANCH  20  21
ENDBRANCH  19  20
ENDBRANCH  18  19
ENDBRANCH  17  18
ENDBRANCH  16  17
ENDBRANCH  15  16
ENDBRANCH  14  15
ENDBRANCH  13  14
ENDBRANCH   1  13
TORSDOF 20
ENDMDL
