MODEL 1
REMARK VINA RESULT:    -4.902      0.000      0.000
REMARK INTER + INTRA:          -5.485
REMARK INTER:                  -5.332
REMARK INTRA:                  -0.153
REMARK UNBOUND:                -0.153
REMARK SMILES CC1=CC[C@@H](C(C)(C)O)CC1
REMARK SMILES IDX 6 1 7 2 8 3 5 4 1 5 2 6 3 7 11 8 4 9 10 10 9 11
REMARK H PARENT 9 12
REMARK Flexibility Score: inf
ROOT
ATOM      1  C   UNL     1      -1.458  19.370  49.009  1.00  0.00     0.062 C 
ATOM      2  C   UNL     1      -0.277  20.338  49.248  1.00  0.00     0.042 C 
ATOM      3  C   UNL     1      -2.785  20.166  49.079  1.00  0.00     0.042 C 
ENDROOT
BRANCH   1   4
ATOM      4  C   UNL     1      -1.289  18.628  47.638  1.00  0.00     0.024 C 
ATOM      5  C   UNL     1      -0.063  15.942  44.482  1.00  0.00     0.039 C 
ATOM      6  C   UNL     1      -0.381  16.559  45.816  1.00  0.00    -0.077 C 
ATOM      7  C   UNL     1      -1.641  16.550  46.281  1.00  0.00    -0.028 C 
ATOM      8  C   UNL     1       0.685  17.235  46.644  1.00  0.00     0.031 C 
ATOM      9  C   UNL     1      -1.948  17.221  47.592  1.00  0.00     0.034 C 
ATOM     10  C   UNL     1       0.200  18.610  47.139  1.00  0.00     0.011 C 
ENDBRANCH   1   4
BRANCH   1  11
ATOM     11  O   UNL     1      -1.446  18.393  50.027  1.00  0.00    -0.390 OA
ATOM     12  H   UNL     1      -0.714  18.608  50.664  1.00  0.00     0.211 HD
ENDBRANCH   1  11
TORSDOF 2
ENDMDL
MODEL 2
REMARK VINA RESULT:    -4.671      1.870      4.610
REMARK INTER + INTRA:          -5.234
REMARK INTER:                  -5.025
REMARK INTRA:                  -0.208
REMARK UNBOUND:                -0.153
REMARK SMILES CC1=CC[C@@H](C(C)(C)O)CC1
REMARK SMILES IDX 6 1 7 2 8 3 5 4 1 5 2 6 3 7 11 8 4 9 10 10 9 11
REMARK H PARENT 9 12
REMARK Flexibility Score: inf
ROOT
ATOM      1  C   UNL     1      -0.761  17.112  46.401  1.00  0.00     0.062 C 
ATOM      2  C   UNL     1       0.775  17.010  46.251  1.00  0.00     0.042 C 
ATOM      3  C   UNL     1      -1.273  15.882  47.192  1.00  0.00     0.042 C 
ENDROOT
BRANCH   1   4
ATOM      4  C   UNL     1      -1.155  18.462  47.095  1.00  0.00     0.024 C 
ATOM      5  C   UNL     1      -2.300  21.493  49.954  1.00  0.00     0.039 C 
ATOM      6  C   UNL     1      -1.749  20.259  49.295  1.00  0.00    -0.077 C 
ATOM      7  C   UNL     1      -0.548  20.292  48.696  1.00  0.00    -0.028 C 
ATOM      8  C   UNL     1      -2.537  18.972  49.252  1.00  0.00     0.031 C 
ATOM      9  C   UNL     1      -0.039  19.063  47.995  1.00  0.00     0.034 C 
ATOM     10  C   UNL     1      -2.541  18.383  47.829  1.00  0.00     0.011 C 
ENDBRANCH   1   4
BRANCH   1  11
ATOM     11  O   UNL     1      -1.336  17.110  45.113  1.00  0.00    -0.390 OA
ATOM     12  H   UNL     1      -0.605  17.067  44.440  1.00  0.00     0.211 HD
ENDBRANCH   1  11
TORSDOF 2
ENDMDL
MODEL 3
REMARK VINA RESULT:    -4.655      1.534      2.036
REMARK INTER + INTRA:          -5.216
REMARK INTER:                  -5.012
REMARK INTRA:                  -0.204
REMARK UNBOUND:                -0.153
REMARK SMILES CC1=CC[C@@H](C(C)(C)O)CC1
REMARK SMILES IDX 6 1 7 2 8 3 5 4 1 5 2 6 3 7 11 8 4 9 10 10 9 11
REMARK H PARENT 9 12
REMARK Flexibility Score: inf
ROOT
ATOM      1  C   UNL     1      -2.267  18.883  48.098  1.00  0.00     0.062 C 
ATOM      2  C   UNL     1      -3.464  17.983  48.482  1.00  0.00     0.042 C 
ATOM      3  C   UNL     1      -1.578  19.385  49.391  1.00  0.00     0.042 C 
ENDROOT
BRANCH   1   4
ATOM      4  C   UNL     1      -1.274  18.104  47.167  1.00  0.00     0.024 C 
ATOM      5  C   UNL     1       2.129  15.971  45.570  1.00  0.00     0.039 C 
ATOM      6  C   UNL     1       1.085  16.559  46.479  1.00  0.00    -0.077 C 
ATOM      7  C   UNL     1      -0.104  15.954  46.622  1.00  0.00    -0.028 C 
ATOM      8  C   UNL     1       1.327  17.854  47.217  1.00  0.00     0.031 C 
ATOM      9  C   UNL     1      -1.154  16.588  47.494  1.00  0.00     0.034 C 
ATOM     10  C   UNL     1       0.127  18.806  47.054  1.00  0.00     0.011 C 
ENDBRANCH   1   4
BRANCH   1  11
ATOM     11  O   UNL     1      -2.756  19.988  47.370  1.00  0.00    -0.390 OA
ATOM     12  H   UNL     1      -3.748  19.985  47.418  1.00  0.00     0.211 HD
ENDBRANCH   1  11
TORSDOF 2
ENDMDL
MODEL 4
REMARK VINA RESULT:    -4.615      1.710      4.479
REMARK INTER + INTRA:          -5.172
REMARK INTER:                  -5.003
REMARK INTRA:                  -0.169
REMARK UNBOUND:                -0.153
REMARK SMILES CC1=CC[C@@H](C(C)(C)O)CC1
REMARK SMILES IDX 6 1 7 2 8 3 5 4 1 5 2 6 3 7 11 8 4 9 10 10 9 11
REMARK H PARENT 9 12
REMARK Flexibility Score: inf
ROOT
ATOM      1  C   UNL     1      -1.536  17.220  47.315  1.00  0.00     0.062 C 
ATOM      2  C   UNL     1      -0.498  17.470  46.197  1.00  0.00     0.042 C 
ATOM      3  C   UNL     1      -1.213  15.875  48.012  1.00  0.00     0.042 C 
ENDROOT
BRANCH   1   4
ATOM      4  C   UNL     1      -1.550  18.418  48.327  1.00  0.00     0.024 C 
ATOM      5  C   UNL     1      -1.486  22.345  50.130  1.00  0.00     0.039 C 
ATOM      6  C   UNL     1      -1.655  21.189  49.183  1.00  0.00    -0.077 C 
ATOM      7  C   UNL     1      -2.750  20.415  49.250  1.00  0.00    -0.028 C 
ATOM      8  C   UNL     1      -0.593  20.844  48.168  1.00  0.00     0.031 C 
ATOM      9  C   UNL     1      -2.875  19.232  48.331  1.00  0.00     0.034 C 
ATOM     10  C   UNL     1      -0.282  19.336  48.196  1.00  0.00     0.011 C 
ENDBRANCH   1   4
BRANCH   1  11
ATOM     11  O   UNL     1      -2.816  17.145  46.726  1.00  0.00    -0.390 OA
ATOM     12  H   UNL     1      -3.191  18.063  46.664  1.00  0.00     0.211 HD
ENDBRANCH   1  11
TORSDOF 2
ENDMDL
MODEL 5
REMARK VINA RESULT:    -4.596      1.708      4.430
REMARK INTER + INTRA:          -5.152
REMARK INTER:                  -4.962
REMARK INTRA:                  -0.190
REMARK UNBOUND:                -0.153
REMARK SMILES CC1=CC[C@@H](C(C)(C)O)CC1
REMARK SMILES IDX 6 1 7 2 8 3 5 4 1 5 2 6 3 7 11 8 4 9 10 10 9 11
REMARK H PARENT 9 12
REMARK Flexibility Score: inf
ROOT
ATOM      1  C   UNL     1      -0.429  17.169  47.444  1.00  0.00     0.062 C 
ATOM      2  C   UNL     1      -1.241  15.876  47.691  1.00  0.00     0.042 C 
ATOM      3  C   UNL     1      -0.540  17.557  45.948  1.00  0.00     0.042 C 
ENDROOT
BRANCH   1   4
ATOM      4  C   UNL     1      -0.929  18.317  48.387  1.00  0.00     0.024 C 
ATOM      5  C   UNL     1      -2.232  22.110  49.999  1.00  0.00     0.039 C 
ATOM      6  C   UNL     1      -1.927  20.950  49.091  1.00  0.00    -0.077 C 
ATOM      7  C   UNL     1      -2.762  19.901  49.032  1.00  0.00    -0.028 C 
ATOM      8  C   UNL     1      -0.667  20.914  48.260  1.00  0.00     0.031 C 
ATOM      9  C   UNL     1      -2.411  18.727  48.159  1.00  0.00     0.034 C 
ATOM     10  C   UNL     1       0.040  19.553  48.402  1.00  0.00     0.011 C 
ENDBRANCH   1   4
BRANCH   1  11
ATOM     11  O   UNL     1       0.922  16.914  47.760  1.00  0.00    -0.390 OA
ATOM     12  H   UNL     1       1.382  17.782  47.906  1.00  0.00     0.211 HD
ENDBRANCH   1  11
TORSDOF 2
ENDMDL
MODEL 6
REMARK VINA RESULT:    -4.496      9.305     10.651
REMARK INTER + INTRA:          -5.043
REMARK INTER:                  -4.828
REMARK INTRA:                  -0.215
REMARK UNBOUND:                -0.153
REMARK SMILES CC1=CC[C@@H](C(C)(C)O)CC1
REMARK SMILES IDX 6 1 7 2 8 3 5 4 1 5 2 6 3 7 11 8 4 9 10 10 9 11
REMARK H PARENT 9 12
REMARK Flexibility Score: inf
ROOT
ATOM      1  C   UNL     1       7.769  19.849  42.269  1.00  0.00     0.062 C 
ATOM      2  C   UNL     1       6.949  18.681  42.864  1.00  0.00     0.042 C 
ATOM      3  C   UNL     1       8.889  19.272  41.368  1.00  0.00     0.042 C 
ENDROOT
BRANCH   1   4
ATOM      4  C   UNL     1       6.832  20.832  41.485  1.00  0.00     0.024 C 
ATOM      5  C   UNL     1       3.949  22.553  38.764  1.00  0.00     0.039 C 
ATOM      6  C   UNL     1       4.724  21.619  39.652  1.00  0.00    -0.077 C 
ATOM      7  C   UNL     1       4.503  21.606  40.976  1.00  0.00    -0.028 C 
ATOM      8  C   UNL     1       5.789  20.707  39.092  1.00  0.00     0.031 C 
ATOM      9  C   UNL     1       5.327  20.703  41.853  1.00  0.00     0.034 C 
ATOM     10  C   UNL     1       7.076  20.793  39.934  1.00  0.00     0.011 C 
ENDBRANCH   1   4
BRANCH   1  11
ATOM     11  O   UNL     1       8.351  20.571  43.332  1.00  0.00    -0.390 OA
ATOM     12  H   UNL     1       7.768  20.484  44.132  1.00  0.00     0.211 HD
ENDBRANCH   1  11
TORSDOF 2
ENDMDL
MODEL 7
REMARK VINA RESULT:    -4.484      2.626      4.461
REMARK INTER + INTRA:          -5.030
REMARK INTER:                  -4.873
REMARK INTRA:                  -0.157
REMARK UNBOUND:                -0.153
REMARK SMILES CC1=CC[C@@H](C(C)(C)O)CC1
REMARK SMILES IDX 6 1 7 2 8 3 5 4 1 5 2 6 3 7 11 8 4 9 10 10 9 11
REMARK H PARENT 9 12
REMARK Flexibility Score: inf
ROOT
ATOM      1  C   UNL     1      -0.382  16.939  46.080  1.00  0.00     0.062 C 
ATOM      2  C   UNL     1      -0.557  16.238  44.713  1.00  0.00     0.042 C 
ATOM      3  C   UNL     1      -1.556  16.537  47.007  1.00  0.00     0.042 C 
ENDROOT
BRANCH   1   4
ATOM      4  C   UNL     1       1.010  16.581  46.705  1.00  0.00     0.024 C 
ATOM      5  C   UNL     1       5.239  16.245  47.533  1.00  0.00     0.039 C 
ATOM      6  C   UNL     1       3.887  16.712  47.068  1.00  0.00    -0.077 C 
ATOM      7  C   UNL     1       3.066  17.353  47.914  1.00  0.00    -0.028 C 
ATOM      8  C   UNL     1       3.403  16.441  45.664  1.00  0.00     0.031 C 
ATOM      9  C   UNL     1       1.697  17.764  47.445  1.00  0.00     0.034 C 
ATOM     10  C   UNL     1       1.970  15.875  45.682  1.00  0.00     0.011 C 
ENDBRANCH   1   4
BRANCH   1  11
ATOM     11  O   UNL     1      -0.410  18.335  45.870  1.00  0.00    -0.390 OA
ATOM     12  H   UNL     1      -0.786  18.512  44.968  1.00  0.00     0.211 HD
ENDBRANCH   1  11
TORSDOF 2
ENDMDL
MODEL 8
REMARK VINA RESULT:    -4.426      9.336     10.714
REMARK INTER + INTRA:          -4.967
REMARK INTER:                  -4.759
REMARK INTRA:                  -0.208
REMARK UNBOUND:                -0.153
REMARK SMILES CC1=CC[C@@H](C(C)(C)O)CC1
REMARK SMILES IDX 6 1 7 2 8 3 5 4 1 5 2 6 3 7 11 8 4 9 10 10 9 11
REMARK H PARENT 9 12
REMARK Flexibility Score: inf
ROOT
ATOM      1  C   UNL     1       7.720  19.571  42.156  1.00  0.00     0.062 C 
ATOM      2  C   UNL     1       9.030  19.324  41.373  1.00  0.00     0.042 C 
ATOM      3  C   UNL     1       7.979  20.637  43.249  1.00  0.00     0.042 C 
ENDROOT
BRANCH   1   4
ATOM      4  C   UNL     1       6.570  19.999  41.179  1.00  0.00     0.024 C 
ATOM      5  C   UNL     1       3.711  22.251  38.848  1.00  0.00     0.039 C 
ATOM      6  C   UNL     1       4.917  21.818  39.635  1.00  0.00    -0.077 C 
ATOM      7  C   UNL     1       5.898  21.120  39.040  1.00  0.00    -0.028 C 
ATOM      8  C   UNL     1       5.042  22.117  41.110  1.00  0.00     0.031 C 
ATOM      9  C   UNL     1       7.069  20.649  39.857  1.00  0.00     0.034 C 
ATOM     10  C   UNL     1       5.461  20.855  41.888  1.00  0.00     0.011 C 
ENDBRANCH   1   4
BRANCH   1  11
ATOM     11  O   UNL     1       7.332  18.361  42.768  1.00  0.00    -0.390 OA
ATOM     12  H   UNL     1       7.033  18.556  43.695  1.00  0.00     0.211 HD
ENDBRANCH   1  11
TORSDOF 2
ENDMDL
