MODEL 1
REMARK VINA RESULT:    -6.212      0.000      0.000
REMARK INTER + INTRA:          -7.165
REMARK INTER:                  -7.120
REMARK INTRA:                  -0.045
REMARK UNBOUND:                -0.045
REMARK SMILES O=C([O-])c1cc(O)c(O)c(O)c1
REMARK SMILES IDX 4 1 5 2 12 3 6 4 10 5 8 6 2 7 1 8 3 9 7 10 11 12 9 14
REMARK H PARENT 7 11 11 13 9 15
REMARK Flexibility Score: inf
ROOT
ATOM      1  C   UNL     1      13.623 -13.434  27.820  1.00  0.00     0.005 A 
ATOM      2  C   UNL     1      12.357 -13.817  27.346  1.00  0.00     0.060 A 
ATOM      3  C   UNL     1      13.736 -12.269  28.597  1.00  0.00     0.060 A 
ATOM      4  C   UNL     1      11.222 -13.055  27.642  1.00  0.00     0.162 A 
ATOM      5  C   UNL     1      12.604 -11.499  28.899  1.00  0.00     0.162 A 
ATOM      6  C   UNL     1      11.342 -11.891  28.422  1.00  0.00     0.200 A 
ENDROOT
BRANCH   1   7
ATOM      7  C   UNL     1      14.817 -14.248  27.499  1.00  0.00     0.072 C 
ATOM      8  O   UNL     1      15.669 -13.835  26.668  1.00  0.00    -0.545 OA
ATOM      9  O   UNL     1      15.016 -15.479  28.112  1.00  0.00    -0.545 OA
ENDBRANCH   1   7
BRANCH   4  10
ATOM     10  O   UNL     1       9.983 -13.469  27.154  1.00  0.00    -0.504 OA
ATOM     11  H   UNL     1       9.841 -13.712  26.182  1.00  0.00     0.293 HD
ENDBRANCH   4  10
BRANCH   5  12
ATOM     12  O   UNL     1      12.730 -10.346  29.672  1.00  0.00    -0.504 OA
ATOM     13  H   UNL     1      13.541 -10.184  30.257  1.00  0.00     0.293 HD
ENDBRANCH   5  12
BRANCH   6  14
ATOM     14  O   UNL     1      10.205 -11.136  28.713  1.00  0.00    -0.502 OA
ATOM     15  H   UNL     1      10.098 -10.637  29.587  1.00  0.00     0.293 HD
ENDBRANCH   6  14
TORSDOF 4
ENDMDL
MODEL 2
REMARK VINA RESULT:    -6.185      0.043      2.430
REMARK INTER + INTRA:          -7.134
REMARK INTER:                  -7.089
REMARK INTRA:                  -0.045
REMARK UNBOUND:                -0.045
REMARK SMILES O=C([O-])c1cc(O)c(O)c(O)c1
REMARK SMILES IDX 4 1 5 2 12 3 6 4 10 5 8 6 2 7 1 8 3 9 7 10 11 12 9 14
REMARK H PARENT 7 11 11 13 9 15
REMARK Flexibility Score: inf
ROOT
ATOM      1  C   UNL     1      13.583 -13.439  27.793  1.00  0.00     0.005 A 
ATOM      2  C   UNL     1      13.701 -12.279  28.576  1.00  0.00     0.060 A 
ATOM      3  C   UNL     1      12.314 -13.817  27.320  1.00  0.00     0.060 A 
ATOM      4  C   UNL     1      12.576 -11.506  28.881  1.00  0.00     0.162 A 
ATOM      5  C   UNL     1      11.182 -13.048  27.622  1.00  0.00     0.162 A 
ATOM      6  C   UNL     1      11.311 -11.888  28.404  1.00  0.00     0.200 A 
ENDROOT
BRANCH   1   7
ATOM      7  C   UNL     1      14.779 -14.251  27.477  1.00  0.00     0.072 C 
ATOM      8  O   UNL     1      15.636 -13.834  26.651  1.00  0.00    -0.545 OA
ATOM      9  O   UNL     1      14.977 -15.484  28.086  1.00  0.00    -0.545 OA
ENDBRANCH   1   7
BRANCH   4  10
ATOM     10  O   UNL     1      12.735 -10.360  29.660  1.00  0.00    -0.504 OA
ATOM     11  H   UNL     1      13.086  -9.492  29.276  1.00  0.00     0.293 HD
ENDBRANCH   4  10
BRANCH   5  12
ATOM     12  O   UNL     1       9.929 -13.432  27.146  1.00  0.00    -0.504 OA
ATOM     13  H   UNL     1       9.805 -14.275  26.597  1.00  0.00     0.293 HD
ENDBRANCH   5  12
BRANCH   6  14
ATOM     14  O   UNL     1      10.193 -11.111  28.714  1.00  0.00    -0.502 OA
ATOM     15  H   UNL     1       9.330 -11.173  28.189  1.00  0.00     0.293 HD
ENDBRANCH   6  14
TORSDOF 4
ENDMDL
MODEL 3
REMARK VINA RESULT:    -6.044      0.718      1.161
REMARK INTER + INTRA:          -6.973
REMARK INTER:                  -6.927
REMARK INTRA:                  -0.046
REMARK UNBOUND:                -0.045
REMARK SMILES O=C([O-])c1cc(O)c(O)c(O)c1
REMARK SMILES IDX 4 1 5 2 12 3 6 4 10 5 8 6 2 7 1 8 3 9 7 10 11 12 9 14
REMARK H PARENT 7 11 11 13 9 15
REMARK Flexibility Score: inf
ROOT
ATOM      1  C   UNL     1      13.580 -13.705  28.250  1.00  0.00     0.005 A 
ATOM      2  C   UNL     1      12.399 -13.685  27.489  1.00  0.00     0.060 A 
ATOM      3  C   UNL     1      13.691 -12.850  29.360  1.00  0.00     0.060 A 
ATOM      4  C   UNL     1      11.345 -12.830  27.828  1.00  0.00     0.162 A 
ATOM      5  C   UNL     1      12.640 -11.990  29.706  1.00  0.00     0.162 A 
ATOM      6  C   UNL     1      11.462 -11.978  28.940  1.00  0.00     0.200 A 
ENDROOT
BRANCH   1   7
ATOM      7  C   UNL     1      14.689 -14.613  27.882  1.00  0.00     0.072 C 
ATOM      8  O   UNL     1      14.981 -15.596  28.614  1.00  0.00    -0.545 OA
ATOM      9  O   UNL     1      15.424 -14.395  26.722  1.00  0.00    -0.545 OA
ENDBRANCH   1   7
BRANCH   4  10
ATOM     10  O   UNL     1      10.189 -12.841  27.049  1.00  0.00    -0.504 OA
ATOM     11  H   UNL     1      10.221 -12.881  26.038  1.00  0.00     0.293 HD
ENDBRANCH   4  10
BRANCH   5  12
ATOM     12  O   UNL     1      12.762 -11.147  30.811  1.00  0.00    -0.504 OA
ATOM     13  H   UNL     1      13.655 -10.990  31.263  1.00  0.00     0.293 HD
ENDBRANCH   5  12
BRANCH   6  14
ATOM     14  O   UNL     1      10.406 -11.128  29.271  1.00  0.00    -0.502 OA
ATOM     15  H   UNL     1       9.869 -11.240  30.122  1.00  0.00     0.293 HD
ENDBRANCH   6  14
TORSDOF 4
ENDMDL
MODEL 4
REMARK VINA RESULT:    -5.913      1.297      4.130
REMARK INTER + INTRA:          -6.823
REMARK INTER:                  -6.773
REMARK INTRA:                  -0.050
REMARK UNBOUND:                -0.045
REMARK SMILES O=C([O-])c1cc(O)c(O)c(O)c1
REMARK SMILES IDX 4 1 5 2 12 3 6 4 10 5 8 6 2 7 1 8 3 9 7 10 11 12 9 14
REMARK H PARENT 7 11 11 13 9 15
REMARK Flexibility Score: inf
ROOT
ATOM      1  C   UNL     1      12.029 -11.768  29.002  1.00  0.00     0.005 A 
ATOM      2  C   UNL     1      11.510 -12.449  27.889  1.00  0.00     0.060 A 
ATOM      3  C   UNL     1      13.216 -12.235  29.595  1.00  0.00     0.060 A 
ATOM      4  C   UNL     1      12.161 -13.573  27.371  1.00  0.00     0.162 A 
ATOM      5  C   UNL     1      13.874 -13.361  29.083  1.00  0.00     0.162 A 
ATOM      6  C   UNL     1      13.347 -14.034  27.967  1.00  0.00     0.200 A 
ENDROOT
BRANCH   1   7
ATOM      7  C   UNL     1      11.332 -10.579  29.542  1.00  0.00     0.072 C 
ATOM      8  O   UNL     1      11.984  -9.645  30.081  1.00  0.00    -0.545 OA
ATOM      9  O   UNL     1       9.949 -10.476  29.462  1.00  0.00    -0.545 OA
ENDBRANCH   1   7
BRANCH   4  10
ATOM     10  O   UNL     1      11.614 -14.220  26.263  1.00  0.00    -0.504 OA
ATOM     11  H   UNL     1      10.618 -14.371  26.164  1.00  0.00     0.293 HD
ENDBRANCH   4  10
BRANCH   5  12
ATOM     12  O   UNL     1      15.051 -13.814  29.678  1.00  0.00    -0.504 OA
ATOM     13  H   UNL     1      15.615 -13.211  30.266  1.00  0.00     0.293 HD
ENDBRANCH   5  12
BRANCH   6  14
ATOM     14  O   UNL     1      13.990 -15.158  27.444  1.00  0.00    -0.502 OA
ATOM     15  H   UNL     1      13.549 -15.764  26.764  1.00  0.00     0.293 HD
ENDBRANCH   6  14
TORSDOF 4
ENDMDL
MODEL 5
REMARK VINA RESULT:    -5.893      1.307      4.677
REMARK INTER + INTRA:          -6.800
REMARK INTER:                  -6.749
REMARK INTRA:                  -0.050
REMARK UNBOUND:                -0.045
REMARK SMILES O=C([O-])c1cc(O)c(O)c(O)c1
REMARK SMILES IDX 4 1 5 2 12 3 6 4 10 5 8 6 2 7 1 8 3 9 7 10 11 12 9 14
REMARK H PARENT 7 11 11 13 9 15
REMARK Flexibility Score: inf
ROOT
ATOM      1  C   UNL     1      12.023 -11.765  29.010  1.00  0.00     0.005 A 
ATOM      2  C   UNL     1      13.202 -12.243  29.604  1.00  0.00     0.060 A 
ATOM      3  C   UNL     1      11.506 -12.433  27.886  1.00  0.00     0.060 A 
ATOM      4  C   UNL     1      13.855 -13.369  29.091  1.00  0.00     0.162 A 
ATOM      5  C   UNL     1      12.154 -13.561  27.366  1.00  0.00     0.162 A 
ATOM      6  C   UNL     1      13.332 -14.033  27.969  1.00  0.00     0.200 A 
ENDROOT
BRANCH   1   7
ATOM      7  C   UNL     1      11.340 -10.573  29.560  1.00  0.00     0.072 C 
ATOM      8  O   UNL     1      12.004  -9.643  30.093  1.00  0.00    -0.545 OA
ATOM      9  O   UNL     1       9.956 -10.460  29.496  1.00  0.00    -0.545 OA
ENDBRANCH   1   7
BRANCH   4  10
ATOM     10  O   UNL     1      15.023 -13.813  29.711  1.00  0.00    -0.504 OA
ATOM     11  H   UNL     1      15.396 -14.741  29.556  1.00  0.00     0.293 HD
ENDBRANCH   4  10
BRANCH   5  12
ATOM     12  O   UNL     1      11.631 -14.216  26.251  1.00  0.00    -0.504 OA
ATOM     13  H   UNL     1      11.629 -13.785  25.334  1.00  0.00     0.293 HD
ENDBRANCH   5  12
BRANCH   6  14
ATOM     14  O   UNL     1      13.991 -15.155  27.463  1.00  0.00    -0.502 OA
ATOM     15  H   UNL     1      13.499 -16.006  27.221  1.00  0.00     0.293 HD
ENDBRANCH   6  14
TORSDOF 4
ENDMDL
MODEL 6
REMARK VINA RESULT:    -5.623      1.588      1.957
REMARK INTER + INTRA:          -6.489
REMARK INTER:                  -6.437
REMARK INTRA:                  -0.053
REMARK UNBOUND:                -0.045
REMARK SMILES O=C([O-])c1cc(O)c(O)c(O)c1
REMARK SMILES IDX 4 1 5 2 12 3 6 4 10 5 8 6 2 7 1 8 3 9 7 10 11 12 9 14
REMARK H PARENT 7 11 11 13 9 15
REMARK Flexibility Score: inf
ROOT
ATOM      1  C   UNL     1      13.158 -12.910  28.671  1.00  0.00     0.005 A 
ATOM      2  C   UNL     1      12.181 -12.215  27.938  1.00  0.00     0.060 A 
ATOM      3  C   UNL     1      13.521 -12.435  29.943  1.00  0.00     0.060 A 
ATOM      4  C   UNL     1      11.574 -11.069  28.462  1.00  0.00     0.162 A 
ATOM      5  C   UNL     1      12.918 -11.287  30.476  1.00  0.00     0.162 A 
ATOM      6  C   UNL     1      11.941 -10.601  29.736  1.00  0.00     0.200 A 
ENDROOT
BRANCH   1   7
ATOM      7  C   UNL     1      13.794 -14.121  28.107  1.00  0.00     0.072 C 
ATOM      8  O   UNL     1      13.550 -14.480  26.924  1.00  0.00    -0.545 OA
ATOM      9  O   UNL     1      14.672 -14.878  28.873  1.00  0.00    -0.545 OA
ENDBRANCH   1   7
BRANCH   4  10
ATOM     10  O   UNL     1      10.608 -10.409  27.703  1.00  0.00    -0.504 OA
ATOM     11  H   UNL     1      10.809 -10.030  26.787  1.00  0.00     0.293 HD
ENDBRANCH   4  10
BRANCH   5  12
ATOM     12  O   UNL     1      13.286 -10.827  31.740  1.00  0.00    -0.504 OA
ATOM     13  H   UNL     1      14.243 -10.568  31.953  1.00  0.00     0.293 HD
ENDBRANCH   5  12
BRANCH   6  14
ATOM     14  O   UNL     1      11.331  -9.456  30.251  1.00  0.00    -0.502 OA
ATOM     15  H   UNL     1      10.342  -9.273  30.134  1.00  0.00     0.293 HD
ENDBRANCH   6  14
TORSDOF 4
ENDMDL
MODEL 7
REMARK VINA RESULT:    -5.583      1.494      2.855
REMARK INTER + INTRA:          -6.445
REMARK INTER:                  -6.392
REMARK INTRA:                  -0.053
REMARK UNBOUND:                -0.045
REMARK SMILES O=C([O-])c1cc(O)c(O)c(O)c1
REMARK SMILES IDX 4 1 5 2 12 3 6 4 10 5 8 6 2 7 1 8 3 9 7 10 11 12 9 14
REMARK H PARENT 7 11 11 13 9 15
REMARK Flexibility Score: inf
ROOT
ATOM      1  C   UNL     1      12.710 -12.931  28.169  1.00  0.00     0.005 A 
ATOM      2  C   UNL     1      13.422 -12.571  29.325  1.00  0.00     0.060 A 
ATOM      3  C   UNL     1      11.624 -12.137  27.762  1.00  0.00     0.060 A 
ATOM      4  C   UNL     1      13.060 -11.439  30.063  1.00  0.00     0.162 A 
ATOM      5  C   UNL     1      11.254 -11.002  28.496  1.00  0.00     0.162 A 
ATOM      6  C   UNL     1      11.974 -10.649  29.650  1.00  0.00     0.200 A 
ENDROOT
BRANCH   1   7
ATOM      7  C   UNL     1      13.101 -14.131  27.395  1.00  0.00     0.072 C 
ATOM      8  O   UNL     1      12.551 -14.388  26.291  1.00  0.00    -0.545 OA
ATOM      9  O   UNL     1      14.081 -14.991  27.875  1.00  0.00    -0.545 OA
ENDBRANCH   1   7
BRANCH   4  10
ATOM     10  O   UNL     1      13.793 -11.115  31.204  1.00  0.00    -0.504 OA
ATOM     11  H   UNL     1      13.412 -10.539  31.944  1.00  0.00     0.293 HD
ENDBRANCH   4  10
BRANCH   5  12
ATOM     12  O   UNL     1      10.175 -10.222  28.082  1.00  0.00    -0.504 OA
ATOM     13  H   UNL     1       9.838  -9.444  28.636  1.00  0.00     0.293 HD
ENDBRANCH   5  12
BRANCH   6  14
ATOM     14  O   UNL     1      11.619  -9.522  30.393  1.00  0.00    -0.502 OA
ATOM     15  H   UNL     1      12.243  -9.106  31.073  1.00  0.00     0.293 HD
ENDBRANCH   6  14
TORSDOF 4
ENDMDL
MODEL 8
REMARK VINA RESULT:    -5.185      1.856      2.156
REMARK INTER + INTRA:          -5.989
REMARK INTER:                  -5.939
REMARK INTRA:                  -0.049
REMARK UNBOUND:                -0.045
REMARK SMILES O=C([O-])c1cc(O)c(O)c(O)c1
REMARK SMILES IDX 4 1 5 2 12 3 6 4 10 5 8 6 2 7 1 8 3 9 7 10 11 12 9 14
REMARK H PARENT 7 11 11 13 9 15
REMARK Flexibility Score: inf
ROOT
ATOM      1  C   UNL     1      13.355 -12.548  28.787  1.00  0.00     0.005 A 
ATOM      2  C   UNL     1      12.251 -12.869  29.593  1.00  0.00     0.060 A 
ATOM      3  C   UNL     1      13.489 -11.234  28.306  1.00  0.00     0.060 A 
ATOM      4  C   UNL     1      11.296 -11.900  29.917  1.00  0.00     0.162 A 
ATOM      5  C   UNL     1      12.537 -10.257  28.626  1.00  0.00     0.162 A 
ATOM      6  C   UNL     1      11.436 -10.588  29.434  1.00  0.00     0.200 A 
ENDROOT
BRANCH   1   7
ATOM      7  C   UNL     1      14.359 -13.581  28.450  1.00  0.00     0.072 C 
ATOM      8  O   UNL     1      14.749 -14.404  29.321  1.00  0.00    -0.545 OA
ATOM      9  O   UNL     1      14.886 -13.661  27.166  1.00  0.00    -0.545 OA
ENDBRANCH   1   7
BRANCH   4  10
ATOM     10  O   UNL     1      10.215 -12.259  30.722  1.00  0.00    -0.504 OA
ATOM     11  H   UNL     1      10.289 -12.320  31.729  1.00  0.00     0.293 HD
ENDBRANCH   4  10
BRANCH   5  12
ATOM     12  O   UNL     1      12.681  -8.956  28.143  1.00  0.00    -0.504 OA
ATOM     13  H   UNL     1      11.895  -8.440  27.765  1.00  0.00     0.293 HD
ENDBRANCH   5  12
BRANCH   6  14
ATOM     14  O   UNL     1      10.479  -9.627  29.762  1.00  0.00    -0.502 OA
ATOM     15  H   UNL     1      10.669  -8.634  29.705  1.00  0.00     0.293 HD
ENDBRANCH   6  14
TORSDOF 4
ENDMDL
MODEL 9
REMARK VINA RESULT:    -4.736      1.833      4.789
REMARK INTER + INTRA:          -5.473
REMARK INTER:                  -5.422
REMARK INTRA:                  -0.051
REMARK UNBOUND:                -0.045
REMARK SMILES O=C([O-])c1cc(O)c(O)c(O)c1
REMARK SMILES IDX 4 1 5 2 12 3 6 4 10 5 8 6 2 7 1 8 3 9 7 10 11 12 9 14
REMARK H PARENT 7 11 11 13 9 15
REMARK Flexibility Score: inf
ROOT
ATOM      1  C   UNL     1      13.791 -12.902  28.820  1.00  0.00     0.005 A 
ATOM      2  C   UNL     1      13.982 -13.885  29.804  1.00  0.00     0.060 A 
ATOM      3  C   UNL     1      14.266 -13.139  27.518  1.00  0.00     0.060 A 
ATOM      4  C   UNL     1      14.632 -15.086  29.499  1.00  0.00     0.162 A 
ATOM      5  C   UNL     1      14.918 -14.338  27.204  1.00  0.00     0.162 A 
ATOM      6  C   UNL     1      15.103 -15.317  28.195  1.00  0.00     0.200 A 
ENDROOT
BRANCH   1   7
ATOM      7  C   UNL     1      13.103 -11.635  29.154  1.00  0.00     0.072 C 
ATOM      8  O   UNL     1      12.475 -10.995  28.268  1.00  0.00    -0.545 OA
ATOM      9  O   UNL     1      13.137 -11.134  30.450  1.00  0.00    -0.545 OA
ENDBRANCH   1   7
BRANCH   4  10
ATOM     10  O   UNL     1      14.800 -16.037  30.504  1.00  0.00    -0.504 OA
ATOM     11  H   UNL     1      14.777 -17.031  30.315  1.00  0.00     0.293 HD
ENDBRANCH   4  10
BRANCH   5  12
ATOM     12  O   UNL     1      15.384 -14.562  25.908  1.00  0.00    -0.504 OA
ATOM     13  H   UNL     1      15.063 -15.349  25.357  1.00  0.00     0.293 HD
ENDBRANCH   5  12
BRANCH   6  14
ATOM     14  O   UNL     1      15.751 -16.517  27.899  1.00  0.00    -0.502 OA
ATOM     15  H   UNL     1      15.426 -17.408  28.255  1.00  0.00     0.293 HD
ENDBRANCH   6  14
TORSDOF 4
ENDMDL
