MODEL 1
REMARK VINA RESULT:    -6.536      0.000      0.000
REMARK INTER + INTRA:          -9.264
REMARK INTER:                  -8.829
REMARK INTRA:                  -0.435
REMARK UNBOUND:                -0.435
REMARK SMILES O=c1c(-c2ccc(O)cc2)coc2c([C@@H]3O[C@H](CO)[C@@H](O)[C@H](O)[C@H]3O)c(O)ccc12
REMARK SMILES IDX 3 1 11 2 12 3 13 4 30 5 2 6 1 7 29 8 28 9 26 10 14 11 4 12
REMARK SMILES IDX 5 13 6 14 7 15 10 16 9 17 8 18 15 20 24 21 16 22 22 23 17 24
REMARK SMILES IDX 20 25 25 26 23 28 18 30 19 31 21 33 27 35
REMARK H PARENT 8 19 25 27 23 29 19 32 21 34 27 36
REMARK Flexibility Score: inf
ROOT
ATOM      1  C   UNL     1     477.544  36.457 461.665  1.00  0.00     0.065 A 
ATOM      2  C   UNL     1     478.680  36.025 460.966  1.00  0.00     0.208 A 
ATOM      3  O   UNL     1     479.481  36.893 460.364  1.00  0.00    -0.463 OA
ATOM      4  C   UNL     1     479.274  38.209 460.377  1.00  0.00     0.147 A 
ATOM      5  C   UNL     1     478.160  38.732 461.071  1.00  0.00     0.066 A 
ATOM      6  C   UNL     1     477.289  37.839 461.723  1.00  0.00     0.200 A 
ATOM      7  O   UNL     1     476.299  38.274 462.373  1.00  0.00    -0.288 OA
ATOM      8  C   UNL     1     477.952  40.118 461.104  1.00  0.00     0.020 A 
ATOM      9  C   UNL     1     478.855  40.975 460.484  1.00  0.00     0.047 A 
ATOM     10  C   UNL     1     479.975  40.480 459.809  1.00  0.00     0.125 A 
ATOM     11  C   UNL     1     480.172  39.075 459.701  1.00  0.00     0.069 A 
ENDROOT
BRANCH   1  12
ATOM     12  C   UNL     1     476.657  35.465 462.323  1.00  0.00    -0.011 A 
ATOM     13  C   UNL     1     476.757  34.097 462.011  1.00  0.00     0.013 A 
ATOM     14  C   UNL     1     475.926  33.165 462.640  1.00  0.00     0.047 A 
ATOM     15  C   UNL     1     474.988  33.587 463.591  1.00  0.00     0.115 A 
ATOM     16  C   UNL     1     475.718  35.879 463.284  1.00  0.00     0.013 A 
ATOM     17  C   UNL     1     474.888  34.945 463.911  1.00  0.00     0.047 A 
BRANCH  15  18
ATOM     18  O   UNL     1     474.155  32.668 464.225  1.00  0.00    -0.508 OA
ATOM     19  H   UNL     1     473.444  32.158 463.713  1.00  0.00     0.293 HD
ENDBRANCH  15  18
ENDBRANCH   1  12
BRANCH  11  20
ATOM     20  C   UNL     1     481.340  38.491 458.911  1.00  0.00     0.188 C 
ATOM     21  C   UNL     1     480.952  38.330 457.421  1.00  0.00     0.179 C 
ATOM     22  O   UNL     1     482.467  39.346 459.044  1.00  0.00    -0.362 OA
ATOM     23  C   UNL     1     482.149  37.788 456.627  1.00  0.00     0.177 C 
ATOM     24  C   UNL     1     483.616  38.782 458.434  1.00  0.00     0.176 C 
ATOM     25  C   UNL     1     483.399  38.644 456.907  1.00  0.00     0.177 C 
BRANCH  21  26
ATOM     26  O   UNL     1     479.877  37.435 457.289  1.00  0.00    -0.387 OA
ATOM     27  H   UNL     1     479.521  37.541 456.368  1.00  0.00     0.211 HD
ENDBRANCH  21  26
BRANCH  23  28
ATOM     28  O   UNL     1     481.844  37.815 455.256  1.00  0.00    -0.387 OA
ATOM     29  H   UNL     1     482.154  36.951 454.876  1.00  0.00     0.211 HD
ENDBRANCH  23  28
BRANCH  24  30
ATOM     30  C   UNL     1     484.818  39.689 458.732  1.00  0.00     0.191 C 
BRANCH  30  31
ATOM     31  O   UNL     1     486.018  38.982 458.565  1.00  0.00    -0.394 OA
ATOM     32  H   UNL     1     485.788  38.018 458.610  1.00  0.00     0.210 HD
ENDBRANCH  30  31
ENDBRANCH  24  30
BRANCH  25  33
ATOM     33  O   UNL     1     484.530  38.089 456.279  1.00  0.00    -0.388 OA
ATOM     34  H   UNL     1     485.318  38.633 456.544  1.00  0.00     0.211 HD
ENDBRANCH  25  33
ENDBRANCH  11  20
BRANCH  10  35
ATOM     35  O   UNL     1     480.868  41.418 459.286  1.00  0.00    -0.507 OA
ATOM     36  H   UNL     1     481.640  41.821 459.797  1.00  0.00     0.293 HD
ENDBRANCH  10  35
TORSDOF 9
ENDMDL
MODEL 2
REMARK VINA RESULT:    -6.429      1.703      3.146
REMARK INTER + INTRA:          -9.119
REMARK INTER:                  -9.037
REMARK INTRA:                  -0.082
REMARK UNBOUND:                -0.435
REMARK SMILES O=c1c(-c2ccc(O)cc2)coc2c([C@@H]3O[C@H](CO)[C@@H](O)[C@H](O)[C@H]3O)c(O)ccc12
REMARK SMILES IDX 3 1 11 2 12 3 13 4 30 5 2 6 1 7 29 8 28 9 26 10 14 11 4 12
REMARK SMILES IDX 5 13 6 14 7 15 10 16 9 17 8 18 15 20 24 21 16 22 22 23 17 24
REMARK SMILES IDX 20 25 25 26 23 28 18 30 19 31 21 33 27 35
REMARK H PARENT 8 19 25 27 23 29 19 32 21 34 27 36
REMARK Flexibility Score: inf
ROOT
ATOM      1  C   UNL     1     478.672  37.930 460.494  1.00  0.00     0.065 A 
ATOM      2  C   UNL     1     480.052  37.918 460.249  1.00  0.00     0.208 A 
ATOM      3  O   UNL     1     480.645  38.936 459.641  1.00  0.00    -0.463 OA
ATOM      4  C   UNL     1     479.993  40.021 459.227  1.00  0.00     0.147 A 
ATOM      5  C   UNL     1     478.601  40.123 459.448  1.00  0.00     0.066 A 
ATOM      6  C   UNL     1     477.938  39.061 460.092  1.00  0.00     0.200 A 
ATOM      7  O   UNL     1     476.700  39.131 460.327  1.00  0.00    -0.288 OA
ATOM      8  C   UNL     1     477.916  41.273 459.033  1.00  0.00     0.020 A 
ATOM      9  C   UNL     1     478.607  42.323 458.436  1.00  0.00     0.047 A 
ATOM     10  C   UNL     1     479.988  42.250 458.228  1.00  0.00     0.125 A 
ATOM     11  C   UNL     1     480.697  41.067 458.575  1.00  0.00     0.069 A 
ENDROOT
BRANCH   1  12
ATOM     12  C   UNL     1     478.029  36.774 461.168  1.00  0.00    -0.011 A 
ATOM     13  C   UNL     1     476.951  36.968 462.051  1.00  0.00     0.013 A 
ATOM     14  C   UNL     1     476.343  35.875 462.676  1.00  0.00     0.047 A 
ATOM     15  C   UNL     1     476.801  34.576 462.425  1.00  0.00     0.115 A 
ATOM     16  C   UNL     1     478.478  35.466 460.915  1.00  0.00     0.013 A 
ATOM     17  C   UNL     1     477.868  34.376 461.543  1.00  0.00     0.047 A 
BRANCH  15  18
ATOM     18  O   UNL     1     476.204  33.479 463.042  1.00  0.00    -0.508 OA
ATOM     19  H   UNL     1     475.695  33.575 463.913  1.00  0.00     0.293 HD
ENDBRANCH  15  18
ENDBRANCH   1  12
BRANCH  11  20
ATOM     20  C   UNL     1     482.189  40.918 458.297  1.00  0.00     0.188 C 
ATOM     21  C   UNL     1     483.007  41.261 459.566  1.00  0.00     0.179 C 
ATOM     22  O   UNL     1     482.455  39.587 457.876  1.00  0.00    -0.362 OA
ATOM     23  C   UNL     1     484.505  41.061 459.290  1.00  0.00     0.177 C 
ATOM     24  C   UNL     1     483.808  39.433 457.482  1.00  0.00     0.176 C 
ATOM     25  C   UNL     1     484.749  39.663 458.691  1.00  0.00     0.177 C 
BRANCH  21  26
ATOM     26  O   UNL     1     482.789  42.597 459.944  1.00  0.00    -0.387 OA
ATOM     27  H   UNL     1     483.099  43.166 459.192  1.00  0.00     0.211 HD
ENDBRANCH  21  26
BRANCH  23  28
ATOM     28  O   UNL     1     485.218  41.202 460.492  1.00  0.00    -0.387 OA
ATOM     29  H   UNL     1     485.193  40.319 460.946  1.00  0.00     0.211 HD
ENDBRANCH  23  28
BRANCH  24  30
ATOM     30  C   UNL     1     483.990  38.018 456.915  1.00  0.00     0.191 C 
BRANCH  30  31
ATOM     31  O   UNL     1     484.541  37.169 457.886  1.00  0.00    -0.394 OA
ATOM     32  H   UNL     1     485.092  36.502 457.399  1.00  0.00     0.210 HD
ENDBRANCH  30  31
ENDBRANCH  24  30
BRANCH  25  33
ATOM     33  O   UNL     1     486.098  39.510 458.324  1.00  0.00    -0.388 OA
ATOM     34  H   UNL     1     486.313  40.222 457.665  1.00  0.00     0.211 HD
ENDBRANCH  25  33
ENDBRANCH  11  20
BRANCH  10  35
ATOM     35  O   UNL     1     480.610  43.383 457.695  1.00  0.00    -0.507 OA
ATOM     36  H   UNL     1     481.459  43.792 458.056  1.00  0.00     0.293 HD
ENDBRANCH  10  35
TORSDOF 9
ENDMDL
MODEL 3
REMARK VINA RESULT:    -6.419      2.823      8.913
REMARK INTER + INTRA:          -9.106
REMARK INTER:                  -7.850
REMARK INTRA:                  -1.256
REMARK UNBOUND:                -0.435
REMARK SMILES O=c1c(-c2ccc(O)cc2)coc2c([C@@H]3O[C@H](CO)[C@@H](O)[C@H](O)[C@H]3O)c(O)ccc12
REMARK SMILES IDX 3 1 11 2 12 3 13 4 30 5 2 6 1 7 29 8 28 9 26 10 14 11 4 12
REMARK SMILES IDX 5 13 6 14 7 15 10 16 9 17 8 18 15 20 24 21 16 22 22 23 17 24
REMARK SMILES IDX 20 25 25 26 23 28 18 30 19 31 21 33 27 35
REMARK H PARENT 8 19 25 27 23 29 19 32 21 34 27 36
REMARK Flexibility Score: inf
ROOT
ATOM      1  C   UNL     1     484.161  40.621 460.931  1.00  0.00     0.065 A 
ATOM      2  C   UNL     1     483.106  40.310 461.800  1.00  0.00     0.208 A 
ATOM      3  O   UNL     1     482.065  39.601 461.383  1.00  0.00    -0.463 OA
ATOM      4  C   UNL     1     481.945  39.142 460.138  1.00  0.00     0.147 A 
ATOM      5  C   UNL     1     482.971  39.397 459.200  1.00  0.00     0.066 A 
ATOM      6  C   UNL     1     484.091  40.145 459.609  1.00  0.00     0.200 A 
ATOM      7  O   UNL     1     485.037  40.369 458.804  1.00  0.00    -0.288 OA
ATOM      8  C   UNL     1     482.858  38.896 457.896  1.00  0.00     0.020 A 
ATOM      9  C   UNL     1     481.757  38.126 457.536  1.00  0.00     0.047 A 
ATOM     10  C   UNL     1     480.742  37.844 458.455  1.00  0.00     0.125 A 
ATOM     11  C   UNL     1     480.797  38.398 459.764  1.00  0.00     0.069 A 
ENDROOT
BRANCH   1  12
ATOM     12  C   UNL     1     485.310  41.424 461.419  1.00  0.00    -0.011 A 
ATOM     13  C   UNL     1     485.295  42.827 461.328  1.00  0.00     0.013 A 
ATOM     14  C   UNL     1     486.376  43.579 461.797  1.00  0.00     0.047 A 
ATOM     15  C   UNL     1     487.483  42.939 462.367  1.00  0.00     0.115 A 
ATOM     16  C   UNL     1     486.423  40.789 461.999  1.00  0.00     0.013 A 
ATOM     17  C   UNL     1     487.503  41.545 462.467  1.00  0.00     0.047 A 
BRANCH  15  18
ATOM     18  O   UNL     1     488.567  43.678 462.838  1.00  0.00    -0.508 OA
ATOM     19  H   UNL     1     489.130  44.246 462.216  1.00  0.00     0.293 HD
ENDBRANCH  15  18
ENDBRANCH   1  12
BRANCH  11  20
ATOM     20  C   UNL     1     479.674  38.177 460.774  1.00  0.00     0.188 C 
ATOM     21  C   UNL     1     478.535  39.199 460.540  1.00  0.00     0.179 C 
ATOM     22  O   UNL     1     479.187  36.848 460.645  1.00  0.00    -0.362 OA
ATOM     23  C   UNL     1     477.389  38.937 461.528  1.00  0.00     0.177 C 
ATOM     24  C   UNL     1     478.230  36.552 461.648  1.00  0.00     0.176 C 
ATOM     25  C   UNL     1     476.980  37.452 461.480  1.00  0.00     0.177 C 
BRANCH  21  26
ATOM     26  O   UNL     1     479.006  40.509 460.728  1.00  0.00    -0.387 OA
ATOM     27  H   UNL     1     479.973  40.506 460.506  1.00  0.00     0.211 HD
ENDBRANCH  21  26
BRANCH  23  28
ATOM     28  O   UNL     1     476.294  39.750 461.192  1.00  0.00    -0.387 OA
ATOM     29  H   UNL     1     475.833  39.976 462.042  1.00  0.00     0.211 HD
ENDBRANCH  23  28
BRANCH  24  30
ATOM     30  C   UNL     1     477.849  35.069 461.533  1.00  0.00     0.191 C 
BRANCH  30  31
ATOM     31  O   UNL     1     477.487  34.558 462.788  1.00  0.00    -0.394 OA
ATOM     32  H   UNL     1     476.500  34.645 462.856  1.00  0.00     0.210 HD
ENDBRANCH  30  31
ENDBRANCH  24  30
BRANCH  25  33
ATOM     33  O   UNL     1     476.013  37.172 462.463  1.00  0.00    -0.388 OA
ATOM     34  H   UNL     1     476.007  36.190 462.607  1.00  0.00     0.211 HD
ENDBRANCH  25  33
ENDBRANCH  11  20
BRANCH  10  35
ATOM     35  O   UNL     1     479.715  36.997 458.028  1.00  0.00    -0.507 OA
ATOM     36  H   UNL     1     478.790  37.305 457.767  1.00  0.00     0.293 HD
ENDBRANCH  10  35
TORSDOF 9
ENDMDL
MODEL 4
REMARK VINA RESULT:    -6.351      1.305      2.675
REMARK INTER + INTRA:          -9.013
REMARK INTER:                  -9.291
REMARK INTRA:                   0.278
REMARK UNBOUND:                -0.435
REMARK SMILES O=c1c(-c2ccc(O)cc2)coc2c([C@@H]3O[C@H](CO)[C@@H](O)[C@H](O)[C@H]3O)c(O)ccc12
REMARK SMILES IDX 3 1 11 2 12 3 13 4 30 5 2 6 1 7 29 8 28 9 26 10 14 11 4 12
REMARK SMILES IDX 5 13 6 14 7 15 10 16 9 17 8 18 15 20 24 21 16 22 22 23 17 24
REMARK SMILES IDX 20 25 25 26 23 28 18 30 19 31 21 33 27 35
REMARK H PARENT 8 19 25 27 23 29 19 32 21 34 27 36
REMARK Flexibility Score: inf
ROOT
ATOM      1  C   UNL     1     478.571  37.413 461.424  1.00  0.00     0.065 A 
ATOM      2  C   UNL     1     479.569  37.176 460.469  1.00  0.00     0.208 A 
ATOM      3  O   UNL     1     480.342  38.161 460.031  1.00  0.00    -0.463 OA
ATOM      4  C   UNL     1     480.233  39.419 460.455  1.00  0.00     0.147 A 
ATOM      5  C   UNL     1     479.262  39.744 461.429  1.00  0.00     0.066 A 
ATOM      6  C   UNL     1     478.425  38.723 461.917  1.00  0.00     0.200 A 
ATOM      7  O   UNL     1     477.564  38.973 462.804  1.00  0.00    -0.288 OA
ATOM      8  C   UNL     1     479.159  41.062 461.892  1.00  0.00     0.020 A 
ATOM      9  C   UNL     1     480.029  42.040 461.419  1.00  0.00     0.047 A 
ATOM     10  C   UNL     1     481.010  41.735 460.471  1.00  0.00     0.125 A 
ATOM     11  C   UNL     1     481.092  40.420 459.932  1.00  0.00     0.069 A 
ENDROOT
BRANCH   1  12
ATOM     12  C   UNL     1     477.713  36.296 461.891  1.00  0.00    -0.011 A 
ATOM     13  C   UNL     1     476.547  36.551 462.636  1.00  0.00     0.013 A 
ATOM     14  C   UNL     1     475.737  35.496 463.065  1.00  0.00     0.047 A 
ATOM     15  C   UNL     1     476.078  34.174 462.753  1.00  0.00     0.115 A 
ATOM     16  C   UNL     1     478.044  34.967 461.575  1.00  0.00     0.013 A 
ATOM     17  C   UNL     1     477.232  33.914 462.008  1.00  0.00     0.047 A 
BRANCH  15  18
ATOM     18  O   UNL     1     475.279  33.114 463.176  1.00  0.00    -0.508 OA
ATOM     19  H   UNL     1     474.721  33.177 464.020  1.00  0.00     0.293 HD
ENDBRANCH  15  18
ENDBRANCH   1  12
BRANCH  11  20
ATOM     20  C   UNL     1     482.099  40.064 458.843  1.00  0.00     0.188 C 
ATOM     21  C   UNL     1     483.448  39.647 459.477  1.00  0.00     0.179 C 
ATOM     22  O   UNL     1     481.574  39.009 458.050  1.00  0.00    -0.362 OA
ATOM     23  C   UNL     1     484.439  39.244 458.376  1.00  0.00     0.177 C 
ATOM     24  C   UNL     1     482.416  38.728 456.944  1.00  0.00     0.176 C 
ATOM     25  C   UNL     1     483.790  38.209 457.436  1.00  0.00     0.177 C 
BRANCH  21  26
ATOM     26  O   UNL     1     483.995  40.714 460.211  1.00  0.00    -0.387 OA
ATOM     27  H   UNL     1     484.370  40.331 461.046  1.00  0.00     0.211 HD
ENDBRANCH  21  26
BRANCH  23  28
ATOM     28  O   UNL     1     485.592  38.702 458.967  1.00  0.00    -0.387 OA
ATOM     29  H   UNL     1     485.431  38.686 459.947  1.00  0.00     0.211 HD
ENDBRANCH  23  28
BRANCH  24  30
ATOM     30  C   UNL     1     481.725  37.679 456.062  1.00  0.00     0.191 C 
BRANCH  30  31
ATOM     31  O   UNL     1     481.951  36.389 456.566  1.00  0.00    -0.394 OA
ATOM     32  H   UNL     1     482.861  36.125 456.272  1.00  0.00     0.210 HD
ENDBRANCH  30  31
ENDBRANCH  24  30
BRANCH  25  33
ATOM     33  O   UNL     1     484.643  37.919 456.355  1.00  0.00    -0.388 OA
ATOM     34  H   UNL     1     484.346  37.058 455.960  1.00  0.00     0.211 HD
ENDBRANCH  25  33
ENDBRANCH  11  20
BRANCH  10  35
ATOM     35  O   UNL     1     481.890  42.761 460.114  1.00  0.00    -0.507 OA
ATOM     36  H   UNL     1     482.672  43.065 460.676  1.00  0.00     0.293 HD
ENDBRANCH  10  35
TORSDOF 9
ENDMDL
MODEL 5
REMARK VINA RESULT:    -6.177      2.597      4.657
REMARK INTER + INTRA:          -8.778
REMARK INTER:                  -7.561
REMARK INTRA:                  -1.217
REMARK UNBOUND:                -0.435
REMARK SMILES O=c1c(-c2ccc(O)cc2)coc2c([C@@H]3O[C@H](CO)[C@@H](O)[C@H](O)[C@H]3O)c(O)ccc12
REMARK SMILES IDX 3 1 11 2 12 3 13 4 30 5 2 6 1 7 29 8 28 9 26 10 14 11 4 12
REMARK SMILES IDX 5 13 6 14 7 15 10 16 9 17 8 18 15 20 24 21 16 22 22 23 17 24
REMARK SMILES IDX 20 25 25 26 23 28 18 30 19 31 21 33 27 35
REMARK H PARENT 8 19 25 27 23 29 19 32 21 34 27 36
REMARK Flexibility Score: inf
ROOT
ATOM      1  C   UNL     1     476.560  39.036 462.262  1.00  0.00     0.065 A 
ATOM      2  C   UNL     1     477.338  39.735 461.328  1.00  0.00     0.208 A 
ATOM      3  O   UNL     1     478.164  39.093 460.513  1.00  0.00    -0.463 OA
ATOM      4  C   UNL     1     478.313  37.770 460.517  1.00  0.00     0.147 A 
ATOM      5  C   UNL     1     477.556  36.986 461.417  1.00  0.00     0.066 A 
ATOM      6  C   UNL     1     476.668  37.634 462.296  1.00  0.00     0.200 A 
ATOM      7  O   UNL     1     475.958  36.963 463.095  1.00  0.00    -0.288 OA
ATOM      8  C   UNL     1     477.696  35.592 461.408  1.00  0.00     0.020 A 
ATOM      9  C   UNL     1     478.552  34.980 460.498  1.00  0.00     0.047 A 
ATOM     10  C   UNL     1     479.294  35.735 459.586  1.00  0.00     0.125 A 
ATOM     11  C   UNL     1     479.224  37.156 459.619  1.00  0.00     0.069 A 
ENDROOT
BRANCH   1  12
ATOM     12  C   UNL     1     475.650  39.778 463.170  1.00  0.00    -0.011 A 
ATOM     13  C   UNL     1     476.135  40.352 464.359  1.00  0.00     0.013 A 
ATOM     14  C   UNL     1     475.276  41.057 465.207  1.00  0.00     0.047 A 
ATOM     15  C   UNL     1     473.923  41.201 464.876  1.00  0.00     0.115 A 
ATOM     16  C   UNL     1     474.292  39.934 462.842  1.00  0.00     0.013 A 
ATOM     17  C   UNL     1     473.435  40.639 463.692  1.00  0.00     0.047 A 
BRANCH  15  18
ATOM     18  O   UNL     1     473.057  41.902 465.713  1.00  0.00    -0.508 OA
ATOM     19  H   UNL     1     472.460  41.422 466.377  1.00  0.00     0.293 HD
ENDBRANCH  15  18
ENDBRANCH   1  12
BRANCH  11  20
ATOM     20  C   UNL     1     480.074  38.020 458.691  1.00  0.00     0.188 C 
ATOM     21  C   UNL     1     481.466  38.272 459.319  1.00  0.00     0.179 C 
ATOM     22  O   UNL     1     480.203  37.367 457.436  1.00  0.00    -0.362 OA
ATOM     23  C   UNL     1     482.330  39.100 458.357  1.00  0.00     0.177 C 
ATOM     24  C   UNL     1     480.876  38.189 456.496  1.00  0.00     0.176 C 
ATOM     25  C   UNL     1     482.330  38.452 456.959  1.00  0.00     0.177 C 
BRANCH  21  26
ATOM     26  O   UNL     1     481.338  38.971 460.531  1.00  0.00    -0.387 OA
ATOM     27  H   UNL     1     482.255  39.201 460.834  1.00  0.00     0.211 HD
ENDBRANCH  21  26
BRANCH  23  28
ATOM     28  O   UNL     1     483.641  39.170 458.857  1.00  0.00    -0.387 OA
ATOM     29  H   UNL     1     483.843  38.284 459.257  1.00  0.00     0.211 HD
ENDBRANCH  23  28
BRANCH  24  30
ATOM     30  C   UNL     1     480.860  37.481 455.134  1.00  0.00     0.191 C 
BRANCH  30  31
ATOM     31  O   UNL     1     481.153  38.389 454.106  1.00  0.00    -0.394 OA
ATOM     32  H   UNL     1     480.286  38.641 453.694  1.00  0.00     0.210 HD
ENDBRANCH  30  31
ENDBRANCH  24  30
BRANCH  25  33
ATOM     33  O   UNL     1     483.020  39.263 456.038  1.00  0.00    -0.388 OA
ATOM     34  H   UNL     1     482.391  39.965 455.725  1.00  0.00     0.211 HD
ENDBRANCH  25  33
ENDBRANCH  11  20
BRANCH  10  35
ATOM     35  O   UNL     1     480.066  35.031 458.657  1.00  0.00    -0.507 OA
ATOM     36  H   UNL     1     481.047  34.820 458.771  1.00  0.00     0.293 HD
ENDBRANCH  10  35
TORSDOF 9
ENDMDL
MODEL 6
REMARK VINA RESULT:    -5.753      2.617      8.584
REMARK INTER + INTRA:          -8.206
REMARK INTER:                  -7.635
REMARK INTRA:                  -0.570
REMARK UNBOUND:                -0.435
REMARK SMILES O=c1c(-c2ccc(O)cc2)coc2c([C@@H]3O[C@H](CO)[C@@H](O)[C@H](O)[C@H]3O)c(O)ccc12
REMARK SMILES IDX 3 1 11 2 12 3 13 4 30 5 2 6 1 7 29 8 28 9 26 10 14 11 4 12
REMARK SMILES IDX 5 13 6 14 7 15 10 16 9 17 8 18 15 20 24 21 16 22 22 23 17 24
REMARK SMILES IDX 20 25 25 26 23 28 18 30 19 31 21 33 27 35
REMARK H PARENT 8 19 25 27 23 29 19 32 21 34 27 36
REMARK Flexibility Score: inf
ROOT
ATOM      1  C   UNL     1     484.246  40.415 460.146  1.00  0.00     0.065 A 
ATOM      2  C   UNL     1     482.961  40.206 460.665  1.00  0.00     0.208 A 
ATOM      3  O   UNL     1     482.056  39.512 459.988  1.00  0.00    -0.463 OA
ATOM      4  C   UNL     1     482.293  38.972 458.793  1.00  0.00     0.147 A 
ATOM      5  C   UNL     1     483.569  39.121 458.203  1.00  0.00     0.066 A 
ATOM      6  C   UNL     1     484.553  39.851 458.895  1.00  0.00     0.200 A 
ATOM      7  O   UNL     1     485.710  39.983 458.407  1.00  0.00    -0.288 OA
ATOM      8  C   UNL     1     483.827  38.537 456.956  1.00  0.00     0.020 A 
ATOM      9  C   UNL     1     482.845  37.786 456.318  1.00  0.00     0.047 A 
ATOM     10  C   UNL     1     481.584  37.609 456.894  1.00  0.00     0.125 A 
ATOM     11  C   UNL     1     481.271  38.250 458.126  1.00  0.00     0.069 A 
ENDROOT
BRANCH   1  12
ATOM     12  C   UNL     1     485.238  41.204 460.919  1.00  0.00    -0.011 A 
ATOM     13  C   UNL     1     485.313  42.601 460.774  1.00  0.00     0.013 A 
ATOM     14  C   UNL     1     486.242  43.340 461.511  1.00  0.00     0.047 A 
ATOM     15  C   UNL     1     487.105  42.695 462.405  1.00  0.00     0.115 A 
ATOM     16  C   UNL     1     486.103  40.564 461.825  1.00  0.00     0.013 A 
ATOM     17  C   UNL     1     487.032  41.307 462.560  1.00  0.00     0.047 A 
BRANCH  15  18
ATOM     18  O   UNL     1     488.036  43.421 463.145  1.00  0.00    -0.508 OA
ATOM     19  H   UNL     1     488.297  43.143 464.084  1.00  0.00     0.293 HD
ENDBRANCH  15  18
ENDBRANCH   1  12
BRANCH  11  20
ATOM     20  C   UNL     1     479.884  38.143 458.753  1.00  0.00     0.188 C 
ATOM     21  C   UNL     1     479.814  36.913 459.691  1.00  0.00     0.179 C 
ATOM     22  O   UNL     1     479.604  39.336 459.471  1.00  0.00    -0.362 OA
ATOM     23  C   UNL     1     478.431  36.843 460.354  1.00  0.00     0.177 C 
ATOM     24  C   UNL     1     478.275  39.339 459.965  1.00  0.00     0.176 C 
ATOM     25  C   UNL     1     478.084  38.200 460.997  1.00  0.00     0.177 C 
BRANCH  21  26
ATOM     26  O   UNL     1     480.031  35.730 458.965  1.00  0.00    -0.387 OA
ATOM     27  H   UNL     1     479.906  35.949 458.005  1.00  0.00     0.211 HD
ENDBRANCH  21  26
BRANCH  23  28
ATOM     28  O   UNL     1     478.438  35.834 461.332  1.00  0.00    -0.387 OA
ATOM     29  H   UNL     1     478.369  34.968 460.851  1.00  0.00     0.211 HD
ENDBRANCH  23  28
BRANCH  24  30
ATOM     30  C   UNL     1     478.000  40.705 460.609  1.00  0.00     0.191 C 
BRANCH  30  31
ATOM     31  O   UNL     1     478.320  40.676 461.975  1.00  0.00    -0.394 OA
ATOM     32  H   UNL     1     479.200  41.126 462.070  1.00  0.00     0.210 HD
ENDBRANCH  30  31
ENDBRANCH  24  30
BRANCH  25  33
ATOM     33  O   UNL     1     476.772  38.186 461.505  1.00  0.00    -0.388 OA
ATOM     34  H   UNL     1     476.243  38.850 460.989  1.00  0.00     0.211 HD
ENDBRANCH  25  33
ENDBRANCH  11  20
BRANCH  10  35
ATOM     35  O   UNL     1     480.688  36.775 456.220  1.00  0.00    -0.507 OA
ATOM     36  H   UNL     1     480.451  35.837 456.509  1.00  0.00     0.293 HD
ENDBRANCH  10  35
TORSDOF 9
ENDMDL
MODEL 7
REMARK VINA RESULT:    -5.696      2.639      4.682
REMARK INTER + INTRA:          -8.128
REMARK INTER:                  -7.184
REMARK INTRA:                  -0.944
REMARK UNBOUND:                -0.435
REMARK SMILES O=c1c(-c2ccc(O)cc2)coc2c([C@@H]3O[C@H](CO)[C@@H](O)[C@H](O)[C@H]3O)c(O)ccc12
REMARK SMILES IDX 3 1 11 2 12 3 13 4 30 5 2 6 1 7 29 8 28 9 26 10 14 11 4 12
REMARK SMILES IDX 5 13 6 14 7 15 10 16 9 17 8 18 15 20 24 21 16 22 22 23 17 24
REMARK SMILES IDX 20 25 25 26 23 28 18 30 19 31 21 33 27 35
REMARK H PARENT 8 19 25 27 23 29 19 32 21 34 27 36
REMARK Flexibility Score: inf
ROOT
ATOM      1  C   UNL     1     479.666  37.634 460.814  1.00  0.00     0.065 A 
ATOM      2  C   UNL     1     480.353  38.579 461.588  1.00  0.00     0.208 A 
ATOM      3  O   UNL     1     481.379  39.255 461.087  1.00  0.00    -0.463 OA
ATOM      4  C   UNL     1     481.823  39.091 459.842  1.00  0.00     0.147 A 
ATOM      5  C   UNL     1     481.178  38.168 458.988  1.00  0.00     0.066 A 
ATOM      6  C   UNL     1     480.085  37.435 459.486  1.00  0.00     0.200 A 
ATOM      7  O   UNL     1     479.471  36.621 458.743  1.00  0.00    -0.288 OA
ATOM      8  C   UNL     1     481.630  38.010 457.671  1.00  0.00     0.020 A 
ATOM      9  C   UNL     1     482.687  38.780 457.197  1.00  0.00     0.047 A 
ATOM     10  C   UNL     1     483.325  39.713 458.019  1.00  0.00     0.125 A 
ATOM     11  C   UNL     1     482.933  39.845 459.380  1.00  0.00     0.069 A 
ENDROOT
BRANCH   1  12
ATOM     12  C   UNL     1     478.527  36.884 461.401  1.00  0.00    -0.011 A 
ATOM     13  C   UNL     1     478.509  35.477 461.382  1.00  0.00     0.013 A 
ATOM     14  C   UNL     1     477.439  34.776 461.944  1.00  0.00     0.047 A 
ATOM     15  C   UNL     1     476.375  35.469 462.535  1.00  0.00     0.115 A 
ATOM     16  C   UNL     1     477.459  37.572 462.003  1.00  0.00     0.013 A 
ATOM     17  C   UNL     1     476.389  36.867 462.564  1.00  0.00     0.047 A 
BRANCH  15  18
ATOM     18  O   UNL     1     475.303  34.781 463.099  1.00  0.00    -0.508 OA
ATOM     19  H   UNL     1     475.028  33.864 462.764  1.00  0.00     0.293 HD
ENDBRANCH  15  18
ENDBRANCH   1  12
BRANCH  11  20
ATOM     20  C   UNL     1     483.651  40.798 460.330  1.00  0.00     0.188 C 
ATOM     21  C   UNL     1     485.030  40.218 460.730  1.00  0.00     0.179 C 
ATOM     22  O   UNL     1     483.805  42.060 459.696  1.00  0.00    -0.362 OA
ATOM     23  C   UNL     1     485.765  41.207 461.646  1.00  0.00     0.177 C 
ATOM     24  C   UNL     1     484.352  43.019 460.585  1.00  0.00     0.176 C 
ATOM     25  C   UNL     1     485.786  42.607 461.004  1.00  0.00     0.177 C 
BRANCH  21  26
ATOM     26  O   UNL     1     484.870  39.000 461.411  1.00  0.00    -0.387 OA
ATOM     27  H   UNL     1     484.850  38.282 460.725  1.00  0.00     0.211 HD
ENDBRANCH  21  26
BRANCH  23  28
ATOM     28  O   UNL     1     487.078  40.753 461.856  1.00  0.00    -0.387 OA
ATOM     29  H   UNL     1     487.509  40.700 460.964  1.00  0.00     0.211 HD
ENDBRANCH  23  28
BRANCH  24  30
ATOM     30  C   UNL     1     484.365  44.383 459.880  1.00  0.00     0.191 C 
BRANCH  30  31
ATOM     31  O   UNL     1     484.419  45.421 460.822  1.00  0.00    -0.394 OA
ATOM     32  H   UNL     1     483.992  45.076 461.650  1.00  0.00     0.210 HD
ENDBRANCH  30  31
ENDBRANCH  24  30
BRANCH  25  33
ATOM     33  O   UNL     1     486.351  43.548 461.884  1.00  0.00    -0.388 OA
ATOM     34  H   UNL     1     486.013  44.444 461.624  1.00  0.00     0.211 HD
ENDBRANCH  25  33
ENDBRANCH  11  20
BRANCH  10  35
ATOM     35  O   UNL     1     484.324  40.497 457.434  1.00  0.00    -0.507 OA
ATOM     36  H   UNL     1     484.153  41.245 456.777  1.00  0.00     0.293 HD
ENDBRANCH  10  35
TORSDOF 9
ENDMDL
MODEL 8
REMARK VINA RESULT:    -5.628      2.372      4.433
REMARK INTER + INTRA:          -8.038
REMARK INTER:                  -7.609
REMARK INTRA:                  -0.429
REMARK UNBOUND:                -0.435
REMARK SMILES O=c1c(-c2ccc(O)cc2)coc2c([C@@H]3O[C@H](CO)[C@@H](O)[C@H](O)[C@H]3O)c(O)ccc12
REMARK SMILES IDX 3 1 11 2 12 3 13 4 30 5 2 6 1 7 29 8 28 9 26 10 14 11 4 12
REMARK SMILES IDX 5 13 6 14 7 15 10 16 9 17 8 18 15 20 24 21 16 22 22 23 17 24
REMARK SMILES IDX 20 25 25 26 23 28 18 30 19 31 21 33 27 35
REMARK H PARENT 8 19 25 27 23 29 19 32 21 34 27 36
REMARK Flexibility Score: inf
ROOT
ATOM      1  C   UNL     1     479.956  39.017 460.627  1.00  0.00     0.065 A 
ATOM      2  C   UNL     1     480.045  39.081 459.230  1.00  0.00     0.208 A 
ATOM      3  O   UNL     1     481.222  39.177 458.626  1.00  0.00    -0.463 OA
ATOM      4  C   UNL     1     482.380  39.218 459.283  1.00  0.00     0.147 A 
ATOM      5  C   UNL     1     482.382  39.143 460.694  1.00  0.00     0.066 A 
ATOM      6  C   UNL     1     481.151  39.039 461.368  1.00  0.00     0.200 A 
ATOM      7  O   UNL     1     481.118  38.945 462.626  1.00  0.00    -0.288 OA
ATOM      8  C   UNL     1     483.600  39.164 461.387  1.00  0.00     0.020 A 
ATOM      9  C   UNL     1     484.802  39.226 460.689  1.00  0.00     0.047 A 
ATOM     10  C   UNL     1     484.822  39.279 459.292  1.00  0.00     0.125 A 
ATOM     11  C   UNL     1     483.599  39.330 458.566  1.00  0.00     0.069 A 
ENDROOT
BRANCH   1  12
ATOM     12  C   UNL     1     478.626  38.919 461.280  1.00  0.00    -0.011 A 
ATOM     13  C   UNL     1     477.972  40.072 461.750  1.00  0.00     0.013 A 
ATOM     14  C   UNL     1     476.716  39.976 462.356  1.00  0.00     0.047 A 
ATOM     15  C   UNL     1     476.096  38.728 462.496  1.00  0.00     0.115 A 
ATOM     16  C   UNL     1     477.993  37.671 461.418  1.00  0.00     0.013 A 
ATOM     17  C   UNL     1     476.737  37.579 462.025  1.00  0.00     0.047 A 
BRANCH  15  18
ATOM     18  O   UNL     1     474.844  38.620 463.098  1.00  0.00    -0.508 OA
ATOM     19  H   UNL     1     474.681  37.981 463.868  1.00  0.00     0.293 HD
ENDBRANCH  15  18
ENDBRANCH   1  12
BRANCH  11  20
ATOM     20  C   UNL     1     483.577  39.464 457.047  1.00  0.00     0.188 C 
ATOM     21  C   UNL     1     482.522  38.506 456.441  1.00  0.00     0.179 C 
ATOM     22  O   UNL     1     483.284  40.810 456.701  1.00  0.00    -0.362 OA
ATOM     23  C   UNL     1     482.473  38.683 454.916  1.00  0.00     0.177 C 
ATOM     24  C   UNL     1     483.379  41.015 455.301  1.00  0.00     0.176 C 
ATOM     25  C   UNL     1     482.308  40.174 454.563  1.00  0.00     0.177 C 
BRANCH  21  26
ATOM     26  O   UNL     1     482.848  37.170 456.732  1.00  0.00    -0.387 OA
ATOM     27  H   UNL     1     482.045  36.757 457.144  1.00  0.00     0.211 HD
ENDBRANCH  21  26
BRANCH  23  28
ATOM     28  O   UNL     1     481.395  37.943 454.400  1.00  0.00    -0.387 OA
ATOM     29  H   UNL     1     481.552  36.995 454.651  1.00  0.00     0.211 HD
ENDBRANCH  23  28
BRANCH  24  30
ATOM     30  C   UNL     1     483.186  42.510 455.015  1.00  0.00     0.191 C 
BRANCH  30  31
ATOM     31  O   UNL     1     483.802  42.861 453.804  1.00  0.00    -0.394 OA
ATOM     32  H   UNL     1     484.755  42.596 453.884  1.00  0.00     0.210 HD
ENDBRANCH  30  31
ENDBRANCH  24  30
BRANCH  25  33
ATOM     33  O   UNL     1     482.380  40.364 453.171  1.00  0.00    -0.388 OA
ATOM     34  H   UNL     1     483.104  41.020 452.994  1.00  0.00     0.211 HD
ENDBRANCH  25  33
ENDBRANCH  11  20
BRANCH  10  35
ATOM     35  O   UNL     1     486.075  39.259 458.674  1.00  0.00    -0.507 OA
ATOM     36  H   UNL     1     486.859  38.705 458.986  1.00  0.00     0.293 HD
ENDBRANCH  10  35
TORSDOF 9
ENDMDL
MODEL 9
REMARK VINA RESULT:    -5.611      5.609      7.613
REMARK INTER + INTRA:          -8.014
REMARK INTER:                  -6.792
REMARK INTRA:                  -1.222
REMARK UNBOUND:                -0.435
REMARK SMILES O=c1c(-c2ccc(O)cc2)coc2c([C@@H]3O[C@H](CO)[C@@H](O)[C@H](O)[C@H]3O)c(O)ccc12
REMARK SMILES IDX 3 1 11 2 12 3 13 4 30 5 2 6 1 7 29 8 28 9 26 10 14 11 4 12
REMARK SMILES IDX 5 13 6 14 7 15 10 16 9 17 8 18 15 20 24 21 16 22 22 23 17 24
REMARK SMILES IDX 20 25 25 26 23 28 18 30 19 31 21 33 27 35
REMARK H PARENT 8 19 25 27 23 29 19 32 21 34 27 36
REMARK Flexibility Score: inf
ROOT
ATOM      1  C   UNL     1     480.429  37.947 454.199  1.00  0.00     0.065 A 
ATOM      2  C   UNL     1     480.493  37.614 455.559  1.00  0.00     0.208 A 
ATOM      3  O   UNL     1     481.306  38.262 456.382  1.00  0.00    -0.463 OA
ATOM      4  C   UNL     1     482.103  39.254 455.991  1.00  0.00     0.147 A 
ATOM      5  C   UNL     1     482.091  39.665 454.639  1.00  0.00     0.066 A 
ATOM      6  C   UNL     1     481.239  39.000 453.737  1.00  0.00     0.200 A 
ATOM      7  O   UNL     1     481.186  39.358 452.528  1.00  0.00    -0.288 OA
ATOM      8  C   UNL     1     482.914  40.723 454.229  1.00  0.00     0.020 A 
ATOM      9  C   UNL     1     483.713  41.387 455.154  1.00  0.00     0.047 A 
ATOM     10  C   UNL     1     483.724  41.010 456.500  1.00  0.00     0.125 A 
ATOM     11  C   UNL     1     482.952  39.894 456.930  1.00  0.00     0.069 A 
ENDROOT
BRANCH   1  12
ATOM     12  C   UNL     1     479.518  37.200 453.295  1.00  0.00    -0.011 A 
ATOM     13  C   UNL     1     479.967  36.058 452.609  1.00  0.00     0.013 A 
ATOM     14  C   UNL     1     479.103  35.353 451.766  1.00  0.00     0.047 A 
ATOM     15  C   UNL     1     477.779  35.777 451.602  1.00  0.00     0.115 A 
ATOM     16  C   UNL     1     478.185  37.615 453.130  1.00  0.00     0.013 A 
ATOM     17  C   UNL     1     477.323  36.908 452.286  1.00  0.00     0.047 A 
BRANCH  15  18
ATOM     18  O   UNL     1     476.908  35.083 450.765  1.00  0.00    -0.508 OA
ATOM     19  H   UNL     1     476.361  35.560 450.058  1.00  0.00     0.293 HD
ENDBRANCH  15  18
ENDBRANCH   1  12
BRANCH  11  20
ATOM     20  C   UNL     1     482.992  39.404 458.375  1.00  0.00     0.188 C 
ATOM     21  C   UNL     1     484.359  38.745 458.678  1.00  0.00     0.179 C 
ATOM     22  O   UNL     1     482.763  40.503 459.246  1.00  0.00    -0.362 OA
ATOM     23  C   UNL     1     484.408  38.299 460.147  1.00  0.00     0.177 C 
ATOM     24  C   UNL     1     482.663  40.077 460.595  1.00  0.00     0.176 C 
ATOM     25  C   UNL     1     484.007  39.469 461.067  1.00  0.00     0.177 C 
BRANCH  21  26
ATOM     26  O   UNL     1     484.556  37.622 457.857  1.00  0.00    -0.387 OA
ATOM     27  H   UNL     1     485.312  37.107 458.241  1.00  0.00     0.211 HD
ENDBRANCH  21  26
BRANCH  23  28
ATOM     28  O   UNL     1     485.708  37.867 460.456  1.00  0.00    -0.387 OA
ATOM     29  H   UNL     1     485.670  36.879 460.542  1.00  0.00     0.211 HD
ENDBRANCH  23  28
BRANCH  24  30
ATOM     30  C   UNL     1     482.283  41.288 461.458  1.00  0.00     0.191 C 
BRANCH  30  31
ATOM     31  O   UNL     1     483.431  41.877 462.008  1.00  0.00    -0.394 OA
ATOM     32  H   UNL     1     483.868  42.384 461.276  1.00  0.00     0.210 HD
ENDBRANCH  30  31
ENDBRANCH  24  30
BRANCH  25  33
ATOM     33  O   UNL     1     483.932  39.042 462.406  1.00  0.00    -0.388 OA
ATOM     34  H   UNL     1     484.750  38.514 462.599  1.00  0.00     0.211 HD
ENDBRANCH  25  33
ENDBRANCH  11  20
BRANCH  10  35
ATOM     35  O   UNL     1     484.497  41.783 457.371  1.00  0.00    -0.507 OA
ATOM     36  H   UNL     1     484.685  41.545 458.333  1.00  0.00     0.293 HD
ENDBRANCH  10  35
TORSDOF 9
ENDMDL
