MODEL 1
REMARK VINA RESULT:    -3.997      0.000      0.000
REMARK INTER + INTRA:          -4.328
REMARK INTER:                  -4.230
REMARK INTRA:                  -0.098
REMARK UNBOUND:                -0.098
REMARK SMILES C=C(C)[C@H]1CC=C(C)C(=O)C1
REMARK SMILES IDX 8 1 7 2 6 3 5 4 4 5 11 6 9 7 10 8 2 9 1 10 3 11
REMARK H PARENT
REMARK Flexibility Score: inf
ROOT
ATOM      1  C   UNL     1     195.412 188.780 196.245  1.00  0.00     0.048 C 
ATOM      2  C   UNL     1     194.450 188.220 195.233  1.00  0.00    -0.012 C 
ATOM      3  C   UNL     1     193.902 187.010 195.430  1.00  0.00    -0.019 C 
ATOM      4  C   UNL     1     192.948 186.394 194.441  1.00  0.00     0.036 C 
ATOM      5  C   UNL     1     192.105 187.476 193.737  1.00  0.00     0.025 C 
ATOM      6  C   UNL     1     193.023 188.528 193.087  1.00  0.00     0.089 C 
ATOM      7  C   UNL     1     194.014 189.056 194.087  1.00  0.00     0.158 C 
ATOM      8  O   UNL     1     194.500 190.208 193.921  1.00  0.00    -0.295 OA
ENDROOT
BRANCH   5   9
ATOM      9  C   UNL     1     191.142 186.869 192.726  1.00  0.00    -0.077 C 
ATOM     10  C   UNL     1     190.801 187.523 191.602  1.00  0.00     0.008 C 
ATOM     11  C   UNL     1     190.549 185.505 192.972  1.00  0.00     0.039 C 
ENDBRANCH   5   9
TORSDOF 1
ENDMDL
MODEL 2
REMARK VINA RESULT:    -3.899     12.319     14.393
REMARK INTER + INTRA:          -4.224
REMARK INTER:                  -4.131
REMARK INTRA:                  -0.093
REMARK UNBOUND:                -0.098
REMARK SMILES C=C(C)[C@H]1CC=C(C)C(=O)C1
REMARK SMILES IDX 8 1 7 2 6 3 5 4 4 5 11 6 9 7 10 8 2 9 1 10 3 11
REMARK H PARENT
REMARK Flexibility Score: inf
ROOT
ATOM      1  C   UNL     1     182.624 176.631 198.258  1.00  0.00     0.048 C 
ATOM      2  C   UNL     1     183.949 177.163 198.733  1.00  0.00    -0.012 C 
ATOM      3  C   UNL     1     184.585 178.106 198.019  1.00  0.00    -0.019 C 
ATOM      4  C   UNL     1     185.921 178.660 198.438  1.00  0.00     0.036 C 
ATOM      5  C   UNL     1     186.052 178.688 199.974  1.00  0.00     0.025 C 
ATOM      6  C   UNL     1     185.792 177.286 200.557  1.00  0.00     0.089 C 
ATOM      7  C   UNL     1     184.488 176.736 200.048  1.00  0.00     0.158 C 
ATOM      8  O   UNL     1     183.873 175.877 200.736  1.00  0.00    -0.295 OA
ENDROOT
BRANCH   5   9
ATOM      9  C   UNL     1     187.404 179.236 200.412  1.00  0.00    -0.077 C 
ATOM     10  C   UNL     1     188.523 178.496 200.322  1.00  0.00     0.008 C 
ATOM     11  C   UNL     1     187.509 180.636 200.960  1.00  0.00     0.039 C 
ENDBRANCH   5   9
TORSDOF 1
ENDMDL
MODEL 3
REMARK VINA RESULT:    -3.847     11.363     13.108
REMARK INTER + INTRA:          -4.170
REMARK INTER:                  -4.075
REMARK INTRA:                  -0.095
REMARK UNBOUND:                -0.098
REMARK SMILES C=C(C)[C@H]1CC=C(C)C(=O)C1
REMARK SMILES IDX 8 1 7 2 6 3 5 4 4 5 11 6 9 7 10 8 2 9 1 10 3 11
REMARK H PARENT
REMARK Flexibility Score: inf
ROOT
ATOM      1  C   UNL     1     188.843 180.181 199.446  1.00  0.00     0.048 C 
ATOM      2  C   UNL     1     187.664 179.248 199.404  1.00  0.00    -0.012 C 
ATOM      3  C   UNL     1     187.494 178.341 200.381  1.00  0.00    -0.019 C 
ATOM      4  C   UNL     1     186.342 177.371 200.378  1.00  0.00     0.036 C 
ATOM      5  C   UNL     1     185.091 177.999 199.733  1.00  0.00     0.025 C 
ATOM      6  C   UNL     1     185.422 178.515 198.320  1.00  0.00     0.089 C 
ATOM      7  C   UNL     1     186.628 179.414 198.355  1.00  0.00     0.158 C 
ATOM      8  O   UNL     1     186.767 180.289 197.458  1.00  0.00    -0.295 OA
ENDROOT
BRANCH   5   9
ATOM      9  C   UNL     1     183.920 177.024 199.714  1.00  0.00    -0.077 C 
ATOM     10  C   UNL     1     183.638 176.247 200.775  1.00  0.00     0.008 C 
ATOM     11  C   UNL     1     183.047 176.916 198.491  1.00  0.00     0.039 C 
ENDBRANCH   5   9
TORSDOF 1
ENDMDL
MODEL 4
REMARK VINA RESULT:    -3.844     12.245     14.225
REMARK INTER + INTRA:          -4.166
REMARK INTER:                  -4.073
REMARK INTRA:                  -0.093
REMARK UNBOUND:                -0.098
REMARK SMILES C=C(C)[C@H]1CC=C(C)C(=O)C1
REMARK SMILES IDX 8 1 7 2 6 3 5 4 4 5 11 6 9 7 10 8 2 9 1 10 3 11
REMARK H PARENT
REMARK Flexibility Score: inf
ROOT
ATOM      1  C   UNL     1     182.233 176.317 198.107  1.00  0.00     0.048 C 
ATOM      2  C   UNL     1     183.431 177.079 198.603  1.00  0.00    -0.012 C 
ATOM      3  C   UNL     1     183.752 177.045 199.907  1.00  0.00    -0.019 C 
ATOM      4  C   UNL     1     184.930 177.804 200.459  1.00  0.00     0.036 C 
ATOM      5  C   UNL     1     186.070 177.888 199.425  1.00  0.00     0.025 C 
ATOM      6  C   UNL     1     185.550 178.494 198.107  1.00  0.00     0.089 C 
ATOM      7  C   UNL     1     184.325 177.761 197.635  1.00  0.00     0.158 C 
ATOM      8  O   UNL     1     184.045 177.762 196.405  1.00  0.00    -0.295 OA
ENDROOT
BRANCH   5   9
ATOM      9  C   UNL     1     187.264 178.662 199.966  1.00  0.00    -0.077 C 
ATOM     10  C   UNL     1     187.134 179.916 200.431  1.00  0.00     0.008 C 
ATOM     11  C   UNL     1     188.630 178.024 199.990  1.00  0.00     0.039 C 
ENDBRANCH   5   9
TORSDOF 1
ENDMDL
MODEL 5
REMARK VINA RESULT:    -3.821      7.712      9.187
REMARK INTER + INTRA:          -4.142
REMARK INTER:                  -4.047
REMARK INTRA:                  -0.095
REMARK UNBOUND:                -0.098
REMARK SMILES C=C(C)[C@H]1CC=C(C)C(=O)C1
REMARK SMILES IDX 8 1 7 2 6 3 5 4 4 5 11 6 9 7 10 8 2 9 1 10 3 11
REMARK H PARENT
REMARK Flexibility Score: inf
ROOT
ATOM      1  C   UNL     1     182.869 188.827 193.254  1.00  0.00     0.048 C 
ATOM      2  C   UNL     1     183.908 188.029 193.995  1.00  0.00    -0.012 C 
ATOM      3  C   UNL     1     184.802 188.658 194.776  1.00  0.00    -0.019 C 
ATOM      4  C   UNL     1     185.873 187.912 195.525  1.00  0.00     0.036 C 
ATOM      5  C   UNL     1     185.379 186.515 195.952  1.00  0.00     0.025 C 
ATOM      6  C   UNL     1     184.870 185.732 194.727  1.00  0.00     0.089 C 
ATOM      7  C   UNL     1     183.864 186.547 193.961  1.00  0.00     0.158 C 
ATOM      8  O   UNL     1     183.002 185.954 193.257  1.00  0.00    -0.295 OA
ENDROOT
BRANCH   5   9
ATOM      9  C   UNL     1     186.457 185.743 196.703  1.00  0.00    -0.077 C 
ATOM     10  C   UNL     1     187.106 184.713 196.134  1.00  0.00     0.008 C 
ATOM     11  C   UNL     1     186.818 186.129 198.114  1.00  0.00     0.039 C 
ENDBRANCH   5   9
TORSDOF 1
ENDMDL
MODEL 6
REMARK VINA RESULT:    -3.820      4.888      6.502
REMARK INTER + INTRA:          -4.142
REMARK INTER:                  -4.046
REMARK INTRA:                  -0.096
REMARK UNBOUND:                -0.098
REMARK SMILES C=C(C)[C@H]1CC=C(C)C(=O)C1
REMARK SMILES IDX 8 1 7 2 6 3 5 4 4 5 11 6 9 7 10 8 2 9 1 10 3 11
REMARK H PARENT
REMARK Flexibility Score: inf
ROOT
ATOM      1  C   UNL     1     189.794 183.884 193.324  1.00  0.00     0.048 C 
ATOM      2  C   UNL     1     188.775 184.710 194.060  1.00  0.00    -0.012 C 
ATOM      3  C   UNL     1     187.848 184.106 194.822  1.00  0.00    -0.019 C 
ATOM      4  C   UNL     1     186.795 184.883 195.566  1.00  0.00     0.036 C 
ATOM      5  C   UNL     1     187.333 186.256 196.015  1.00  0.00     0.025 C 
ATOM      6  C   UNL     1     187.887 187.033 194.806  1.00  0.00     0.089 C 
ATOM      7  C   UNL     1     188.873 186.190 194.043  1.00  0.00     0.158 C 
ATOM      8  O   UNL     1     189.764 186.759 193.357  1.00  0.00    -0.295 OA
ENDROOT
BRANCH   5   9
ATOM      9  C   UNL     1     186.274 187.058 196.760  1.00  0.00    -0.077 C 
ATOM     10  C   UNL     1     185.644 188.095 196.181  1.00  0.00     0.008 C 
ATOM     11  C   UNL     1     185.910 186.695 198.177  1.00  0.00     0.039 C 
ENDBRANCH   5   9
TORSDOF 1
ENDMDL
MODEL 7
REMARK VINA RESULT:    -3.782     13.154     14.225
REMARK INTER + INTRA:          -4.100
REMARK INTER:                  -4.006
REMARK INTRA:                  -0.095
REMARK UNBOUND:                -0.098
REMARK SMILES C=C(C)[C@H]1CC=C(C)C(=O)C1
REMARK SMILES IDX 8 1 7 2 6 3 5 4 4 5 11 6 9 7 10 8 2 9 1 10 3 11
REMARK H PARENT
REMARK Flexibility Score: inf
ROOT
ATOM      1  C   UNL     1     183.820 178.415 200.749  1.00  0.00     0.048 C 
ATOM      2  C   UNL     1     183.945 177.832 199.367  1.00  0.00    -0.012 C 
ATOM      3  C   UNL     1     183.053 176.923 198.942  1.00  0.00    -0.019 C 
ATOM      4  C   UNL     1     183.141 176.295 197.577  1.00  0.00     0.036 C 
ATOM      5  C   UNL     1     183.729 177.282 196.549  1.00  0.00     0.025 C 
ATOM      6  C   UNL     1     185.090 177.812 197.038  1.00  0.00     0.089 C 
ATOM      7  C   UNL     1     184.975 178.355 198.436  1.00  0.00     0.158 C 
ATOM      8  O   UNL     1     185.791 179.235 198.822  1.00  0.00    -0.295 OA
ENDROOT
BRANCH   5   9
ATOM      9  C   UNL     1     183.834 176.656 195.165  1.00  0.00    -0.077 C 
ATOM     10  C   UNL     1     182.857 175.875 194.673  1.00  0.00     0.008 C 
ATOM     11  C   UNL     1     185.052 176.908 194.313  1.00  0.00     0.039 C 
ENDBRANCH   5   9
TORSDOF 1
ENDMDL
MODEL 8
REMARK VINA RESULT:    -3.730     12.282     12.965
REMARK INTER + INTRA:          -4.046
REMARK INTER:                  -3.950
REMARK INTRA:                  -0.096
REMARK UNBOUND:                -0.098
REMARK SMILES C=C(C)[C@H]1CC=C(C)C(=O)C1
REMARK SMILES IDX 8 1 7 2 6 3 5 4 4 5 11 6 9 7 10 8 2 9 1 10 3 11
REMARK H PARENT
REMARK Flexibility Score: inf
ROOT
ATOM      1  C   UNL     1     190.461 177.398 200.016  1.00  0.00     0.048 C 
ATOM      2  C   UNL     1     189.007 177.667 199.740  1.00  0.00    -0.012 C 
ATOM      3  C   UNL     1     188.325 176.864 198.906  1.00  0.00    -0.019 C 
ATOM      4  C   UNL     1     186.873 177.097 198.581  1.00  0.00     0.036 C 
ATOM      5  C   UNL     1     186.128 177.711 199.783  1.00  0.00     0.025 C 
ATOM      6  C   UNL     1     186.837 178.997 200.250  1.00  0.00     0.089 C 
ATOM      7  C   UNL     1     188.300 178.739 200.483  1.00  0.00     0.158 C 
ATOM      8  O   UNL     1     188.931 179.470 201.294  1.00  0.00    -0.295 OA
ENDROOT
BRANCH   5   9
ATOM      9  C   UNL     1     184.660 177.963 199.465  1.00  0.00    -0.077 C 
ATOM     10  C   UNL     1     183.809 178.420 200.400  1.00  0.00     0.008 C 
ATOM     11  C   UNL     1     184.132 177.701 198.078  1.00  0.00     0.039 C 
ENDBRANCH   5   9
TORSDOF 1
ENDMDL
