MODEL 1
REMARK VINA RESULT:    -2.855      0.000      0.000
REMARK INTER + INTRA:          -4.671
REMARK INTER:                  -4.357
REMARK INTRA:                  -0.314
REMARK UNBOUND:                -0.314
REMARK SMILES O=C([O-])CCCCCCCCC(=O)[O-]
REMARK SMILES IDX 7 1 6 2 5 3 4 4 2 5 1 6 3 7 8 8 9 9 10 10 11 11 12 12 13 13
REMARK SMILES IDX 14 14
REMARK H PARENT
REMARK Flexibility Score: inf
ROOT
ATOM      1  C   UNL     1     -28.242 -21.507 -23.113  1.00  0.00     0.000 C 
ENDROOT
BRANCH   1   2
ATOM      2  C   UNL     1     -29.351 -22.083 -22.213  1.00  0.00     0.000 C 
BRANCH   2   3
ATOM      3  C   UNL     1     -29.233 -21.626 -20.749  1.00  0.00     0.006 C 
BRANCH   3   4
ATOM      4  C   UNL     1     -27.939 -22.120 -20.090  1.00  0.00     0.053 C 
BRANCH   4   5
ATOM      5  C   UNL     1     -28.018 -22.062 -18.595  1.00  0.00     0.041 C 
ATOM      6  O   UNL     1     -26.966 -21.981 -17.907  1.00  0.00    -0.550 OA
ATOM      7  O   UNL     1     -29.252 -22.125 -17.961  1.00  0.00    -0.550 OA
ENDBRANCH   4   5
ENDBRANCH   3   4
ENDBRANCH   2   3
ENDBRANCH   1   2
BRANCH   1   8
ATOM      8  C   UNL     1     -28.703 -20.432 -24.114  1.00  0.00     0.000 C 
BRANCH   8   9
ATOM      9  C   UNL     1     -29.694 -20.972 -25.160  1.00  0.00     0.000 C 
BRANCH   9  10
ATOM     10  C   UNL     1     -31.156 -20.853 -24.702  1.00  0.00     0.006 C 
BRANCH  10  11
ATOM     11  C   UNL     1     -31.482 -19.474 -24.112  1.00  0.00     0.053 C 
BRANCH  11  12
ATOM     12  C   UNL     1     -32.154 -19.620 -22.784  1.00  0.00     0.041 C 
ATOM     13  O   UNL     1     -32.641 -18.613 -22.205  1.00  0.00    -0.550 OA
ATOM     14  O   UNL     1     -32.287 -20.877 -22.206  1.00  0.00    -0.550 OA
ENDBRANCH  11  12
ENDBRANCH  10  11
ENDBRANCH   9  10
ENDBRANCH   8   9
ENDBRANCH   1   8
TORSDOF 9
ENDMDL
MODEL 2
REMARK VINA RESULT:    -2.077      2.179      6.093
REMARK INTER + INTRA:          -3.484
REMARK INTER:                  -3.483
REMARK INTRA:                  -0.001
REMARK UNBOUND:                -0.314
REMARK SMILES O=C([O-])CCCCCCCCC(=O)[O-]
REMARK SMILES IDX 7 1 6 2 5 3 4 4 2 5 1 6 3 7 8 8 9 9 10 10 11 11 12 12 13 13
REMARK SMILES IDX 14 14
REMARK H PARENT
REMARK Flexibility Score: inf
ROOT
ATOM      1  C   UNL     1     -31.014 -21.161 -21.584  1.00  0.00     0.000 C 
ENDROOT
BRANCH   1   2
ATOM      2  C   UNL     1     -31.963 -20.444 -22.562  1.00  0.00     0.000 C 
BRANCH   2   3
ATOM      3  C   UNL     1     -31.885 -21.003 -23.993  1.00  0.00     0.006 C 
BRANCH   3   4
ATOM      4  C   UNL     1     -31.224 -20.016 -24.964  1.00  0.00     0.053 C 
BRANCH   4   5
ATOM      5  C   UNL     1     -30.670 -20.710 -26.170  1.00  0.00     0.041 C 
ATOM      6  O   UNL     1     -30.099 -20.048 -27.077  1.00  0.00    -0.550 OA
ATOM      7  O   UNL     1     -30.807 -22.086 -26.305  1.00  0.00    -0.550 OA
ENDBRANCH   4   5
ENDBRANCH   3   4
ENDBRANCH   2   3
ENDBRANCH   1   2
BRANCH   1   8
ATOM      8  C   UNL     1     -29.938 -22.043 -22.243  1.00  0.00     0.000 C 
BRANCH   8   9
ATOM      9  C   UNL     1     -28.540 -21.401 -22.222  1.00  0.00     0.000 C 
BRANCH   9  10
ATOM     10  C   UNL     1     -27.950 -21.320 -20.805  1.00  0.00     0.006 C 
BRANCH  10  11
ATOM     11  C   UNL     1     -28.767 -22.116 -19.778  1.00  0.00     0.053 C 
BRANCH  11  12
ATOM     12  C   UNL     1     -28.307 -21.802 -18.390  1.00  0.00     0.041 C 
ATOM     13  O   UNL     1     -29.052 -22.048 -17.404  1.00  0.00    -0.550 OA
ATOM     14  O   UNL     1     -27.036 -21.282 -18.179  1.00  0.00    -0.550 OA
ENDBRANCH  11  12
ENDBRANCH  10  11
ENDBRANCH   9  10
ENDBRANCH   8   9
ENDBRANCH   1   8
TORSDOF 9
ENDMDL
MODEL 3
REMARK VINA RESULT:    -1.986      1.914      2.302
REMARK INTER + INTRA:          -3.345
REMARK INTER:                  -4.107
REMARK INTRA:                   0.763
REMARK UNBOUND:                -0.314
REMARK SMILES O=C([O-])CCCCCCCCC(=O)[O-]
REMARK SMILES IDX 7 1 6 2 5 3 4 4 2 5 1 6 3 7 8 8 9 9 10 10 11 11 12 12 13 13
REMARK SMILES IDX 14 14
REMARK H PARENT
REMARK Flexibility Score: inf
ROOT
ATOM      1  C   UNL     1     -27.582 -21.602 -21.758  1.00  0.00     0.000 C 
ENDROOT
BRANCH   1   2
ATOM      2  C   UNL     1     -28.858 -21.402 -20.921  1.00  0.00     0.000 C 
BRANCH   2   3
ATOM      3  C   UNL     1     -28.752 -22.007 -19.510  1.00  0.00     0.006 C 
BRANCH   3   4
ATOM      4  C   UNL     1     -27.297 -22.125 -19.039  1.00  0.00     0.053 C 
BRANCH   4   5
ATOM      5  C   UNL     1     -27.192 -22.103 -17.545  1.00  0.00     0.041 C 
ATOM      6  O   UNL     1     -26.063 -22.090 -16.988  1.00  0.00    -0.550 OA
ATOM      7  O   UNL     1     -28.343 -22.124 -16.767  1.00  0.00    -0.550 OA
ENDBRANCH   4   5
ENDBRANCH   3   4
ENDBRANCH   2   3
ENDBRANCH   1   2
BRANCH   1   8
ATOM      8  C   UNL     1     -27.785 -21.549 -23.284  1.00  0.00     0.000 C 
BRANCH   8   9
ATOM      9  C   UNL     1     -29.245 -21.789 -23.704  1.00  0.00     0.000 C 
BRANCH   9  10
ATOM     10  C   UNL     1     -30.221 -20.818 -23.020  1.00  0.00     0.006 C 
BRANCH  10  11
ATOM     11  C   UNL     1     -31.437 -20.487 -23.896  1.00  0.00     0.053 C 
BRANCH  11  12
ATOM     12  C   UNL     1     -31.001 -20.133 -25.282  1.00  0.00     0.041 C 
ATOM     13  O   UNL     1     -31.256 -20.904 -26.244  1.00  0.00    -0.550 OA
ATOM     14  O   UNL     1     -30.355 -18.926 -25.521  1.00  0.00    -0.550 OA
ENDBRANCH  11  12
ENDBRANCH  10  11
ENDBRANCH   9  10
ENDBRANCH   8   9
ENDBRANCH   1   8
TORSDOF 9
ENDMDL
MODEL 4
REMARK VINA RESULT:    -1.370      3.007      4.671
REMARK INTER + INTRA:          -2.406
REMARK INTER:                  -2.892
REMARK INTRA:                   0.486
REMARK UNBOUND:                -0.314
REMARK SMILES O=C([O-])CCCCCCCCC(=O)[O-]
REMARK SMILES IDX 7 1 6 2 5 3 4 4 2 5 1 6 3 7 8 8 9 9 10 10 11 11 12 12 13 13
REMARK SMILES IDX 14 14
REMARK H PARENT
REMARK Flexibility Score: inf
ROOT
ATOM      1  C   UNL     1     -27.688 -22.125 -21.555  1.00  0.00     0.000 C 
ENDROOT
BRANCH   1   2
ATOM      2  C   UNL     1     -27.478 -21.940 -23.069  1.00  0.00     0.000 C 
BRANCH   2   3
ATOM      3  C   UNL     1     -28.329 -20.802 -23.659  1.00  0.00     0.006 C 
BRANCH   3   4
ATOM      4  C   UNL     1     -29.495 -21.330 -24.504  1.00  0.00     0.053 C 
BRANCH   4   5
ATOM      5  C   UNL     1     -29.901 -20.353 -25.564  1.00  0.00     0.041 C 
ATOM      6  O   UNL     1     -30.042 -19.134 -25.283  1.00  0.00    -0.550 OA
ATOM      7  O   UNL     1     -30.151 -20.794 -26.858  1.00  0.00    -0.550 OA
ENDBRANCH   4   5
ENDBRANCH   3   4
ENDBRANCH   2   3
ENDBRANCH   1   2
BRANCH   1   8
ATOM      8  C   UNL     1     -28.858 -21.326 -20.954  1.00  0.00     0.000 C 
BRANCH   8   9
ATOM      9  C   UNL     1     -30.179 -22.115 -20.941  1.00  0.00     0.000 C 
BRANCH   9  10
ATOM     10  C   UNL     1     -31.112 -21.720 -22.097  1.00  0.00     0.006 C 
BRANCH  10  11
ATOM     11  C   UNL     1     -32.263 -20.811 -21.645  1.00  0.00     0.053 C 
BRANCH  11  12
ATOM     12  C   UNL     1     -32.412 -19.654 -22.581  1.00  0.00     0.041 C 
ATOM     13  O   UNL     1     -32.469 -19.846 -23.824  1.00  0.00    -0.550 OA
ATOM     14  O   UNL     1     -32.537 -18.365 -22.078  1.00  0.00    -0.550 OA
ENDBRANCH  11  12
ENDBRANCH  10  11
ENDBRANCH   9  10
ENDBRANCH   8   9
ENDBRANCH   1   8
TORSDOF 9
ENDMDL
MODEL 5
REMARK VINA RESULT:    -1.213      2.610      3.741
REMARK INTER + INTRA:          -2.165
REMARK INTER:                  -1.754
REMARK INTRA:                  -0.411
REMARK UNBOUND:                -0.314
REMARK SMILES O=C([O-])CCCCCCCCC(=O)[O-]
REMARK SMILES IDX 7 1 6 2 5 3 4 4 2 5 1 6 3 7 8 8 9 9 10 10 11 11 12 12 13 13
REMARK SMILES IDX 14 14
REMARK H PARENT
REMARK Flexibility Score: inf
ROOT
ATOM      1  C   UNL     1     -32.304 -19.704 -21.900  1.00  0.00     0.000 C 
ENDROOT
BRANCH   1   2
ATOM      2  C   UNL     1     -32.193 -21.239 -21.887  1.00  0.00     0.000 C 
BRANCH   2   3
ATOM      3  C   UNL     1     -30.890 -21.741 -21.242  1.00  0.00     0.006 C 
BRANCH   3   4
ATOM      4  C   UNL     1     -29.806 -22.043 -22.285  1.00  0.00     0.053 C 
BRANCH   4   5
ATOM      5  C   UNL     1     -28.432 -21.763 -21.757  1.00  0.00     0.041 C 
ATOM      6  O   UNL     1     -28.243 -21.630 -20.520  1.00  0.00    -0.550 OA
ATOM      7  O   UNL     1     -27.365 -21.622 -22.636  1.00  0.00    -0.550 OA
ENDBRANCH   4   5
ENDBRANCH   3   4
ENDBRANCH   2   3
ENDBRANCH   1   2
BRANCH   1   8
ATOM      8  C   UNL     1     -32.421 -19.067 -23.298  1.00  0.00     0.000 C 
BRANCH   8   9
ATOM      9  C   UNL     1     -31.836 -19.952 -24.411  1.00  0.00     0.000 C 
BRANCH   9  10
ATOM     10  C   UNL     1     -30.695 -19.260 -25.176  1.00  0.00     0.006 C 
BRANCH  10  11
ATOM     11  C   UNL     1     -30.393 -19.932 -26.522  1.00  0.00     0.053 C 
BRANCH  11  12
ATOM     12  C   UNL     1     -30.404 -21.421 -26.376  1.00  0.00     0.041 C 
ATOM     13  O   UNL     1     -31.144 -22.125 -27.113  1.00  0.00    -0.550 OA
ATOM     14  O   UNL     1     -29.561 -22.037 -25.460  1.00  0.00    -0.550 OA
ENDBRANCH  11  12
ENDBRANCH  10  11
ENDBRANCH   9  10
ENDBRANCH   8   9
ENDBRANCH   1   8
TORSDOF 9
ENDMDL
MODEL 6
REMARK VINA RESULT:    -1.207      2.910      4.578
REMARK INTER + INTRA:          -2.156
REMARK INTER:                  -1.706
REMARK INTRA:                  -0.450
REMARK UNBOUND:                -0.314
REMARK SMILES O=C([O-])CCCCCCCCC(=O)[O-]
REMARK SMILES IDX 7 1 6 2 5 3 4 4 2 5 1 6 3 7 8 8 9 9 10 10 11 11 12 12 13 13
REMARK SMILES IDX 14 14
REMARK H PARENT
REMARK Flexibility Score: inf
ROOT
ATOM      1  C   UNL     1     -28.987 -21.969 -20.612  1.00  0.00     0.000 C 
ENDROOT
BRANCH   1   2
ATOM      2  C   UNL     1     -30.400 -22.125 -21.202  1.00  0.00     0.000 C 
BRANCH   2   3
ATOM      3  C   UNL     1     -31.202 -20.813 -21.195  1.00  0.00     0.006 C 
BRANCH   3   4
ATOM      4  C   UNL     1     -32.222 -20.752 -22.339  1.00  0.00     0.053 C 
BRANCH   4   5
ATOM      5  C   UNL     1     -32.573 -19.340 -22.698  1.00  0.00     0.041 C 
ATOM      6  O   UNL     1     -32.988 -19.063 -23.854  1.00  0.00    -0.550 OA
ATOM      7  O   UNL     1     -32.415 -18.326 -21.761  1.00  0.00    -0.550 OA
ENDBRANCH   4   5
ENDBRANCH   3   4
ENDBRANCH   2   3
ENDBRANCH   1   2
BRANCH   1   8
ATOM      8  C   UNL     1     -27.963 -21.281 -21.534  1.00  0.00     0.000 C 
BRANCH   8   9
ATOM      9  C   UNL     1     -28.005 -21.811 -22.977  1.00  0.00     0.000 C 
BRANCH   9  10
ATOM     10  C   UNL     1     -28.702 -20.838 -23.942  1.00  0.00     0.006 C 
BRANCH  10  11
ATOM     11  C   UNL     1     -29.968 -21.435 -24.571  1.00  0.00     0.053 C 
BRANCH  11  12
ATOM     12  C   UNL     1     -30.282 -20.749 -25.863  1.00  0.00     0.041 C 
ATOM     13  O   UNL     1     -30.489 -19.507 -25.887  1.00  0.00    -0.550 OA
ATOM     14  O   UNL     1     -30.298 -21.472 -27.049  1.00  0.00    -0.550 OA
ENDBRANCH  11  12
ENDBRANCH  10  11
ENDBRANCH   9  10
ENDBRANCH   8   9
ENDBRANCH   1   8
TORSDOF 9
ENDMDL
MODEL 7
REMARK VINA RESULT:    -1.199      0.657      5.388
REMARK INTER + INTRA:          -2.144
REMARK INTER:                  -1.908
REMARK INTRA:                  -0.236
REMARK UNBOUND:                -0.314
REMARK SMILES O=C([O-])CCCCCCCCC(=O)[O-]
REMARK SMILES IDX 7 1 6 2 5 3 4 4 2 5 1 6 3 7 8 8 9 9 10 10 11 11 12 12 13 13
REMARK SMILES IDX 14 14
REMARK H PARENT
REMARK Flexibility Score: inf
ROOT
ATOM      1  C   UNL     1     -28.407 -20.524 -23.820  1.00  0.00     0.000 C 
ENDROOT
BRANCH   1   2
ATOM      2  C   UNL     1     -29.522 -20.451 -24.878  1.00  0.00     0.000 C 
BRANCH   2   3
ATOM      3  C   UNL     1     -30.830 -21.121 -24.421  1.00  0.00     0.006 C 
BRANCH   3   4
ATOM      4  C   UNL     1     -31.935 -20.096 -24.136  1.00  0.00     0.053 C 
BRANCH   4   5
ATOM      5  C   UNL     1     -32.190 -19.947 -22.667  1.00  0.00     0.041 C 
ATOM      6  O   UNL     1     -32.165 -20.955 -21.913  1.00  0.00    -0.550 OA
ATOM      7  O   UNL     1     -32.480 -18.696 -22.135  1.00  0.00    -0.550 OA
ENDBRANCH   4   5
ENDBRANCH   3   4
ENDBRANCH   2   3
ENDBRANCH   1   2
BRANCH   1   8
ATOM      8  C   UNL     1     -28.191 -21.913 -23.191  1.00  0.00     0.000 C 
BRANCH   8   9
ATOM      9  C   UNL     1     -29.011 -22.125 -21.907  1.00  0.00     0.000 C 
BRANCH   9  10
ATOM     10  C   UNL     1     -28.178 -21.904 -20.634  1.00  0.00     0.006 C 
BRANCH  10  11
ATOM     11  C   UNL     1     -29.024 -21.970 -19.355  1.00  0.00     0.053 C 
BRANCH  11  12
ATOM     12  C   UNL     1     -28.146 -21.914 -18.145  1.00  0.00     0.041 C 
ATOM     13  O   UNL     1     -26.923 -21.634 -18.262  1.00  0.00    -0.550 OA
ATOM     14  O   UNL     1     -28.686 -22.123 -16.883  1.00  0.00    -0.550 OA
ENDBRANCH  11  12
ENDBRANCH  10  11
ENDBRANCH   9  10
ENDBRANCH   8   9
ENDBRANCH   1   8
TORSDOF 9
ENDMDL
MODEL 8
REMARK VINA RESULT:    -0.938      2.621      5.860
REMARK INTER + INTRA:          -1.747
REMARK INTER:                  -1.511
REMARK INTRA:                  -0.236
REMARK UNBOUND:                -0.314
REMARK SMILES O=C([O-])CCCCCCCCC(=O)[O-]
REMARK SMILES IDX 7 1 6 2 5 3 4 4 2 5 1 6 3 7 8 8 9 9 10 10 11 11 12 12 13 13
REMARK SMILES IDX 14 14
REMARK H PARENT
REMARK Flexibility Score: inf
ROOT
ATOM      1  C   UNL     1     -32.241 -19.732 -21.823  1.00  0.00     0.000 C 
ENDROOT
BRANCH   1   2
ATOM      2  C   UNL     1     -32.475 -18.885 -23.087  1.00  0.00     0.000 C 
BRANCH   2   3
ATOM      3  C   UNL     1     -32.216 -19.663 -24.388  1.00  0.00     0.006 C 
BRANCH   3   4
ATOM      4  C   UNL     1     -30.719 -19.811 -24.686  1.00  0.00     0.053 C 
BRANCH   4   5
ATOM      5  C   UNL     1     -30.462 -20.830 -25.754  1.00  0.00     0.041 C 
ATOM      6  O   UNL     1     -29.619 -20.601 -26.660  1.00  0.00    -0.550 OA
ATOM      7  O   UNL     1     -31.175 -22.023 -25.762  1.00  0.00    -0.550 OA
ENDBRANCH   4   5
ENDBRANCH   3   4
ENDBRANCH   2   3
ENDBRANCH   1   2
BRANCH   1   8
ATOM      8  C   UNL     1     -31.767 -21.175 -22.080  1.00  0.00     0.000 C 
BRANCH   8   9
ATOM      9  C   UNL     1     -31.221 -21.861 -20.816  1.00  0.00     0.000 C 
BRANCH   9  10
ATOM     10  C   UNL     1     -29.708 -22.121 -20.893  1.00  0.00     0.006 C 
BRANCH  10  11
ATOM     11  C   UNL     1     -29.117 -21.770 -22.265  1.00  0.00     0.053 C 
BRANCH  11  12
ATOM     12  C   UNL     1     -27.623 -21.837 -22.222  1.00  0.00     0.041 C 
ATOM     13  O   UNL     1     -27.030 -22.074 -21.136  1.00  0.00    -0.550 OA
ATOM     14  O   UNL     1     -26.885 -21.687 -23.390  1.00  0.00    -0.550 OA
ENDBRANCH  11  12
ENDBRANCH  10  11
ENDBRANCH   9  10
ENDBRANCH   8   9
ENDBRANCH   1   8
TORSDOF 9
ENDMDL
