MODEL 1
REMARK VINA RESULT:    -4.733      0.000      0.000
REMARK INTER + INTRA:          -4.871
REMARK INTER:                  -4.871
REMARK INTRA:                   0.000
REMARK UNBOUND:                 0.000
REMARK SMILES Cc1ccccc1O
REMARK SMILES IDX 1 1 2 2 3 3 4 4 5 5 6 6 7 7 8 8
REMARK H PARENT 8 9
REMARK Flexibility Score: inf
ROOT
ATOM      1  C   UNL     1     -11.140  -3.691  -8.855  1.00  0.00     0.048 C 
ATOM      2  C   UNL     1     -10.875  -4.486  -7.608  1.00  0.00    -0.009 A 
ATOM      3  C   UNL     1     -10.071  -5.639  -7.677  1.00  0.00     0.007 A 
ATOM      4  C   UNL     1      -9.813  -6.392  -6.530  1.00  0.00     0.001 A 
ATOM      5  C   UNL     1     -10.352  -6.004  -5.302  1.00  0.00     0.004 A 
ATOM      6  C   UNL     1     -11.150  -4.862  -5.218  1.00  0.00     0.046 A 
ATOM      7  C   UNL     1     -11.418  -4.097  -6.360  1.00  0.00     0.118 A 
ENDROOT
BRANCH   7   8
ATOM      8  O   UNL     1     -12.223  -2.964  -6.225  1.00  0.00    -0.508 OA
ATOM      9  H   UNL     1     -12.295  -2.438  -5.363  1.00  0.00     0.293 HD
ENDBRANCH   7   8
TORSDOF 1
ENDMDL
MODEL 2
REMARK VINA RESULT:    -4.659      1.893      2.542
REMARK INTER + INTRA:          -4.796
REMARK INTER:                  -4.796
REMARK INTRA:                   0.000
REMARK UNBOUND:                 0.000
REMARK SMILES Cc1ccccc1O
REMARK SMILES IDX 1 1 2 2 3 3 4 4 5 5 6 6 7 7 8 8
REMARK H PARENT 8 9
REMARK Flexibility Score: inf
ROOT
ATOM      1  C   UNL     1     -11.123  -3.819  -9.217  1.00  0.00     0.048 C 
ATOM      2  C   UNL     1     -11.316  -4.552  -7.919  1.00  0.00    -0.009 A 
ATOM      3  C   UNL     1     -12.245  -4.067  -6.980  1.00  0.00     0.007 A 
ATOM      4  C   UNL     1     -12.440  -4.732  -5.767  1.00  0.00     0.001 A 
ATOM      5  C   UNL     1     -11.711  -5.887  -5.478  1.00  0.00     0.004 A 
ATOM      6  C   UNL     1     -10.787  -6.380  -6.401  1.00  0.00     0.046 A 
ATOM      7  C   UNL     1     -10.581  -5.723  -7.620  1.00  0.00     0.118 A 
ENDROOT
BRANCH   7   8
ATOM      8  O   UNL     1      -9.645  -6.255  -8.510  1.00  0.00    -0.508 OA
ATOM      9  H   UNL     1      -9.902  -6.828  -9.303  1.00  0.00     0.293 HD
ENDBRANCH   7   8
TORSDOF 1
ENDMDL
MODEL 3
REMARK VINA RESULT:    -4.647      0.837      2.651
REMARK INTER + INTRA:          -4.783
REMARK INTER:                  -4.783
REMARK INTRA:                   0.000
REMARK UNBOUND:                 0.000
REMARK SMILES Cc1ccccc1O
REMARK SMILES IDX 1 1 2 2 3 3 4 4 5 5 6 6 7 7 8 8
REMARK H PARENT 8 9
REMARK Flexibility Score: inf
ROOT
ATOM      1  C   UNL     1     -11.209  -5.497  -5.095  1.00  0.00     0.048 C 
ATOM      2  C   UNL     1     -11.089  -5.150  -6.553  1.00  0.00    -0.009 A 
ATOM      3  C   UNL     1     -10.610  -6.113  -7.460  1.00  0.00     0.007 A 
ATOM      4  C   UNL     1     -10.490  -5.810  -8.817  1.00  0.00     0.001 A 
ATOM      5  C   UNL     1     -10.847  -4.544  -9.286  1.00  0.00     0.004 A 
ATOM      6  C   UNL     1     -11.324  -3.579  -8.398  1.00  0.00     0.046 A 
ATOM      7  C   UNL     1     -11.449  -3.869  -7.034  1.00  0.00     0.118 A 
ENDROOT
BRANCH   7   8
ATOM      8  O   UNL     1     -11.930  -2.869  -6.185  1.00  0.00    -0.508 OA
ATOM      9  H   UNL     1     -12.831  -2.426  -6.311  1.00  0.00     0.293 HD
ENDBRANCH   7   8
TORSDOF 1
ENDMDL
MODEL 4
REMARK VINA RESULT:    -4.511      1.876      3.419
REMARK INTER + INTRA:          -4.643
REMARK INTER:                  -4.643
REMARK INTRA:                   0.000
REMARK UNBOUND:                 0.000
REMARK SMILES Cc1ccccc1O
REMARK SMILES IDX 1 1 2 2 3 3 4 4 5 5 6 6 7 7 8 8
REMARK H PARENT 8 9
REMARK Flexibility Score: inf
ROOT
ATOM      1  C   UNL     1      -9.584  -7.123  -5.658  1.00  0.00     0.048 C 
ATOM      2  C   UNL     1     -10.442  -6.021  -6.215  1.00  0.00    -0.009 A 
ATOM      3  C   UNL     1     -11.340  -5.345  -5.368  1.00  0.00     0.007 A 
ATOM      4  C   UNL     1     -12.147  -4.320  -5.866  1.00  0.00     0.001 A 
ATOM      5  C   UNL     1     -12.066  -3.956  -7.212  1.00  0.00     0.004 A 
ATOM      6  C   UNL     1     -11.179  -4.618  -8.063  1.00  0.00     0.046 A 
ATOM      7  C   UNL     1     -10.364  -5.648  -7.578  1.00  0.00     0.118 A 
ENDROOT
BRANCH   7   8
ATOM      8  O   UNL     1      -9.493  -6.280  -8.468  1.00  0.00    -0.508 OA
ATOM      9  H   UNL     1      -8.511  -6.046  -8.537  1.00  0.00     0.293 HD
ENDBRANCH   7   8
TORSDOF 1
ENDMDL
MODEL 5
REMARK VINA RESULT:    -4.495      2.056      3.542
REMARK INTER + INTRA:          -4.627
REMARK INTER:                  -4.627
REMARK INTRA:                   0.000
REMARK UNBOUND:                 0.000
REMARK SMILES Cc1ccccc1O
REMARK SMILES IDX 1 1 2 2 3 3 4 4 5 5 6 6 7 7 8 8
REMARK H PARENT 8 9
REMARK Flexibility Score: inf
ROOT
ATOM      1  C   UNL     1     -10.830  -7.331  -5.868  1.00  0.00     0.048 C 
ATOM      2  C   UNL     1     -11.105  -6.047  -6.600  1.00  0.00    -0.009 A 
ATOM      3  C   UNL     1     -12.101  -5.175  -6.123  1.00  0.00     0.007 A 
ATOM      4  C   UNL     1     -12.372  -3.978  -6.789  1.00  0.00     0.001 A 
ATOM      5  C   UNL     1     -11.654  -3.636  -7.936  1.00  0.00     0.004 A 
ATOM      6  C   UNL     1     -10.662  -4.491  -8.420  1.00  0.00     0.046 A 
ATOM      7  C   UNL     1     -10.380  -5.695  -7.763  1.00  0.00     0.118 A 
ENDROOT
BRANCH   7   8
ATOM      8  O   UNL     1      -9.379  -6.517  -8.287  1.00  0.00    -0.508 OA
ATOM      9  H   UNL     1      -9.507  -7.509  -8.444  1.00  0.00     0.293 HD
ENDBRANCH   7   8
TORSDOF 1
ENDMDL
MODEL 6
REMARK VINA RESULT:    -4.456      1.782      2.384
REMARK INTER + INTRA:          -4.586
REMARK INTER:                  -4.586
REMARK INTRA:                   0.000
REMARK UNBOUND:                 0.000
REMARK SMILES Cc1ccccc1O
REMARK SMILES IDX 1 1 2 2 3 3 4 4 5 5 6 6 7 7 8 8
REMARK H PARENT 8 9
REMARK Flexibility Score: inf
ROOT
ATOM      1  C   UNL     1     -11.139  -5.004 -11.123  1.00  0.00     0.048 C 
ATOM      2  C   UNL     1     -11.027  -4.904  -9.628  1.00  0.00    -0.009 A 
ATOM      3  C   UNL     1     -10.728  -6.055  -8.875  1.00  0.00     0.007 A 
ATOM      4  C   UNL     1     -10.619  -5.983  -7.485  1.00  0.00     0.001 A 
ATOM      5  C   UNL     1     -10.806  -4.765  -6.829  1.00  0.00     0.004 A 
ATOM      6  C   UNL     1     -11.102  -3.615  -7.564  1.00  0.00     0.046 A 
ATOM      7  C   UNL     1     -11.215  -3.672  -8.958  1.00  0.00     0.118 A 
ENDROOT
BRANCH   7   8
ATOM      8  O   UNL     1     -11.513  -2.494  -9.647  1.00  0.00    -0.508 OA
ATOM      9  H   UNL     1     -11.251  -1.577  -9.310  1.00  0.00     0.293 HD
ENDBRANCH   7   8
TORSDOF 1
ENDMDL
MODEL 7
REMARK VINA RESULT:    -4.439     13.553     14.255
REMARK INTER + INTRA:          -4.569
REMARK INTER:                  -4.569
REMARK INTRA:                   0.000
REMARK UNBOUND:                 0.000
REMARK SMILES Cc1ccccc1O
REMARK SMILES IDX 1 1 2 2 3 3 4 4 5 5 6 6 7 7 8 8
REMARK H PARENT 8 9
REMARK Flexibility Score: inf
ROOT
ATOM      1  C   UNL     1       0.544 -13.411  -5.627  1.00  0.00     0.048 C 
ATOM      2  C   UNL     1      -0.262 -13.628  -4.377  1.00  0.00    -0.009 A 
ATOM      3  C   UNL     1      -1.641 -13.891  -4.477  1.00  0.00     0.007 A 
ATOM      4  C   UNL     1      -2.408 -14.095  -3.327  1.00  0.00     0.001 A 
ATOM      5  C   UNL     1      -1.809 -14.041  -2.068  1.00  0.00     0.004 A 
ATOM      6  C   UNL     1      -0.442 -13.783  -1.954  1.00  0.00     0.046 A 
ATOM      7  C   UNL     1       0.339 -13.575  -3.097  1.00  0.00     0.118 A 
ENDROOT
BRANCH   7   8
ATOM      8  O   UNL     1       1.702 -13.320  -2.931  1.00  0.00    -0.508 OA
ATOM      9  H   UNL     1       2.255 -12.815  -3.611  1.00  0.00     0.293 HD
ENDBRANCH   7   8
TORSDOF 1
ENDMDL
MODEL 8
REMARK VINA RESULT:    -4.288     12.339     13.843
REMARK INTER + INTRA:          -4.413
REMARK INTER:                  -4.413
REMARK INTRA:                   0.000
REMARK UNBOUND:                 0.000
REMARK SMILES Cc1ccccc1O
REMARK SMILES IDX 1 1 2 2 3 3 4 4 5 5 6 6 7 7 8 8
REMARK H PARENT 8 9
REMARK Flexibility Score: inf
ROOT
ATOM      1  C   UNL     1      -0.802 -14.125  -1.370  1.00  0.00     0.048 C 
ATOM      2  C   UNL     1      -1.001 -13.438  -2.692  1.00  0.00    -0.009 A 
ATOM      3  C   UNL     1      -2.287 -13.008  -3.065  1.00  0.00     0.007 A 
ATOM      4  C   UNL     1      -2.493 -12.368  -4.289  1.00  0.00     0.001 A 
ATOM      5  C   UNL     1      -1.419 -12.149  -5.154  1.00  0.00     0.004 A 
ATOM      6  C   UNL     1      -0.136 -12.569  -4.796  1.00  0.00     0.046 A 
ATOM      7  C   UNL     1       0.084 -13.213  -3.572  1.00  0.00     0.118 A 
ENDROOT
BRANCH   7   8
ATOM      8  O   UNL     1       1.385 -13.615  -3.260  1.00  0.00    -0.508 OA
ATOM      9  H   UNL     1       1.871 -13.310  -2.426  1.00  0.00     0.293 HD
ENDBRANCH   7   8
TORSDOF 1
ENDMDL
MODEL 9
REMARK VINA RESULT:    -4.207     11.812     13.095
REMARK INTER + INTRA:          -4.330
REMARK INTER:                  -4.330
REMARK INTRA:                   0.000
REMARK UNBOUND:                 0.000
REMARK SMILES Cc1ccccc1O
REMARK SMILES IDX 1 1 2 2 3 3 4 4 5 5 6 6 7 7 8 8
REMARK H PARENT 8 9
REMARK Flexibility Score: inf
ROOT
ATOM      1  C   UNL     1      -2.849 -11.880  -5.205  1.00  0.00     0.048 C 
ATOM      2  C   UNL     1      -1.775 -12.615  -4.455  1.00  0.00    -0.009 A 
ATOM      3  C   UNL     1      -0.455 -12.607  -4.943  1.00  0.00     0.007 A 
ATOM      4  C   UNL     1       0.557 -13.285  -4.261  1.00  0.00     0.001 A 
ATOM      5  C   UNL     1       0.266 -13.977  -3.084  1.00  0.00     0.004 A 
ATOM      6  C   UNL     1      -1.039 -13.993  -2.587  1.00  0.00     0.046 A 
ATOM      7  C   UNL     1      -2.064 -13.319  -3.261  1.00  0.00     0.118 A 
ENDROOT
BRANCH   7   8
ATOM      8  O   UNL     1      -3.352 -13.365  -2.724  1.00  0.00    -0.508 OA
ATOM      9  H   UNL     1      -4.133 -13.797  -3.201  1.00  0.00     0.293 HD
ENDBRANCH   7   8
TORSDOF 1
ENDMDL
