MODEL 1
REMARK VINA RESULT:    -4.988      0.000      0.000
REMARK INTER + INTRA:          -5.613
REMARK INTER:                  -5.425
REMARK INTRA:                  -0.187
REMARK UNBOUND:                -0.187
REMARK SMILES Cc1ccc(C(C)C)c(O)c1
REMARK SMILES IDX 1 1 2 2 11 3 9 4 5 5 4 6 3 7 10 8 6 10 7 11 8 12
REMARK H PARENT 10 9
REMARK Flexibility Score: inf
ROOT
ATOM      1  C   UNL     1       4.031  11.007  82.606  1.00  0.00     0.044 C 
ATOM      2  C   UNL     1       5.139  10.359  81.828  1.00  0.00    -0.047 A 
ATOM      3  C   UNL     1       5.598  10.937  80.639  1.00  0.00     0.049 A 
ATOM      4  C   UNL     1       6.604  10.330  79.878  1.00  0.00     0.119 A 
ATOM      5  C   UNL     1       7.171   9.095  80.312  1.00  0.00    -0.004 A 
ATOM      6  C   UNL     1       6.678   8.519  81.502  1.00  0.00     0.008 A 
ATOM      7  C   UNL     1       5.674   9.140  82.246  1.00  0.00     0.004 A 
ENDROOT
BRANCH   4   8
ATOM      8  O   UNL     1       6.992  10.996  78.714  1.00  0.00    -0.508 OA
ATOM      9  H   UNL     1       6.644  10.798  77.791  1.00  0.00     0.293 HD
ENDBRANCH   4   8
BRANCH   5  10
ATOM     10  C   UNL     1       8.276   8.339  79.573  1.00  0.00     0.017 C 
ATOM     11  C   UNL     1       8.178   6.816  79.745  1.00  0.00     0.012 C 
ATOM     12  C   UNL     1       9.678   8.889  79.869  1.00  0.00     0.012 C 
ENDBRANCH   5  10
TORSDOF 2
ENDMDL
MODEL 2
REMARK VINA RESULT:    -4.769      1.260      4.255
REMARK INTER + INTRA:          -5.375
REMARK INTER:                  -5.223
REMARK INTRA:                  -0.152
REMARK UNBOUND:                -0.187
REMARK SMILES Cc1ccc(C(C)C)c(O)c1
REMARK SMILES IDX 1 1 2 2 11 3 9 4 5 5 4 6 3 7 10 8 6 10 7 11 8 12
REMARK H PARENT 10 9
REMARK Flexibility Score: inf
ROOT
ATOM      1  C   UNL     1       9.096   5.405  79.198  1.00  0.00     0.044 C 
ATOM      2  C   UNL     1       8.404   6.657  79.654  1.00  0.00    -0.047 A 
ATOM      3  C   UNL     1       9.083   7.880  79.650  1.00  0.00     0.049 A 
ATOM      4  C   UNL     1       8.468   9.053  80.107  1.00  0.00     0.119 A 
ATOM      5  C   UNL     1       7.128   9.005  80.595  1.00  0.00    -0.004 A 
ATOM      6  C   UNL     1       6.471   7.756  80.610  1.00  0.00     0.008 A 
ATOM      7  C   UNL     1       7.101   6.599  80.151  1.00  0.00     0.004 A 
ENDROOT
BRANCH   4   8
ATOM      8  O   UNL     1       9.233  10.219  80.050  1.00  0.00    -0.508 OA
ATOM      9  H   UNL     1       8.960  11.068  79.586  1.00  0.00     0.293 HD
ENDBRANCH   4   8
BRANCH   5  10
ATOM     10  C   UNL     1       6.349  10.214  81.113  1.00  0.00     0.017 C 
ATOM     11  C   UNL     1       5.159   9.823  82.001  1.00  0.00     0.012 C 
ATOM     12  C   UNL     1       5.971  11.204  80.002  1.00  0.00     0.012 C 
ENDBRANCH   5  10
TORSDOF 2
ENDMDL
MODEL 3
REMARK VINA RESULT:    -4.723      8.719     10.346
REMARK INTER + INTRA:          -5.324
REMARK INTER:                  -5.207
REMARK INTRA:                  -0.117
REMARK UNBOUND:                -0.187
REMARK SMILES Cc1ccc(C(C)C)c(O)c1
REMARK SMILES IDX 1 1 2 2 11 3 9 4 5 5 4 6 3 7 10 8 6 10 7 11 8 12
REMARK H PARENT 10 9
REMARK Flexibility Score: inf
ROOT
ATOM      1  C   UNL     1       2.603   0.952  88.644  1.00  0.00     0.044 C 
ATOM      2  C   UNL     1       2.374   2.299  88.023  1.00  0.00    -0.047 A 
ATOM      3  C   UNL     1       1.327   3.113  88.469  1.00  0.00     0.049 A 
ATOM      4  C   UNL     1       1.073   4.357  87.878  1.00  0.00     0.119 A 
ATOM      5  C   UNL     1       1.886   4.806  86.796  1.00  0.00    -0.004 A 
ATOM      6  C   UNL     1       2.923   3.959  86.348  1.00  0.00     0.008 A 
ATOM      7  C   UNL     1       3.160   2.723  86.950  1.00  0.00     0.004 A 
ENDROOT
BRANCH   4   8
ATOM      8  O   UNL     1       0.008   5.090  88.406  1.00  0.00    -0.508 OA
ATOM      9  H   UNL     1       0.062   6.046  88.716  1.00  0.00     0.293 HD
ENDBRANCH   4   8
BRANCH   5  10
ATOM     10  C   UNL     1       1.713   6.142  86.075  1.00  0.00     0.017 C 
ATOM     11  C   UNL     1       0.387   6.241  85.307  1.00  0.00     0.012 C 
ATOM     12  C   UNL     1       2.931   6.526  85.224  1.00  0.00     0.012 C 
ENDBRANCH   5  10
TORSDOF 2
ENDMDL
MODEL 4
REMARK VINA RESULT:    -4.704      8.138      9.780
REMARK INTER + INTRA:          -5.304
REMARK INTER:                  -5.131
REMARK INTRA:                  -0.172
REMARK UNBOUND:                -0.187
REMARK SMILES Cc1ccc(C(C)C)c(O)c1
REMARK SMILES IDX 1 1 2 2 11 3 9 4 5 5 4 6 3 7 10 8 6 10 7 11 8 12
REMARK H PARENT 10 9
REMARK Flexibility Score: inf
ROOT
ATOM      1  C   UNL     1       2.796   1.885  87.955  1.00  0.00     0.044 C 
ATOM      2  C   UNL     1       2.284   3.189  87.417  1.00  0.00    -0.047 A 
ATOM      3  C   UNL     1       2.962   3.840  86.381  1.00  0.00     0.049 A 
ATOM      4  C   UNL     1       2.523   5.076  85.890  1.00  0.00     0.119 A 
ATOM      5  C   UNL     1       1.370   5.693  86.458  1.00  0.00    -0.004 A 
ATOM      6  C   UNL     1       0.714   5.030  87.517  1.00  0.00     0.008 A 
ATOM      7  C   UNL     1       1.168   3.799  87.993  1.00  0.00     0.004 A 
ENDROOT
BRANCH   4   8
ATOM      8  O   UNL     1       3.269   5.632  84.849  1.00  0.00    -0.508 OA
ATOM      9  H   UNL     1       3.114   6.541  84.449  1.00  0.00     0.293 HD
ENDBRANCH   4   8
BRANCH   5  10
ATOM     10  C   UNL     1       0.790   7.034  86.006  1.00  0.00     0.017 C 
ATOM     11  C   UNL     1       0.771   8.086  87.125  1.00  0.00     0.012 C 
ATOM     12  C   UNL     1      -0.560   6.892  85.290  1.00  0.00     0.012 C 
ENDBRANCH   5  10
TORSDOF 2
ENDMDL
MODEL 5
REMARK VINA RESULT:    -4.614      7.490      9.234
REMARK INTER + INTRA:          -5.206
REMARK INTER:                  -5.088
REMARK INTRA:                  -0.117
REMARK UNBOUND:                -0.187
REMARK SMILES Cc1ccc(C(C)C)c(O)c1
REMARK SMILES IDX 1 1 2 2 11 3 9 4 5 5 4 6 3 7 10 8 6 10 7 11 8 12
REMARK H PARENT 10 9
REMARK Flexibility Score: inf
ROOT
ATOM      1  C   UNL     1       2.406   9.234  85.633  1.00  0.00     0.044 C 
ATOM      2  C   UNL     1       2.084   7.844  86.099  1.00  0.00    -0.047 A 
ATOM      3  C   UNL     1       2.656   6.736  85.463  1.00  0.00     0.049 A 
ATOM      4  C   UNL     1       2.341   5.430  85.859  1.00  0.00     0.119 A 
ATOM      5  C   UNL     1       1.413   5.217  86.921  1.00  0.00    -0.004 A 
ATOM      6  C   UNL     1       0.832   6.348  87.533  1.00  0.00     0.008 A 
ATOM      7  C   UNL     1       1.159   7.642  87.124  1.00  0.00     0.004 A 
ENDROOT
BRANCH   4   8
ATOM      8  O   UNL     1       2.975   4.400  85.162  1.00  0.00    -0.508 OA
ATOM      9  H   UNL     1       3.368   4.482  84.240  1.00  0.00     0.293 HD
ENDBRANCH   4   8
BRANCH   5  10
ATOM     10  C   UNL     1       0.994   3.844  87.446  1.00  0.00     0.017 C 
ATOM     11  C   UNL     1      -0.267   3.897  88.321  1.00  0.00     0.012 C 
ATOM     12  C   UNL     1       2.149   3.074  88.100  1.00  0.00     0.012 C 
ENDBRANCH   5  10
TORSDOF 2
ENDMDL
MODEL 6
REMARK VINA RESULT:    -4.585      1.779      2.623
REMARK INTER + INTRA:          -5.174
REMARK INTER:                  -5.012
REMARK INTRA:                  -0.162
REMARK UNBOUND:                -0.187
REMARK SMILES Cc1ccc(C(C)C)c(O)c1
REMARK SMILES IDX 1 1 2 2 11 3 9 4 5 5 4 6 3 7 10 8 6 10 7 11 8 12
REMARK H PARENT 10 9
REMARK Flexibility Score: inf
ROOT
ATOM      1  C   UNL     1       4.608  13.035  80.598  1.00  0.00     0.044 C 
ATOM      2  C   UNL     1       5.361  11.737  80.557  1.00  0.00    -0.047 A 
ATOM      3  C   UNL     1       5.118  10.749  81.516  1.00  0.00     0.049 A 
ATOM      4  C   UNL     1       5.836   9.546  81.517  1.00  0.00     0.119 A 
ATOM      5  C   UNL     1       6.842   9.322  80.531  1.00  0.00    -0.004 A 
ATOM      6  C   UNL     1       7.086  10.342  79.586  1.00  0.00     0.008 A 
ATOM      7  C   UNL     1       6.360  11.534  79.603  1.00  0.00     0.004 A 
ENDROOT
BRANCH   4   8
ATOM      8  O   UNL     1       5.507   8.626  82.514  1.00  0.00    -0.508 OA
ATOM      9  H   UNL     1       5.199   7.683  82.352  1.00  0.00     0.293 HD
ENDBRANCH   4   8
BRANCH   5  10
ATOM     10  C   UNL     1       7.687   8.053  80.424  1.00  0.00     0.017 C 
ATOM     11  C   UNL     1       9.000   8.270  79.658  1.00  0.00     0.012 C 
ATOM     12  C   UNL     1       6.889   6.843  79.920  1.00  0.00     0.012 C 
ENDBRANCH   5  10
TORSDOF 2
ENDMDL
MODEL 7
REMARK VINA RESULT:    -4.429      1.844      4.644
REMARK INTER + INTRA:          -5.004
REMARK INTER:                  -4.820
REMARK INTRA:                  -0.185
REMARK UNBOUND:                -0.187
REMARK SMILES Cc1ccc(C(C)C)c(O)c1
REMARK SMILES IDX 1 1 2 2 11 3 9 4 5 5 4 6 3 7 10 8 6 10 7 11 8 12
REMARK H PARENT 10 9
REMARK Flexibility Score: inf
ROOT
ATOM      1  C   UNL     1       8.568   7.834  79.433  1.00  0.00     0.044 C 
ATOM      2  C   UNL     1       7.503   8.628  80.130  1.00  0.00    -0.047 A 
ATOM      3  C   UNL     1       6.657   8.012  81.059  1.00  0.00     0.049 A 
ATOM      4  C   UNL     1       5.633   8.727  81.693  1.00  0.00     0.119 A 
ATOM      5  C   UNL     1       5.436  10.105  81.384  1.00  0.00    -0.004 A 
ATOM      6  C   UNL     1       6.287  10.700  80.429  1.00  0.00     0.008 A 
ATOM      7  C   UNL     1       7.301   9.971  79.807  1.00  0.00     0.004 A 
ENDROOT
BRANCH   4   8
ATOM      8  O   UNL     1       4.854   8.016  82.608  1.00  0.00    -0.508 OA
ATOM      9  H   UNL     1       3.958   7.605  82.408  1.00  0.00     0.293 HD
ENDBRANCH   4   8
BRANCH   5  10
ATOM     10  C   UNL     1       4.359  10.991  82.012  1.00  0.00     0.017 C 
ATOM     11  C   UNL     1       3.693  11.933  80.999  1.00  0.00     0.012 C 
ATOM     12  C   UNL     1       4.840  11.712  83.279  1.00  0.00     0.012 C 
ENDBRANCH   5  10
TORSDOF 2
ENDMDL
MODEL 8
REMARK VINA RESULT:    -4.351      6.667      8.429
REMARK INTER + INTRA:          -4.920
REMARK INTER:                  -4.734
REMARK INTRA:                  -0.186
REMARK UNBOUND:                -0.187
REMARK SMILES Cc1ccc(C(C)C)c(O)c1
REMARK SMILES IDX 1 1 2 2 11 3 9 4 5 5 4 6 3 7 10 8 6 10 7 11 8 12
REMARK H PARENT 10 9
REMARK Flexibility Score: inf
ROOT
ATOM      1  C   UNL     1       0.844   3.907  87.605  1.00  0.00     0.044 C 
ATOM      2  C   UNL     1       1.269   5.234  87.047  1.00  0.00    -0.047 A 
ATOM      3  C   UNL     1       2.242   5.299  86.043  1.00  0.00     0.049 A 
ATOM      4  C   UNL     1       2.679   6.528  85.535  1.00  0.00     0.119 A 
ATOM      5  C   UNL     1       2.134   7.741  86.051  1.00  0.00    -0.004 A 
ATOM      6  C   UNL     1       1.169   7.653  87.078  1.00  0.00     0.008 A 
ATOM      7  C   UNL     1       0.747   6.418  87.571  1.00  0.00     0.004 A 
ENDROOT
BRANCH   4   8
ATOM      8  O   UNL     1       3.647   6.477  84.531  1.00  0.00    -0.508 OA
ATOM      9  H   UNL     1       4.231   7.246  84.250  1.00  0.00     0.293 HD
ENDBRANCH   4   8
BRANCH   5  10
ATOM     10  C   UNL     1       2.524   9.141  85.575  1.00  0.00     0.017 C 
ATOM     11  C   UNL     1       2.594  10.164  86.718  1.00  0.00     0.012 C 
ATOM     12  C   UNL     1       1.685   9.625  84.385  1.00  0.00     0.012 C 
ENDBRANCH   5  10
TORSDOF 2
ENDMDL
MODEL 9
REMARK VINA RESULT:    -4.326     11.874     13.367
REMARK INTER + INTRA:          -4.893
REMARK INTER:                  -4.719
REMARK INTRA:                  -0.174
REMARK UNBOUND:                -0.187
REMARK SMILES Cc1ccc(C(C)C)c(O)c1
REMARK SMILES IDX 1 1 2 2 11 3 9 4 5 5 4 6 3 7 10 8 6 10 7 11 8 12
REMARK H PARENT 10 9
REMARK Flexibility Score: inf
ROOT
ATOM      1  C   UNL     1      17.249  -1.046  83.160  1.00  0.00     0.044 C 
ATOM      2  C   UNL     1      15.763  -0.990  83.362  1.00  0.00    -0.047 A 
ATOM      3  C   UNL     1      15.073   0.215  83.192  1.00  0.00     0.049 A 
ATOM      4  C   UNL     1      13.692   0.298  83.412  1.00  0.00     0.119 A 
ATOM      5  C   UNL     1      12.971  -0.862  83.826  1.00  0.00    -0.004 A 
ATOM      6  C   UNL     1      13.691  -2.061  84.013  1.00  0.00     0.008 A 
ATOM      7  C   UNL     1      15.067  -2.122  83.789  1.00  0.00     0.004 A 
ENDROOT
BRANCH   4   8
ATOM      8  O   UNL     1      13.103   1.546  83.205  1.00  0.00    -0.508 OA
ATOM      9  H   UNL     1      12.503   1.782  82.434  1.00  0.00     0.293 HD
ENDBRANCH   4   8
BRANCH   5  10
ATOM     10  C   UNL     1      11.466  -0.900  84.092  1.00  0.00     0.017 C 
ATOM     11  C   UNL     1      11.124  -0.988  85.586  1.00  0.00     0.012 C 
ATOM     12  C   UNL     1      10.735  -1.949  83.244  1.00  0.00     0.012 C 
ENDBRANCH   5  10
TORSDOF 2
ENDMDL
