MODEL 1
REMARK VINA RESULT:    -4.054      0.000      0.000
REMARK INTER + INTRA:          -7.886
REMARK INTER:                  -6.424
REMARK INTRA:                  -1.463
REMARK UNBOUND:                -1.463
REMARK SMILES C=CCCCCCCCCCCC
REMARK SMILES IDX 7 1 8 2 9 3 10 4 11 5 12 6 13 7 6 8 5 9 4 10 3 11 2 12 1 13
REMARK H PARENT
REMARK Flexibility Score: inf
ROOT
ATOM      1  C   UNL     1      10.004   8.669  28.785  1.00  0.00     0.000 C 
ENDROOT
BRANCH   1   2
ATOM      2  C   UNL     1      10.773   8.576  27.455  1.00  0.00     0.000 C 
BRANCH   2   3
ATOM      3  C   UNL     1      10.325   7.382  26.596  1.00  0.00    -0.000 C 
BRANCH   3   4
ATOM      4  C   UNL     1      11.516   6.635  25.970  1.00  0.00    -0.000 C 
BRANCH   4   5
ATOM      5  C   UNL     1      12.615   6.312  26.995  1.00  0.00    -0.000 C 
BRANCH   5   6
ATOM      6  C   UNL     1      14.004   6.785  26.543  1.00  0.00    -0.003 C 
ATOM      7  C   UNL     1      13.895   7.894  25.502  1.00  0.00     0.004 C 
ENDBRANCH   5   6
ENDBRANCH   4   5
ENDBRANCH   3   4
ENDBRANCH   2   3
ENDBRANCH   1   2
BRANCH   1   8
ATOM      8  C   UNL     1       9.005   7.507  28.962  1.00  0.00     0.000 C 
BRANCH   8   9
ATOM      9  C   UNL     1       8.867   7.025  30.420  1.00  0.00     0.000 C 
BRANCH   9  10
ATOM     10  C   UNL     1       9.565   5.690  30.729  1.00  0.00     0.004 C 
BRANCH  10  11
ATOM     11  C   UNL     1      10.335   5.130  29.524  1.00  0.00     0.027 C 
BRANCH  11  12
ATOM     12  C   UNL     1       9.597   3.981  28.894  1.00  0.00    -0.035 C 
ATOM     13  C   UNL     1       9.585   3.791  27.572  1.00  0.00     0.004 C 
ENDBRANCH  11  12
ENDBRANCH  10  11
ENDBRANCH   9  10
ENDBRANCH   8   9
ENDBRANCH   1   8
TORSDOF 10
ENDMDL
MODEL 2
REMARK VINA RESULT:    -3.965     13.004     15.212
REMARK INTER + INTRA:          -7.746
REMARK INTER:                  -6.239
REMARK INTRA:                  -1.507
REMARK UNBOUND:                -1.463
REMARK SMILES C=CCCCCCCCCCCC
REMARK SMILES IDX 7 1 8 2 9 3 10 4 11 5 12 6 13 7 6 8 5 9 4 10 3 11 2 12 1 13
REMARK H PARENT
REMARK Flexibility Score: inf
ROOT
ATOM      1  C   UNL     1       6.725   7.250  15.543  1.00  0.00     0.000 C 
ENDROOT
BRANCH   1   2
ATOM      2  C   UNL     1       5.602   8.080  14.894  1.00  0.00     0.000 C 
BRANCH   2   3
ATOM      3  C   UNL     1       4.352   7.240  14.584  1.00  0.00    -0.000 C 
BRANCH   3   4
ATOM      4  C   UNL     1       3.051   7.966  14.971  1.00  0.00    -0.000 C 
BRANCH   4   5
ATOM      5  C   UNL     1       3.163   8.701  16.315  1.00  0.00    -0.000 C 
BRANCH   5   6
ATOM      6  C   UNL     1       3.093   7.751  17.519  1.00  0.00    -0.003 C 
ATOM      7  C   UNL     1       4.321   7.904  18.411  1.00  0.00     0.004 C 
ENDBRANCH   5   6
ENDBRANCH   4   5
ENDBRANCH   3   4
ENDBRANCH   2   3
ENDBRANCH   1   2
BRANCH   1   8
ATOM      8  C   UNL     1       6.734   5.790  15.043  1.00  0.00     0.000 C 
BRANCH   8   9
ATOM      9  C   UNL     1       7.746   5.530  13.910  1.00  0.00     0.000 C 
BRANCH   9  10
ATOM     10  C   UNL     1       7.122   5.317  12.521  1.00  0.00     0.004 C 
BRANCH  10  11
ATOM     11  C   UNL     1       7.100   6.600  11.677  1.00  0.00     0.027 C 
BRANCH  11  12
ATOM     12  C   UNL     1       8.206   7.535  12.082  1.00  0.00    -0.035 C 
ATOM     13  C   UNL     1       8.009   8.851  12.198  1.00  0.00     0.004 C 
ENDBRANCH  11  12
ENDBRANCH  10  11
ENDBRANCH   9  10
ENDBRANCH   8   9
ENDBRANCH   1   8
TORSDOF 10
ENDMDL
MODEL 3
REMARK VINA RESULT:    -3.951      0.713      4.325
REMARK INTER + INTRA:          -7.723
REMARK INTER:                  -6.144
REMARK INTRA:                  -1.579
REMARK UNBOUND:                -1.463
REMARK SMILES C=CCCCCCCCCCCC
REMARK SMILES IDX 7 1 8 2 9 3 10 4 11 5 12 6 13 7 6 8 5 9 4 10 3 11 2 12 1 13
REMARK H PARENT
REMARK Flexibility Score: inf
ROOT
ATOM      1  C   UNL     1       9.980   8.667  29.005  1.00  0.00     0.000 C 
ENDROOT
BRANCH   1   2
ATOM      2  C   UNL     1       8.973   7.522  29.212  1.00  0.00     0.000 C 
BRANCH   2   3
ATOM      3  C   UNL     1       8.982   6.980  30.651  1.00  0.00    -0.000 C 
BRANCH   3   4
ATOM      4  C   UNL     1       9.378   5.494  30.712  1.00  0.00    -0.000 C 
BRANCH   4   5
ATOM      5  C   UNL     1      10.456   5.127  29.680  1.00  0.00    -0.000 C 
BRANCH   5   6
ATOM      6  C   UNL     1      10.141   3.825  28.931  1.00  0.00    -0.003 C 
ATOM      7  C   UNL     1       9.403   4.107  27.625  1.00  0.00     0.004 C 
ENDBRANCH   5   6
ENDBRANCH   4   5
ENDBRANCH   3   4
ENDBRANCH   2   3
ENDBRANCH   1   2
BRANCH   1   8
ATOM      8  C   UNL     1      10.595   8.653  27.590  1.00  0.00     0.000 C 
BRANCH   8   9
ATOM      9  C   UNL     1      10.205   7.416  26.757  1.00  0.00     0.000 C 
BRANCH   9  10
ATOM     10  C   UNL     1      11.261   6.965  25.734  1.00  0.00     0.004 C 
BRANCH  10  11
ATOM     11  C   UNL     1      12.679   6.925  26.323  1.00  0.00     0.027 C 
BRANCH  11  12
ATOM     12  C   UNL     1      12.953   5.604  26.988  1.00  0.00    -0.035 C 
ATOM     13  C   UNL     1      13.713   5.510  28.083  1.00  0.00     0.004 C 
ENDBRANCH  11  12
ENDBRANCH  10  11
ENDBRANCH   9  10
ENDBRANCH   8   9
ENDBRANCH   1   8
TORSDOF 10
ENDMDL
MODEL 4
REMARK VINA RESULT:    -3.863      1.249      2.743
REMARK INTER + INTRA:          -7.583
REMARK INTER:                  -6.307
REMARK INTRA:                  -1.277
REMARK UNBOUND:                -1.463
REMARK SMILES C=CCCCCCCCCCCC
REMARK SMILES IDX 7 1 8 2 9 3 10 4 11 5 12 6 13 7 6 8 5 9 4 10 3 11 2 12 1 13
REMARK H PARENT
REMARK Flexibility Score: inf
ROOT
ATOM      1  C   UNL     1       9.743   5.766  27.020  1.00  0.00     0.000 C 
ENDROOT
BRANCH   1   2
ATOM      2  C   UNL     1      11.023   6.432  26.484  1.00  0.00     0.000 C 
BRANCH   2   3
ATOM      3  C   UNL     1      12.221   6.258  27.431  1.00  0.00    -0.000 C 
BRANCH   3   4
ATOM      4  C   UNL     1      13.448   5.663  26.718  1.00  0.00    -0.000 C 
BRANCH   4   5
ATOM      5  C   UNL     1      13.769   6.380  25.397  1.00  0.00    -0.000 C 
BRANCH   5   6
ATOM      6  C   UNL     1      14.471   7.729  25.611  1.00  0.00    -0.003 C 
ATOM      7  C   UNL     1      13.656   8.873  25.016  1.00  0.00     0.004 C 
ENDBRANCH   5   6
ENDBRANCH   4   5
ENDBRANCH   3   4
ENDBRANCH   2   3
ENDBRANCH   1   2
BRANCH   1   8
ATOM      8  C   UNL     1       9.967   4.283  27.381  1.00  0.00     0.000 C 
BRANCH   8   9
ATOM      9  C   UNL     1       9.400   3.888  28.759  1.00  0.00     0.000 C 
BRANCH   9  10
ATOM     10  C   UNL     1      10.358   4.109  29.941  1.00  0.00     0.004 C 
BRANCH  10  11
ATOM     11  C   UNL     1       9.766   5.025  31.022  1.00  0.00     0.027 C 
BRANCH  11  12
ATOM     12  C   UNL     1       9.892   6.473  30.636  1.00  0.00    -0.035 C 
ATOM     13  C   UNL     1       8.821   7.230  30.384  1.00  0.00     0.004 C 
ENDBRANCH  11  12
ENDBRANCH  10  11
ENDBRANCH   9  10
ENDBRANCH   8   9
ENDBRANCH   1   8
TORSDOF 10
ENDMDL
MODEL 5
REMARK VINA RESULT:    -3.862     13.276     15.411
REMARK INTER + INTRA:          -7.582
REMARK INTER:                  -6.029
REMARK INTRA:                  -1.553
REMARK UNBOUND:                -1.463
REMARK SMILES C=CCCCCCCCCCCC
REMARK SMILES IDX 7 1 8 2 9 3 10 4 11 5 12 6 13 7 6 8 5 9 4 10 3 11 2 12 1 13
REMARK H PARENT
REMARK Flexibility Score: inf
ROOT
ATOM      1  C   UNL     1       8.159   8.654  13.883  1.00  0.00     0.000 C 
ENDROOT
BRANCH   1   2
ATOM      2  C   UNL     1       6.829   9.177  14.456  1.00  0.00     0.000 C 
BRANCH   2   3
ATOM      3  C   UNL     1       6.138   8.154  15.372  1.00  0.00    -0.000 C 
BRANCH   3   4
ATOM      4  C   UNL     1       4.621   8.082  15.127  1.00  0.00    -0.000 C 
BRANCH   4   5
ATOM      5  C   UNL     1       4.049   6.676  15.365  1.00  0.00    -0.000 C 
BRANCH   5   6
ATOM      6  C   UNL     1       3.878   6.350  16.855  1.00  0.00    -0.003 C 
ATOM      7  C   UNL     1       3.185   7.492  17.591  1.00  0.00     0.004 C 
ENDBRANCH   5   6
ENDBRANCH   4   5
ENDBRANCH   3   4
ENDBRANCH   2   3
ENDBRANCH   1   2
BRANCH   1   8
ATOM      8  C   UNL     1       8.233   8.807  12.349  1.00  0.00     0.000 C 
BRANCH   8   9
ATOM      9  C   UNL     1       7.986   7.493  11.582  1.00  0.00     0.000 C 
BRANCH   9  10
ATOM     10  C   UNL     1       6.507   7.106  11.420  1.00  0.00     0.004 C 
BRANCH  10  11
ATOM     11  C   UNL     1       6.103   5.920  12.308  1.00  0.00     0.027 C 
BRANCH  11  12
ATOM     12  C   UNL     1       7.314   5.218  12.859  1.00  0.00    -0.035 C 
ATOM     13  C   UNL     1       7.453   4.974  14.166  1.00  0.00     0.004 C 
ENDBRANCH  11  12
ENDBRANCH  10  11
ENDBRANCH   9  10
ENDBRANCH   8   9
ENDBRANCH   1   8
TORSDOF 10
ENDMDL
MODEL 6
REMARK VINA RESULT:    -3.816     13.318     14.997
REMARK INTER + INTRA:          -7.510
REMARK INTER:                  -6.373
REMARK INTRA:                  -1.137
REMARK UNBOUND:                -1.463
REMARK SMILES C=CCCCCCCCCCCC
REMARK SMILES IDX 7 1 8 2 9 3 10 4 11 5 12 6 13 7 6 8 5 9 4 10 3 11 2 12 1 13
REMARK H PARENT
REMARK Flexibility Score: inf
ROOT
ATOM      1  C   UNL     1       7.095   7.260  15.387  1.00  0.00     0.000 C 
ENDROOT
BRANCH   1   2
ATOM      2  C   UNL     1       8.277   7.441  14.418  1.00  0.00     0.000 C 
BRANCH   2   3
ATOM      3  C   UNL     1       8.137   8.699  13.544  1.00  0.00    -0.000 C 
BRANCH   3   4
ATOM      4  C   UNL     1       8.291   8.388  12.045  1.00  0.00    -0.000 C 
BRANCH   4   5
ATOM      5  C   UNL     1       7.776   6.987  11.676  1.00  0.00    -0.000 C 
BRANCH   5   6
ATOM      6  C   UNL     1       6.349   7.010  11.111  1.00  0.00    -0.003 C 
ATOM      7  C   UNL     1       5.533   5.831  11.632  1.00  0.00     0.004 C 
ENDBRANCH   5   6
ENDBRANCH   4   5
ENDBRANCH   3   4
ENDBRANCH   2   3
ENDBRANCH   1   2
BRANCH   1   8
ATOM      8  C   UNL     1       5.854   8.067  14.950  1.00  0.00     0.000 C 
BRANCH   8   9
ATOM      9  C   UNL     1       4.591   7.206  14.758  1.00  0.00     0.000 C 
BRANCH   9  10
ATOM     10  C   UNL     1       3.262   7.950  14.968  1.00  0.00     0.004 C 
BRANCH  10  11
ATOM     11  C   UNL     1       3.240   8.770  16.266  1.00  0.00     0.027 C 
BRANCH  11  12
ATOM     12  C   UNL     1       2.987   7.891  17.459  1.00  0.00    -0.035 C 
ATOM     13  C   UNL     1       2.193   8.276  18.463  1.00  0.00     0.004 C 
ENDBRANCH  11  12
ENDBRANCH  10  11
ENDBRANCH   9  10
ENDBRANCH   8   9
ENDBRANCH   1   8
TORSDOF 10
ENDMDL
MODEL 7
REMARK VINA RESULT:    -3.815      1.378      2.518
REMARK INTER + INTRA:          -7.508
REMARK INTER:                  -6.260
REMARK INTRA:                  -1.247
REMARK UNBOUND:                -1.463
REMARK SMILES C=CCCCCCCCCCCC
REMARK SMILES IDX 7 1 8 2 9 3 10 4 11 5 12 6 13 7 6 8 5 9 4 10 3 11 2 12 1 13
REMARK H PARENT
REMARK Flexibility Score: inf
ROOT
ATOM      1  C   UNL     1      11.214   6.816  27.348  1.00  0.00     0.000 C 
ENDROOT
BRANCH   1   2
ATOM      2  C   UNL     1      12.167   5.712  26.855  1.00  0.00     0.000 C 
BRANCH   2   3
ATOM      3  C   UNL     1      13.599   5.888  27.387  1.00  0.00    -0.000 C 
BRANCH   3   4
ATOM      4  C   UNL     1      14.352   7.022  26.670  1.00  0.00    -0.000 C 
BRANCH   4   5
ATOM      5  C   UNL     1      14.144   6.999  25.148  1.00  0.00    -0.000 C 
BRANCH   5   6
ATOM      6  C   UNL     1      14.100   8.405  24.534  1.00  0.00    -0.003 C 
ATOM      7  C   UNL     1      12.922   9.206  25.081  1.00  0.00     0.004 C 
ENDBRANCH   5   6
ENDBRANCH   4   5
ENDBRANCH   3   4
ENDBRANCH   2   3
ENDBRANCH   1   2
BRANCH   1   8
ATOM      8  C   UNL     1       9.742   6.352  27.357  1.00  0.00     0.000 C 
BRANCH   8   9
ATOM      9  C   UNL     1       8.953   6.816  28.597  1.00  0.00     0.000 C 
BRANCH   9  10
ATOM     10  C   UNL     1       9.367   6.144  29.916  1.00  0.00     0.004 C 
BRANCH  10  11
ATOM     11  C   UNL     1       9.342   4.610  29.835  1.00  0.00     0.027 C 
BRANCH  11  12
ATOM     12  C   UNL     1      10.553   4.013  30.497  1.00  0.00    -0.035 C 
ATOM     13  C   UNL     1      11.760   4.579  30.402  1.00  0.00     0.004 C 
ENDBRANCH  11  12
ENDBRANCH  10  11
ENDBRANCH   9  10
ENDBRANCH   8   9
ENDBRANCH   1   8
TORSDOF 10
ENDMDL
MODEL 8
REMARK VINA RESULT:    -3.763      2.061      3.289
REMARK INTER + INTRA:          -7.425
REMARK INTER:                  -6.466
REMARK INTRA:                  -0.959
REMARK UNBOUND:                -1.463
REMARK SMILES C=CCCCCCCCCCCC
REMARK SMILES IDX 7 1 8 2 9 3 10 4 11 5 12 6 13 7 6 8 5 9 4 10 3 11 2 12 1 13
REMARK H PARENT
REMARK Flexibility Score: inf
ROOT
ATOM      1  C   UNL     1      11.392   6.021  27.304  1.00  0.00     0.000 C 
ENDROOT
BRANCH   1   2
ATOM      2  C   UNL     1      11.254   7.521  26.986  1.00  0.00     0.000 C 
BRANCH   2   3
ATOM      3  C   UNL     1      12.190   7.972  25.853  1.00  0.00    -0.000 C 
BRANCH   3   4
ATOM      4  C   UNL     1      12.320   6.911  24.746  1.00  0.00    -0.000 C 
BRANCH   4   5
ATOM      5  C   UNL     1      11.264   7.076  23.642  1.00  0.00    -0.000 C 
BRANCH   5   6
ATOM      6  C   UNL     1      11.842   7.681  22.355  1.00  0.00    -0.003 C 
ATOM      7  C   UNL     1      11.643   6.742  21.169  1.00  0.00     0.004 C 
ENDBRANCH   5   6
ENDBRANCH   4   5
ENDBRANCH   3   4
ENDBRANCH   2   3
ENDBRANCH   1   2
BRANCH   1   8
ATOM      8  C   UNL     1      10.073   5.254  27.072  1.00  0.00     0.000 C 
BRANCH   8   9
ATOM      9  C   UNL     1       9.875   4.059  28.026  1.00  0.00     0.000 C 
BRANCH   9  10
ATOM     10  C   UNL     1      10.422   4.268  29.447  1.00  0.00     0.004 C 
BRANCH  10  11
ATOM     11  C   UNL     1       9.385   4.883  30.398  1.00  0.00     0.027 C 
BRANCH  11  12
ATOM     12  C   UNL     1       9.670   6.339  30.644  1.00  0.00    -0.035 C 
ATOM     13  C   UNL     1       8.896   7.304  30.139  1.00  0.00     0.004 C 
ENDBRANCH  11  12
ENDBRANCH  10  11
ENDBRANCH   9  10
ENDBRANCH   8   9
ENDBRANCH   1   8
TORSDOF 10
ENDMDL
MODEL 9
REMARK VINA RESULT:    -3.763     12.737     14.883
REMARK INTER + INTRA:          -7.425
REMARK INTER:                  -6.170
REMARK INTRA:                  -1.255
REMARK UNBOUND:                -1.463
REMARK SMILES C=CCCCCCCCCCCC
REMARK SMILES IDX 7 1 8 2 9 3 10 4 11 5 12 6 13 7 6 8 5 9 4 10 3 11 2 12 1 13
REMARK H PARENT
REMARK Flexibility Score: inf
ROOT
ATOM      1  C   UNL     1       6.255   7.110  16.142  1.00  0.00     0.000 C 
ENDROOT
BRANCH   1   2
ATOM      2  C   UNL     1       4.895   6.585  15.650  1.00  0.00     0.000 C 
BRANCH   2   3
ATOM      3  C   UNL     1       4.030   7.687  15.016  1.00  0.00    -0.000 C 
BRANCH   3   4
ATOM      4  C   UNL     1       2.963   8.222  15.987  1.00  0.00    -0.000 C 
BRANCH   4   5
ATOM      5  C   UNL     1       3.490   9.358  16.877  1.00  0.00    -0.000 C 
BRANCH   5   6
ATOM      6  C   UNL     1       3.039   9.225  18.339  1.00  0.00    -0.003 C 
ATOM      7  C   UNL     1       1.937   8.178  18.480  1.00  0.00     0.004 C 
ENDBRANCH   5   6
ENDBRANCH   4   5
ENDBRANCH   3   4
ENDBRANCH   2   3
ENDBRANCH   1   2
BRANCH   1   8
ATOM      8  C   UNL     1       6.902   8.085  15.135  1.00  0.00     0.000 C 
BRANCH   8   9
ATOM      9  C   UNL     1       8.265   7.606  14.597  1.00  0.00     0.000 C 
BRANCH   9  10
ATOM     10  C   UNL     1       8.243   7.085  13.151  1.00  0.00     0.004 C 
BRANCH  10  11
ATOM     11  C   UNL     1       7.829   5.609  13.058  1.00  0.00     0.027 C 
BRANCH  11  12
ATOM     12  C   UNL     1       6.763   5.409  12.016  1.00  0.00    -0.035 C 
ATOM     13  C   UNL     1       5.639   6.132  12.011  1.00  0.00     0.004 C 
ENDBRANCH  11  12
ENDBRANCH  10  11
ENDBRANCH   9  10
ENDBRANCH   8   9
ENDBRANCH   1   8
TORSDOF 10
ENDMDL
