MODEL 1
REMARK VINA RESULT:    -2.760      0.000      0.000
REMARK INTER + INTRA:          -3.278
REMARK INTER:                  -3.002
REMARK INTRA:                  -0.276
REMARK UNBOUND:                -0.276
REMARK SMILES CC(C)(C)[C@@H]1C=C[C@H](O)CC1
REMARK SMILES IDX 5 1 11 2 10 3 8 4 7 5 6 6 2 7 1 8 3 9 4 10 9 11
REMARK H PARENT 9 12
REMARK Flexibility Score: inf
ROOT
ATOM      1  C   UNL     1     -37.081  34.251 -11.914  1.00  0.00     0.017 C 
ATOM      2  C   UNL     1     -36.568  35.723 -11.934  1.00  0.00     0.011 C 
ATOM      3  C   UNL     1     -35.173  35.890 -11.321  1.00  0.00     0.037 C 
ATOM      4  C   UNL     1     -34.160  35.000 -12.048  1.00  0.00     0.137 C 
ATOM      5  C   UNL     1     -34.643  33.579 -12.124  1.00  0.00     0.000 C 
ATOM      6  C   UNL     1     -35.947  33.251 -12.125  1.00  0.00    -0.025 C 
ENDROOT
BRANCH   1   7
ATOM      7  C   UNL     1     -38.007  33.881 -10.684  1.00  0.00    -0.032 C 
ATOM      8  C   UNL     1     -37.183  33.175  -9.578  1.00  0.00     0.011 C 
ATOM      9  C   UNL     1     -39.115  32.889 -11.121  1.00  0.00     0.011 C 
ATOM     10  C   UNL     1     -38.672  35.128 -10.067  1.00  0.00     0.011 C 
ENDBRANCH   1   7
BRANCH   4  11
ATOM     11  O   UNL     1     -32.930  35.028 -11.374  1.00  0.00    -0.389 OA
ATOM     12  H   UNL     1     -32.481  34.162 -11.565  1.00  0.00     0.211 HD
ENDBRANCH   4  11
TORSDOF 2
ENDMDL
MODEL 2
REMARK VINA RESULT:    -0.750      1.157      2.035
REMARK INTER + INTRA:          -1.092
REMARK INTER:                  -0.826
REMARK INTRA:                  -0.266
REMARK UNBOUND:                -0.276
REMARK SMILES CC(C)(C)[C@@H]1C=C[C@H](O)CC1
REMARK SMILES IDX 5 1 11 2 10 3 8 4 7 5 6 6 2 7 1 8 3 9 4 10 9 11
REMARK H PARENT 9 12
REMARK Flexibility Score: inf
ROOT
ATOM      1  C   UNL     1     -36.575  33.738 -10.317  1.00  0.00     0.017 C 
ATOM      2  C   UNL     1     -35.470  33.052 -11.176  1.00  0.00     0.011 C 
ATOM      3  C   UNL     1     -34.713  34.026 -12.085  1.00  0.00     0.037 C 
ATOM      4  C   UNL     1     -34.074  35.144 -11.256  1.00  0.00     0.137 C 
ATOM      5  C   UNL     1     -35.084  35.792 -10.350  1.00  0.00     0.000 C 
ATOM      6  C   UNL     1     -36.166  35.145  -9.884  1.00  0.00    -0.025 C 
ENDROOT
BRANCH   1   7
ATOM      7  C   UNL     1     -38.032  33.683 -10.931  1.00  0.00    -0.032 C 
ATOM      8  C   UNL     1     -39.096  33.895  -9.823  1.00  0.00     0.011 C 
ATOM      9  C   UNL     1     -38.305  32.290 -11.554  1.00  0.00     0.011 C 
ATOM     10  C   UNL     1     -38.243  34.761 -12.013  1.00  0.00     0.011 C 
ENDBRANCH   1   7
BRANCH   4  11
ATOM     11  O   UNL     1     -33.533  36.120 -12.106  1.00  0.00    -0.389 OA
ATOM     12  H   UNL     1     -34.195  36.860 -12.150  1.00  0.00     0.211 HD
ENDBRANCH   4  11
TORSDOF 2
ENDMDL
MODEL 3
REMARK VINA RESULT:    -0.156      1.023      1.727
REMARK INTER + INTRA:          -0.446
REMARK INTER:                  -0.185
REMARK INTRA:                  -0.262
REMARK UNBOUND:                -0.276
REMARK SMILES CC(C)(C)[C@@H]1C=C[C@H](O)CC1
REMARK SMILES IDX 5 1 11 2 10 3 8 4 7 5 6 6 2 7 1 8 3 9 4 10 9 11
REMARK H PARENT 9 12
REMARK Flexibility Score: inf
ROOT
ATOM      1  C   UNL     1     -36.964  33.909 -11.232  1.00  0.00     0.017 C 
ATOM      2  C   UNL     1     -36.885  35.185 -12.125  1.00  0.00     0.011 C 
ATOM      3  C   UNL     1     -35.692  36.087 -11.792  1.00  0.00     0.037 C 
ATOM      4  C   UNL     1     -34.380  35.308 -11.921  1.00  0.00     0.137 C 
ATOM      5  C   UNL     1     -34.431  34.026 -11.138  1.00  0.00     0.000 C 
ATOM      6  C   UNL     1     -35.578  33.373 -10.883  1.00  0.00    -0.025 C 
ENDROOT
BRANCH   1   7
ATOM      7  C   UNL     1     -37.911  34.032  -9.970  1.00  0.00    -0.032 C 
ATOM      8  C   UNL     1     -39.125  34.942 -10.289  1.00  0.00     0.011 C 
ATOM      9  C   UNL     1     -37.156  34.691  -8.788  1.00  0.00     0.011 C 
ATOM     10  C   UNL     1     -38.446  32.659  -9.514  1.00  0.00     0.011 C 
ENDBRANCH   1   7
BRANCH   4  11
ATOM     11  O   UNL     1     -33.313  36.088 -11.451  1.00  0.00    -0.389 OA
ATOM     12  H   UNL     1     -32.672  36.180 -12.206  1.00  0.00     0.211 HD
ENDBRANCH   4  11
TORSDOF 2
ENDMDL
