MODEL 1
REMARK VINA RESULT:    -5.007      0.000      0.000
REMARK INTER + INTRA:          -5.154
REMARK INTER:                  -5.154
REMARK INTRA:                   0.000
REMARK UNBOUND:                 0.000
REMARK SMILES Nc1ncnc2nc[nH]c12
REMARK SMILES IDX 8 1 7 2 6 3 5 4 4 5 3 6 2 7 10 8 9 9 1 11
REMARK H PARENT 9 10 1 12 1 13
REMARK Flexibility Score: inf
ROOT
ATOM      1  C   UNL     1       9.133   5.253  -0.523  1.00  0.00     0.199 A 
ATOM      2  N   UNL     1      10.310   5.904  -0.726  1.00  0.00    -0.217 NA
ATOM      3  C   UNL     1      10.585   5.607  -2.007  1.00  0.00     0.182 A 
ATOM      4  N   UNL     1      11.664   6.013  -2.718  1.00  0.00    -0.215 NA
ATOM      5  C   UNL     1      11.770   5.605  -4.019  1.00  0.00     0.226 A 
ATOM      6  N   UNL     1      10.805   4.807  -4.579  1.00  0.00    -0.217 NA
ATOM      7  C   UNL     1       9.716   4.397  -3.863  1.00  0.00     0.152 A 
ATOM      8  C   UNL     1       9.622   4.820  -2.540  1.00  0.00     0.127 A 
ATOM      9  N   UNL     1       8.686   4.580  -1.614  1.00  0.00    -0.340 N 
ATOM     10  H   UNL     1       7.814   4.013  -1.698  1.00  0.00     0.168 HD
ENDROOT
BRANCH   7  11
ATOM     11  N   UNL     1       8.724   3.566  -4.469  1.00  0.00    -0.382 N 
ATOM     12  H   UNL     1       8.966   2.987  -5.303  1.00  0.00     0.158 HD
ATOM     13  H   UNL     1       7.750   3.521  -4.095  1.00  0.00     0.158 HD
ENDBRANCH   7  11
TORSDOF 1
ENDMDL
MODEL 2
REMARK VINA RESULT:    -4.835      1.015      3.525
REMARK INTER + INTRA:          -4.977
REMARK INTER:                  -4.977
REMARK INTRA:                   0.000
REMARK UNBOUND:                 0.000
REMARK SMILES Nc1ncnc2nc[nH]c12
REMARK SMILES IDX 8 1 7 2 6 3 5 4 4 5 3 6 2 7 10 8 9 9 1 11
REMARK H PARENT 9 10 1 12 1 13
REMARK Flexibility Score: inf
ROOT
ATOM      1  C   UNL     1       9.177   4.238  -4.504  1.00  0.00     0.199 A 
ATOM      2  N   UNL     1       8.262   4.303  -3.500  1.00  0.00    -0.217 NA
ATOM      3  C   UNL     1       9.009   4.704  -2.457  1.00  0.00     0.182 A 
ATOM      4  N   UNL     1       8.578   4.929  -1.193  1.00  0.00    -0.215 NA
ATOM      5  C   UNL     1       9.494   5.335  -0.262  1.00  0.00     0.226 A 
ATOM      6  N   UNL     1      10.810   5.507  -0.609  1.00  0.00    -0.217 NA
ATOM      7  C   UNL     1      11.245   5.282  -1.884  1.00  0.00     0.152 A 
ATOM      8  C   UNL     1      10.301   4.868  -2.820  1.00  0.00     0.127 A 
ATOM      9  N   UNL     1      10.434   4.577  -4.120  1.00  0.00    -0.340 N 
ATOM     10  H   UNL     1      11.295   4.602  -4.710  1.00  0.00     0.168 HD
ENDROOT
BRANCH   7  11
ATOM     11  N   UNL     1      12.621   5.469  -2.221  1.00  0.00    -0.382 N 
ATOM     12  H   UNL     1      13.358   5.353  -1.492  1.00  0.00     0.158 HD
ATOM     13  H   UNL     1      12.913   5.722  -3.191  1.00  0.00     0.158 HD
ENDBRANCH   7  11
TORSDOF 1
ENDMDL
MODEL 3
REMARK VINA RESULT:    -4.681      0.871      2.419
REMARK INTER + INTRA:          -4.818
REMARK INTER:                  -4.818
REMARK INTRA:                   0.000
REMARK UNBOUND:                 0.000
REMARK SMILES Nc1ncnc2nc[nH]c12
REMARK SMILES IDX 8 1 7 2 6 3 5 4 4 5 3 6 2 7 10 8 9 9 1 11
REMARK H PARENT 9 10 1 12 1 13
REMARK Flexibility Score: inf
ROOT
ATOM      1  C   UNL     1       9.136   5.462  -0.215  1.00  0.00     0.199 A 
ATOM      2  N   UNL     1       8.275   5.107  -1.207  1.00  0.00    -0.217 NA
ATOM      3  C   UNL     1       9.100   4.945  -2.256  1.00  0.00     0.182 A 
ATOM      4  N   UNL     1       8.747   4.585  -3.514  1.00  0.00    -0.215 NA
ATOM      5  C   UNL     1       9.735   4.472  -4.453  1.00  0.00     0.226 A 
ATOM      6  N   UNL     1      11.043   4.717  -4.121  1.00  0.00    -0.217 NA
ATOM      7  C   UNL     1      11.400   5.080  -2.853  1.00  0.00     0.152 A 
ATOM      8  C   UNL     1      10.384   5.192  -1.908  1.00  0.00     0.127 A 
ATOM      9  N   UNL     1      10.432   5.524  -0.612  1.00  0.00    -0.340 N 
ATOM     10  H   UNL     1      11.264   5.772  -0.032  1.00  0.00     0.168 HD
ENDROOT
BRANCH   7  11
ATOM     11  N   UNL     1      12.769   5.330  -2.531  1.00  0.00    -0.382 N 
ATOM     12  H   UNL     1      13.349   4.579  -2.097  1.00  0.00     0.158 HD
ATOM     13  H   UNL     1      13.212   6.257  -2.720  1.00  0.00     0.158 HD
ENDBRANCH   7  11
TORSDOF 1
ENDMDL
MODEL 4
REMARK VINA RESULT:    -4.572      1.716      2.237
REMARK INTER + INTRA:          -4.706
REMARK INTER:                  -4.706
REMARK INTRA:                   0.000
REMARK UNBOUND:                 0.000
REMARK SMILES Nc1ncnc2nc[nH]c12
REMARK SMILES IDX 8 1 7 2 6 3 5 4 4 5 3 6 2 7 10 8 9 9 1 11
REMARK H PARENT 9 10 1 12 1 13
REMARK Flexibility Score: inf
ROOT
ATOM      1  C   UNL     1       8.750   7.222  -2.539  1.00  0.00     0.199 A 
ATOM      2  N   UNL     1       9.366   6.905  -1.368  1.00  0.00    -0.217 NA
ATOM      3  C   UNL     1       9.671   5.609  -1.547  1.00  0.00     0.182 A 
ATOM      4  N   UNL     1      10.304   4.798  -0.665  1.00  0.00    -0.215 NA
ATOM      5  C   UNL     1      10.527   3.499  -1.029  1.00  0.00     0.226 A 
ATOM      6  N   UNL     1      10.117   3.039  -2.255  1.00  0.00    -0.217 NA
ATOM      7  C   UNL     1       9.478   3.855  -3.145  1.00  0.00     0.152 A 
ATOM      8  C   UNL     1       9.258   5.175  -2.760  1.00  0.00     0.127 A 
ATOM      9  N   UNL     1       8.668   6.185  -3.411  1.00  0.00    -0.340 N 
ATOM     10  H   UNL     1       8.243   6.187  -4.365  1.00  0.00     0.168 HD
ENDROOT
BRANCH   7  11
ATOM     11  N   UNL     1       9.061   3.353  -4.415  1.00  0.00    -0.382 N 
ATOM     12  H   UNL     1       8.753   2.361  -4.509  1.00  0.00     0.158 HD
ATOM     13  H   UNL     1       9.056   3.960  -5.265  1.00  0.00     0.158 HD
ENDBRANCH   7  11
TORSDOF 1
ENDMDL
MODEL 5
REMARK VINA RESULT:    -4.565      1.951      2.186
REMARK INTER + INTRA:          -4.698
REMARK INTER:                  -4.698
REMARK INTRA:                   0.000
REMARK UNBOUND:                 0.000
REMARK SMILES Nc1ncnc2nc[nH]c12
REMARK SMILES IDX 8 1 7 2 6 3 5 4 4 5 3 6 2 7 10 8 9 9 1 11
REMARK H PARENT 9 10 1 12 1 13
REMARK Flexibility Score: inf
ROOT
ATOM      1  C   UNL     1       8.248   7.094  -1.165  1.00  0.00     0.199 A 
ATOM      2  N   UNL     1       9.161   7.604  -2.035  1.00  0.00    -0.217 NA
ATOM      3  C   UNL     1      10.034   6.589  -2.161  1.00  0.00     0.182 A 
ATOM      4  N   UNL     1      11.151   6.574  -2.925  1.00  0.00    -0.215 NA
ATOM      5  C   UNL     1      11.919   5.442  -2.924  1.00  0.00     0.226 A 
ATOM      6  N   UNL     1      11.558   4.357  -2.165  1.00  0.00    -0.217 NA
ATOM      7  C   UNL     1      10.431   4.371  -1.394  1.00  0.00     0.152 A 
ATOM      8  C   UNL     1       9.660   5.530  -1.406  1.00  0.00     0.127 A 
ATOM      9  N   UNL     1       8.525   5.828  -0.761  1.00  0.00    -0.340 N 
ATOM     10  H   UNL     1       7.973   5.235  -0.103  1.00  0.00     0.168 HD
ENDROOT
BRANCH   7  11
ATOM     11  N   UNL     1      10.076   3.229  -0.613  1.00  0.00    -0.382 N 
ATOM     12  H   UNL     1      10.280   3.212   0.410  1.00  0.00     0.158 HD
ATOM     13  H   UNL     1       9.611   2.399  -1.043  1.00  0.00     0.158 HD
ENDBRANCH   7  11
TORSDOF 1
ENDMDL
MODEL 6
REMARK VINA RESULT:    -4.554      1.550      2.686
REMARK INTER + INTRA:          -4.687
REMARK INTER:                  -4.687
REMARK INTRA:                   0.000
REMARK UNBOUND:                 0.000
REMARK SMILES Nc1ncnc2nc[nH]c12
REMARK SMILES IDX 8 1 7 2 6 3 5 4 4 5 3 6 2 7 10 8 9 9 1 11
REMARK H PARENT 9 10 1 12 1 13
REMARK Flexibility Score: inf
ROOT
ATOM      1  C   UNL     1      10.489   2.889  -2.069  1.00  0.00     0.199 A 
ATOM      2  N   UNL     1      11.052   3.176  -3.274  1.00  0.00    -0.217 NA
ATOM      3  C   UNL     1      10.847   4.500  -3.377  1.00  0.00     0.182 A 
ATOM      4  N   UNL     1      11.221   5.298  -4.406  1.00  0.00    -0.215 NA
ATOM      5  C   UNL     1      10.923   6.631  -4.330  1.00  0.00     0.226 A 
ATOM      6  N   UNL     1      10.263   7.136  -3.238  1.00  0.00    -0.217 NA
ATOM      7  C   UNL     1       9.885   6.332  -2.200  1.00  0.00     0.152 A 
ATOM      8  C   UNL     1      10.196   4.978  -2.292  1.00  0.00     0.127 A 
ATOM      9  N   UNL     1       9.956   3.970  -1.444  1.00  0.00    -0.340 N 
ATOM     10  H   UNL     1       9.475   3.996  -0.518  1.00  0.00     0.168 HD
ENDROOT
BRANCH   7  11
ATOM     11  N   UNL     1       9.199   6.880  -1.074  1.00  0.00    -0.382 N 
ATOM     12  H   UNL     1       9.143   7.915  -0.949  1.00  0.00     0.158 HD
ATOM     13  H   UNL     1       8.746   6.267  -0.361  1.00  0.00     0.158 HD
ENDBRANCH   7  11
TORSDOF 1
ENDMDL
MODEL 7
REMARK VINA RESULT:    -4.554      1.768      2.417
REMARK INTER + INTRA:          -4.687
REMARK INTER:                  -4.687
REMARK INTRA:                   0.000
REMARK UNBOUND:                 0.000
REMARK SMILES Nc1ncnc2nc[nH]c12
REMARK SMILES IDX 8 1 7 2 6 3 5 4 4 5 3 6 2 7 10 8 9 9 1 11
REMARK H PARENT 9 10 1 12 1 13
REMARK Flexibility Score: inf
ROOT
ATOM      1  C   UNL     1       8.625   5.498   0.121  1.00  0.00     0.199 A 
ATOM      2  N   UNL     1       9.510   4.573  -0.339  1.00  0.00    -0.217 NA
ATOM      3  C   UNL     1      10.043   5.193  -1.405  1.00  0.00     0.182 A 
ATOM      4  N   UNL     1      10.994   4.701  -2.235  1.00  0.00    -0.215 NA
ATOM      5  C   UNL     1      11.414   5.486  -3.273  1.00  0.00     0.226 A 
ATOM      6  N   UNL     1      10.881   6.736  -3.461  1.00  0.00    -0.217 NA
ATOM      7  C   UNL     1       9.922   7.234  -2.624  1.00  0.00     0.152 A 
ATOM      8  C   UNL     1       9.505   6.423  -1.572  1.00  0.00     0.127 A 
ATOM      9  N   UNL     1       8.598   6.641  -0.612  1.00  0.00    -0.340 N 
ATOM     10  H   UNL     1       8.005   7.485  -0.453  1.00  0.00     0.168 HD
ENDROOT
BRANCH   7  11
ATOM     11  N   UNL     1       9.382   8.539  -2.839  1.00  0.00    -0.382 N 
ATOM     12  H   UNL     1       9.101   9.129  -2.025  1.00  0.00     0.158 HD
ATOM     13  H   UNL     1       9.259   8.925  -3.802  1.00  0.00     0.158 HD
ENDBRANCH   7  11
TORSDOF 1
ENDMDL
MODEL 8
REMARK VINA RESULT:    -4.533      1.495      2.631
REMARK INTER + INTRA:          -4.665
REMARK INTER:                  -4.665
REMARK INTRA:                   0.000
REMARK UNBOUND:                 0.000
REMARK SMILES Nc1ncnc2nc[nH]c12
REMARK SMILES IDX 8 1 7 2 6 3 5 4 4 5 3 6 2 7 10 8 9 9 1 11
REMARK H PARENT 9 10 1 12 1 13
REMARK Flexibility Score: inf
ROOT
ATOM      1  C   UNL     1      10.020   7.503  -4.495  1.00  0.00     0.199 A 
ATOM      2  N   UNL     1      10.505   7.596  -3.228  1.00  0.00    -0.217 NA
ATOM      3  C   UNL     1      10.323   6.349  -2.760  1.00  0.00     0.182 A 
ATOM      4  N   UNL     1      10.642   5.894  -1.525  1.00  0.00    -0.215 NA
ATOM      5  C   UNL     1      10.379   4.584  -1.233  1.00  0.00     0.226 A 
ATOM      6  N   UNL     1       9.808   3.762  -2.171  1.00  0.00    -0.217 NA
ATOM      7  C   UNL     1       9.486   4.220  -3.417  1.00  0.00     0.152 A 
ATOM      8  C   UNL     1       9.759   5.555  -3.700  1.00  0.00     0.127 A 
ATOM      9  N   UNL     1       9.556   6.268  -4.815  1.00  0.00    -0.340 N 
ATOM     10  H   UNL     1       9.142   5.959  -5.721  1.00  0.00     0.168 HD
ENDROOT
BRANCH   7  11
ATOM     11  N   UNL     1       8.892   3.344  -4.377  1.00  0.00    -0.382 N 
ATOM     12  H   UNL     1       9.152   2.334  -4.394  1.00  0.00     0.158 HD
ATOM     13  H   UNL     1       8.194   3.692  -5.072  1.00  0.00     0.158 HD
ENDBRANCH   7  11
TORSDOF 1
ENDMDL
MODEL 9
REMARK VINA RESULT:    -4.520      1.816      3.350
REMARK INTER + INTRA:          -4.652
REMARK INTER:                  -4.652
REMARK INTRA:                   0.000
REMARK UNBOUND:                 0.000
REMARK SMILES Nc1ncnc2nc[nH]c12
REMARK SMILES IDX 8 1 7 2 6 3 5 4 4 5 3 6 2 7 10 8 9 9 1 11
REMARK H PARENT 9 10 1 12 1 13
REMARK Flexibility Score: inf
ROOT
ATOM      1  C   UNL     1      11.999   5.495  -3.237  1.00  0.00     0.199 A 
ATOM      2  N   UNL     1      11.235   6.619  -3.169  1.00  0.00    -0.217 NA
ATOM      3  C   UNL     1      10.298   6.273  -2.270  1.00  0.00     0.182 A 
ATOM      4  N   UNL     1       9.274   7.044  -1.832  1.00  0.00    -0.215 NA
ATOM      5  C   UNL     1       8.417   6.513  -0.908  1.00  0.00     0.226 A 
ATOM      6  N   UNL     1       8.596   5.235  -0.444  1.00  0.00    -0.217 NA
ATOM      7  C   UNL     1       9.629   4.456  -0.885  1.00  0.00     0.152 A 
ATOM      8  C   UNL     1      10.493   5.010  -1.826  1.00  0.00     0.127 A 
ATOM      9  N   UNL     1      11.571   4.493  -2.428  1.00  0.00    -0.340 N 
ATOM     10  H   UNL     1      11.994   3.546  -2.310  1.00  0.00     0.168 HD
ENDROOT
BRANCH   7  11
ATOM     11  N   UNL     1       9.796   3.128  -0.387  1.00  0.00    -0.382 N 
ATOM     12  H   UNL     1       9.049   2.415  -0.539  1.00  0.00     0.158 HD
ATOM     13  H   UNL     1      10.657   2.846   0.132  1.00  0.00     0.158 HD
ENDBRANCH   7  11
TORSDOF 1
ENDMDL
