MODEL 1
REMARK VINA RESULT:    -4.333      0.000      0.000
REMARK INTER + INTRA:          -4.324
REMARK INTER:                  -5.347
REMARK INTRA:                   1.022
REMARK UNBOUND:                 1.022
REMARK SMILES C=C1[C@@H]2CC[C@H]3[C@@H]2C(C)(C)CCC[C@@]13C
REMARK SMILES IDX 14 1 6 2 7 3 3 4 2 5 1 6 4 7 5 8 15 9 8 10 9 11 10 12 11 13
REMARK SMILES IDX 13 15 12 16
REMARK H PARENT
REMARK Flexibility Score: 80.00
ROOT
ATOM      1  C   UNL     1      -0.981   4.564  11.480  1.00  0.00    -0.008 C 
ATOM      2  C   UNL     1      -0.639   5.054  12.940  1.00  0.00     0.003 C 
ATOM      3  C   UNL     1      -1.726   4.412  13.831  1.00  0.00     0.006 C 
ATOM      4  C   UNL     1      -2.880   4.930  12.983  1.00  0.00     0.019 C 
ATOM      5  C   UNL     1      -2.485   4.464  11.609  1.00  0.00    -0.068 C 
ATOM      6  C   UNL     1      -3.346   4.126  10.641  1.00  0.00     0.009 C 
ATOM      7  C   UNL     1      -2.613   6.451  13.031  1.00  0.00     0.008 C 
ATOM      8  C   UNL     1      -1.068   6.536  13.103  1.00  0.00     0.005 C 
ATOM      9  C   UNL     1      -0.613   5.583  10.367  1.00  0.00     0.016 C 
ENDROOT
BRANCH   3  10
ATOM     10  C   UNL     1      -1.673   2.877  14.186  1.00  0.00    -0.032 C 
ATOM     11  C   UNL     1      -0.581   2.663  15.268  1.00  0.00     0.011 C 
ATOM     12  C   UNL     1      -3.020   2.464  14.828  1.00  0.00     0.011 C 
BRANCH  10  13
ATOM     13  C   UNL     1      -1.426   1.917  12.989  1.00  0.00     0.007 CG0
ATOM     14  G   UNL     1      -0.142   2.196  12.205  1.00  0.00     0.000 G0
ENDBRANCH  10  13
ENDBRANCH   3  10
BRANCH   1  15
ATOM     15  C   UNL     1      -0.313   3.211  11.098  1.00  0.00     0.011 C 
BRANCH  15  16
ATOM     16  C   UNL     1      -0.135   2.184  12.213  1.00  0.00     0.001 CG0
ATOM     17  G   UNL     1      -1.425   1.915  12.991  1.00  0.00     0.000 G0
ENDBRANCH  15  16
ENDBRANCH   1  15
TORSDOF 0
ENDMDL
MODEL 2
REMARK VINA RESULT:    -4.012      1.359      2.785
REMARK INTER + INTRA:          -3.928
REMARK INTER:                  -4.950
REMARK INTRA:                   1.022
REMARK UNBOUND:                 1.022
REMARK SMILES C=C1[C@@H]2CC[C@H]3[C@@H]2C(C)(C)CCC[C@@]13C
REMARK SMILES IDX 14 1 6 2 7 3 3 4 2 5 1 6 4 7 5 8 15 9 8 10 9 11 10 12 11 13
REMARK SMILES IDX 13 15 12 16
REMARK H PARENT
REMARK Flexibility Score: 80.00
ROOT
ATOM      1  C   UNL     1      -1.605   6.134  12.180  1.00  0.00    -0.008 C 
ATOM      2  C   UNL     1      -2.680   5.116  12.725  1.00  0.00     0.003 C 
ATOM      3  C   UNL     1      -2.223   3.741  12.187  1.00  0.00     0.006 C 
ATOM      4  C   UNL     1      -2.122   4.218  10.745  1.00  0.00     0.019 C 
ATOM      5  C   UNL     1      -1.255   5.438  10.883  1.00  0.00    -0.068 C 
ATOM      6  C   UNL     1      -0.399   5.875   9.951  1.00  0.00     0.009 C 
ATOM      7  C   UNL     1      -3.563   4.722  10.506  1.00  0.00     0.008 C 
ATOM      8  C   UNL     1      -3.987   5.251  11.899  1.00  0.00     0.005 C 
ATOM      9  C   UNL     1      -2.167   7.551  11.884  1.00  0.00     0.016 C 
ENDROOT
BRANCH   3  10
ATOM     10  C   UNL     1      -0.991   2.996  12.829  1.00  0.00    -0.032 C 
ATOM     11  C   UNL     1      -1.442   2.381  14.181  1.00  0.00     0.011 C 
ATOM     12  C   UNL     1      -0.590   1.812  11.915  1.00  0.00     0.011 C 
BRANCH  10  13
ATOM     13  C   UNL     1       0.284   3.859  13.040  1.00  0.00     0.007 CG0
ATOM     14  G   UNL     1       0.076   5.096  13.917  1.00  0.00     0.000 G0
ENDBRANCH  10  13
ENDBRANCH   3  10
BRANCH   1  15
ATOM     15  C   UNL     1      -0.379   6.318  13.122  1.00  0.00     0.011 C 
BRANCH  15  16
ATOM     16  C   UNL     1       0.077   5.097  13.915  1.00  0.00     0.001 CG0
ATOM     17  G   UNL     1       0.286   3.858  13.042  1.00  0.00     0.000 G0
ENDBRANCH  15  16
ENDBRANCH   1  15
TORSDOF 0
ENDMDL
MODEL 3
REMARK VINA RESULT:    -3.992      1.783      3.631
REMARK INTER + INTRA:          -3.903
REMARK INTER:                  -4.913
REMARK INTRA:                   1.010
REMARK UNBOUND:                 1.022
REMARK SMILES C=C1[C@@H]2CC[C@H]3[C@@H]2C(C)(C)CCC[C@@]13C
REMARK SMILES IDX 14 1 6 2 7 3 3 4 2 5 1 6 4 7 5 8 15 9 8 10 9 11 10 12 11 13
REMARK SMILES IDX 13 15 12 16
REMARK H PARENT
REMARK Flexibility Score: 80.00
ROOT
ATOM      1  C   UNL     1      -0.572   2.855  13.265  1.00  0.00    -0.008 C 
ATOM      2  C   UNL     1      -0.217   3.756  12.019  1.00  0.00     0.003 C 
ATOM      3  C   UNL     1      -0.975   5.079  12.267  1.00  0.00     0.006 C 
ATOM      4  C   UNL     1      -2.315   4.395  12.498  1.00  0.00     0.019 C 
ATOM      5  C   UNL     1      -1.964   3.377  13.546  1.00  0.00    -0.068 C 
ATOM      6  C   UNL     1      -2.800   2.940  14.497  1.00  0.00     0.009 C 
ATOM      7  C   UNL     1      -2.480   3.625  11.168  1.00  0.00     0.008 C 
ATOM      8  C   UNL     1      -1.022   3.270  10.784  1.00  0.00     0.005 C 
ATOM      9  C   UNL     1      -0.630   1.335  12.952  1.00  0.00     0.016 C 
ENDROOT
BRANCH   3  10
ATOM     10  C   UNL     1      -0.456   6.115  13.336  1.00  0.00    -0.032 C 
ATOM     11  C   UNL     1       0.762   6.869  12.736  1.00  0.00     0.011 C 
ATOM     12  C   UNL     1      -1.557   7.176  13.581  1.00  0.00     0.011 C 
BRANCH  10  13
ATOM     13  C   UNL     1      -0.079   5.522  14.722  1.00  0.00     0.007 CG0
ATOM     14  G   UNL     1       0.989   4.427  14.675  1.00  0.00     0.000 G0
ENDBRANCH  10  13
ENDBRANCH   3  10
BRANCH   1  15
ATOM     15  C   UNL     1       0.400   3.036  14.468  1.00  0.00     0.011 C 
BRANCH  15  16
ATOM     16  C   UNL     1       0.985   4.429  14.686  1.00  0.00     0.001 CG0
ATOM     17  G   UNL     1      -0.079   5.528  14.713  1.00  0.00     0.000 G0
ENDBRANCH  15  16
ENDBRANCH   1  15
TORSDOF 0
ENDMDL
MODEL 4
REMARK VINA RESULT:    -3.942      2.105      4.455
REMARK INTER + INTRA:          -3.842
REMARK INTER:                  -4.864
REMARK INTRA:                   1.022
REMARK UNBOUND:                 1.022
REMARK SMILES C=C1[C@@H]2CC[C@H]3[C@@H]2C(C)(C)CCC[C@@]13C
REMARK SMILES IDX 14 1 6 2 7 3 3 4 2 5 1 6 4 7 5 8 15 9 8 10 9 11 10 12 11 13
REMARK SMILES IDX 13 15 12 16
REMARK H PARENT
REMARK Flexibility Score: 80.00
ROOT
ATOM      1  C   UNL     1      -1.466   4.624  13.064  1.00  0.00    -0.008 C 
ATOM      2  C   UNL     1      -0.349   4.372  11.979  1.00  0.00     0.003 C 
ATOM      3  C   UNL     1      -0.903   5.021  10.690  1.00  0.00     0.006 C 
ATOM      4  C   UNL     1      -2.234   4.285  10.764  1.00  0.00     0.019 C 
ATOM      5  C   UNL     1      -2.682   4.596  12.164  1.00  0.00    -0.068 C 
ATOM      6  C   UNL     1      -3.959   4.716  12.548  1.00  0.00     0.009 C 
ATOM      7  C   UNL     1      -1.752   2.816  10.766  1.00  0.00     0.008 C 
ATOM      8  C   UNL     1      -0.400   2.891  11.518  1.00  0.00     0.005 C 
ATOM      9  C   UNL     1      -1.574   3.505  14.134  1.00  0.00     0.016 C 
ENDROOT
BRANCH   3  10
ATOM     10  C   UNL     1      -0.910   6.588  10.518  1.00  0.00    -0.032 C 
ATOM     11  C   UNL     1       0.537   7.050  10.196  1.00  0.00     0.011 C 
ATOM     12  C   UNL     1      -1.775   6.952   9.286  1.00  0.00     0.011 C 
BRANCH  10  13
ATOM     13  C   UNL     1      -1.468   7.396  11.721  1.00  0.00     0.007 CG0
ATOM     14  G   UNL     1      -0.745   7.144  13.046  1.00  0.00     0.000 G0
ENDBRANCH  10  13
ENDBRANCH   3  10
BRANCH   1  15
ATOM     15  C   UNL     1      -1.307   5.972  13.828  1.00  0.00     0.011 C 
BRANCH  15  16
ATOM     16  C   UNL     1      -0.739   7.152  13.045  1.00  0.00     0.001 CG0
ATOM     17  G   UNL     1      -1.467   7.399  11.722  1.00  0.00     0.000 G0
ENDBRANCH  15  16
ENDBRANCH   1  15
TORSDOF 0
ENDMDL
MODEL 5
REMARK VINA RESULT:    -3.854      1.562      2.441
REMARK INTER + INTRA:          -3.733
REMARK INTER:                  -4.749
REMARK INTRA:                   1.016
REMARK UNBOUND:                 1.022
REMARK SMILES C=C1[C@@H]2CC[C@H]3[C@@H]2C(C)(C)CCC[C@@]13C
REMARK SMILES IDX 14 1 6 2 7 3 3 4 2 5 1 6 4 7 5 8 15 9 8 10 9 11 10 12 11 13
REMARK SMILES IDX 13 15 12 16
REMARK H PARENT
REMARK Flexibility Score: 80.00
ROOT
ATOM      1  C   UNL     1      -0.243   5.870  12.330  1.00  0.00    -0.008 C 
ATOM      2  C   UNL     1       0.668   4.795  13.039  1.00  0.00     0.003 C 
ATOM      3  C   UNL     1      -0.263   4.111  14.065  1.00  0.00     0.006 C 
ATOM      4  C   UNL     1      -0.718   5.422  14.690  1.00  0.00     0.019 C 
ATOM      5  C   UNL     1      -1.164   6.200  13.484  1.00  0.00    -0.068 C 
ATOM      6  C   UNL     1      -2.147   7.109  13.483  1.00  0.00     0.009 C 
ATOM      7  C   UNL     1       0.638   6.020  15.128  1.00  0.00     0.008 C 
ATOM      8  C   UNL     1       1.617   5.504  14.043  1.00  0.00     0.005 C 
ATOM      9  C   UNL     1       0.516   7.147  11.878  1.00  0.00     0.016 C 
ENDROOT
BRANCH   3  10
ATOM     10  C   UNL     1      -1.354   3.075  13.594  1.00  0.00    -0.032 C 
ATOM     11  C   UNL     1      -0.645   1.733  13.267  1.00  0.00     0.011 C 
ATOM     12  C   UNL     1      -2.317   2.791  14.773  1.00  0.00     0.011 C 
BRANCH  10  13
ATOM     13  C   UNL     1      -2.228   3.517  12.388  1.00  0.00     0.007 CG0
ATOM     14  G   UNL     1      -1.439   3.855  11.122  1.00  0.00     0.000 G0
ENDBRANCH  10  13
ENDBRANCH   3  10
BRANCH   1  15
ATOM     15  C   UNL     1      -1.002   5.326  11.084  1.00  0.00     0.011 C 
BRANCH  15  16
ATOM     16  C   UNL     1      -1.448   3.867  11.123  1.00  0.00     0.001 CG0
ATOM     17  G   UNL     1      -2.233   3.515  12.388  1.00  0.00     0.000 G0
ENDBRANCH  15  16
ENDBRANCH   1  15
TORSDOF 0
ENDMDL
MODEL 6
REMARK VINA RESULT:    -3.791      1.691      3.636
REMARK INTER + INTRA:          -3.655
REMARK INTER:                  -4.665
REMARK INTRA:                   1.010
REMARK UNBOUND:                 1.022
REMARK SMILES C=C1[C@@H]2CC[C@H]3[C@@H]2C(C)(C)CCC[C@@]13C
REMARK SMILES IDX 14 1 6 2 7 3 3 4 2 5 1 6 4 7 5 8 15 9 8 10 9 11 10 12 11 13
REMARK SMILES IDX 13 15 12 16
REMARK H PARENT
REMARK Flexibility Score: 80.00
ROOT
ATOM      1  C   UNL     1      -0.888   3.311  12.469  1.00  0.00    -0.008 C 
ATOM      2  C   UNL     1      -2.257   3.186  13.244  1.00  0.00     0.003 C 
ATOM      3  C   UNL     1      -2.657   4.643  13.565  1.00  0.00     0.006 C 
ATOM      4  C   UNL     1      -1.318   4.985  14.204  1.00  0.00     0.019 C 
ATOM      5  C   UNL     1      -0.350   4.557  13.138  1.00  0.00    -0.068 C 
ATOM      6  C   UNL     1       0.837   5.133  12.909  1.00  0.00     0.009 C 
ATOM      7  C   UNL     1      -1.251   3.918  15.321  1.00  0.00     0.008 C 
ATOM      8  C   UNL     1      -1.987   2.707  14.696  1.00  0.00     0.005 C 
ATOM      9  C   UNL     1       0.085   2.123  12.704  1.00  0.00     0.016 C 
ENDROOT
BRANCH   3  10
ATOM     10  C   UNL     1      -3.224   5.588  12.438  1.00  0.00    -0.032 C 
ATOM     11  C   UNL     1      -4.701   5.193  12.166  1.00  0.00     0.011 C 
ATOM     12  C   UNL     1      -3.246   7.043  12.969  1.00  0.00     0.011 C 
BRANCH  10  13
ATOM     13  C   UNL     1      -2.426   5.602  11.105  1.00  0.00     0.007 CG0
ATOM     14  G   UNL     1      -2.286   4.234  10.435  1.00  0.00     0.000 G0
ENDBRANCH  10  13
ENDBRANCH   3  10
BRANCH   1  15
ATOM     15  C   UNL     1      -1.050   3.470  10.929  1.00  0.00     0.011 C 
BRANCH  15  16
ATOM     16  C   UNL     1      -2.273   4.236  10.434  1.00  0.00     0.001 CG0
ATOM     17  G   UNL     1      -2.438   5.601  11.106  1.00  0.00     0.000 G0
ENDBRANCH  15  16
ENDBRANCH   1  15
TORSDOF 0
ENDMDL
MODEL 7
REMARK VINA RESULT:    -3.709      2.137      4.131
REMARK INTER + INTRA:          -3.555
REMARK INTER:                  -4.582
REMARK INTRA:                   1.028
REMARK UNBOUND:                 1.022
REMARK SMILES C=C1[C@@H]2CC[C@H]3[C@@H]2C(C)(C)CCC[C@@]13C
REMARK SMILES IDX 14 1 6 2 7 3 3 4 2 5 1 6 4 7 5 8 15 9 8 10 9 11 10 12 11 13
REMARK SMILES IDX 13 15 12 16
REMARK H PARENT
REMARK Flexibility Score: 80.00
ROOT
ATOM      1  C   UNL     1      -0.163   5.381  12.947  1.00  0.00    -0.008 C 
ATOM      2  C   UNL     1      -0.630   4.524  11.708  1.00  0.00     0.003 C 
ATOM      3  C   UNL     1      -2.132   4.261  11.960  1.00  0.00     0.006 C 
ATOM      4  C   UNL     1      -1.912   3.719  13.366  1.00  0.00     0.019 C 
ATOM      5  C   UNL     1      -1.096   4.814  13.994  1.00  0.00    -0.068 C 
ATOM      6  C   UNL     1      -1.129   5.141  15.292  1.00  0.00     0.009 C 
ATOM      7  C   UNL     1      -0.942   2.551  13.076  1.00  0.00     0.008 C 
ATOM      8  C   UNL     1      -0.123   3.066  11.866  1.00  0.00     0.005 C 
ATOM      9  C   UNL     1       1.313   5.137  13.366  1.00  0.00     0.016 C 
ENDROOT
BRANCH   3  10
ATOM     10  C   UNL     1      -3.196   5.405  11.745  1.00  0.00    -0.032 C 
ATOM     11  C   UNL     1      -3.422   5.581  10.219  1.00  0.00     0.011 C 
ATOM     12  C   UNL     1      -4.549   4.948  12.344  1.00  0.00     0.011 C 
BRANCH  10  13
ATOM     13  C   UNL     1      -2.852   6.776  12.390  1.00  0.00     0.007 CG0
ATOM     14  G   UNL     1      -1.533   7.388  11.915  1.00  0.00     0.000 G0
ENDBRANCH  10  13
ENDBRANCH   3  10
BRANCH   1  15
ATOM     15  C   UNL     1      -0.333   6.916  12.750  1.00  0.00     0.011 C 
BRANCH  15  16
ATOM     16  C   UNL     1      -1.530   7.383  11.926  1.00  0.00     0.001 CG0
ATOM     17  G   UNL     1      -2.852   6.769  12.390  1.00  0.00     0.000 G0
ENDBRANCH  15  16
ENDBRANCH   1  15
TORSDOF 0
ENDMDL
MODEL 8
REMARK VINA RESULT:    -3.637      1.947      3.674
REMARK INTER + INTRA:          -3.465
REMARK INTER:                  -4.474
REMARK INTRA:                   1.009
REMARK UNBOUND:                 1.022
REMARK SMILES C=C1[C@@H]2CC[C@H]3[C@@H]2C(C)(C)CCC[C@@]13C
REMARK SMILES IDX 14 1 6 2 7 3 3 4 2 5 1 6 4 7 5 8 15 9 8 10 9 11 10 12 11 13
REMARK SMILES IDX 13 15 12 16
REMARK H PARENT
REMARK Flexibility Score: 80.00
ROOT
ATOM      1  C   UNL     1      -1.589   4.509  11.345  1.00  0.00    -0.008 C 
ATOM      2  C   UNL     1      -2.403   5.344  12.408  1.00  0.00     0.003 C 
ATOM      3  C   UNL     1      -1.441   5.492  13.608  1.00  0.00     0.006 C 
ATOM      4  C   UNL     1      -1.154   3.999  13.700  1.00  0.00     0.019 C 
ATOM      5  C   UNL     1      -0.752   3.675  12.289  1.00  0.00    -0.068 C 
ATOM      6  C   UNL     1       0.125   2.723  11.945  1.00  0.00     0.009 C 
ATOM      7  C   UNL     1      -2.583   3.442  13.895  1.00  0.00     0.008 C 
ATOM      8  C   UNL     1      -3.459   4.430  13.085  1.00  0.00     0.005 C 
ATOM      9  C   UNL     1      -2.466   3.585  10.458  1.00  0.00     0.016 C 
ENDROOT
BRANCH   3  10
ATOM     10  C   UNL     1      -0.227   6.496  13.547  1.00  0.00    -0.032 C 
ATOM     11  C   UNL     1      -0.774   7.935  13.746  1.00  0.00     0.011 C 
ATOM     12  C   UNL     1       0.718   6.212  14.739  1.00  0.00     0.011 C 
BRANCH  10  13
ATOM     13  C   UNL     1       0.636   6.432  12.256  1.00  0.00     0.007 CG0
ATOM     14  G   UNL     1      -0.141   6.671  10.960  1.00  0.00     0.000 G0
ENDBRANCH  10  13
ENDBRANCH   3  10
BRANCH   1  15
ATOM     15  C   UNL     1      -0.730   5.383  10.384  1.00  0.00     0.011 C 
BRANCH  15  16
ATOM     16  C   UNL     1      -0.125   6.661  10.959  1.00  0.00     0.001 CG0
ATOM     17  G   UNL     1       0.645   6.425  12.260  1.00  0.00     0.000 G0
ENDBRANCH  15  16
ENDBRANCH   1  15
TORSDOF 0
ENDMDL
MODEL 9
REMARK VINA RESULT:    -3.552      1.918      4.144
REMARK INTER + INTRA:          -3.361
REMARK INTER:                  -4.377
REMARK INTRA:                   1.016
REMARK UNBOUND:                 1.022
REMARK SMILES C=C1[C@@H]2CC[C@H]3[C@@H]2C(C)(C)CCC[C@@]13C
REMARK SMILES IDX 14 1 6 2 7 3 3 4 2 5 1 6 4 7 5 8 15 9 8 10 9 11 10 12 11 13
REMARK SMILES IDX 13 15 12 16
REMARK H PARENT
REMARK Flexibility Score: 80.00
ROOT
ATOM      1  C   UNL     1      -1.750   4.102  13.562  1.00  0.00    -0.008 C 
ATOM      2  C   UNL     1      -1.349   5.526  14.110  1.00  0.00     0.003 C 
ATOM      3  C   UNL     1      -0.429   6.119  13.020  1.00  0.00     0.006 C 
ATOM      4  C   UNL     1       0.490   4.905  12.982  1.00  0.00     0.019 C 
ATOM      5  C   UNL     1      -0.490   3.783  12.787  1.00  0.00    -0.068 C 
ATOM      6  C   UNL     1      -0.230   2.649  12.124  1.00  0.00     0.009 C 
ATOM      7  C   UNL     1       0.948   4.845  14.457  1.00  0.00     0.008 C 
ATOM      8  C   UNL     1      -0.287   5.369  15.231  1.00  0.00     0.005 C 
ATOM      9  C   UNL     1      -1.973   3.036  14.669  1.00  0.00     0.016 C 
ENDROOT
BRANCH   3  10
ATOM     10  C   UNL     1      -1.031   6.658  11.666  1.00  0.00    -0.032 C 
ATOM     11  C   UNL     1      -1.683   8.040  11.937  1.00  0.00     0.011 C 
ATOM     12  C   UNL     1       0.126   6.902  10.666  1.00  0.00     0.011 C 
BRANCH  10  13
ATOM     13  C   UNL     1      -2.051   5.721  10.961  1.00  0.00     0.007 CG0
ATOM     14  G   UNL     1      -3.260   5.340  11.818  1.00  0.00     0.000 G0
ENDBRANCH  10  13
ENDBRANCH   3  10
BRANCH   1  15
ATOM     15  C   UNL     1      -3.026   4.108  12.671  1.00  0.00     0.011 C 
BRANCH  15  16
ATOM     16  C   UNL     1      -3.264   5.342  11.805  1.00  0.00     0.001 CG0
ATOM     17  G   UNL     1      -2.049   5.720  10.955  1.00  0.00     0.000 G0
ENDBRANCH  15  16
ENDBRANCH   1  15
TORSDOF 0
ENDMDL
