MODEL 1
REMARK VINA RESULT:    -4.977      0.000      0.000
REMARK INTER + INTRA:         -10.422
REMARK INTER:                  -9.051
REMARK INTRA:                  -1.371
REMARK UNBOUND:                -1.371
REMARK SMILES CCCCCC=CCC=CCCCCCCCC(=O)[O-]
REMARK SMILES IDX 11 1 12 2 13 3 14 4 15 5 16 6 17 7 18 8 19 9 20 10 10 11
REMARK SMILES IDX 9 12 8 13 7 14 6 15 5 16 4 17 3 18 2 19 1 20
REMARK H PARENT
REMARK Flexibility Score: inf
ROOT
ATOM      1  C   UNL     1      -0.462  -7.292  -2.890  1.00  0.00     0.027 C 
ENDROOT
BRANCH   1   2
ATOM      2  C   UNL     1       0.318  -8.580  -2.586  1.00  0.00     0.004 C 
BRANCH   2   3
ATOM      3  C   UNL     1       1.820  -8.367  -2.313  1.00  0.00     0.000 C 
BRANCH   3   4
ATOM      4  C   UNL     1       2.305  -6.962  -2.711  1.00  0.00     0.000 C 
BRANCH   4   5
ATOM      5  C   UNL     1       3.834  -6.883  -2.877  1.00  0.00     0.000 C 
BRANCH   5   6
ATOM      6  C   UNL     1       4.606  -8.137  -2.426  1.00  0.00     0.006 C 
BRANCH   6   7
ATOM      7  C   UNL     1       5.956  -7.807  -1.775  1.00  0.00     0.053 C 
BRANCH   7   8
ATOM      8  C   UNL     1       5.751  -7.038  -0.509  1.00  0.00     0.041 C 
ATOM      9  O   UNL     1       6.346  -5.943  -0.330  1.00  0.00    -0.550 OA
ATOM     10  O   UNL     1       4.937  -7.550   0.493  1.00  0.00    -0.550 OA
ENDBRANCH   7   8
ENDBRANCH   6   7
ENDBRANCH   5   6
ENDBRANCH   4   5
ENDBRANCH   3   4
ENDBRANCH   2   3
ENDBRANCH   1   2
BRANCH   1  11
ATOM     11  C   UNL     1      -1.910  -7.572  -3.195  1.00  0.00    -0.031 C 
ATOM     12  C   UNL     1      -2.733  -6.608  -3.631  1.00  0.00    -0.027 C 
BRANCH  12  13
ATOM     13  C   UNL     1      -4.182  -6.881  -3.924  1.00  0.00     0.054 C 
BRANCH  13  14
ATOM     14  C   UNL     1      -4.539  -8.303  -3.581  1.00  0.00    -0.027 C 
ATOM     15  C   UNL     1      -5.701  -8.905  -3.903  1.00  0.00    -0.031 C 
BRANCH  15  16
ATOM     16  C   UNL     1      -6.854  -8.233  -4.610  1.00  0.00     0.027 C 
BRANCH  16  17
ATOM     17  C   UNL     1      -6.831  -8.502  -6.122  1.00  0.00     0.004 C 
BRANCH  17  18
ATOM     18  C   UNL     1      -6.192  -7.349  -6.909  1.00  0.00     0.000 C 
BRANCH  18  19
ATOM     19  C   UNL     1      -4.882  -7.795  -7.570  1.00  0.00    -0.003 C 
ATOM     20  C   UNL     1      -3.875  -6.651  -7.627  1.00  0.00     0.004 C 
ENDBRANCH  18  19
ENDBRANCH  17  18
ENDBRANCH  16  17
ENDBRANCH  15  16
ENDBRANCH  13  14
ENDBRANCH  12  13
ENDBRANCH   1  11
TORSDOF 14
ENDMDL
MODEL 2
REMARK VINA RESULT:    -4.955      1.551      2.355
REMARK INTER + INTRA:         -10.381
REMARK INTER:                  -9.501
REMARK INTRA:                  -0.881
REMARK UNBOUND:                -1.371
REMARK SMILES CCCCCC=CCC=CCCCCCCCC(=O)[O-]
REMARK SMILES IDX 11 1 12 2 13 3 14 4 15 5 16 6 17 7 18 8 19 9 20 10 10 11
REMARK SMILES IDX 9 12 8 13 7 14 6 15 5 16 4 17 3 18 2 19 1 20
REMARK H PARENT
REMARK Flexibility Score: inf
ROOT
ATOM      1  C   UNL     1      -0.672  -7.211  -2.622  1.00  0.00     0.027 C 
ENDROOT
BRANCH   1   2
ATOM      2  C   UNL     1       0.675  -7.831  -3.026  1.00  0.00     0.004 C 
BRANCH   2   3
ATOM      3  C   UNL     1       1.907  -7.119  -2.435  1.00  0.00     0.000 C 
BRANCH   3   4
ATOM      4  C   UNL     1       3.174  -7.311  -3.288  1.00  0.00     0.000 C 
BRANCH   4   5
ATOM      5  C   UNL     1       3.923  -8.614  -2.959  1.00  0.00     0.000 C 
BRANCH   5   6
ATOM      6  C   UNL     1       5.389  -8.434  -2.521  1.00  0.00     0.006 C 
BRANCH   6   7
ATOM      7  C   UNL     1       5.621  -8.789  -1.046  1.00  0.00     0.053 C 
BRANCH   7   8
ATOM      8  C   UNL     1       5.206  -7.656  -0.164  1.00  0.00     0.041 C 
ATOM      9  O   UNL     1       4.237  -7.791   0.628  1.00  0.00    -0.550 OA
ATOM     10  O   UNL     1       5.862  -6.433  -0.247  1.00  0.00    -0.550 OA
ENDBRANCH   7   8
ENDBRANCH   6   7
ENDBRANCH   5   6
ENDBRANCH   4   5
ENDBRANCH   3   4
ENDBRANCH   2   3
ENDBRANCH   1   2
BRANCH   1  11
ATOM     11  C   UNL     1      -1.824  -7.844  -3.356  1.00  0.00    -0.031 C 
ATOM     12  C   UNL     1      -2.938  -7.156  -3.640  1.00  0.00    -0.027 C 
BRANCH  12  13
ATOM     13  C   UNL     1      -4.095  -7.789  -4.360  1.00  0.00     0.054 C 
BRANCH  13  14
ATOM     14  C   UNL     1      -5.063  -6.741  -4.843  1.00  0.00    -0.027 C 
ATOM     15  C   UNL     1      -5.137  -6.286  -6.110  1.00  0.00    -0.031 C 
BRANCH  15  16
ATOM     16  C   UNL     1      -4.225  -6.714  -7.235  1.00  0.00     0.027 C 
BRANCH  16  17
ATOM     17  C   UNL     1      -4.963  -6.765  -8.580  1.00  0.00     0.004 C 
BRANCH  17  18
ATOM     18  C   UNL     1      -4.794  -5.470  -9.388  1.00  0.00     0.000 C 
BRANCH  18  19
ATOM     19  C   UNL     1      -6.151  -4.938  -9.864  1.00  0.00    -0.003 C 
ATOM     20  C   UNL     1      -6.851  -4.149  -8.762  1.00  0.00     0.004 C 
ENDBRANCH  18  19
ENDBRANCH  17  18
ENDBRANCH  16  17
ENDBRANCH  15  16
ENDBRANCH  13  14
ENDBRANCH  12  13
ENDBRANCH   1  11
TORSDOF 14
ENDMDL
MODEL 3
REMARK VINA RESULT:    -4.872      1.279      2.093
REMARK INTER + INTRA:         -10.230
REMARK INTER:                  -9.344
REMARK INTRA:                  -0.887
REMARK UNBOUND:                -1.371
REMARK SMILES CCCCCC=CCC=CCCCCCCCC(=O)[O-]
REMARK SMILES IDX 11 1 12 2 13 3 14 4 15 5 16 6 17 7 18 8 19 9 20 10 10 11
REMARK SMILES IDX 9 12 8 13 7 14 6 15 5 16 4 17 3 18 2 19 1 20
REMARK H PARENT
REMARK Flexibility Score: inf
ROOT
ATOM      1  C   UNL     1       1.095  -7.342  -2.590  1.00  0.00     0.027 C 
ENDROOT
BRANCH   1   2
ATOM      2  C   UNL     1       1.897  -8.544  -2.065  1.00  0.00     0.004 C 
BRANCH   2   3
ATOM      3  C   UNL     1       3.336  -8.208  -1.628  1.00  0.00     0.000 C 
BRANCH   3   4
ATOM      4  C   UNL     1       4.151  -7.518  -2.735  1.00  0.00     0.000 C 
BRANCH   4   5
ATOM      5  C   UNL     1       5.482  -8.232  -3.029  1.00  0.00     0.000 C 
BRANCH   5   6
ATOM      6  C   UNL     1       6.384  -8.467  -1.803  1.00  0.00     0.006 C 
BRANCH   6   7
ATOM      7  C   UNL     1       7.604  -7.537  -1.770  1.00  0.00     0.053 C 
BRANCH   7   8
ATOM      8  C   UNL     1       7.462  -6.527  -0.676  1.00  0.00     0.041 C 
ATOM      9  O   UNL     1       6.326  -6.083  -0.367  1.00  0.00    -0.550 OA
ATOM     10  O   UNL     1       8.590  -6.043  -0.025  1.00  0.00    -0.550 OA
ENDBRANCH   7   8
ENDBRANCH   6   7
ENDBRANCH   5   6
ENDBRANCH   4   5
ENDBRANCH   3   4
ENDBRANCH   2   3
ENDBRANCH   1   2
BRANCH   1  11
ATOM     11  C   UNL     1      -0.289  -7.740  -3.031  1.00  0.00    -0.031 C 
ATOM     12  C   UNL     1      -1.326  -6.896  -2.932  1.00  0.00    -0.027 C 
BRANCH  12  13
ATOM     13  C   UNL     1      -2.710  -7.295  -3.359  1.00  0.00     0.054 C 
BRANCH  13  14
ATOM     14  C   UNL     1      -3.434  -6.130  -3.983  1.00  0.00    -0.027 C 
ATOM     15  C   UNL     1      -4.549  -6.230  -4.733  1.00  0.00    -0.031 C 
BRANCH  15  16
ATOM     16  C   UNL     1      -5.221  -7.528  -5.114  1.00  0.00     0.027 C 
BRANCH  16  17
ATOM     17  C   UNL     1      -5.036  -7.851  -6.603  1.00  0.00     0.004 C 
BRANCH  17  18
ATOM     18  C   UNL     1      -4.243  -6.764  -7.341  1.00  0.00     0.000 C 
BRANCH  18  19
ATOM     19  C   UNL     1      -5.058  -6.184  -8.504  1.00  0.00    -0.003 C 
ATOM     20  C   UNL     1      -6.269  -5.409  -7.995  1.00  0.00     0.004 C 
ENDBRANCH  18  19
ENDBRANCH  17  18
ENDBRANCH  16  17
ENDBRANCH  15  16
ENDBRANCH  13  14
ENDBRANCH  12  13
ENDBRANCH   1  11
TORSDOF 14
ENDMDL
MODEL 4
REMARK VINA RESULT:    -4.737      4.738     10.390
REMARK INTER + INTRA:          -9.985
REMARK INTER:                  -9.255
REMARK INTRA:                  -0.730
REMARK UNBOUND:                -1.371
REMARK SMILES CCCCCC=CCC=CCCCCCCCC(=O)[O-]
REMARK SMILES IDX 11 1 12 2 13 3 14 4 15 5 16 6 17 7 18 8 19 9 20 10 10 11
REMARK SMILES IDX 9 12 8 13 7 14 6 15 5 16 4 17 3 18 2 19 1 20
REMARK H PARENT
REMARK Flexibility Score: inf
ROOT
ATOM      1  C   UNL     1      -2.428  -7.177  -3.353  1.00  0.00     0.027 C 
ENDROOT
BRANCH   1   2
ATOM      2  C   UNL     1      -3.634  -8.130  -3.375  1.00  0.00     0.004 C 
BRANCH   2   3
ATOM      3  C   UNL     1      -4.862  -7.587  -4.131  1.00  0.00     0.000 C 
BRANCH   3   4
ATOM      4  C   UNL     1      -4.644  -6.168  -4.683  1.00  0.00     0.000 C 
BRANCH   4   5
ATOM      5  C   UNL     1      -4.139  -6.164  -6.137  1.00  0.00     0.000 C 
BRANCH   5   6
ATOM      6  C   UNL     1      -4.646  -7.328  -7.009  1.00  0.00     0.006 C 
BRANCH   6   7
ATOM      7  C   UNL     1      -4.795  -6.948  -8.489  1.00  0.00     0.053 C 
BRANCH   7   8
ATOM      8  C   UNL     1      -5.578  -5.681  -8.626  1.00  0.00     0.041 C 
ATOM      9  O   UNL     1      -5.036  -4.650  -9.103  1.00  0.00    -0.550 OA
ATOM     10  O   UNL     1      -6.894  -5.626  -8.187  1.00  0.00    -0.550 OA
ENDBRANCH   7   8
ENDBRANCH   6   7
ENDBRANCH   5   6
ENDBRANCH   4   5
ENDBRANCH   3   4
ENDBRANCH   2   3
ENDBRANCH   1   2
BRANCH   1  11
ATOM     11  C   UNL     1      -1.160  -7.885  -2.956  1.00  0.00    -0.031 C 
ATOM     12  C   UNL     1       0.023  -7.255  -2.953  1.00  0.00    -0.027 C 
BRANCH  12  13
ATOM     13  C   UNL     1       1.292  -7.962  -2.570  1.00  0.00     0.054 C 
BRANCH  13  14
ATOM     14  C   UNL     1       2.476  -7.038  -2.685  1.00  0.00    -0.027 C 
ATOM     15  C   UNL     1       3.628  -7.173  -1.998  1.00  0.00    -0.031 C 
BRANCH  15  16
ATOM     16  C   UNL     1       3.896  -8.239  -0.962  1.00  0.00     0.027 C 
BRANCH  16  17
ATOM     17  C   UNL     1       5.132  -7.912  -0.113  1.00  0.00     0.004 C 
BRANCH  17  18
ATOM     18  C   UNL     1       5.998  -6.812  -0.744  1.00  0.00     0.000 C 
BRANCH  18  19
ATOM     19  C   UNL     1       7.346  -7.374  -1.212  1.00  0.00    -0.003 C 
ATOM     20  C   UNL     1       8.483  -6.402  -0.915  1.00  0.00     0.004 C 
ENDBRANCH  18  19
ENDBRANCH  17  18
ENDBRANCH  16  17
ENDBRANCH  15  16
ENDBRANCH  13  14
ENDBRANCH  12  13
ENDBRANCH   1  11
TORSDOF 14
ENDMDL
MODEL 5
REMARK VINA RESULT:    -4.703      4.649      9.952
REMARK INTER + INTRA:          -9.923
REMARK INTER:                  -8.714
REMARK INTRA:                  -1.209
REMARK UNBOUND:                -1.371
REMARK SMILES CCCCCC=CCC=CCCCCCCCC(=O)[O-]
REMARK SMILES IDX 11 1 12 2 13 3 14 4 15 5 16 6 17 7 18 8 19 9 20 10 10 11
REMARK SMILES IDX 9 12 8 13 7 14 6 15 5 16 4 17 3 18 2 19 1 20
REMARK H PARENT
REMARK Flexibility Score: inf
ROOT
ATOM      1  C   UNL     1      -3.307  -7.397  -3.356  1.00  0.00     0.027 C 
ENDROOT
BRANCH   1   2
ATOM      2  C   UNL     1      -3.348  -6.138  -4.236  1.00  0.00     0.004 C 
BRANCH   2   3
ATOM      3  C   UNL     1      -4.746  -5.786  -4.780  1.00  0.00     0.000 C 
BRANCH   3   4
ATOM      4  C   UNL     1      -5.667  -7.013  -4.898  1.00  0.00     0.000 C 
BRANCH   4   5
ATOM      5  C   UNL     1      -6.021  -7.356  -6.357  1.00  0.00     0.000 C 
BRANCH   5   6
ATOM      6  C   UNL     1      -4.915  -8.086  -7.144  1.00  0.00     0.006 C 
BRANCH   6   7
ATOM      7  C   UNL     1      -4.094  -7.144  -8.034  1.00  0.00     0.053 C 
BRANCH   7   8
ATOM      8  C   UNL     1      -4.997  -6.287  -8.861  1.00  0.00     0.041 C 
ATOM      9  O   UNL     1      -5.021  -5.040  -8.689  1.00  0.00    -0.550 OA
ATOM     10  O   UNL     1      -5.848  -6.868  -9.794  1.00  0.00    -0.550 OA
ENDBRANCH   7   8
ENDBRANCH   6   7
ENDBRANCH   5   6
ENDBRANCH   4   5
ENDBRANCH   3   4
ENDBRANCH   2   3
ENDBRANCH   1   2
BRANCH   1  11
ATOM     11  C   UNL     1      -1.937  -8.022  -3.334  1.00  0.00    -0.031 C 
ATOM     12  C   UNL     1      -0.855  -7.327  -2.953  1.00  0.00    -0.027 C 
BRANCH  12  13
ATOM     13  C   UNL     1       0.515  -7.943  -2.943  1.00  0.00     0.054 C 
BRANCH  13  14
ATOM     14  C   UNL     1       1.557  -6.924  -2.564  1.00  0.00    -0.027 C 
ATOM     15  C   UNL     1       2.868  -7.016  -2.865  1.00  0.00    -0.031 C 
BRANCH  15  16
ATOM     16  C   UNL     1       3.511  -8.180  -3.580  1.00  0.00     0.027 C 
BRANCH  16  17
ATOM     17  C   UNL     1       4.808  -8.628  -2.891  1.00  0.00     0.004 C 
BRANCH  17  18
ATOM     18  C   UNL     1       4.578  -9.052  -1.434  1.00  0.00     0.000 C 
BRANCH  18  19
ATOM     19  C   UNL     1       5.657  -8.467  -0.514  1.00  0.00    -0.003 C 
ATOM     20  C   UNL     1       6.042  -7.055  -0.945  1.00  0.00     0.004 C 
ENDBRANCH  18  19
ENDBRANCH  17  18
ENDBRANCH  16  17
ENDBRANCH  15  16
ENDBRANCH  13  14
ENDBRANCH  12  13
ENDBRANCH   1  11
TORSDOF 14
ENDMDL
MODEL 6
REMARK VINA RESULT:    -4.486      3.274      4.618
REMARK INTER + INTRA:          -9.529
REMARK INTER:                  -8.815
REMARK INTRA:                  -0.714
REMARK UNBOUND:                -1.371
REMARK SMILES CCCCCC=CCC=CCCCCCCCC(=O)[O-]
REMARK SMILES IDX 11 1 12 2 13 3 14 4 15 5 16 6 17 7 18 8 19 9 20 10 10 11
REMARK SMILES IDX 9 12 8 13 7 14 6 15 5 16 4 17 3 18 2 19 1 20
REMARK H PARENT
REMARK Flexibility Score: inf
ROOT
ATOM      1  C   UNL     1      -3.336  -6.720  -4.120  1.00  0.00     0.027 C 
ENDROOT
BRANCH   1   2
ATOM      2  C   UNL     1      -3.039  -8.027  -3.367  1.00  0.00     0.004 C 
BRANCH   2   3
ATOM      3  C   UNL     1      -1.540  -8.320  -3.166  1.00  0.00     0.000 C 
BRANCH   3   4
ATOM      4  C   UNL     1      -0.736  -7.072  -2.762  1.00  0.00     0.000 C 
BRANCH   4   5
ATOM      5  C   UNL     1       0.776  -7.234  -2.997  1.00  0.00     0.000 C 
BRANCH   5   6
ATOM      6  C   UNL     1       1.436  -8.397  -2.233  1.00  0.00     0.006 C 
BRANCH   6   7
ATOM      7  C   UNL     1       2.920  -8.579  -2.582  1.00  0.00     0.053 C 
BRANCH   7   8
ATOM      8  C   UNL     1       3.780  -7.841  -1.607  1.00  0.00     0.041 C 
ATOM      9  O   UNL     1       4.269  -8.440  -0.613  1.00  0.00    -0.550 OA
ATOM     10  O   UNL     1       4.007  -6.480  -1.769  1.00  0.00    -0.550 OA
ENDBRANCH   7   8
ENDBRANCH   6   7
ENDBRANCH   5   6
ENDBRANCH   4   5
ENDBRANCH   3   4
ENDBRANCH   2   3
ENDBRANCH   1   2
BRANCH   1  11
ATOM     11  C   UNL     1      -4.152  -6.962  -5.362  1.00  0.00    -0.031 C 
ATOM     12  C   UNL     1      -5.141  -6.132  -5.724  1.00  0.00    -0.027 C 
BRANCH  12  13
ATOM     13  C   UNL     1      -5.967  -6.378  -6.955  1.00  0.00     0.054 C 
BRANCH  13  14
ATOM     14  C   UNL     1      -5.310  -5.774  -8.169  1.00  0.00    -0.027 C 
ATOM     15  C   UNL     1      -5.929  -4.980  -9.064  1.00  0.00    -0.031 C 
BRANCH  15  16
ATOM     16  C   UNL     1      -7.394  -4.613  -9.026  1.00  0.00     0.027 C 
BRANCH  16  17
ATOM     17  C   UNL     1      -7.657  -3.246  -9.673  1.00  0.00     0.004 C 
BRANCH  17  18
ATOM     18  C   UNL     1      -6.805  -2.132  -9.049  1.00  0.00     0.000 C 
BRANCH  18  19
ATOM     19  C   UNL     1      -7.375  -0.749  -9.390  1.00  0.00    -0.003 C 
ATOM     20  C   UNL     1      -8.289  -0.240  -8.280  1.00  0.00     0.004 C 
ENDBRANCH  18  19
ENDBRANCH  17  18
ENDBRANCH  16  17
ENDBRANCH  15  16
ENDBRANCH  13  14
ENDBRANCH  12  13
ENDBRANCH   1  11
TORSDOF 14
ENDMDL
MODEL 7
REMARK VINA RESULT:    -4.438     11.767     13.690
REMARK INTER + INTRA:          -9.442
REMARK INTER:                  -8.497
REMARK INTRA:                  -0.945
REMARK UNBOUND:                -1.371
REMARK SMILES CCCCCC=CCC=CCCCCCCCC(=O)[O-]
REMARK SMILES IDX 11 1 12 2 13 3 14 4 15 5 16 6 17 7 18 8 19 9 20 10 10 11
REMARK SMILES IDX 9 12 8 13 7 14 6 15 5 16 4 17 3 18 2 19 1 20
REMARK H PARENT
REMARK Flexibility Score: inf
ROOT
ATOM      1  C   UNL     1       8.003   2.464  -3.539  1.00  0.00     0.027 C 
ENDROOT
BRANCH   1   2
ATOM      2  C   UNL     1       9.498   2.683  -3.263  1.00  0.00     0.004 C 
BRANCH   2   3
ATOM      3  C   UNL     1       9.888   4.149  -2.989  1.00  0.00     0.000 C 
BRANCH   3   4
ATOM      4  C   UNL     1       8.667   5.063  -2.788  1.00  0.00     0.000 C 
BRANCH   4   5
ATOM      5  C   UNL     1       8.708   5.829  -1.453  1.00  0.00     0.000 C 
BRANCH   5   6
ATOM      6  C   UNL     1       9.098   4.983  -0.226  1.00  0.00     0.006 C 
BRANCH   6   7
ATOM      7  C   UNL     1       8.512   5.525   1.085  1.00  0.00     0.053 C 
BRANCH   7   8
ATOM      8  C   UNL     1       7.373   4.669   1.541  1.00  0.00     0.041 C 
ATOM      9  O   UNL     1       7.249   3.494   1.107  1.00  0.00    -0.550 OA
ATOM     10  O   UNL     1       6.422   5.183   2.414  1.00  0.00    -0.550 OA
ENDBRANCH   7   8
ENDBRANCH   6   7
ENDBRANCH   5   6
ENDBRANCH   4   5
ENDBRANCH   3   4
ENDBRANCH   2   3
ENDBRANCH   1   2
BRANCH   1  11
ATOM     11  C   UNL     1       7.712   2.373  -5.013  1.00  0.00    -0.031 C 
ATOM     12  C   UNL     1       7.260   1.241  -5.571  1.00  0.00    -0.027 C 
BRANCH  12  13
ATOM     13  C   UNL     1       6.982   1.143  -7.044  1.00  0.00     0.054 C 
BRANCH  13  14
ATOM     14  C   UNL     1       6.387  -0.197  -7.389  1.00  0.00    -0.027 C 
ATOM     15  C   UNL     1       5.700  -0.467  -8.517  1.00  0.00    -0.031 C 
BRANCH  15  16
ATOM     16  C   UNL     1       5.369   0.543  -9.589  1.00  0.00     0.027 C 
BRANCH  16  17
ATOM     17  C   UNL     1       4.013   1.218  -9.338  1.00  0.00     0.004 C 
BRANCH  17  18
ATOM     18  C   UNL     1       4.157   2.713  -9.018  1.00  0.00     0.000 C 
BRANCH  18  19
ATOM     19  C   UNL     1       2.792   3.344  -8.715  1.00  0.00    -0.003 C 
ATOM     20  C   UNL     1       1.773   2.999  -9.797  1.00  0.00     0.004 C 
ENDBRANCH  18  19
ENDBRANCH  17  18
ENDBRANCH  16  17
ENDBRANCH  15  16
ENDBRANCH  13  14
ENDBRANCH  12  13
ENDBRANCH   1  11
TORSDOF 14
ENDMDL
MODEL 8
REMARK VINA RESULT:    -4.408     12.260     14.853
REMARK INTER + INTRA:          -9.387
REMARK INTER:                  -7.268
REMARK INTRA:                  -2.119
REMARK UNBOUND:                -1.371
REMARK SMILES CCCCCC=CCC=CCCCCCCCC(=O)[O-]
REMARK SMILES IDX 11 1 12 2 13 3 14 4 15 5 16 6 17 7 18 8 19 9 20 10 10 11
REMARK SMILES IDX 9 12 8 13 7 14 6 15 5 16 4 17 3 18 2 19 1 20
REMARK H PARENT
REMARK Flexibility Score: inf
ROOT
ATOM      1  C   UNL     1      10.025   2.093  -3.579  1.00  0.00     0.027 C 
ENDROOT
BRANCH   1   2
ATOM      2  C   UNL     1       8.623   2.127  -2.950  1.00  0.00     0.004 C 
BRANCH   2   3
ATOM      3  C   UNL     1       8.542   2.890  -1.614  1.00  0.00     0.000 C 
BRANCH   3   4
ATOM      4  C   UNL     1       8.320   4.401  -1.801  1.00  0.00     0.000 C 
BRANCH   4   5
ATOM      5  C   UNL     1       9.266   5.255  -0.938  1.00  0.00     0.000 C 
BRANCH   5   6
ATOM      6  C   UNL     1       9.520   4.718   0.483  1.00  0.00     0.006 C 
BRANCH   6   7
ATOM      7  C   UNL     1       8.672   5.425   1.550  1.00  0.00     0.053 C 
BRANCH   7   8
ATOM      8  C   UNL     1       7.423   4.650   1.823  1.00  0.00     0.041 C 
ATOM      9  O   UNL     1       6.391   5.238   2.240  1.00  0.00    -0.550 OA
ATOM     10  O   UNL     1       7.410   3.270   1.658  1.00  0.00    -0.550 OA
ENDBRANCH   7   8
ENDBRANCH   6   7
ENDBRANCH   5   6
ENDBRANCH   4   5
ENDBRANCH   3   4
ENDBRANCH   2   3
ENDBRANCH   1   2
BRANCH   1  11
ATOM     11  C   UNL     1       9.996   2.467  -5.037  1.00  0.00    -0.031 C 
ATOM     12  C   UNL     1       9.218   3.459  -5.491  1.00  0.00    -0.027 C 
BRANCH  12  13
ATOM     13  C   UNL     1       9.176   3.826  -6.947  1.00  0.00     0.054 C 
BRANCH  13  14
ATOM     14  C   UNL     1       9.523   2.640  -7.808  1.00  0.00    -0.027 C 
ATOM     15  C   UNL     1       8.701   2.084  -8.721  1.00  0.00    -0.031 C 
BRANCH  15  16
ATOM     16  C   UNL     1       7.281   2.526  -8.987  1.00  0.00     0.027 C 
BRANCH  16  17
ATOM     17  C   UNL     1       6.305   1.971  -7.940  1.00  0.00     0.004 C 
BRANCH  17  18
ATOM     18  C   UNL     1       6.630   0.521  -7.551  1.00  0.00     0.000 C 
BRANCH  18  19
ATOM     19  C   UNL     1       6.796   0.385  -6.032  1.00  0.00    -0.003 C 
ATOM     20  C   UNL     1       8.007  -0.474  -5.685  1.00  0.00     0.004 C 
ENDBRANCH  18  19
ENDBRANCH  17  18
ENDBRANCH  16  17
ENDBRANCH  15  16
ENDBRANCH  13  14
ENDBRANCH  12  13
ENDBRANCH   1  11
TORSDOF 14
ENDMDL
MODEL 9
REMARK VINA RESULT:    -4.389     10.769     15.378
REMARK INTER + INTRA:          -9.351
REMARK INTER:                  -8.002
REMARK INTRA:                  -1.349
REMARK UNBOUND:                -1.371
REMARK SMILES CCCCCC=CCC=CCCCCCCCC(=O)[O-]
REMARK SMILES IDX 11 1 12 2 13 3 14 4 15 5 16 6 17 7 18 8 19 9 20 10 10 11
REMARK SMILES IDX 9 12 8 13 7 14 6 15 5 16 4 17 3 18 2 19 1 20
REMARK H PARENT
REMARK Flexibility Score: inf
ROOT
ATOM      1  C   UNL     1       7.083   1.419  -4.904  1.00  0.00     0.027 C 
ENDROOT
BRANCH   1   2
ATOM      2  C   UNL     1       7.938   0.168  -5.161  1.00  0.00     0.004 C 
BRANCH   2   3
ATOM      3  C   UNL     1       7.846  -0.383  -6.598  1.00  0.00     0.000 C 
BRANCH   3   4
ATOM      4  C   UNL     1       6.676   0.219  -7.394  1.00  0.00     0.000 C 
BRANCH   4   5
ATOM      5  C   UNL     1       6.660  -0.233  -8.866  1.00  0.00     0.000 C 
BRANCH   5   6
ATOM      6  C   UNL     1       5.262  -0.326  -9.506  1.00  0.00     0.006 C 
BRANCH   6   7
ATOM      7  C   UNL     1       4.301  -1.226  -8.718  1.00  0.00     0.053 C 
BRANCH   7   8
ATOM      8  C   UNL     1       2.915  -0.665  -8.750  1.00  0.00     0.041 C 
ATOM      9  O   UNL     1       1.926  -1.429  -8.896  1.00  0.00    -0.550 OA
ATOM     10  O   UNL     1       2.718   0.707  -8.663  1.00  0.00    -0.550 OA
ENDBRANCH   7   8
ENDBRANCH   6   7
ENDBRANCH   5   6
ENDBRANCH   4   5
ENDBRANCH   3   4
ENDBRANCH   2   3
ENDBRANCH   1   2
BRANCH   1  11
ATOM     11  C   UNL     1       7.847   2.477  -4.154  1.00  0.00    -0.031 C 
ATOM     12  C   UNL     1       9.145   2.707  -4.395  1.00  0.00    -0.027 C 
BRANCH  12  13
ATOM     13  C   UNL     1       9.915   3.754  -3.639  1.00  0.00     0.054 C 
BRANCH  13  14
ATOM     14  C   UNL     1       9.446   5.136  -4.011  1.00  0.00    -0.027 C 
ATOM     15  C   UNL     1       9.284   6.153  -3.142  1.00  0.00    -0.031 C 
BRANCH  15  16
ATOM     16  C   UNL     1       9.492   6.056  -1.649  1.00  0.00     0.027 C 
BRANCH  16  17
ATOM     17  C   UNL     1       8.244   5.520  -0.932  1.00  0.00     0.004 C 
BRANCH  17  18
ATOM     18  C   UNL     1       8.580   4.882   0.423  1.00  0.00     0.000 C 
BRANCH  18  19
ATOM     19  C   UNL     1       7.852   3.543   0.595  1.00  0.00    -0.003 C 
ATOM     20  C   UNL     1       8.310   2.529  -0.449  1.00  0.00     0.004 C 
ENDBRANCH  18  19
ENDBRANCH  17  18
ENDBRANCH  16  17
ENDBRANCH  15  16
ENDBRANCH  13  14
ENDBRANCH  12  13
ENDBRANCH   1  11
TORSDOF 14
ENDMDL
