MODEL 1
REMARK VINA RESULT:    -5.691      0.000      0.000
REMARK INTER + INTRA:          -9.594
REMARK INTER:                  -8.685
REMARK INTRA:                  -0.909
REMARK UNBOUND:                -0.909
REMARK SMILES O=C([O-])CCCCCCCCC(=O)[O-]
REMARK SMILES IDX 7 1 6 2 5 3 4 4 2 5 1 6 3 7 8 8 9 9 10 10 11 11 12 12 13 13
REMARK SMILES IDX 14 14
REMARK H PARENT
REMARK Flexibility Score: inf
ROOT
ATOM      1  C   UNL     1     -22.383  38.793   6.983  1.00  0.00     0.000 C 
ENDROOT
BRANCH   1   2
ATOM      2  C   UNL     1     -22.477  38.279   5.538  1.00  0.00     0.000 C 
BRANCH   2   3
ATOM      3  C   UNL     1     -21.220  38.648   4.742  1.00  0.00     0.006 C 
BRANCH   3   4
ATOM      4  C   UNL     1     -20.491  39.834   5.383  1.00  0.00     0.053 C 
BRANCH   4   5
ATOM      5  C   UNL     1     -20.535  41.026   4.480  1.00  0.00     0.041 C 
ATOM      6  O   UNL     1     -21.405  41.102   3.573  1.00  0.00    -0.550 OA
ATOM      7  O   UNL     1     -19.646  42.076   4.671  1.00  0.00    -0.550 OA
ENDBRANCH   4   5
ENDBRANCH   3   4
ENDBRANCH   2   3
ENDBRANCH   1   2
BRANCH   1   8
ATOM      8  C   UNL     1     -22.987  37.810   7.999  1.00  0.00     0.000 C 
BRANCH   8   9
ATOM      9  C   UNL     1     -22.029  37.499   9.162  1.00  0.00     0.000 C 
BRANCH   9  10
ATOM     10  C   UNL     1     -21.408  36.095   9.061  1.00  0.00     0.006 C 
BRANCH  10  11
ATOM     11  C   UNL     1     -19.928  36.089   8.643  1.00  0.00     0.053 C 
BRANCH  11  12
ATOM     12  C   UNL     1     -19.764  36.174   7.157  1.00  0.00     0.041 C 
ATOM     13  O   UNL     1     -18.850  36.882   6.658  1.00  0.00    -0.550 OA
ATOM     14  O   UNL     1     -20.600  35.441   6.324  1.00  0.00    -0.550 OA
ENDBRANCH  11  12
ENDBRANCH  10  11
ENDBRANCH   9  10
ENDBRANCH   8   9
ENDBRANCH   1   8
TORSDOF 9
ENDMDL
MODEL 2
REMARK VINA RESULT:    -5.611      0.986      1.575
REMARK INTER + INTRA:          -9.472
REMARK INTER:                  -8.536
REMARK INTRA:                  -0.936
REMARK UNBOUND:                -0.909
REMARK SMILES O=C([O-])CCCCCCCCC(=O)[O-]
REMARK SMILES IDX 7 1 6 2 5 3 4 4 2 5 1 6 3 7 8 8 9 9 10 10 11 11 12 12 13 13
REMARK SMILES IDX 14 14
REMARK H PARENT
REMARK Flexibility Score: inf
ROOT
ATOM      1  C   UNL     1     -22.123  39.195   6.958  1.00  0.00     0.000 C 
ENDROOT
BRANCH   1   2
ATOM      2  C   UNL     1     -22.437  38.874   5.488  1.00  0.00     0.000 C 
BRANCH   2   3
ATOM      3  C   UNL     1     -21.164  38.911   4.635  1.00  0.00     0.006 C 
BRANCH   3   4
ATOM      4  C   UNL     1     -20.163  39.933   5.184  1.00  0.00     0.053 C 
BRANCH   4   5
ATOM      5  C   UNL     1     -20.246  41.213   4.413  1.00  0.00     0.041 C 
ATOM      6  O   UNL     1     -19.427  42.142   4.639  1.00  0.00    -0.550 OA
ATOM      7  O   UNL     1     -21.197  41.362   3.412  1.00  0.00    -0.550 OA
ENDBRANCH   4   5
ENDBRANCH   3   4
ENDBRANCH   2   3
ENDBRANCH   1   2
BRANCH   1   8
ATOM      8  C   UNL     1     -22.847  38.253   7.934  1.00  0.00     0.000 C 
BRANCH   8   9
ATOM      9  C   UNL     1     -23.216  36.905   7.292  1.00  0.00     0.000 C 
BRANCH   9  10
ATOM     10  C   UNL     1     -22.257  35.771   7.698  1.00  0.00     0.006 C 
BRANCH  10  11
ATOM     11  C   UNL     1     -21.034  35.621   6.778  1.00  0.00     0.053 C 
BRANCH  11  12
ATOM     12  C   UNL     1     -19.804  36.231   7.375  1.00  0.00     0.041 C 
ATOM     13  O   UNL     1     -19.559  36.094   8.603  1.00  0.00    -0.550 OA
ATOM     14  O   UNL     1     -18.909  36.922   6.567  1.00  0.00    -0.550 OA
ENDBRANCH  11  12
ENDBRANCH  10  11
ENDBRANCH   9  10
ENDBRANCH   8   9
ENDBRANCH   1   8
TORSDOF 9
ENDMDL
MODEL 3
REMARK VINA RESULT:    -5.608      0.436      4.857
REMARK INTER + INTRA:          -9.468
REMARK INTER:                  -8.606
REMARK INTRA:                  -0.862
REMARK UNBOUND:                -0.909
REMARK SMILES O=C([O-])CCCCCCCCC(=O)[O-]
REMARK SMILES IDX 7 1 6 2 5 3 4 4 2 5 1 6 3 7 8 8 9 9 10 10 11 11 12 12 13 13
REMARK SMILES IDX 14 14
REMARK H PARENT
REMARK Flexibility Score: inf
ROOT
ATOM      1  C   UNL     1     -23.399  37.362   8.489  1.00  0.00     0.000 C 
ENDROOT
BRANCH   1   2
ATOM      2  C   UNL     1     -22.061  37.353   9.244  1.00  0.00     0.000 C 
BRANCH   2   3
ATOM      3  C   UNL     1     -21.383  35.981   9.141  1.00  0.00     0.006 C 
BRANCH   3   4
ATOM      4  C   UNL     1     -19.919  36.123   8.713  1.00  0.00     0.053 C 
BRANCH   4   5
ATOM      5  C   UNL     1     -19.808  36.136   7.221  1.00  0.00     0.041 C 
ATOM      6  O   UNL     1     -20.632  35.492   6.520  1.00  0.00    -0.550 OA
ATOM      7  O   UNL     1     -18.826  36.899   6.604  1.00  0.00    -0.550 OA
ENDBRANCH   4   5
ENDBRANCH   3   4
ENDBRANCH   2   3
ENDBRANCH   1   2
BRANCH   1   8
ATOM      8  C   UNL     1     -23.233  37.704   7.000  1.00  0.00     0.000 C 
BRANCH   8   9
ATOM      9  C   UNL     1     -22.309  38.913   6.770  1.00  0.00     0.000 C 
BRANCH   9  10
ATOM     10  C   UNL     1     -21.631  38.889   5.388  1.00  0.00     0.006 C 
BRANCH  10  11
ATOM     11  C   UNL     1     -20.328  39.702   5.312  1.00  0.00     0.053 C 
BRANCH  11  12
ATOM     12  C   UNL     1     -20.485  40.935   4.476  1.00  0.00     0.041 C 
ATOM     13  O   UNL     1     -19.668  41.887   4.590  1.00  0.00    -0.550 OA
ATOM     14  O   UNL     1     -21.512  41.017   3.545  1.00  0.00    -0.550 OA
ENDBRANCH  11  12
ENDBRANCH  10  11
ENDBRANCH   9  10
ENDBRANCH   8   9
ENDBRANCH   1   8
TORSDOF 9
ENDMDL
MODEL 4
REMARK VINA RESULT:    -5.500      0.928      5.112
REMARK INTER + INTRA:          -9.303
REMARK INTER:                  -8.470
REMARK INTRA:                  -0.833
REMARK UNBOUND:                -0.909
REMARK SMILES O=C([O-])CCCCCCCCC(=O)[O-]
REMARK SMILES IDX 7 1 6 2 5 3 4 4 2 5 1 6 3 7 8 8 9 9 10 10 11 11 12 12 13 13
REMARK SMILES IDX 14 14
REMARK H PARENT
REMARK Flexibility Score: inf
ROOT
ATOM      1  C   UNL     1     -22.963  38.234   7.913  1.00  0.00     0.000 C 
ENDROOT
BRANCH   1   2
ATOM      2  C   UNL     1     -23.209  36.783   7.473  1.00  0.00     0.000 C 
BRANCH   2   3
ATOM      3  C   UNL     1     -22.223  35.828   8.156  1.00  0.00     0.006 C 
BRANCH   3   4
ATOM      4  C   UNL     1     -21.058  35.480   7.224  1.00  0.00     0.053 C 
BRANCH   4   5
ATOM      5  C   UNL     1     -19.816  36.199   7.647  1.00  0.00     0.041 C 
ATOM      6  O   UNL     1     -19.466  36.199   8.857  1.00  0.00    -0.550 OA
ATOM      7  O   UNL     1     -19.019  36.826   6.699  1.00  0.00    -0.550 OA
ENDBRANCH   4   5
ENDBRANCH   3   4
ENDBRANCH   2   3
ENDBRANCH   1   2
BRANCH   1   8
ATOM      8  C   UNL     1     -22.354  39.094   6.793  1.00  0.00     0.000 C 
BRANCH   8   9
ATOM      9  C   UNL     1     -22.273  38.346   5.451  1.00  0.00     0.000 C 
BRANCH   9  10
ATOM     10  C   UNL     1     -21.145  38.872   4.545  1.00  0.00     0.006 C 
BRANCH  10  11
ATOM     11  C   UNL     1     -20.279  39.967   5.189  1.00  0.00     0.053 C 
BRANCH  11  12
ATOM     12  C   UNL     1     -20.268  41.225   4.376  1.00  0.00     0.041 C 
ATOM     13  O   UNL     1     -21.058  41.359   3.404  1.00  0.00    -0.550 OA
ATOM     14  O   UNL     1     -19.410  42.264   4.715  1.00  0.00    -0.550 OA
ENDBRANCH  11  12
ENDBRANCH  10  11
ENDBRANCH   9  10
ENDBRANCH   8   9
ENDBRANCH   1   8
TORSDOF 9
ENDMDL
MODEL 5
REMARK VINA RESULT:    -5.283      2.027      3.083
REMARK INTER + INTRA:          -8.971
REMARK INTER:                  -8.096
REMARK INTRA:                  -0.875
REMARK UNBOUND:                -0.909
REMARK SMILES O=C([O-])CCCCCCCCC(=O)[O-]
REMARK SMILES IDX 7 1 6 2 5 3 4 4 2 5 1 6 3 7 8 8 9 9 10 10 11 11 12 12 13 13
REMARK SMILES IDX 14 14
REMARK H PARENT
REMARK Flexibility Score: inf
ROOT
ATOM      1  C   UNL     1     -19.873  38.034   5.859  1.00  0.00     0.000 C 
ENDROOT
BRANCH   1   2
ATOM      2  C   UNL     1     -21.107  38.040   4.945  1.00  0.00     0.000 C 
BRANCH   2   3
ATOM      3  C   UNL     1     -22.090  39.142   5.356  1.00  0.00     0.006 C 
BRANCH   3   4
ATOM      4  C   UNL     1     -21.347  40.426   5.739  1.00  0.00     0.053 C 
BRANCH   4   5
ATOM      5  C   UNL     1     -20.755  41.071   4.525  1.00  0.00     0.041 C 
ATOM      6  O   UNL     1     -19.574  41.508   4.553  1.00  0.00    -0.550 OA
ATOM      7  O   UNL     1     -21.489  41.143   3.349  1.00  0.00    -0.550 OA
ENDBRANCH   4   5
ENDBRANCH   3   4
ENDBRANCH   2   3
ENDBRANCH   1   2
BRANCH   1   8
ATOM      8  C   UNL     1     -19.773  36.756   6.707  1.00  0.00     0.000 C 
BRANCH   8   9
ATOM      9  C   UNL     1     -20.895  35.750   6.396  1.00  0.00     0.000 C 
BRANCH   9  10
ATOM     10  C   UNL     1     -21.849  35.538   7.585  1.00  0.00     0.006 C 
BRANCH  10  11
ATOM     11  C   UNL     1     -23.221  36.211   7.420  1.00  0.00     0.053 C 
BRANCH  11  12
ATOM     12  C   UNL     1     -23.391  37.374   8.350  1.00  0.00     0.041 C 
ATOM     13  O   UNL     1     -24.530  37.663   8.802  1.00  0.00    -0.550 OA
ATOM     14  O   UNL     1     -22.284  38.114   8.744  1.00  0.00    -0.550 OA
ENDBRANCH  11  12
ENDBRANCH  10  11
ENDBRANCH   9  10
ENDBRANCH   8   9
ENDBRANCH   1   8
TORSDOF 9
ENDMDL
MODEL 6
REMARK VINA RESULT:    -5.249      1.917      6.152
REMARK INTER + INTRA:          -8.920
REMARK INTER:                  -8.579
REMARK INTRA:                  -0.341
REMARK UNBOUND:                -0.909
REMARK SMILES O=C([O-])CCCCCCCCC(=O)[O-]
REMARK SMILES IDX 7 1 6 2 5 3 4 4 2 5 1 6 3 7 8 8 9 9 10 10 11 11 12 12 13 13
REMARK SMILES IDX 14 14
REMARK H PARENT
REMARK Flexibility Score: inf
ROOT
ATOM      1  C   UNL     1     -22.380  38.486   5.805  1.00  0.00     0.000 C 
ENDROOT
BRANCH   1   2
ATOM      2  C   UNL     1     -22.696  36.985   5.890  1.00  0.00     0.000 C 
BRANCH   2   3
ATOM      3  C   UNL     1     -21.464  36.190   6.339  1.00  0.00     0.006 C 
BRANCH   3   4
ATOM      4  C   UNL     1     -21.683  35.571   7.723  1.00  0.00     0.053 C 
BRANCH   4   5
ATOM      5  C   UNL     1     -20.887  36.304   8.756  1.00  0.00     0.041 C 
ATOM      6  O   UNL     1     -19.660  36.060   8.900  1.00  0.00    -0.550 OA
ATOM      7  O   UNL     1     -21.488  37.291   9.526  1.00  0.00    -0.550 OA
ENDBRANCH   4   5
ENDBRANCH   3   4
ENDBRANCH   2   3
ENDBRANCH   1   2
BRANCH   1   8
ATOM      8  C   UNL     1     -21.255  38.795   4.804  1.00  0.00     0.000 C 
BRANCH   8   9
ATOM      9  C   UNL     1     -20.298  39.889   5.310  1.00  0.00     0.000 C 
BRANCH   9  10
ATOM     10  C   UNL     1     -20.279  41.130   4.398  1.00  0.00     0.006 C 
BRANCH  10  11
ATOM     11  C   UNL     1     -18.939  41.884   4.390  1.00  0.00     0.053 C 
BRANCH  11  12
ATOM     12  C   UNL     1     -19.106  43.319   3.992  1.00  0.00     0.041 C 
ATOM     13  O   UNL     1     -19.700  43.615   2.921  1.00  0.00    -0.550 OA
ATOM     14  O   UNL     1     -18.636  44.329   4.822  1.00  0.00    -0.550 OA
ENDBRANCH  11  12
ENDBRANCH  10  11
ENDBRANCH   9  10
ENDBRANCH   8   9
ENDBRANCH   1   8
TORSDOF 9
ENDMDL
MODEL 7
REMARK VINA RESULT:    -5.235      1.921      2.920
REMARK INTER + INTRA:          -8.898
REMARK INTER:                  -8.529
REMARK INTRA:                  -0.369
REMARK UNBOUND:                -0.909
REMARK SMILES O=C([O-])CCCCCCCCC(=O)[O-]
REMARK SMILES IDX 7 1 6 2 5 3 4 4 2 5 1 6 3 7 8 8 9 9 10 10 11 11 12 12 13 13
REMARK SMILES IDX 14 14
REMARK H PARENT
REMARK Flexibility Score: inf
ROOT
ATOM      1  C   UNL     1     -21.088  38.914   4.424  1.00  0.00     0.000 C 
ENDROOT
BRANCH   1   2
ATOM      2  C   UNL     1     -21.105  40.318   5.047  1.00  0.00     0.000 C 
BRANCH   2   3
ATOM      3  C   UNL     1     -20.649  41.373   4.032  1.00  0.00     0.006 C 
BRANCH   3   4
ATOM      4  C   UNL     1     -19.235  41.870   4.352  1.00  0.00     0.053 C 
BRANCH   4   5
ATOM      5  C   UNL     1     -19.107  43.326   4.035  1.00  0.00     0.041 C 
ATOM      6  O   UNL     1     -19.415  43.755   2.891  1.00  0.00    -0.550 OA
ATOM      7  O   UNL     1     -18.696  44.218   5.017  1.00  0.00    -0.550 OA
ENDBRANCH   4   5
ENDBRANCH   3   4
ENDBRANCH   2   3
ENDBRANCH   1   2
BRANCH   1   8
ATOM      8  C   UNL     1     -21.626  37.838   5.382  1.00  0.00     0.000 C 
BRANCH   8   9
ATOM      9  C   UNL     1     -22.701  38.382   6.339  1.00  0.00     0.000 C 
BRANCH   9  10
ATOM     10  C   UNL     1     -23.190  37.326   7.346  1.00  0.00     0.006 C 
BRANCH  10  11
ATOM     11  C   UNL     1     -22.205  36.167   7.570  1.00  0.00     0.053 C 
BRANCH  11  12
ATOM     12  C   UNL     1     -21.437  36.321   8.847  1.00  0.00     0.041 C 
ATOM     13  O   UNL     1     -22.015  36.726   9.890  1.00  0.00    -0.550 OA
ATOM     14  O   UNL     1     -20.090  35.985   8.892  1.00  0.00    -0.550 OA
ENDBRANCH  11  12
ENDBRANCH  10  11
ENDBRANCH   9  10
ENDBRANCH   8   9
ENDBRANCH   1   8
TORSDOF 9
ENDMDL
MODEL 8
REMARK VINA RESULT:    -5.151      2.034      5.061
REMARK INTER + INTRA:          -8.771
REMARK INTER:                  -8.117
REMARK INTRA:                  -0.654
REMARK UNBOUND:                -0.909
REMARK SMILES O=C([O-])CCCCCCCCC(=O)[O-]
REMARK SMILES IDX 7 1 6 2 5 3 4 4 2 5 1 6 3 7 8 8 9 9 10 10 11 11 12 12 13 13
REMARK SMILES IDX 14 14
REMARK H PARENT
REMARK Flexibility Score: inf
ROOT
ATOM      1  C   UNL     1     -20.967  35.680   6.540  1.00  0.00     0.000 C 
ENDROOT
BRANCH   1   2
ATOM      2  C   UNL     1     -21.941  35.424   7.700  1.00  0.00     0.000 C 
BRANCH   2   3
ATOM      3  C   UNL     1     -21.348  35.903   9.030  1.00  0.00     0.006 C 
BRANCH   3   4
ATOM      4  C   UNL     1     -22.323  36.829   9.766  1.00  0.00     0.053 C 
BRANCH   4   5
ATOM      5  C   UNL     1     -22.986  37.762   8.803  1.00  0.00     0.041 C 
ATOM      6  O   UNL     1     -24.211  37.637   8.541  1.00  0.00    -0.550 OA
ATOM      7  O   UNL     1     -22.263  38.802   8.233  1.00  0.00    -0.550 OA
ENDBRANCH   4   5
ENDBRANCH   3   4
ENDBRANCH   2   3
ENDBRANCH   1   2
BRANCH   1   8
ATOM      8  C   UNL     1     -19.621  36.250   7.016  1.00  0.00     0.000 C 
BRANCH   8   9
ATOM      9  C   UNL     1     -19.215  37.523   6.254  1.00  0.00     0.000 C 
BRANCH   9  10
ATOM     10  C   UNL     1     -20.403  38.191   5.538  1.00  0.00     0.006 C 
BRANCH  10  11
ATOM     11  C   UNL     1     -20.277  39.717   5.400  1.00  0.00     0.053 C 
BRANCH  11  12
ATOM     12  C   UNL     1     -21.481  40.322   4.745  1.00  0.00     0.041 C 
ATOM     13  O   UNL     1     -22.633  40.091   5.197  1.00  0.00    -0.550 OA
ATOM     14  O   UNL     1     -21.325  41.170   3.655  1.00  0.00    -0.550 OA
ENDBRANCH  11  12
ENDBRANCH  10  11
ENDBRANCH   9  10
ENDBRANCH   8   9
ENDBRANCH   1   8
TORSDOF 9
ENDMDL
MODEL 9
REMARK VINA RESULT:    -5.122      1.944      5.521
REMARK INTER + INTRA:          -8.726
REMARK INTER:                  -8.181
REMARK INTRA:                  -0.545
REMARK UNBOUND:                -0.909
REMARK SMILES O=C([O-])CCCCCCCCC(=O)[O-]
REMARK SMILES IDX 7 1 6 2 5 3 4 4 2 5 1 6 3 7 8 8 9 9 10 10 11 11 12 12 13 13
REMARK SMILES IDX 14 14
REMARK H PARENT
REMARK Flexibility Score: inf
ROOT
ATOM      1  C   UNL     1     -22.743  36.712   5.873  1.00  0.00     0.000 C 
ENDROOT
BRANCH   1   2
ATOM      2  C   UNL     1     -21.511  35.882   6.267  1.00  0.00     0.000 C 
BRANCH   2   3
ATOM      3  C   UNL     1     -21.663  35.313   7.683  1.00  0.00     0.006 C 
BRANCH   3   4
ATOM      4  C   UNL     1     -20.901  36.166   8.703  1.00  0.00     0.053 C 
BRANCH   4   5
ATOM      5  C   UNL     1     -21.826  37.134   9.371  1.00  0.00     0.041 C 
ATOM      6  O   UNL     1     -22.423  36.810  10.431  1.00  0.00    -0.550 OA
ATOM      7  O   UNL     1     -21.990  38.411   8.850  1.00  0.00    -0.550 OA
ENDBRANCH   4   5
ENDBRANCH   3   4
ENDBRANCH   2   3
ENDBRANCH   1   2
BRANCH   1   8
ATOM      8  C   UNL     1     -22.386  38.163   5.515  1.00  0.00     0.000 C 
BRANCH   8   9
ATOM      9  C   UNL     1     -21.046  38.275   4.767  1.00  0.00     0.000 C 
BRANCH   9  10
ATOM     10  C   UNL     1     -20.189  39.457   5.258  1.00  0.00     0.006 C 
BRANCH  10  11
ATOM     11  C   UNL     1     -20.870  40.828   5.121  1.00  0.00     0.053 C 
BRANCH  11  12
ATOM     12  C   UNL     1     -20.150  41.719   4.156  1.00  0.00     0.041 C 
ATOM     13  O   UNL     1     -20.711  42.081   3.088  1.00  0.00    -0.550 OA
ATOM     14  O   UNL     1     -18.874  42.177   4.453  1.00  0.00    -0.550 OA
ENDBRANCH  11  12
ENDBRANCH  10  11
ENDBRANCH   9  10
ENDBRANCH   8   9
ENDBRANCH   1   8
TORSDOF 9
ENDMDL
