MODEL 1
REMARK VINA RESULT:     0.000      0.000      0.000
REMARK INTER + INTRA:          -5.686
REMARK INTER:                   0.000
REMARK INTRA:                  -5.686
REMARK UNBOUND:                -5.686
REMARK SMILES CCCCCCCCCCCCCCCCCCCCCCCC(=O)[O-]
REMARK SMILES IDX 13 1 14 2 15 3 16 4 17 5 18 6 19 7 20 8 21 9 22 10 23 11
REMARK SMILES IDX 24 12 25 13 26 14 12 15 11 16 10 17 9 18 8 19 7 20 6 21 5 22
REMARK SMILES IDX 4 23 3 24 2 25 1 26
REMARK H PARENT
REMARK Flexibility Score: inf
ROOT
ATOM      1  C   UNL     1     166.448 182.966 185.341  1.00  0.00     0.000 C 
ENDROOT
BRANCH   1   2
ATOM      2  C   UNL     1     167.971 182.996 185.085  1.00  0.00     0.000 C 
BRANCH   2   3
ATOM      3  C   UNL     1     168.329 183.767 183.803  1.00  0.00     0.000 C 
BRANCH   3   4
ATOM      4  C   UNL     1     169.471 184.776 184.013  1.00  0.00     0.000 C 
BRANCH   4   5
ATOM      5  C   UNL     1     169.842 185.047 185.487  1.00  0.00     0.000 C 
BRANCH   5   6
ATOM      6  C   UNL     1     169.669 186.503 185.954  1.00  0.00     0.000 C 
BRANCH   6   7
ATOM      7  C   UNL     1     168.766 187.330 185.023  1.00  0.00     0.000 C 
BRANCH   7   8
ATOM      8  C   UNL     1     167.352 187.542 185.594  1.00  0.00     0.000 C 
BRANCH   8   9
ATOM      9  C   UNL     1     166.254 186.643 184.993  1.00  0.00     0.000 C 
BRANCH   9  10
ATOM     10  C   UNL     1     164.952 186.553 185.812  1.00  0.00     0.006 C 
BRANCH  10  11
ATOM     11  C   UNL     1     164.879 187.555 186.979  1.00  0.00     0.053 C 
BRANCH  11  12
ATOM     12  C   UNL     1     164.228 186.970 188.196  1.00  0.00     0.041 C 
ATOM     13  O   UNL     1     164.177 187.628 189.267  1.00  0.00    -0.550 OA
ATOM     14  O   UNL     1     163.700 185.685 188.153  1.00  0.00    -0.550 OA
ENDBRANCH  11  12
ENDBRANCH  10  11
ENDBRANCH   9  10
ENDBRANCH   8   9
ENDBRANCH   7   8
ENDBRANCH   6   7
ENDBRANCH   5   6
ENDBRANCH   4   5
ENDBRANCH   3   4
ENDBRANCH   2   3
ENDBRANCH   1   2
BRANCH   1  15
ATOM     15  C   UNL     1     166.061 183.181 186.815  1.00  0.00     0.000 C 
BRANCH  15  16
ATOM     16  C   UNL     1     167.273 183.469 187.715  1.00  0.00     0.000 C 
BRANCH  16  17
ATOM     17  C   UNL     1     167.293 184.917 188.234  1.00  0.00     0.000 C 
BRANCH  17  18
ATOM     18  C   UNL     1     166.936 185.017 189.726  1.00  0.00    -0.000 C 
BRANCH  18  19
ATOM     19  C   UNL     1     167.455 186.333 190.325  1.00  0.00    -0.000 C 
BRANCH  19  20
ATOM     20  C   UNL     1     167.864 187.357 189.252  1.00  0.00    -0.000 C 
BRANCH  20  21
ATOM     21  C   UNL     1     169.307 187.855 189.430  1.00  0.00    -0.000 C 
BRANCH  21  22
ATOM     22  C   UNL     1     170.195 186.848 190.180  1.00  0.00    -0.000 C 
BRANCH  22  23
ATOM     23  C   UNL     1     171.185 186.097 189.263  1.00  0.00    -0.000 C 
BRANCH  23  24
ATOM     24  C   UNL     1     170.861 184.599 189.164  1.00  0.00    -0.000 C 
BRANCH  24  25
ATOM     25  C   UNL     1     170.453 184.033 190.529  1.00  0.00    -0.003 C 
ATOM     26  C   UNL     1     169.779 182.672 190.385  1.00  0.00     0.004 C 
ENDBRANCH  24  25
ENDBRANCH  23  24
ENDBRANCH  22  23
ENDBRANCH  21  22
ENDBRANCH  20  21
ENDBRANCH  19  20
ENDBRANCH  18  19
ENDBRANCH  17  18
ENDBRANCH  16  17
ENDBRANCH  15  16
ENDBRANCH   1  15
TORSDOF 22
ENDMDL
MODEL 2
REMARK VINA RESULT:     0.025      4.225      7.709
REMARK INTER + INTRA:          -5.629
REMARK INTER:                   0.000
REMARK INTRA:                  -5.629
REMARK UNBOUND:                -5.686
REMARK SMILES CCCCCCCCCCCCCCCCCCCCCCCC(=O)[O-]
REMARK SMILES IDX 13 1 14 2 15 3 16 4 17 5 18 6 19 7 20 8 21 9 22 10 23 11
REMARK SMILES IDX 24 12 25 13 26 14 12 15 11 16 10 17 9 18 8 19 7 20 6 21 5 22
REMARK SMILES IDX 4 23 3 24 2 25 1 26
REMARK H PARENT
REMARK Flexibility Score: inf
ROOT
ATOM      1  C   UNL     1     173.155 184.019 193.645  1.00  0.00     0.000 C 
ENDROOT
BRANCH   1   2
ATOM      2  C   UNL     1     171.831 183.990 194.439  1.00  0.00     0.000 C 
BRANCH   2   3
ATOM      3  C   UNL     1     170.894 182.866 193.963  1.00  0.00     0.000 C 
BRANCH   3   4
ATOM      4  C   UNL     1     171.472 182.067 192.783  1.00  0.00     0.000 C 
BRANCH   4   5
ATOM      5  C   UNL     1     170.521 181.898 191.579  1.00  0.00     0.000 C 
BRANCH   5   6
ATOM      6  C   UNL     1     170.439 183.105 190.627  1.00  0.00     0.000 C 
BRANCH   6   7
ATOM      7  C   UNL     1     169.070 183.806 190.662  1.00  0.00     0.000 C 
BRANCH   7   8
ATOM      8  C   UNL     1     169.073 185.079 191.529  1.00  0.00     0.000 C 
BRANCH   8   9
ATOM      9  C   UNL     1     170.420 185.823 191.608  1.00  0.00     0.000 C 
BRANCH   9  10
ATOM     10  C   UNL     1     170.408 187.125 192.433  1.00  0.00     0.006 C 
BRANCH  10  11
ATOM     11  C   UNL     1     171.398 188.191 191.929  1.00  0.00     0.053 C 
BRANCH  11  12
ATOM     12  C   UNL     1     172.089 188.906 193.051  1.00  0.00     0.041 C 
ATOM     13  O   UNL     1     173.346 188.953 193.095  1.00  0.00    -0.550 OA
ATOM     14  O   UNL     1     171.344 189.497 194.064  1.00  0.00    -0.550 OA
ENDBRANCH  11  12
ENDBRANCH  10  11
ENDBRANCH   9  10
ENDBRANCH   8   9
ENDBRANCH   7   8
ENDBRANCH   6   7
ENDBRANCH   5   6
ENDBRANCH   4   5
ENDBRANCH   3   4
ENDBRANCH   2   3
ENDBRANCH   1   2
BRANCH   1  15
ATOM     15  C   UNL     1     173.698 185.437 193.395  1.00  0.00     0.000 C 
BRANCH  15  16
ATOM     16  C   UNL     1     174.150 185.656 191.942  1.00  0.00     0.000 C 
BRANCH  16  17
ATOM     17  C   UNL     1     173.902 184.425 191.053  1.00  0.00     0.000 C 
BRANCH  17  18
ATOM     18  C   UNL     1     173.557 184.802 189.603  1.00  0.00    -0.000 C 
BRANCH  18  19
ATOM     19  C   UNL     1     173.405 186.323 189.454  1.00  0.00    -0.000 C 
BRANCH  19  20
ATOM     20  C   UNL     1     172.414 186.718 188.346  1.00  0.00    -0.000 C 
BRANCH  20  21
ATOM     21  C   UNL     1     171.342 185.644 188.102  1.00  0.00    -0.000 C 
BRANCH  21  22
ATOM     22  C   UNL     1     169.950 186.244 187.842  1.00  0.00    -0.000 C 
BRANCH  22  23
ATOM     23  C   UNL     1     169.767 187.659 188.433  1.00  0.00    -0.000 C 
BRANCH  23  24
ATOM     24  C   UNL     1     168.426 187.812 189.166  1.00  0.00    -0.000 C 
BRANCH  24  25
ATOM     25  C   UNL     1     168.272 189.227 189.739  1.00  0.00    -0.003 C 
ATOM     26  C   UNL     1     169.478 190.096 189.396  1.00  0.00     0.004 C 
ENDBRANCH  24  25
ENDBRANCH  23  24
ENDBRANCH  22  23
ENDBRANCH  21  22
ENDBRANCH  20  21
ENDBRANCH  19  20
ENDBRANCH  18  19
ENDBRANCH  17  18
ENDBRANCH  16  17
ENDBRANCH  15  16
ENDBRANCH   1  15
TORSDOF 22
ENDMDL
MODEL 3
REMARK VINA RESULT:     0.034      4.491      7.087
REMARK INTER + INTRA:          -5.610
REMARK INTER:                   0.000
REMARK INTRA:                  -5.610
REMARK UNBOUND:                -5.686
REMARK SMILES CCCCCCCCCCCCCCCCCCCCCCCC(=O)[O-]
REMARK SMILES IDX 13 1 14 2 15 3 16 4 17 5 18 6 19 7 20 8 21 9 22 10 23 11
REMARK SMILES IDX 24 12 25 13 26 14 12 15 11 16 10 17 9 18 8 19 7 20 6 21 5 22
REMARK SMILES IDX 4 23 3 24 2 25 1 26
REMARK H PARENT
REMARK Flexibility Score: inf
ROOT
ATOM      1  C   UNL     1     164.110 182.988 189.595  1.00  0.00     0.000 C 
ENDROOT
BRANCH   1   2
ATOM      2  C   UNL     1     162.924 183.374 190.505  1.00  0.00     0.000 C 
BRANCH   2   3
ATOM      3  C   UNL     1     161.838 182.285 190.535  1.00  0.00     0.000 C 
BRANCH   3   4
ATOM      4  C   UNL     1     160.506 182.788 191.118  1.00  0.00     0.000 C 
BRANCH   4   5
ATOM      5  C   UNL     1     160.588 184.130 191.876  1.00  0.00     0.000 C 
BRANCH   5   6
ATOM      6  C   UNL     1     159.601 185.214 191.408  1.00  0.00     0.000 C 
BRANCH   6   7
ATOM      7  C   UNL     1     160.266 186.302 190.549  1.00  0.00     0.000 C 
BRANCH   7   8
ATOM      8  C   UNL     1     160.315 185.937 189.053  1.00  0.00     0.000 C 
BRANCH   8   9
ATOM      9  C   UNL     1     161.677 186.150 188.364  1.00  0.00     0.000 C 
BRANCH   9  10
ATOM     10  C   UNL     1     162.066 185.079 187.326  1.00  0.00     0.006 C 
BRANCH  10  11
ATOM     11  C   UNL     1     161.071 183.908 187.236  1.00  0.00     0.053 C 
BRANCH  11  12
ATOM     12  C   UNL     1     160.361 183.862 185.917  1.00  0.00     0.041 C 
ATOM     13  O   UNL     1     159.680 184.847 185.527  1.00  0.00    -0.550 OA
ATOM     14  O   UNL     1     160.427 182.719 185.129  1.00  0.00    -0.550 OA
ENDBRANCH  11  12
ENDBRANCH  10  11
ENDBRANCH   9  10
ENDBRANCH   8   9
ENDBRANCH   7   8
ENDBRANCH   6   7
ENDBRANCH   5   6
ENDBRANCH   4   5
ENDBRANCH   3   4
ENDBRANCH   2   3
ENDBRANCH   1   2
BRANCH   1  15
ATOM     15  C   UNL     1     165.481 183.076 190.289  1.00  0.00     0.000 C 
BRANCH  15  16
ATOM     16  C   UNL     1     166.234 184.376 189.964  1.00  0.00     0.000 C 
BRANCH  16  17
ATOM     17  C   UNL     1     165.568 185.178 188.833  1.00  0.00     0.000 C 
BRANCH  17  18
ATOM     18  C   UNL     1     165.214 186.614 189.254  1.00  0.00    -0.000 C 
BRANCH  18  19
ATOM     19  C   UNL     1     165.197 186.746 190.785  1.00  0.00    -0.000 C 
BRANCH  19  20
ATOM     20  C   UNL     1     163.776 186.891 191.355  1.00  0.00    -0.000 C 
BRANCH  20  21
ATOM     21  C   UNL     1     163.600 186.162 192.698  1.00  0.00    -0.000 C 
BRANCH  21  22
ATOM     22  C   UNL     1     164.918 185.574 193.230  1.00  0.00    -0.000 C 
BRANCH  22  23
ATOM     23  C   UNL     1     164.777 184.133 193.766  1.00  0.00    -0.000 C 
BRANCH  23  24
ATOM     24  C   UNL     1     163.351 183.832 194.252  1.00  0.00    -0.000 C 
BRANCH  24  25
ATOM     25  C   UNL     1     163.028 182.338 194.117  1.00  0.00    -0.003 C 
ATOM     26  C   UNL     1     164.186 181.579 193.475  1.00  0.00     0.004 C 
ENDBRANCH  24  25
ENDBRANCH  23  24
ENDBRANCH  22  23
ENDBRANCH  21  22
ENDBRANCH  20  21
ENDBRANCH  19  20
ENDBRANCH  18  19
ENDBRANCH  17  18
ENDBRANCH  16  17
ENDBRANCH  15  16
ENDBRANCH   1  15
TORSDOF 22
ENDMDL
MODEL 4
REMARK VINA RESULT:     0.038      3.112      6.218
REMARK INTER + INTRA:          -5.600
REMARK INTER:                   0.000
REMARK INTRA:                  -5.600
REMARK UNBOUND:                -5.686
REMARK SMILES CCCCCCCCCCCCCCCCCCCCCCCC(=O)[O-]
REMARK SMILES IDX 13 1 14 2 15 3 16 4 17 5 18 6 19 7 20 8 21 9 22 10 23 11
REMARK SMILES IDX 24 12 25 13 26 14 12 15 11 16 10 17 9 18 8 19 7 20 6 21 5 22
REMARK SMILES IDX 4 23 3 24 2 25 1 26
REMARK H PARENT
REMARK Flexibility Score: inf
ROOT
ATOM      1  C   UNL     1     166.517 187.406 183.769  1.00  0.00     0.000 C 
ENDROOT
BRANCH   1   2
ATOM      2  C   UNL     1     166.810 186.119 182.968  1.00  0.00     0.000 C 
BRANCH   2   3
ATOM      3  C   UNL     1     167.606 185.091 183.793  1.00  0.00     0.000 C 
BRANCH   3   4
ATOM      4  C   UNL     1     168.133 185.669 185.118  1.00  0.00     0.000 C 
BRANCH   4   5
ATOM      5  C   UNL     1     168.020 184.726 186.334  1.00  0.00     0.000 C 
BRANCH   5   6
ATOM      6  C   UNL     1     167.195 185.268 187.516  1.00  0.00     0.000 C 
BRANCH   6   7
ATOM      7  C   UNL     1     167.348 186.786 187.709  1.00  0.00     0.000 C 
BRANCH   7   8
ATOM      8  C   UNL     1     166.251 187.388 188.608  1.00  0.00     0.000 C 
BRANCH   8   9
ATOM      9  C   UNL     1     165.696 188.751 188.151  1.00  0.00     0.000 C 
BRANCH   9  10
ATOM     10  C   UNL     1     166.487 189.443 187.024  1.00  0.00     0.006 C 
BRANCH  10  11
ATOM     11  C   UNL     1     165.737 190.615 186.364  1.00  0.00     0.053 C 
BRANCH  11  12
ATOM     12  C   UNL     1     166.257 190.927 184.993  1.00  0.00     0.041 C 
ATOM     13  O   UNL     1     165.473 191.328 184.093  1.00  0.00    -0.550 OA
ATOM     14  O   UNL     1     167.604 190.748 184.701  1.00  0.00    -0.550 OA
ENDBRANCH  11  12
ENDBRANCH  10  11
ENDBRANCH   9  10
ENDBRANCH   8   9
ENDBRANCH   7   8
ENDBRANCH   6   7
ENDBRANCH   5   6
ENDBRANCH   4   5
ENDBRANCH   3   4
ENDBRANCH   2   3
ENDBRANCH   1   2
BRANCH   1  15
ATOM     15  C   UNL     1     165.027 187.609 184.095  1.00  0.00     0.000 C 
BRANCH  15  16
ATOM     16  C   UNL     1     164.560 186.776 185.300  1.00  0.00     0.000 C 
BRANCH  16  17
ATOM     17  C   UNL     1     163.176 187.205 185.815  1.00  0.00     0.000 C 
BRANCH  17  18
ATOM     18  C   UNL     1     162.550 186.170 186.764  1.00  0.00    -0.000 C 
BRANCH  18  19
ATOM     19  C   UNL     1     163.588 185.121 187.190  1.00  0.00    -0.000 C 
BRANCH  19  20
ATOM     20  C   UNL     1     163.326 183.737 186.572  1.00  0.00    -0.000 C 
BRANCH  20  21
ATOM     21  C   UNL     1     164.601 183.092 186.006  1.00  0.00    -0.000 C 
BRANCH  21  22
ATOM     22  C   UNL     1     164.645 183.112 184.469  1.00  0.00    -0.000 C 
BRANCH  22  23
ATOM     23  C   UNL     1     163.299 183.499 183.818  1.00  0.00    -0.000 C 
BRANCH  23  24
ATOM     24  C   UNL     1     163.483 184.466 182.638  1.00  0.00    -0.000 C 
BRANCH  24  25
ATOM     25  C   UNL     1     162.321 185.463 182.560  1.00  0.00    -0.003 C 
ATOM     26  C   UNL     1     161.179 185.056 183.487  1.00  0.00     0.004 C 
ENDBRANCH  24  25
ENDBRANCH  23  24
ENDBRANCH  22  23
ENDBRANCH  21  22
ENDBRANCH  20  21
ENDBRANCH  19  20
ENDBRANCH  18  19
ENDBRANCH  17  18
ENDBRANCH  16  17
ENDBRANCH  15  16
ENDBRANCH   1  15
TORSDOF 22
ENDMDL
MODEL 5
REMARK VINA RESULT:     0.045      4.263      7.656
REMARK INTER + INTRA:          -5.584
REMARK INTER:                   0.000
REMARK INTRA:                  -5.584
REMARK UNBOUND:                -5.686
REMARK SMILES CCCCCCCCCCCCCCCCCCCCCCCC(=O)[O-]
REMARK SMILES IDX 13 1 14 2 15 3 16 4 17 5 18 6 19 7 20 8 21 9 22 10 23 11
REMARK SMILES IDX 24 12 25 13 26 14 12 15 11 16 10 17 9 18 8 19 7 20 6 21 5 22
REMARK SMILES IDX 4 23 3 24 2 25 1 26
REMARK H PARENT
REMARK Flexibility Score: inf
ROOT
ATOM      1  C   UNL     1     171.645 187.001 189.614  1.00  0.00     0.000 C 
ENDROOT
BRANCH   1   2
ATOM      2  C   UNL     1     172.209 187.738 190.848  1.00  0.00     0.000 C 
BRANCH   2   3
ATOM      3  C   UNL     1     173.411 188.630 190.492  1.00  0.00     0.000 C 
BRANCH   3   4
ATOM      4  C   UNL     1     173.584 188.820 188.975  1.00  0.00     0.000 C 
BRANCH   4   5
ATOM      5  C   UNL     1     174.879 188.221 188.384  1.00  0.00     0.000 C 
BRANCH   5   6
ATOM      6  C   UNL     1     174.684 186.990 187.480  1.00  0.00     0.000 C 
BRANCH   6   7
ATOM      7  C   UNL     1     174.849 185.659 188.232  1.00  0.00     0.000 C 
BRANCH   7   8
ATOM      8  C   UNL     1     175.700 185.795 189.509  1.00  0.00     0.000 C 
BRANCH   8   9
ATOM      9  C   UNL     1     175.047 185.261 190.799  1.00  0.00     0.000 C 
BRANCH   9  10
ATOM     10  C   UNL     1     173.951 184.197 190.593  1.00  0.00     0.006 C 
BRANCH  10  11
ATOM     11  C   UNL     1     172.914 184.142 191.729  1.00  0.00     0.053 C 
BRANCH  11  12
ATOM     12  C   UNL     1     173.150 182.995 192.664  1.00  0.00     0.041 C 
ATOM     13  O   UNL     1     174.128 183.012 193.456  1.00  0.00    -0.550 OA
ATOM     14  O   UNL     1     172.304 181.892 192.641  1.00  0.00    -0.550 OA
ENDBRANCH  11  12
ENDBRANCH  10  11
ENDBRANCH   9  10
ENDBRANCH   8   9
ENDBRANCH   7   8
ENDBRANCH   6   7
ENDBRANCH   5   6
ENDBRANCH   4   5
ENDBRANCH   3   4
ENDBRANCH   2   3
ENDBRANCH   1   2
BRANCH   1  15
ATOM     15  C   UNL     1     170.339 186.236 189.892  1.00  0.00     0.000 C 
BRANCH  15  16
ATOM     16  C   UNL     1     170.013 185.197 188.806  1.00  0.00     0.000 C 
BRANCH  16  17
ATOM     17  C   UNL     1     171.273 184.639 188.124  1.00  0.00     0.000 C 
BRANCH  17  18
ATOM     18  C   UNL     1     171.191 184.695 186.590  1.00  0.00    -0.000 C 
BRANCH  18  19
ATOM     19  C   UNL     1     170.443 185.955 186.129  1.00  0.00    -0.000 C 
BRANCH  19  20
ATOM     20  C   UNL     1     171.384 187.141 185.855  1.00  0.00    -0.000 C 
BRANCH  20  21
ATOM     21  C   UNL     1     170.840 188.468 186.410  1.00  0.00    -0.000 C 
BRANCH  21  22
ATOM     22  C   UNL     1     169.368 188.371 186.843  1.00  0.00    -0.000 C 
BRANCH  22  23
ATOM     23  C   UNL     1     169.027 189.245 188.069  1.00  0.00    -0.000 C 
BRANCH  23  24
ATOM     24  C   UNL     1     170.162 190.220 188.419  1.00  0.00    -0.000 C 
BRANCH  24  25
ATOM     25  C   UNL     1     170.109 190.615 189.900  1.00  0.00    -0.003 C 
ATOM     26  C   UNL     1     171.209 191.615 190.244  1.00  0.00     0.004 C 
ENDBRANCH  24  25
ENDBRANCH  23  24
ENDBRANCH  22  23
ENDBRANCH  21  22
ENDBRANCH  20  21
ENDBRANCH  19  20
ENDBRANCH  18  19
ENDBRANCH  17  18
ENDBRANCH  16  17
ENDBRANCH  15  16
ENDBRANCH   1  15
TORSDOF 22
ENDMDL
MODEL 6
REMARK VINA RESULT:     0.046      6.830      9.722
REMARK INTER + INTRA:          -5.582
REMARK INTER:                   0.000
REMARK INTRA:                  -5.582
REMARK UNBOUND:                -5.686
REMARK SMILES CCCCCCCCCCCCCCCCCCCCCCCC(=O)[O-]
REMARK SMILES IDX 13 1 14 2 15 3 16 4 17 5 18 6 19 7 20 8 21 9 22 10 23 11
REMARK SMILES IDX 24 12 25 13 26 14 12 15 11 16 10 17 9 18 8 19 7 20 6 21 5 22
REMARK SMILES IDX 4 23 3 24 2 25 1 26
REMARK H PARENT
REMARK Flexibility Score: inf
ROOT
ATOM      1  C   UNL     1     173.807 189.832 182.739  1.00  0.00     0.000 C 
ENDROOT
BRANCH   1   2
ATOM      2  C   UNL     1     174.939 189.182 183.564  1.00  0.00     0.000 C 
BRANCH   2   3
ATOM      3  C   UNL     1     176.087 190.166 183.848  1.00  0.00     0.000 C 
BRANCH   3   4
ATOM      4  C   UNL     1     176.601 190.866 182.579  1.00  0.00     0.000 C 
BRANCH   4   5
ATOM      5  C   UNL     1     176.531 192.408 182.607  1.00  0.00     0.000 C 
BRANCH   5   6
ATOM      6  C   UNL     1     175.478 193.038 181.677  1.00  0.00     0.000 C 
BRANCH   6   7
ATOM      7  C   UNL     1     174.230 193.531 182.428  1.00  0.00     0.000 C 
BRANCH   7   8
ATOM      8  C   UNL     1     174.407 193.514 183.958  1.00  0.00     0.000 C 
BRANCH   8   9
ATOM      9  C   UNL     1     173.214 192.953 184.756  1.00  0.00     0.000 C 
BRANCH   9  10
ATOM     10  C   UNL     1     173.572 191.911 185.833  1.00  0.00     0.006 C 
BRANCH  10  11
ATOM     11  C   UNL     1     172.395 191.003 186.238  1.00  0.00     0.053 C 
BRANCH  11  12
ATOM     12  C   UNL     1     172.846 189.772 186.964  1.00  0.00     0.041 C 
ATOM     13  O   UNL     1     173.233 189.846 188.159  1.00  0.00    -0.550 OA
ATOM     14  O   UNL     1     172.866 188.546 186.310  1.00  0.00    -0.550 OA
ENDBRANCH  11  12
ENDBRANCH  10  11
ENDBRANCH   9  10
ENDBRANCH   8   9
ENDBRANCH   7   8
ENDBRANCH   6   7
ENDBRANCH   5   6
ENDBRANCH   4   5
ENDBRANCH   3   4
ENDBRANCH   2   3
ENDBRANCH   1   2
BRANCH   1  15
ATOM     15  C   UNL     1     173.529 189.124 181.401  1.00  0.00     0.000 C 
BRANCH  15  16
ATOM     16  C   UNL     1     173.834 190.008 180.181  1.00  0.00     0.000 C 
BRANCH  16  17
ATOM     17  C   UNL     1     172.781 191.109 179.969  1.00  0.00     0.000 C 
BRANCH  17  18
ATOM     18  C   UNL     1     171.394 190.542 179.623  1.00  0.00    -0.000 C 
BRANCH  18  19
ATOM     19  C   UNL     1     170.312 191.161 180.520  1.00  0.00    -0.000 C 
BRANCH  19  20
ATOM     20  C   UNL     1     170.897 191.963 181.695  1.00  0.00    -0.000 C 
BRANCH  20  21
ATOM     21  C   UNL     1     170.423 191.441 183.061  1.00  0.00    -0.000 C 
BRANCH  21  22
ATOM     22  C   UNL     1     169.708 190.084 182.963  1.00  0.00    -0.000 C 
BRANCH  22  23
ATOM     23  C   UNL     1     170.348 188.984 183.838  1.00  0.00    -0.000 C 
BRANCH  23  24
ATOM     24  C   UNL     1     170.615 187.695 183.045  1.00  0.00    -0.000 C 
BRANCH  24  25
ATOM     25  C   UNL     1     169.824 187.685 181.731  1.00  0.00    -0.003 C 
ATOM     26  C   UNL     1     170.616 187.010 180.614  1.00  0.00     0.004 C 
ENDBRANCH  24  25
ENDBRANCH  23  24
ENDBRANCH  22  23
ENDBRANCH  21  22
ENDBRANCH  20  21
ENDBRANCH  19  20
ENDBRANCH  18  19
ENDBRANCH  17  18
ENDBRANCH  16  17
ENDBRANCH  15  16
ENDBRANCH   1  15
TORSDOF 22
ENDMDL
MODEL 7
REMARK VINA RESULT:     0.053      7.905     10.948
REMARK INTER + INTRA:          -5.566
REMARK INTER:                   0.000
REMARK INTRA:                  -5.566
REMARK UNBOUND:                -5.686
REMARK SMILES CCCCCCCCCCCCCCCCCCCCCCCC(=O)[O-]
REMARK SMILES IDX 13 1 14 2 15 3 16 4 17 5 18 6 19 7 20 8 21 9 22 10 23 11
REMARK SMILES IDX 24 12 25 13 26 14 12 15 11 16 10 17 9 18 8 19 7 20 6 21 5 22
REMARK SMILES IDX 4 23 3 24 2 25 1 26
REMARK H PARENT
REMARK Flexibility Score: inf
ROOT
ATOM      1  C   UNL     1     164.431 191.947 186.700  1.00  0.00     0.000 C 
ENDROOT
BRANCH   1   2
ATOM      2  C   UNL     1     164.670 193.410 187.131  1.00  0.00     0.000 C 
BRANCH   2   3
ATOM      3  C   UNL     1     166.122 193.652 187.579  1.00  0.00     0.000 C 
BRANCH   3   4
ATOM      4  C   UNL     1     166.715 192.462 188.352  1.00  0.00     0.000 C 
BRANCH   4   5
ATOM      5  C   UNL     1     166.575 192.543 189.887  1.00  0.00     0.000 C 
BRANCH   5   6
ATOM      6  C   UNL     1     165.476 191.654 190.498  1.00  0.00     0.000 C 
BRANCH   6   7
ATOM      7  C   UNL     1     164.499 192.434 191.393  1.00  0.00     0.000 C 
BRANCH   7   8
ATOM      8  C   UNL     1     164.730 193.956 191.346  1.00  0.00     0.000 C 
BRANCH   8   9
ATOM      9  C   UNL     1     163.654 194.766 190.596  1.00  0.00     0.000 C 
BRANCH   9  10
ATOM     10  C   UNL     1     164.171 195.993 189.821  1.00  0.00     0.006 C 
BRANCH  10  11
ATOM     11  C   UNL     1     165.645 196.336 190.108  1.00  0.00     0.053 C 
BRANCH  11  12
ATOM     12  C   UNL     1     165.792 197.564 190.953  1.00  0.00     0.041 C 
ATOM     13  O   UNL     1     166.644 198.441 190.657  1.00  0.00    -0.550 OA
ATOM     14  O   UNL     1     165.004 197.728 192.087  1.00  0.00    -0.550 OA
ENDBRANCH  11  12
ENDBRANCH  10  11
ENDBRANCH   9  10
ENDBRANCH   8   9
ENDBRANCH   7   8
ENDBRANCH   6   7
ENDBRANCH   5   6
ENDBRANCH   4   5
ENDBRANCH   3   4
ENDBRANCH   2   3
ENDBRANCH   1   2
BRANCH   1  15
ATOM     15  C   UNL     1     163.268 191.263 187.440  1.00  0.00     0.000 C 
BRANCH  15  16
ATOM     16  C   UNL     1     162.492 192.226 188.353  1.00  0.00     0.000 C 
BRANCH  16  17
ATOM     17  C   UNL     1     161.521 191.495 189.295  1.00  0.00     0.000 C 
BRANCH  17  18
ATOM     18  C   UNL     1     160.742 192.458 190.206  1.00  0.00    -0.000 C 
BRANCH  18  19
ATOM     19  C   UNL     1     159.771 193.321 189.387  1.00  0.00    -0.000 C 
BRANCH  19  20
ATOM     20  C   UNL     1     160.109 194.820 189.447  1.00  0.00    -0.000 C 
BRANCH  20  21
ATOM     21  C   UNL     1     160.044 195.497 188.068  1.00  0.00    -0.000 C 
BRANCH  21  22
ATOM     22  C   UNL     1     161.419 195.589 187.386  1.00  0.00    -0.000 C 
BRANCH  22  23
ATOM     23  C   UNL     1     161.471 194.896 186.007  1.00  0.00    -0.000 C 
BRANCH  23  24
ATOM     24  C   UNL     1     160.185 194.113 185.703  1.00  0.00    -0.000 C 
BRANCH  24  25
ATOM     25  C   UNL     1     160.504 192.671 185.289  1.00  0.00    -0.003 C 
ATOM     26  C   UNL     1     159.611 191.675 186.023  1.00  0.00     0.004 C 
ENDBRANCH  24  25
ENDBRANCH  23  24
ENDBRANCH  22  23
ENDBRANCH  21  22
ENDBRANCH  20  21
ENDBRANCH  19  20
ENDBRANCH  18  19
ENDBRANCH  17  18
ENDBRANCH  16  17
ENDBRANCH  15  16
ENDBRANCH   1  15
TORSDOF 22
ENDMDL
MODEL 8
REMARK VINA RESULT:     0.056      2.558      5.195
REMARK INTER + INTRA:          -5.558
REMARK INTER:                   0.000
REMARK INTRA:                  -5.558
REMARK UNBOUND:                -5.686
REMARK SMILES CCCCCCCCCCCCCCCCCCCCCCCC(=O)[O-]
REMARK SMILES IDX 13 1 14 2 15 3 16 4 17 5 18 6 19 7 20 8 21 9 22 10 23 11
REMARK SMILES IDX 24 12 25 13 26 14 12 15 11 16 10 17 9 18 8 19 7 20 6 21 5 22
REMARK SMILES IDX 4 23 3 24 2 25 1 26
REMARK H PARENT
REMARK Flexibility Score: inf
ROOT
ATOM      1  C   UNL     1     168.639 186.043 187.310  1.00  0.00     0.000 C 
ENDROOT
BRANCH   1   2
ATOM      2  C   UNL     1     169.690 186.083 188.441  1.00  0.00     0.000 C 
BRANCH   2   3
ATOM      3  C   UNL     1     170.796 187.117 188.168  1.00  0.00     0.000 C 
BRANCH   3   4
ATOM      4  C   UNL     1     170.701 188.348 189.086  1.00  0.00     0.000 C 
BRANCH   4   5
ATOM      5  C   UNL     1     170.212 189.641 188.398  1.00  0.00     0.000 C 
BRANCH   5   6
ATOM      6  C   UNL     1     168.780 190.077 188.756  1.00  0.00     0.000 C 
BRANCH   6   7
ATOM      7  C   UNL     1     168.143 189.208 189.854  1.00  0.00     0.000 C 
BRANCH   7   8
ATOM      8  C   UNL     1     166.858 188.500 189.386  1.00  0.00     0.000 C 
BRANCH   8   9
ATOM      9  C   UNL     1     166.288 188.985 188.038  1.00  0.00     0.000 C 
BRANCH   9  10
ATOM     10  C   UNL     1     165.048 188.222 187.532  1.00  0.00     0.006 C 
BRANCH  10  11
ATOM     11  C   UNL     1     164.495 188.749 186.196  1.00  0.00     0.053 C 
BRANCH  11  12
ATOM     12  C   UNL     1     164.136 187.643 185.250  1.00  0.00     0.041 C 
ATOM     13  O   UNL     1     164.365 186.444 185.557  1.00  0.00    -0.550 OA
ATOM     14  O   UNL     1     163.572 187.939 184.014  1.00  0.00    -0.550 OA
ENDBRANCH  11  12
ENDBRANCH  10  11
ENDBRANCH   9  10
ENDBRANCH   8   9
ENDBRANCH   7   8
ENDBRANCH   6   7
ENDBRANCH   5   6
ENDBRANCH   4   5
ENDBRANCH   3   4
ENDBRANCH   2   3
ENDBRANCH   1   2
BRANCH   1  15
ATOM     15  C   UNL     1     168.867 187.099 186.213  1.00  0.00     0.000 C 
BRANCH  15  16
ATOM     16  C   UNL     1     167.826 187.023 185.085  1.00  0.00     0.000 C 
BRANCH  16  17
ATOM     17  C   UNL     1     167.709 188.339 184.298  1.00  0.00     0.000 C 
BRANCH  17  18
ATOM     18  C   UNL     1     168.302 189.538 185.057  1.00  0.00    -0.000 C 
BRANCH  18  19
ATOM     19  C   UNL     1     168.923 190.549 184.081  1.00  0.00    -0.000 C 
BRANCH  19  20
ATOM     20  C   UNL     1     170.375 190.206 183.710  1.00  0.00    -0.000 C 
BRANCH  20  21
ATOM     21  C   UNL     1     171.178 189.663 184.903  1.00  0.00    -0.000 C 
BRANCH  21  22
ATOM     22  C   UNL     1     171.922 188.358 184.573  1.00  0.00    -0.000 C 
BRANCH  22  23
ATOM     23  C   UNL     1     171.329 187.598 183.366  1.00  0.00    -0.000 C 
BRANCH  23  24
ATOM     24  C   UNL     1     171.233 186.087 183.623  1.00  0.00    -0.000 C 
BRANCH  24  25
ATOM     25  C   UNL     1     172.024 185.691 184.877  1.00  0.00    -0.003 C 
ATOM     26  C   UNL     1     171.504 184.384 185.468  1.00  0.00     0.004 C 
ENDBRANCH  24  25
ENDBRANCH  23  24
ENDBRANCH  22  23
ENDBRANCH  21  22
ENDBRANCH  20  21
ENDBRANCH  19  20
ENDBRANCH  18  19
ENDBRANCH  17  18
ENDBRANCH  16  17
ENDBRANCH  15  16
ENDBRANCH   1  15
TORSDOF 22
ENDMDL
MODEL 9
REMARK VINA RESULT:     0.063      3.817      7.045
REMARK INTER + INTRA:          -5.542
REMARK INTER:                   0.000
REMARK INTRA:                  -5.542
REMARK UNBOUND:                -5.686
REMARK SMILES CCCCCCCCCCCCCCCCCCCCCCCC(=O)[O-]
REMARK SMILES IDX 13 1 14 2 15 3 16 4 17 5 18 6 19 7 20 8 21 9 22 10 23 11
REMARK SMILES IDX 24 12 25 13 26 14 12 15 11 16 10 17 9 18 8 19 7 20 6 21 5 22
REMARK SMILES IDX 4 23 3 24 2 25 1 26
REMARK H PARENT
REMARK Flexibility Score: inf
ROOT
ATOM      1  C   UNL     1     165.311 185.049 185.292  1.00  0.00     0.000 C 
ENDROOT
BRANCH   1   2
ATOM      2  C   UNL     1     166.841 185.072 185.082  1.00  0.00     0.000 C 
BRANCH   2   3
ATOM      3  C   UNL     1     167.513 186.230 185.842  1.00  0.00     0.000 C 
BRANCH   3   4
ATOM      4  C   UNL     1     166.852 186.513 187.202  1.00  0.00     0.000 C 
BRANCH   4   5
ATOM      5  C   UNL     1     166.290 187.941 187.372  1.00  0.00     0.000 C 
BRANCH   5   6
ATOM      6  C   UNL     1     164.763 188.034 187.535  1.00  0.00     0.000 C 
BRANCH   6   7
ATOM      7  C   UNL     1     164.071 188.725 186.348  1.00  0.00     0.000 C 
BRANCH   7   8
ATOM      8  C   UNL     1     165.065 189.201 185.272  1.00  0.00     0.000 C 
BRANCH   8   9
ATOM      9  C   UNL     1     164.448 189.515 183.894  1.00  0.00     0.000 C 
BRANCH   9  10
ATOM     10  C   UNL     1     165.300 189.100 182.679  1.00  0.00     0.006 C 
BRANCH  10  11
ATOM     11  C   UNL     1     166.668 188.501 183.053  1.00  0.00     0.053 C 
BRANCH  11  12
ATOM     12  C   UNL     1     167.094 187.417 182.110  1.00  0.00     0.041 C 
ATOM     13  O   UNL     1     166.327 187.041 181.186  1.00  0.00    -0.550 OA
ATOM     14  O   UNL     1     168.331 186.801 182.269  1.00  0.00    -0.550 OA
ENDBRANCH  11  12
ENDBRANCH  10  11
ENDBRANCH   9  10
ENDBRANCH   8   9
ENDBRANCH   7   8
ENDBRANCH   6   7
ENDBRANCH   5   6
ENDBRANCH   4   5
ENDBRANCH   3   4
ENDBRANCH   2   3
ENDBRANCH   1   2
BRANCH   1  15
ATOM     15  C   UNL     1     164.518 185.713 184.153  1.00  0.00     0.000 C 
BRANCH  15  16
ATOM     16  C   UNL     1     164.249 184.762 182.976  1.00  0.00     0.000 C 
BRANCH  16  17
ATOM     17  C   UNL     1     162.990 185.144 182.181  1.00  0.00     0.000 C 
BRANCH  17  18
ATOM     18  C   UNL     1     162.676 186.648 182.256  1.00  0.00    -0.000 C 
BRANCH  18  19
ATOM     19  C   UNL     1     161.253 186.883 182.786  1.00  0.00    -0.000 C 
BRANCH  19  20
ATOM     20  C   UNL     1     161.235 187.516 184.187  1.00  0.00    -0.000 C 
BRANCH  20  21
ATOM     21  C   UNL     1     160.580 186.606 185.239  1.00  0.00    -0.000 C 
BRANCH  21  22
ATOM     22  C   UNL     1     161.592 186.047 186.253  1.00  0.00    -0.000 C 
BRANCH  22  23
ATOM     23  C   UNL     1     161.697 184.507 186.235  1.00  0.00    -0.000 C 
BRANCH  23  24
ATOM     24  C   UNL     1     160.904 183.886 185.075  1.00  0.00    -0.000 C 
BRANCH  24  25
ATOM     25  C   UNL     1     161.602 182.627 184.544  1.00  0.00    -0.003 C 
ATOM     26  C   UNL     1     162.798 182.251 185.414  1.00  0.00     0.004 C 
ENDBRANCH  24  25
ENDBRANCH  23  24
ENDBRANCH  22  23
ENDBRANCH  21  22
ENDBRANCH  20  21
ENDBRANCH  19  20
ENDBRANCH  18  19
ENDBRANCH  17  18
ENDBRANCH  16  17
ENDBRANCH  15  16
ENDBRANCH   1  15
TORSDOF 22
ENDMDL
