MODEL 1
REMARK VINA RESULT:    -4.478      0.000      0.000
REMARK INTER + INTRA:          -4.833
REMARK INTER:                  -4.740
REMARK INTRA:                  -0.093
REMARK UNBOUND:                -0.093
REMARK SMILES C=C(C)[C@@H]1CC=C(C)C(=O)C1
REMARK SMILES IDX 8 1 7 2 6 3 5 4 4 5 11 6 9 7 10 8 2 9 1 10 3 11
REMARK H PARENT
REMARK Flexibility Score: inf
ROOT
ATOM      1  C   UNL     1      19.958  52.829  33.633  1.00  0.00     0.048 C 
ATOM      2  C   UNL     1      18.706  52.935  34.459  1.00  0.00    -0.012 C 
ATOM      3  C   UNL     1      18.768  53.428  35.708  1.00  0.00    -0.019 C 
ATOM      4  C   UNL     1      17.543  53.571  36.572  1.00  0.00     0.036 C 
ATOM      5  C   UNL     1      16.519  52.460  36.270  1.00  0.00     0.025 C 
ATOM      6  C   UNL     1      16.176  52.443  34.770  1.00  0.00     0.089 C 
ATOM      7  C   UNL     1      17.430  52.381  33.941  1.00  0.00     0.158 C 
ATOM      8  O   UNL     1      17.378  51.886  32.783  1.00  0.00    -0.295 OA
ENDROOT
BRANCH   5   9
ATOM      9  C   UNL     1      15.269  52.599  37.131  1.00  0.00    -0.077 C 
ATOM     10  C   UNL     1      14.487  53.689  37.057  1.00  0.00     0.008 C 
ATOM     11  C   UNL     1      14.888  51.502  38.091  1.00  0.00     0.039 C 
ENDBRANCH   5   9
TORSDOF 1
ENDMDL
MODEL 2
REMARK VINA RESULT:    -4.398     16.236     17.405
REMARK INTER + INTRA:          -4.748
REMARK INTER:                  -4.655
REMARK INTRA:                  -0.093
REMARK UNBOUND:                -0.093
REMARK SMILES C=C(C)[C@@H]1CC=C(C)C(=O)C1
REMARK SMILES IDX 8 1 7 2 6 3 5 4 4 5 11 6 9 7 10 8 2 9 1 10 3 11
REMARK H PARENT
REMARK Flexibility Score: inf
ROOT
ATOM      1  C   UNL     1      17.406  63.121  23.721  1.00  0.00     0.048 C 
ATOM      2  C   UNL     1      16.182  62.787  22.913  1.00  0.00    -0.012 C 
ATOM      3  C   UNL     1      16.316  62.326  21.657  1.00  0.00    -0.019 C 
ATOM      4  C   UNL     1      15.126  61.960  20.810  1.00  0.00     0.036 C 
ATOM      5  C   UNL     1      13.915  62.854  21.140  1.00  0.00     0.025 C 
ATOM      6  C   UNL     1      13.600  62.793  22.645  1.00  0.00     0.089 C 
ATOM      7  C   UNL     1      14.833  63.083  23.455  1.00  0.00     0.158 C 
ATOM      8  O   UNL     1      14.708  63.550  24.620  1.00  0.00    -0.295 OA
ENDROOT
BRANCH   5   9
ATOM      9  C   UNL     1      12.700  62.488  20.296  1.00  0.00    -0.077 C 
ATOM     10  C   UNL     1      12.103  61.290  20.412  1.00  0.00     0.008 C 
ATOM     11  C   UNL     1      12.143  63.478  19.305  1.00  0.00     0.039 C 
ENDBRANCH   5   9
TORSDOF 1
ENDMDL
MODEL 3
REMARK VINA RESULT:    -4.086     15.666     17.025
REMARK INTER + INTRA:          -4.418
REMARK INTER:                  -4.322
REMARK INTRA:                  -0.096
REMARK UNBOUND:                -0.093
REMARK SMILES C=C(C)[C@@H]1CC=C(C)C(=O)C1
REMARK SMILES IDX 8 1 7 2 6 3 5 4 4 5 11 6 9 7 10 8 2 9 1 10 3 11
REMARK H PARENT
REMARK Flexibility Score: inf
ROOT
ATOM      1  C   UNL     1      12.919  62.012  19.978  1.00  0.00     0.048 C 
ATOM      2  C   UNL     1      14.059  62.096  20.955  1.00  0.00    -0.012 C 
ATOM      3  C   UNL     1      13.892  62.736  22.125  1.00  0.00    -0.019 C 
ATOM      4  C   UNL     1      14.994  62.835  23.146  1.00  0.00     0.036 C 
ATOM      5  C   UNL     1      16.376  62.896  22.466  1.00  0.00     0.025 C 
ATOM      6  C   UNL     1      16.561  61.693  21.524  1.00  0.00     0.089 C 
ATOM      7  C   UNL     1      15.399  61.582  20.575  1.00  0.00     0.158 C 
ATOM      8  O   UNL     1      15.567  61.013  19.462  1.00  0.00    -0.295 OA
ENDROOT
BRANCH   5   9
ATOM      9  C   UNL     1      17.502  62.986  23.490  1.00  0.00    -0.077 C 
ATOM     10  C   UNL     1      18.396  61.994  23.634  1.00  0.00     0.008 C 
ATOM     11  C   UNL     1      17.629  64.205  24.366  1.00  0.00     0.039 C 
ENDBRANCH   5   9
TORSDOF 1
ENDMDL
MODEL 4
REMARK VINA RESULT:    -4.055     15.864     17.035
REMARK INTER + INTRA:          -4.385
REMARK INTER:                  -4.290
REMARK INTRA:                  -0.095
REMARK UNBOUND:                -0.093
REMARK SMILES C=C(C)[C@@H]1CC=C(C)C(=O)C1
REMARK SMILES IDX 8 1 7 2 6 3 5 4 4 5 11 6 9 7 10 8 2 9 1 10 3 11
REMARK H PARENT
REMARK Flexibility Score: inf
ROOT
ATOM      1  C   UNL     1      18.571  60.821  22.266  1.00  0.00     0.048 C 
ATOM      2  C   UNL     1      17.113  61.055  21.982  1.00  0.00    -0.012 C 
ATOM      3  C   UNL     1      16.429  60.178  21.227  1.00  0.00    -0.019 C 
ATOM      4  C   UNL     1      14.965  60.355  20.926  1.00  0.00     0.036 C 
ATOM      5  C   UNL     1      14.594  61.848  20.835  1.00  0.00     0.025 C 
ATOM      6  C   UNL     1      15.018  62.583  22.119  1.00  0.00     0.089 C 
ATOM      7  C   UNL     1      16.465  62.314  22.428  1.00  0.00     0.158 C 
ATOM      8  O   UNL     1      17.115  63.155  23.106  1.00  0.00    -0.295 OA
ENDROOT
BRANCH   5   9
ATOM      9  C   UNL     1      13.111  62.041  20.540  1.00  0.00    -0.077 C 
ATOM     10  C   UNL     1      12.214  61.076  20.802  1.00  0.00     0.008 C 
ATOM     11  C   UNL     1      12.624  63.335  19.942  1.00  0.00     0.039 C 
ENDBRANCH   5   9
TORSDOF 1
ENDMDL
MODEL 5
REMARK VINA RESULT:    -4.053      1.737      2.319
REMARK INTER + INTRA:          -4.383
REMARK INTER:                  -4.288
REMARK INTRA:                  -0.096
REMARK UNBOUND:                -0.093
REMARK SMILES C=C(C)[C@@H]1CC=C(C)C(=O)C1
REMARK SMILES IDX 8 1 7 2 6 3 5 4 4 5 11 6 9 7 10 8 2 9 1 10 3 11
REMARK H PARENT
REMARK Flexibility Score: inf
ROOT
ATOM      1  C   UNL     1      20.326  53.213  33.297  1.00  0.00     0.048 C 
ATOM      2  C   UNL     1      19.158  53.277  34.242  1.00  0.00    -0.012 C 
ATOM      3  C   UNL     1      18.506  52.151  34.577  1.00  0.00    -0.019 C 
ATOM      4  C   UNL     1      17.342  52.155  35.532  1.00  0.00     0.036 C 
ATOM      5  C   UNL     1      16.536  53.464  35.417  1.00  0.00     0.025 C 
ATOM      6  C   UNL     1      17.459  54.679  35.618  1.00  0.00     0.089 C 
ATOM      7  C   UNL     1      18.650  54.594  34.703  1.00  0.00     0.158 C 
ATOM      8  O   UNL     1      19.239  55.655  34.360  1.00  0.00    -0.295 OA
ENDROOT
BRANCH   5   9
ATOM      9  C   UNL     1      15.360  53.486  36.386  1.00  0.00    -0.077 C 
ATOM     10  C   UNL     1      15.305  52.652  37.438  1.00  0.00     0.008 C 
ATOM     11  C   UNL     1      14.226  54.456  36.175  1.00  0.00     0.039 C 
ENDBRANCH   5   9
TORSDOF 1
ENDMDL
MODEL 6
REMARK VINA RESULT:    -4.039     15.520     16.706
REMARK INTER + INTRA:          -4.368
REMARK INTER:                  -4.272
REMARK INTRA:                  -0.096
REMARK UNBOUND:                -0.093
REMARK SMILES C=C(C)[C@@H]1CC=C(C)C(=O)C1
REMARK SMILES IDX 8 1 7 2 6 3 5 4 4 5 11 6 9 7 10 8 2 9 1 10 3 11
REMARK H PARENT
REMARK Flexibility Score: inf
ROOT
ATOM      1  C   UNL     1      18.528  60.721  22.782  1.00  0.00     0.048 C 
ATOM      2  C   UNL     1      17.226  61.097  22.129  1.00  0.00    -0.012 C 
ATOM      3  C   UNL     1      16.754  62.349  22.251  1.00  0.00    -0.019 C 
ATOM      4  C   UNL     1      15.465  62.784  21.604  1.00  0.00     0.036 C 
ATOM      5  C   UNL     1      14.456  61.620  21.543  1.00  0.00     0.025 C 
ATOM      6  C   UNL     1      15.084  60.406  20.835  1.00  0.00     0.089 C 
ATOM      7  C   UNL     1      16.407  60.056  21.459  1.00  0.00     0.158 C 
ATOM      8  O   UNL     1      16.832  58.872  21.375  1.00  0.00    -0.295 OA
ENDROOT
BRANCH   5   9
ATOM      9  C   UNL     1      13.151  62.044  20.880  1.00  0.00    -0.077 C 
ATOM     10  C   UNL     1      12.944  63.313  20.490  1.00  0.00     0.008 C 
ATOM     11  C   UNL     1      12.058  61.032  20.651  1.00  0.00     0.039 C 
ENDBRANCH   5   9
TORSDOF 1
ENDMDL
MODEL 7
REMARK VINA RESULT:    -4.016     15.712     17.044
REMARK INTER + INTRA:          -4.344
REMARK INTER:                  -4.247
REMARK INTRA:                  -0.097
REMARK UNBOUND:                -0.093
REMARK SMILES C=C(C)[C@@H]1CC=C(C)C(=O)C1
REMARK SMILES IDX 8 1 7 2 6 3 5 4 4 5 11 6 9 7 10 8 2 9 1 10 3 11
REMARK H PARENT
REMARK Flexibility Score: inf
ROOT
ATOM      1  C   UNL     1      12.760  61.886  20.112  1.00  0.00     0.048 C 
ATOM      2  C   UNL     1      14.151  61.929  20.683  1.00  0.00    -0.012 C 
ATOM      3  C   UNL     1      15.147  61.269  20.068  1.00  0.00    -0.019 C 
ATOM      4  C   UNL     1      16.561  61.292  20.587  1.00  0.00     0.036 C 
ATOM      5  C   UNL     1      16.585  61.394  22.124  1.00  0.00     0.025 C 
ATOM      6  C   UNL     1      15.772  62.614  22.592  1.00  0.00     0.089 C 
ATOM      7  C   UNL     1      14.396  62.595  21.987  1.00  0.00     0.158 C 
ATOM      8  O   UNL     1      13.454  63.184  22.584  1.00  0.00    -0.295 OA
ENDROOT
BRANCH   5   9
ATOM      9  C   UNL     1      18.011  61.429  22.662  1.00  0.00    -0.077 C 
ATOM     10  C   UNL     1      18.394  62.342  23.569  1.00  0.00     0.008 C 
ATOM     11  C   UNL     1      19.026  60.426  22.176  1.00  0.00     0.039 C 
ENDBRANCH   5   9
TORSDOF 1
ENDMDL
MODEL 8
REMARK VINA RESULT:    -4.004      1.189      4.622
REMARK INTER + INTRA:          -4.331
REMARK INTER:                  -4.236
REMARK INTRA:                  -0.095
REMARK UNBOUND:                -0.093
REMARK SMILES C=C(C)[C@@H]1CC=C(C)C(=O)C1
REMARK SMILES IDX 8 1 7 2 6 3 5 4 4 5 11 6 9 7 10 8 2 9 1 10 3 11
REMARK H PARENT
REMARK Flexibility Score: inf
ROOT
ATOM      1  C   UNL     1      15.688  53.009  36.663  1.00  0.00     0.048 C 
ATOM      2  C   UNL     1      16.929  52.927  35.817  1.00  0.00    -0.012 C 
ATOM      3  C   UNL     1      18.086  53.433  36.276  1.00  0.00    -0.019 C 
ATOM      4  C   UNL     1      19.361  53.363  35.477  1.00  0.00     0.036 C 
ATOM      5  C   UNL     1      19.073  53.441  33.966  1.00  0.00     0.025 C 
ATOM      6  C   UNL     1      18.068  52.349  33.556  1.00  0.00     0.089 C 
ATOM      7  C   UNL     1      16.846  52.402  34.430  1.00  0.00     0.158 C 
ATOM      8  O   UNL     1      15.752  51.961  33.985  1.00  0.00    -0.295 OA
ENDROOT
BRANCH   5   9
ATOM      9  C   UNL     1      20.355  53.360  33.145  1.00  0.00    -0.077 C 
ATOM     10  C   UNL     1      21.515  53.853  33.610  1.00  0.00     0.008 C 
ATOM     11  C   UNL     1      20.339  52.719  31.781  1.00  0.00     0.039 C 
ENDBRANCH   5   9
TORSDOF 1
ENDMDL
MODEL 9
REMARK VINA RESULT:    -3.930     16.063     16.928
REMARK INTER + INTRA:          -4.252
REMARK INTER:                  -4.158
REMARK INTRA:                  -0.094
REMARK UNBOUND:                -0.093
REMARK SMILES C=C(C)[C@@H]1CC=C(C)C(=O)C1
REMARK SMILES IDX 8 1 7 2 6 3 5 4 4 5 11 6 9 7 10 8 2 9 1 10 3 11
REMARK H PARENT
REMARK Flexibility Score: inf
ROOT
ATOM      1  C   UNL     1      15.912  61.024  19.984  1.00  0.00     0.048 C 
ATOM      2  C   UNL     1      15.216  61.888  21.000  1.00  0.00    -0.012 C 
ATOM      3  C   UNL     1      15.849  62.227  22.136  1.00  0.00    -0.019 C 
ATOM      4  C   UNL     1      15.205  63.103  23.178  1.00  0.00     0.036 C 
ATOM      5  C   UNL     1      13.681  62.881  23.224  1.00  0.00     0.025 C 
ATOM      6  C   UNL     1      13.068  63.090  21.828  1.00  0.00     0.089 C 
ATOM      7  C   UNL     1      13.792  62.259  20.804  1.00  0.00     0.158 C 
ATOM      8  O   UNL     1      13.186  61.911  19.755  1.00  0.00    -0.295 OA
ENDROOT
BRANCH   5   9
ATOM      9  C   UNL     1      13.016  63.769  24.268  1.00  0.00    -0.077 C 
ATOM     10  C   UNL     1      13.478  63.835  25.528  1.00  0.00     0.008 C 
ATOM     11  C   UNL     1      11.812  64.597  23.898  1.00  0.00     0.039 C 
ENDBRANCH   5   9
TORSDOF 1
ENDMDL
