MODEL 1
REMARK VINA RESULT:     0.000      0.000      0.000
REMARK INTER + INTRA:          -3.106
REMARK INTER:                   0.000
REMARK INTRA:                  -3.106
REMARK UNBOUND:                -3.106
REMARK SMILES CCCCCCCCCCCCCCCC(=O)[O-]
REMARK SMILES IDX 9 1 10 2 11 3 12 4 13 5 14 6 15 7 16 8 17 9 18 10 8 11 7 12
REMARK SMILES IDX 6 13 5 14 4 15 3 16 2 17 1 18
REMARK H PARENT
REMARK Flexibility Score: inf
ROOT
ATOM      1  C   UNL     1     176.192 182.545 180.904  1.00  0.00     0.000 C 
ENDROOT
BRANCH   1   2
ATOM      2  C   UNL     1     177.311 183.504 181.336  1.00  0.00     0.000 C 
BRANCH   2   3
ATOM      3  C   UNL     1     177.665 183.302 182.816  1.00  0.00     0.000 C 
BRANCH   3   4
ATOM      4  C   UNL     1     179.183 183.209 183.011  1.00  0.00     0.000 C 
BRANCH   4   5
ATOM      5  C   UNL     1     179.929 183.901 181.860  1.00  0.00     0.000 C 
BRANCH   5   6
ATOM      6  C   UNL     1     181.172 183.120 181.404  1.00  0.00     0.006 C 
BRANCH   6   7
ATOM      7  C   UNL     1     181.583 182.030 182.403  1.00  0.00     0.053 C 
BRANCH   7   8
ATOM      8  C   UNL     1     182.607 181.125 181.795  1.00  0.00     0.041 C 
ATOM      9  O   UNL     1     183.769 181.551 181.557  1.00  0.00    -0.550 OA
ATOM     10  O   UNL     1     182.295 179.797 181.537  1.00  0.00    -0.550 OA
ENDBRANCH   7   8
ENDBRANCH   6   7
ENDBRANCH   5   6
ENDBRANCH   4   5
ENDBRANCH   3   4
ENDBRANCH   2   3
ENDBRANCH   1   2
BRANCH   1  11
ATOM     11  C   UNL     1     176.684 181.450 179.941  1.00  0.00     0.000 C 
BRANCH  11  12
ATOM     12  C   UNL     1     178.187 181.508 179.603  1.00  0.00    -0.000 C 
BRANCH  12  13
ATOM     13  C   UNL     1     179.032 180.347 180.166  1.00  0.00    -0.000 C 
BRANCH  13  14
ATOM     14  C   UNL     1     178.304 179.453 181.185  1.00  0.00    -0.000 C 
BRANCH  14  15
ATOM     15  C   UNL     1     178.911 179.544 182.596  1.00  0.00    -0.000 C 
BRANCH  15  16
ATOM     16  C   UNL     1     177.846 179.713 183.694  1.00  0.00    -0.000 C 
BRANCH  16  17
ATOM     17  C   UNL     1     176.391 179.604 183.203  1.00  0.00    -0.003 C 
ATOM     18  C   UNL     1     175.433 180.524 183.961  1.00  0.00     0.004 C 
ENDBRANCH  16  17
ENDBRANCH  15  16
ENDBRANCH  14  15
ENDBRANCH  13  14
ENDBRANCH  12  13
ENDBRANCH  11  12
ENDBRANCH   1  11
TORSDOF 14
ENDMDL
MODEL 2
REMARK VINA RESULT:     0.005      6.427      8.905
REMARK INTER + INTRA:          -3.097
REMARK INTER:                   0.000
REMARK INTRA:                  -3.097
REMARK UNBOUND:                -3.106
REMARK SMILES CCCCCCCCCCCCCCCC(=O)[O-]
REMARK SMILES IDX 9 1 10 2 11 3 12 4 13 5 14 6 15 7 16 8 17 9 18 10 8 11 7 12
REMARK SMILES IDX 6 13 5 14 4 15 3 16 2 17 1 18
REMARK H PARENT
REMARK Flexibility Score: inf
ROOT
ATOM      1  C   UNL     1     184.304 176.427 184.401  1.00  0.00     0.000 C 
ENDROOT
BRANCH   1   2
ATOM      2  C   UNL     1     185.816 176.688 184.421  1.00  0.00     0.000 C 
BRANCH   2   3
ATOM      3  C   UNL     1     186.113 178.191 184.501  1.00  0.00     0.000 C 
BRANCH   3   4
ATOM      4  C   UNL     1     187.090 178.500 185.642  1.00  0.00     0.000 C 
BRANCH   4   5
ATOM      5  C   UNL     1     186.546 179.617 186.545  1.00  0.00     0.000 C 
BRANCH   5   6
ATOM      6  C   UNL     1     185.471 180.469 185.852  1.00  0.00     0.006 C 
BRANCH   6   7
ATOM      7  C   UNL     1     184.699 181.360 186.834  1.00  0.00     0.053 C 
BRANCH   7   8
ATOM      8  C   UNL     1     183.273 181.496 186.405  1.00  0.00     0.041 C 
ATOM      9  O   UNL     1     182.990 181.673 185.191  1.00  0.00    -0.550 OA
ATOM     10  O   UNL     1     182.252 181.375 187.339  1.00  0.00    -0.550 OA
ENDBRANCH   7   8
ENDBRANCH   6   7
ENDBRANCH   5   6
ENDBRANCH   4   5
ENDBRANCH   3   4
ENDBRANCH   2   3
ENDBRANCH   1   2
BRANCH   1  11
ATOM     11  C   UNL     1     183.476 177.720 184.282  1.00  0.00     0.000 C 
BRANCH  11  12
ATOM     12  C   UNL     1     182.536 178.002 185.470  1.00  0.00    -0.000 C 
BRANCH  12  13
ATOM     13  C   UNL     1     182.841 177.202 186.753  1.00  0.00    -0.000 C 
BRANCH  13  14
ATOM     14  C   UNL     1     183.438 178.029 187.905  1.00  0.00    -0.000 C 
BRANCH  14  15
ATOM     15  C   UNL     1     184.586 177.303 188.626  1.00  0.00    -0.000 C 
BRANCH  15  16
ATOM     16  C   UNL     1     184.921 175.940 187.993  1.00  0.00    -0.000 C 
BRANCH  16  17
ATOM     17  C   UNL     1     186.422 175.603 187.948  1.00  0.00    -0.003 C 
ATOM     18  C   UNL     1     187.274 176.551 188.793  1.00  0.00     0.004 C 
ENDBRANCH  16  17
ENDBRANCH  15  16
ENDBRANCH  14  15
ENDBRANCH  13  14
ENDBRANCH  12  13
ENDBRANCH  11  12
ENDBRANCH   1  11
TORSDOF 14
ENDMDL
MODEL 3
REMARK VINA RESULT:     0.006      4.509      6.418
REMARK INTER + INTRA:          -3.095
REMARK INTER:                   0.000
REMARK INTRA:                  -3.095
REMARK UNBOUND:                -3.106
REMARK SMILES CCCCCCCCCCCCCCCC(=O)[O-]
REMARK SMILES IDX 9 1 10 2 11 3 12 4 13 5 14 6 15 7 16 8 17 9 18 10 8 11 7 12
REMARK SMILES IDX 6 13 5 14 4 15 3 16 2 17 1 18
REMARK H PARENT
REMARK Flexibility Score: inf
ROOT
ATOM      1  C   UNL     1     177.212 185.467 181.101  1.00  0.00     0.000 C 
ENDROOT
BRANCH   1   2
ATOM      2  C   UNL     1     176.142 185.049 182.120  1.00  0.00     0.000 C 
BRANCH   2   3
ATOM      3  C   UNL     1     176.771 184.286 183.293  1.00  0.00     0.000 C 
BRANCH   3   4
ATOM      4  C   UNL     1     176.448 184.966 184.630  1.00  0.00     0.000 C 
BRANCH   4   5
ATOM      5  C   UNL     1     177.698 185.057 185.517  1.00  0.00     0.000 C 
BRANCH   5   6
ATOM      6  C   UNL     1     178.783 184.044 185.119  1.00  0.00     0.006 C 
BRANCH   6   7
ATOM      7  C   UNL     1     180.193 184.650 185.137  1.00  0.00     0.053 C 
BRANCH   7   8
ATOM      8  C   UNL     1     180.483 185.256 186.474  1.00  0.00     0.041 C 
ATOM      9  O   UNL     1     180.593 184.523 187.492  1.00  0.00    -0.550 OA
ATOM     10  O   UNL     1     180.682 186.626 186.588  1.00  0.00    -0.550 OA
ENDBRANCH   7   8
ENDBRANCH   6   7
ENDBRANCH   5   6
ENDBRANCH   4   5
ENDBRANCH   3   4
ENDBRANCH   2   3
ENDBRANCH   1   2
BRANCH   1  11
ATOM     11  C   UNL     1     178.620 184.970 181.475  1.00  0.00     0.000 C 
BRANCH  11  12
ATOM     12  C   UNL     1     179.653 186.082 181.745  1.00  0.00    -0.000 C 
BRANCH  12  13
ATOM     13  C   UNL     1     179.056 187.463 182.089  1.00  0.00    -0.000 C 
BRANCH  13  14
ATOM     14  C   UNL     1     179.178 187.868 183.568  1.00  0.00    -0.000 C 
BRANCH  14  15
ATOM     15  C   UNL     1     177.867 188.435 184.139  1.00  0.00    -0.000 C 
BRANCH  15  16
ATOM     16  C   UNL     1     176.777 188.613 183.067  1.00  0.00    -0.000 C 
BRANCH  16  17
ATOM     17  C   UNL     1     175.339 188.386 183.567  1.00  0.00    -0.003 C 
ATOM     18  C   UNL     1     175.216 188.458 185.089  1.00  0.00     0.004 C 
ENDBRANCH  16  17
ENDBRANCH  15  16
ENDBRANCH  14  15
ENDBRANCH  13  14
ENDBRANCH  12  13
ENDBRANCH  11  12
ENDBRANCH   1  11
TORSDOF 14
ENDMDL
MODEL 4
REMARK VINA RESULT:     0.006      3.561      5.356
REMARK INTER + INTRA:          -3.095
REMARK INTER:                   0.000
REMARK INTRA:                  -3.095
REMARK UNBOUND:                -3.106
REMARK SMILES CCCCCCCCCCCCCCCC(=O)[O-]
REMARK SMILES IDX 9 1 10 2 11 3 12 4 13 5 14 6 15 7 16 8 17 9 18 10 8 11 7 12
REMARK SMILES IDX 6 13 5 14 4 15 3 16 2 17 1 18
REMARK H PARENT
REMARK Flexibility Score: inf
ROOT
ATOM      1  C   UNL     1     180.987 178.277 178.212  1.00  0.00     0.000 C 
ENDROOT
BRANCH   1   2
ATOM      2  C   UNL     1     181.157 178.590 179.706  1.00  0.00     0.000 C 
BRANCH   2   3
ATOM      3  C   UNL     1     182.390 179.471 179.945  1.00  0.00     0.000 C 
BRANCH   3   4
ATOM      4  C   UNL     1     181.998 180.799 180.604  1.00  0.00     0.000 C 
BRANCH   4   5
ATOM      5  C   UNL     1     182.771 181.971 179.981  1.00  0.00     0.000 C 
BRANCH   5   6
ATOM      6  C   UNL     1     183.978 181.510 179.149  1.00  0.00     0.006 C 
BRANCH   6   7
ATOM      7  C   UNL     1     184.132 182.301 177.844  1.00  0.00     0.053 C 
BRANCH   7   8
ATOM      8  C   UNL     1     185.032 181.573 176.896  1.00  0.00     0.041 C 
ATOM      9  O   UNL     1     185.492 182.160 175.881  1.00  0.00    -0.550 OA
ATOM     10  O   UNL     1     185.406 180.262 177.161  1.00  0.00    -0.550 OA
ENDBRANCH   7   8
ENDBRANCH   6   7
ENDBRANCH   5   6
ENDBRANCH   4   5
ENDBRANCH   3   4
ENDBRANCH   2   3
ENDBRANCH   1   2
BRANCH   1  11
ATOM     11  C   UNL     1     182.154 178.801 177.356  1.00  0.00     0.000 C 
BRANCH  11  12
ATOM     12  C   UNL     1     181.763 179.844 176.291  1.00  0.00    -0.000 C 
BRANCH  12  13
ATOM     13  C   UNL     1     180.409 180.545 176.525  1.00  0.00    -0.000 C 
BRANCH  13  14
ATOM     14  C   UNL     1     180.510 181.992 177.039  1.00  0.00    -0.000 C 
BRANCH  14  15
ATOM     15  C   UNL     1     179.529 182.285 178.186  1.00  0.00    -0.000 C 
BRANCH  15  16
ATOM     16  C   UNL     1     178.595 181.100 178.491  1.00  0.00    -0.000 C 
BRANCH  16  17
ATOM     17  C   UNL     1     178.273 180.900 179.982  1.00  0.00    -0.003 C 
ATOM     18  C   UNL     1     178.558 182.141 180.828  1.00  0.00     0.004 C 
ENDBRANCH  16  17
ENDBRANCH  15  16
ENDBRANCH  14  15
ENDBRANCH  13  14
ENDBRANCH  12  13
ENDBRANCH  11  12
ENDBRANCH   1  11
TORSDOF 14
ENDMDL
MODEL 5
REMARK VINA RESULT:     0.013      3.403      5.507
REMARK INTER + INTRA:          -3.082
REMARK INTER:                   0.000
REMARK INTRA:                  -3.082
REMARK UNBOUND:                -3.106
REMARK SMILES CCCCCCCCCCCCCCCC(=O)[O-]
REMARK SMILES IDX 9 1 10 2 11 3 12 4 13 5 14 6 15 7 16 8 17 9 18 10 8 11 7 12
REMARK SMILES IDX 6 13 5 14 4 15 3 16 2 17 1 18
REMARK H PARENT
REMARK Flexibility Score: inf
ROOT
ATOM      1  C   UNL     1     180.513 180.520 179.974  1.00  0.00     0.000 C 
ENDROOT
BRANCH   1   2
ATOM      2  C   UNL     1     181.524 180.318 178.836  1.00  0.00     0.000 C 
BRANCH   2   3
ATOM      3  C   UNL     1     182.806 179.653 179.353  1.00  0.00     0.000 C 
BRANCH   3   4
ATOM      4  C   UNL     1     182.954 178.232 178.794  1.00  0.00     0.000 C 
BRANCH   4   5
ATOM      5  C   UNL     1     183.560 177.289 179.844  1.00  0.00     0.000 C 
BRANCH   5   6
ATOM      6  C   UNL     1     184.085 178.035 181.080  1.00  0.00     0.006 C 
BRANCH   6   7
ATOM      7  C   UNL     1     183.702 177.342 182.395  1.00  0.00     0.053 C 
BRANCH   7   8
ATOM      8  C   UNL     1     183.871 178.281 183.547  1.00  0.00     0.041 C 
ATOM      9  O   UNL     1     184.009 179.516 183.344  1.00  0.00    -0.550 OA
ATOM     10  O   UNL     1     183.824 177.799 184.849  1.00  0.00    -0.550 OA
ENDBRANCH   7   8
ENDBRANCH   6   7
ENDBRANCH   5   6
ENDBRANCH   4   5
ENDBRANCH   3   4
ENDBRANCH   2   3
ENDBRANCH   1   2
BRANCH   1  11
ATOM     11  C   UNL     1     181.138 180.330 181.368  1.00  0.00     0.000 C 
BRANCH  11  12
ATOM     12  C   UNL     1     180.479 179.237 182.232  1.00  0.00    -0.000 C 
BRANCH  12  13
ATOM     13  C   UNL     1     179.574 178.250 181.466  1.00  0.00    -0.000 C 
BRANCH  13  14
ATOM     14  C   UNL     1     180.170 176.845 181.272  1.00  0.00    -0.000 C 
BRANCH  14  15
ATOM     15  C   UNL     1     179.954 176.299 179.850  1.00  0.00    -0.000 C 
BRANCH  15  16
ATOM     16  C   UNL     1     179.080 177.223 178.983  1.00  0.00    -0.000 C 
BRANCH  16  17
ATOM     17  C   UNL     1     179.565 177.393 177.532  1.00  0.00    -0.003 C 
ATOM     18  C   UNL     1     178.918 178.581 176.820  1.00  0.00     0.004 C 
ENDBRANCH  16  17
ENDBRANCH  15  16
ENDBRANCH  14  15
ENDBRANCH  13  14
ENDBRANCH  12  13
ENDBRANCH  11  12
ENDBRANCH   1  11
TORSDOF 14
ENDMDL
MODEL 6
REMARK VINA RESULT:     0.014      6.549      8.496
REMARK INTER + INTRA:          -3.081
REMARK INTER:                   0.000
REMARK INTRA:                  -3.081
REMARK UNBOUND:                -3.106
REMARK SMILES CCCCCCCCCCCCCCCC(=O)[O-]
REMARK SMILES IDX 9 1 10 2 11 3 12 4 13 5 14 6 15 7 16 8 17 9 18 10 8 11 7 12
REMARK SMILES IDX 6 13 5 14 4 15 3 16 2 17 1 18
REMARK H PARENT
REMARK Flexibility Score: inf
ROOT
ATOM      1  C   UNL     1     176.236 175.254 173.480  1.00  0.00     0.000 C 
ENDROOT
BRANCH   1   2
ATOM      2  C   UNL     1     177.100 174.451 174.462  1.00  0.00     0.000 C 
BRANCH   2   3
ATOM      3  C   UNL     1     178.156 175.347 175.123  1.00  0.00     0.000 C 
BRANCH   3   4
ATOM      4  C   UNL     1     178.040 175.300 176.652  1.00  0.00     0.000 C 
BRANCH   4   5
ATOM      5  C   UNL     1     177.971 176.716 177.242  1.00  0.00     0.000 C 
BRANCH   5   6
ATOM      6  C   UNL     1     178.700 177.756 176.377  1.00  0.00     0.006 C 
BRANCH   6   7
ATOM      7  C   UNL     1     177.950 179.092 176.302  1.00  0.00     0.053 C 
BRANCH   7   8
ATOM      8  C   UNL     1     177.763 179.663 177.672  1.00  0.00     0.041 C 
ATOM      9  O   UNL     1     176.605 179.857 178.125  1.00  0.00    -0.550 OA
ATOM     10  O   UNL     1     178.869 179.933 178.468  1.00  0.00    -0.550 OA
ENDBRANCH   7   8
ENDBRANCH   6   7
ENDBRANCH   5   6
ENDBRANCH   4   5
ENDBRANCH   3   4
ENDBRANCH   2   3
ENDBRANCH   1   2
BRANCH   1  11
ATOM     11  C   UNL     1     176.665 176.729 173.374  1.00  0.00     0.000 C 
BRANCH  11  12
ATOM     12  C   UNL     1     175.591 177.751 173.795  1.00  0.00    -0.000 C 
BRANCH  12  13
ATOM     13  C   UNL     1     174.475 177.194 174.702  1.00  0.00    -0.000 C 
BRANCH  13  14
ATOM     14  C   UNL     1     174.533 177.670 176.164  1.00  0.00    -0.000 C 
BRANCH  14  15
ATOM     15  C   UNL     1     174.336 176.525 177.171  1.00  0.00    -0.000 C 
BRANCH  15  16
ATOM     16  C   UNL     1     174.024 175.180 176.491  1.00  0.00    -0.000 C 
BRANCH  16  17
ATOM     17  C   UNL     1     174.607 173.947 177.204  1.00  0.00    -0.003 C 
ATOM     18  C   UNL     1     175.061 174.241 178.634  1.00  0.00     0.004 C 
ENDBRANCH  16  17
ENDBRANCH  15  16
ENDBRANCH  14  15
ENDBRANCH  13  14
ENDBRANCH  12  13
ENDBRANCH  11  12
ENDBRANCH   1  11
TORSDOF 14
ENDMDL
MODEL 7
REMARK VINA RESULT:     0.016      3.626      5.325
REMARK INTER + INTRA:          -3.077
REMARK INTER:                   0.000
REMARK INTRA:                  -3.077
REMARK UNBOUND:                -3.106
REMARK SMILES CCCCCCCCCCCCCCCC(=O)[O-]
REMARK SMILES IDX 9 1 10 2 11 3 12 4 13 5 14 6 15 7 16 8 17 9 18 10 8 11 7 12
REMARK SMILES IDX 6 13 5 14 4 15 3 16 2 17 1 18
REMARK H PARENT
REMARK Flexibility Score: inf
ROOT
ATOM      1  C   UNL     1     182.010 182.755 180.640  1.00  0.00     0.000 C 
ENDROOT
BRANCH   1   2
ATOM      2  C   UNL     1     181.976 183.959 181.593  1.00  0.00     0.000 C 
BRANCH   2   3
ATOM      3  C   UNL     1     183.396 184.404 181.966  1.00  0.00     0.000 C 
BRANCH   3   4
ATOM      4  C   UNL     1     183.718 184.052 183.424  1.00  0.00     0.000 C 
BRANCH   4   5
ATOM      5  C   UNL     1     185.192 183.647 183.579  1.00  0.00     0.000 C 
BRANCH   5   6
ATOM      6  C   UNL     1     186.011 183.890 182.302  1.00  0.00     0.006 C 
BRANCH   6   7
ATOM      7  C   UNL     1     186.935 182.713 181.960  1.00  0.00     0.053 C 
BRANCH   7   8
ATOM      8  C   UNL     1     187.350 182.777 180.525  1.00  0.00     0.041 C 
ATOM      9  O   UNL     1     188.197 181.961 180.073  1.00  0.00    -0.550 OA
ATOM     10  O   UNL     1     186.764 183.703 179.672  1.00  0.00    -0.550 OA
ENDBRANCH   7   8
ENDBRANCH   6   7
ENDBRANCH   5   6
ENDBRANCH   4   5
ENDBRANCH   3   4
ENDBRANCH   2   3
ENDBRANCH   1   2
BRANCH   1  11
ATOM     11  C   UNL     1     183.384 182.560 179.974  1.00  0.00     0.000 C 
BRANCH  11  12
ATOM     12  C   UNL     1     184.013 181.167 180.176  1.00  0.00    -0.000 C 
BRANCH  12  13
ATOM     13  C   UNL     1     183.386 180.320 181.302  1.00  0.00    -0.000 C 
BRANCH  13  14
ATOM     14  C   UNL     1     184.230 180.222 182.584  1.00  0.00    -0.000 C 
BRANCH  14  15
ATOM     15  C   UNL     1     183.390 180.373 183.863  1.00  0.00    -0.000 C 
BRANCH  15  16
ATOM     16  C   UNL     1     181.879 180.442 183.580  1.00  0.00    -0.000 C 
BRANCH  16  17
ATOM     17  C   UNL     1     181.129 181.547 184.346  1.00  0.00    -0.003 C 
ATOM     18  C   UNL     1     179.768 181.881 183.736  1.00  0.00     0.004 C 
ENDBRANCH  16  17
ENDBRANCH  15  16
ENDBRANCH  14  15
ENDBRANCH  13  14
ENDBRANCH  12  13
ENDBRANCH  11  12
ENDBRANCH   1  11
TORSDOF 14
ENDMDL
MODEL 8
REMARK VINA RESULT:     0.018      3.726      5.789
REMARK INTER + INTRA:          -3.074
REMARK INTER:                   0.000
REMARK INTRA:                  -3.074
REMARK UNBOUND:                -3.106
REMARK SMILES CCCCCCCCCCCCCCCC(=O)[O-]
REMARK SMILES IDX 9 1 10 2 11 3 12 4 13 5 14 6 15 7 16 8 17 9 18 10 8 11 7 12
REMARK SMILES IDX 6 13 5 14 4 15 3 16 2 17 1 18
REMARK H PARENT
REMARK Flexibility Score: inf
ROOT
ATOM      1  C   UNL     1     179.211 184.255 181.308  1.00  0.00     0.000 C 
ENDROOT
BRANCH   1   2
ATOM      2  C   UNL     1     179.988 183.899 182.584  1.00  0.00     0.000 C 
BRANCH   2   3
ATOM      3  C   UNL     1     181.359 183.301 182.242  1.00  0.00     0.000 C 
BRANCH   3   4
ATOM      4  C   UNL     1     182.493 184.211 182.731  1.00  0.00     0.000 C 
BRANCH   4   5
ATOM      5  C   UNL     1     183.644 184.249 181.715  1.00  0.00     0.000 C 
BRANCH   5   6
ATOM      6  C   UNL     1     183.537 183.141 180.656  1.00  0.00     0.006 C 
BRANCH   6   7
ATOM      7  C   UNL     1     183.782 183.660 179.232  1.00  0.00     0.053 C 
BRANCH   7   8
ATOM      8  C   UNL     1     185.100 184.364 179.153  1.00  0.00     0.041 C 
ATOM      9  O   UNL     1     186.173 183.718 179.290  1.00  0.00    -0.550 OA
ATOM     10  O   UNL     1     185.146 185.724 178.878  1.00  0.00    -0.550 OA
ENDBRANCH   7   8
ENDBRANCH   6   7
ENDBRANCH   5   6
ENDBRANCH   4   5
ENDBRANCH   3   4
ENDBRANCH   2   3
ENDBRANCH   1   2
BRANCH   1  11
ATOM     11  C   UNL     1     179.877 183.710 180.032  1.00  0.00     0.000 C 
BRANCH  11  12
ATOM     12  C   UNL     1     180.256 184.779 178.989  1.00  0.00    -0.000 C 
BRANCH  12  13
ATOM     13  C   UNL     1     180.354 186.220 179.531  1.00  0.00    -0.000 C 
BRANCH  13  14
ATOM     14  C   UNL     1     181.789 186.751 179.699  1.00  0.00    -0.000 C 
BRANCH  14  15
ATOM     15  C   UNL     1     181.993 187.502 181.025  1.00  0.00    -0.000 C 
BRANCH  15  16
ATOM     16  C   UNL     1     180.696 187.632 181.843  1.00  0.00    -0.000 C 
BRANCH  16  17
ATOM     17  C   UNL     1     180.875 187.475 183.364  1.00  0.00    -0.003 C 
ATOM     18  C   UNL     1     179.554 187.262 184.104  1.00  0.00     0.004 C 
ENDBRANCH  16  17
ENDBRANCH  15  16
ENDBRANCH  14  15
ENDBRANCH  13  14
ENDBRANCH  12  13
ENDBRANCH  11  12
ENDBRANCH   1  11
TORSDOF 14
ENDMDL
MODEL 9
REMARK VINA RESULT:     0.018      4.413      6.893
REMARK INTER + INTRA:          -3.073
REMARK INTER:                   0.000
REMARK INTRA:                  -3.073
REMARK UNBOUND:                -3.106
REMARK SMILES CCCCCCCCCCCCCCCC(=O)[O-]
REMARK SMILES IDX 9 1 10 2 11 3 12 4 13 5 14 6 15 7 16 8 17 9 18 10 8 11 7 12
REMARK SMILES IDX 6 13 5 14 4 15 3 16 2 17 1 18
REMARK H PARENT
REMARK Flexibility Score: inf
ROOT
ATOM      1  C   UNL     1     178.909 179.667 186.720  1.00  0.00     0.000 C 
ENDROOT
BRANCH   1   2
ATOM      2  C   UNL     1     178.082 180.771 186.047  1.00  0.00     0.000 C 
BRANCH   2   3
ATOM      3  C   UNL     1     176.695 180.251 185.646  1.00  0.00     0.000 C 
BRANCH   3   4
ATOM      4  C   UNL     1     176.502 180.315 184.126  1.00  0.00     0.000 C 
BRANCH   4   5
ATOM      5  C   UNL     1     175.725 179.091 183.619  1.00  0.00     0.000 C 
BRANCH   5   6
ATOM      6  C   UNL     1     175.069 178.292 184.756  1.00  0.00     0.006 C 
BRANCH   6   7
ATOM      7  C   UNL     1     175.286 176.779 184.617  1.00  0.00     0.053 C 
BRANCH   7   8
ATOM      8  C   UNL     1     175.112 176.104 185.940  1.00  0.00     0.041 C 
ATOM      9  O   UNL     1     175.245 174.855 186.036  1.00  0.00    -0.550 OA
ATOM     10  O   UNL     1     174.854 176.858 187.077  1.00  0.00    -0.550 OA
ENDBRANCH   7   8
ENDBRANCH   6   7
ENDBRANCH   5   6
ENDBRANCH   4   5
ENDBRANCH   3   4
ENDBRANCH   2   3
ENDBRANCH   1   2
BRANCH   1  11
ATOM     11  C   UNL     1     178.096 178.385 186.977  1.00  0.00     0.000 C 
BRANCH  11  12
ATOM     12  C   UNL     1     178.650 177.116 186.300  1.00  0.00    -0.000 C 
BRANCH  12  13
ATOM     13  C   UNL     1     179.559 177.367 185.079  1.00  0.00    -0.000 C 
BRANCH  13  14
ATOM     14  C   UNL     1     178.885 177.142 183.714  1.00  0.00    -0.000 C 
BRANCH  14  15
ATOM     15  C   UNL     1     179.237 178.234 182.691  1.00  0.00    -0.000 C 
BRANCH  15  16
ATOM     16  C   UNL     1     180.204 179.291 183.253  1.00  0.00    -0.000 C 
BRANCH  16  17
ATOM     17  C   UNL     1     179.935 180.729 182.775  1.00  0.00    -0.003 C 
ATOM     18  C   UNL     1     180.690 181.781 183.589  1.00  0.00     0.004 C 
ENDBRANCH  16  17
ENDBRANCH  15  16
ENDBRANCH  14  15
ENDBRANCH  13  14
ENDBRANCH  12  13
ENDBRANCH  11  12
ENDBRANCH   1  11
TORSDOF 14
ENDMDL
