MODEL 1
REMARK VINA RESULT:    -2.714      0.000      0.000
REMARK INTER + INTRA:          -2.952
REMARK INTER:                  -2.952
REMARK INTRA:                   0.000
REMARK UNBOUND:                 0.000
REMARK SMILES Oc1cccc(O)c1O
REMARK SMILES IDX 4 1 5 2 6 3 8 4 2 5 3 6 7 7 1 9 9 11
REMARK H PARENT 7 8 1 10 9 12
REMARK Flexibility Score: inf
ROOT
ATOM      1  C   UNL     1      10.902   2.223  18.838  1.00  0.00     0.008 A 
ATOM      2  C   UNL     1      10.130   1.203  19.400  1.00  0.00     0.050 A 
ATOM      3  C   UNL     1       9.756   0.096  18.627  1.00  0.00     0.161 A 
ATOM      4  C   UNL     1      10.157   0.011  17.284  1.00  0.00     0.200 A 
ATOM      5  C   UNL     1      10.934   1.039  16.720  1.00  0.00     0.161 A 
ATOM      6  C   UNL     1      11.303   2.143  17.502  1.00  0.00     0.050 A 
ENDROOT
BRANCH   3   7
ATOM      7  O   UNL     1       8.986  -0.924  19.183  1.00  0.00    -0.504 OA
ATOM      8  H   UNL     1       9.137  -1.244  20.133  1.00  0.00     0.293 HD
ENDBRANCH   3   7
BRANCH   5   9
ATOM      9  O   UNL     1      11.334   0.960  15.387  1.00  0.00    -0.504 OA
ATOM     10  H   UNL     1      12.260   1.252  15.093  1.00  0.00     0.293 HD
ENDBRANCH   5   9
BRANCH   4  11
ATOM     11  O   UNL     1       9.776  -1.098  16.529  1.00  0.00    -0.502 OA
ATOM     12  H   UNL     1       9.776  -2.036  16.911  1.00  0.00     0.293 HD
ENDBRANCH   4  11
TORSDOF 3
ENDMDL
MODEL 2
REMARK VINA RESULT:    -2.702      0.064      2.799
REMARK INTER + INTRA:          -2.938
REMARK INTER:                  -2.938
REMARK INTRA:                   0.000
REMARK UNBOUND:                 0.000
REMARK SMILES Oc1cccc(O)c1O
REMARK SMILES IDX 4 1 5 2 6 3 8 4 2 5 3 6 7 7 1 9 9 11
REMARK H PARENT 7 8 1 10 9 12
REMARK Flexibility Score: inf
ROOT
ATOM      1  C   UNL     1      10.886   2.177  18.816  1.00  0.00     0.008 A 
ATOM      2  C   UNL     1      11.294   2.112  17.482  1.00  0.00     0.050 A 
ATOM      3  C   UNL     1      10.934   1.014  16.689  1.00  0.00     0.161 A 
ATOM      4  C   UNL     1      10.161  -0.022  17.235  1.00  0.00     0.200 A 
ATOM      5  C   UNL     1       9.749   0.046  18.579  1.00  0.00     0.161 A 
ATOM      6  C   UNL     1      10.116   1.149  19.364  1.00  0.00     0.050 A 
ENDROOT
BRANCH   3   7
ATOM      7  O   UNL     1      11.340   0.944  15.357  1.00  0.00    -0.504 OA
ATOM      8  H   UNL     1      11.273   0.083  14.827  1.00  0.00     0.293 HD
ENDBRANCH   3   7
BRANCH   5   9
ATOM      9  O   UNL     1       8.981  -0.980  19.127  1.00  0.00    -0.504 OA
ATOM     10  H   UNL     1       9.350  -1.917  19.238  1.00  0.00     0.293 HD
ENDBRANCH   5   9
BRANCH   4  11
ATOM     11  O   UNL     1       9.810  -1.107  16.432  1.00  0.00    -0.502 OA
ATOM     12  H   UNL     1       8.858  -1.264  16.125  1.00  0.00     0.293 HD
ENDBRANCH   4  11
TORSDOF 3
ENDMDL
MODEL 3
REMARK VINA RESULT:    -2.662      1.309      2.702
REMARK INTER + INTRA:          -2.896
REMARK INTER:                  -2.896
REMARK INTRA:                   0.000
REMARK UNBOUND:                 0.000
REMARK SMILES Oc1cccc(O)c1O
REMARK SMILES IDX 4 1 5 2 6 3 8 4 2 5 3 6 7 7 1 9 9 11
REMARK H PARENT 7 8 1 10 9 12
REMARK Flexibility Score: inf
ROOT
ATOM      1  C   UNL     1      11.754   1.530  16.331  1.00  0.00     0.008 A 
ATOM      2  C   UNL     1      10.974   0.466  15.871  1.00  0.00     0.050 A 
ATOM      3  C   UNL     1      10.018  -0.121  16.710  1.00  0.00     0.161 A 
ATOM      4  C   UNL     1       9.842   0.360  18.017  1.00  0.00     0.200 A 
ATOM      5  C   UNL     1      10.628   1.432  18.479  1.00  0.00     0.161 A 
ATOM      6  C   UNL     1      11.582   2.013  17.631  1.00  0.00     0.050 A 
ENDROOT
BRANCH   3   7
ATOM      7  O   UNL     1       9.238  -1.183  16.255  1.00  0.00    -0.504 OA
ATOM      8  H   UNL     1       9.641  -2.094  16.069  1.00  0.00     0.293 HD
ENDBRANCH   3   7
BRANCH   5   9
ATOM      9  O   UNL     1      10.457   1.915  19.776  1.00  0.00    -0.504 OA
ATOM     10  H   UNL     1      10.321   1.288  20.561  1.00  0.00     0.293 HD
ENDBRANCH   5   9
BRANCH   4  11
ATOM     11  O   UNL     1       8.886  -0.235  18.839  1.00  0.00    -0.502 OA
ATOM     12  H   UNL     1       7.929  -0.377  18.537  1.00  0.00     0.293 HD
ENDBRANCH   4  11
TORSDOF 3
ENDMDL
MODEL 4
REMARK VINA RESULT:    -2.658      1.297      2.379
REMARK INTER + INTRA:          -2.891
REMARK INTER:                  -2.891
REMARK INTRA:                   0.000
REMARK UNBOUND:                 0.000
REMARK SMILES Oc1cccc(O)c1O
REMARK SMILES IDX 4 1 5 2 6 3 8 4 2 5 3 6 7 7 1 9 9 11
REMARK H PARENT 7 8 1 10 9 12
REMARK Flexibility Score: inf
ROOT
ATOM      1  C   UNL     1      11.747   1.569  16.369  1.00  0.00     0.008 A 
ATOM      2  C   UNL     1      11.569   2.034  17.674  1.00  0.00     0.050 A 
ATOM      3  C   UNL     1      10.617   1.436  18.510  1.00  0.00     0.161 A 
ATOM      4  C   UNL     1       9.841   0.368  18.037  1.00  0.00     0.200 A 
ATOM      5  C   UNL     1      10.021  -0.100  16.722  1.00  0.00     0.161 A 
ATOM      6  C   UNL     1      10.976   0.506  15.893  1.00  0.00     0.050 A 
ENDROOT
BRANCH   3   7
ATOM      7  O   UNL     1      10.436   1.897  19.814  1.00  0.00    -0.504 OA
ATOM      8  H   UNL     1      11.068   1.634  20.561  1.00  0.00     0.293 HD
ENDBRANCH   3   7
BRANCH   5   9
ATOM      9  O   UNL     1       9.252  -1.161  16.246  1.00  0.00    -0.504 OA
ATOM     10  H   UNL     1       9.655  -1.890  15.669  1.00  0.00     0.293 HD
ENDBRANCH   5   9
BRANCH   4  11
ATOM     11  O   UNL     1       8.898  -0.217  18.883  1.00  0.00    -0.502 OA
ATOM     12  H   UNL     1       7.908  -0.218  18.667  1.00  0.00     0.293 HD
ENDBRANCH   4  11
TORSDOF 3
ENDMDL
MODEL 5
REMARK VINA RESULT:    -2.101      1.284      2.469
REMARK INTER + INTRA:          -2.285
REMARK INTER:                  -2.285
REMARK INTRA:                   0.000
REMARK UNBOUND:                 0.000
REMARK SMILES Oc1cccc(O)c1O
REMARK SMILES IDX 4 1 5 2 6 3 8 4 2 5 3 6 7 7 1 9 9 11
REMARK H PARENT 7 8 1 10 9 12
REMARK Flexibility Score: inf
ROOT
ATOM      1  C   UNL     1       9.411   0.336  19.362  1.00  0.00     0.008 A 
ATOM      2  C   UNL     1       9.310  -0.481  18.234  1.00  0.00     0.050 A 
ATOM      3  C   UNL     1      10.047  -0.182  17.080  1.00  0.00     0.161 A 
ATOM      4  C   UNL     1      10.890   0.939  17.058  1.00  0.00     0.200 A 
ATOM      5  C   UNL     1      10.992   1.761  18.196  1.00  0.00     0.161 A 
ATOM      6  C   UNL     1      10.249   1.454  19.345  1.00  0.00     0.050 A 
ENDROOT
BRANCH   3   7
ATOM      7  O   UNL     1       9.949  -0.994  15.951  1.00  0.00    -0.504 OA
ATOM      8  H   UNL     1       9.905  -2.003  16.027  1.00  0.00     0.293 HD
ENDBRANCH   3   7
BRANCH   5   9
ATOM      9  O   UNL     1      11.828   2.877  18.179  1.00  0.00    -0.504 OA
ATOM     10  H   UNL     1      11.712   3.616  17.495  1.00  0.00     0.293 HD
ENDBRANCH   5   9
BRANCH   4  11
ATOM     11  O   UNL     1      11.618   1.222  15.902  1.00  0.00    -0.502 OA
ATOM     12  H   UNL     1      11.938   0.494  15.275  1.00  0.00     0.293 HD
ENDBRANCH   4  11
TORSDOF 3
ENDMDL
MODEL 6
REMARK VINA RESULT:    -2.065      1.301      2.682
REMARK INTER + INTRA:          -2.247
REMARK INTER:                  -2.247
REMARK INTRA:                   0.000
REMARK UNBOUND:                 0.000
REMARK SMILES Oc1cccc(O)c1O
REMARK SMILES IDX 4 1 5 2 6 3 8 4 2 5 3 6 7 7 1 9 9 11
REMARK H PARENT 7 8 1 10 9 12
REMARK Flexibility Score: inf
ROOT
ATOM      1  C   UNL     1       9.377   0.319  19.396  1.00  0.00     0.008 A 
ATOM      2  C   UNL     1      10.218   1.434  19.394  1.00  0.00     0.050 A 
ATOM      3  C   UNL     1      10.970   1.747  18.253  1.00  0.00     0.161 A 
ATOM      4  C   UNL     1      10.877   0.938  17.110  1.00  0.00     0.200 A 
ATOM      5  C   UNL     1      10.029  -0.185  17.114  1.00  0.00     0.161 A 
ATOM      6  C   UNL     1       9.281  -0.489  18.261  1.00  0.00     0.050 A 
ENDROOT
BRANCH   3   7
ATOM      7  O   UNL     1      11.811   2.858  18.246  1.00  0.00    -0.504 OA
ATOM      8  H   UNL     1      11.500   3.760  18.587  1.00  0.00     0.293 HD
ENDBRANCH   3   7
BRANCH   5   9
ATOM      9  O   UNL     1       9.934  -0.992  15.981  1.00  0.00    -0.504 OA
ATOM     10  H   UNL     1       9.132  -1.592  15.824  1.00  0.00     0.293 HD
ENDBRANCH   5   9
BRANCH   4  11
ATOM     11  O   UNL     1      11.631   1.263  15.982  1.00  0.00    -0.502 OA
ATOM     12  H   UNL     1      12.398   1.923  16.020  1.00  0.00     0.293 HD
ENDBRANCH   4  11
TORSDOF 3
ENDMDL
MODEL 7
REMARK VINA RESULT:    -1.699     21.609     22.820
REMARK INTER + INTRA:          -1.848
REMARK INTER:                  -1.848
REMARK INTRA:                   0.000
REMARK UNBOUND:                 0.000
REMARK SMILES Oc1cccc(O)c1O
REMARK SMILES IDX 4 1 5 2 6 3 8 4 2 5 3 6 7 7 1 9 9 11
REMARK H PARENT 7 8 1 10 9 12
REMARK Flexibility Score: inf
ROOT
ATOM      1  C   UNL     1      -6.431 -10.125   3.604  1.00  0.00     0.008 A 
ATOM      2  C   UNL     1      -5.034 -10.124   3.596  1.00  0.00     0.050 A 
ATOM      3  C   UNL     1      -4.324  -9.750   4.744  1.00  0.00     0.161 A 
ATOM      4  C   UNL     1      -5.016  -9.377   5.907  1.00  0.00     0.200 A 
ATOM      5  C   UNL     1      -6.423  -9.379   5.913  1.00  0.00     0.161 A 
ATOM      6  C   UNL     1      -7.125  -9.754   4.758  1.00  0.00     0.050 A 
ENDROOT
BRANCH   3   7
ATOM      7  O   UNL     1      -2.930  -9.747   4.741  1.00  0.00    -0.504 OA
ATOM      8  H   UNL     1      -2.400  -9.026   5.216  1.00  0.00     0.293 HD
ENDBRANCH   3   7
BRANCH   5   9
ATOM      9  O   UNL     1      -7.117  -9.010   7.065  1.00  0.00    -0.504 OA
ATOM     10  H   UNL     1      -7.226  -8.037   7.329  1.00  0.00     0.293 HD
ENDBRANCH   5   9
BRANCH   4  11
ATOM     11  O   UNL     1      -4.295  -9.009   7.041  1.00  0.00    -0.502 OA
ATOM     12  H   UNL     1      -3.956  -8.065   7.181  1.00  0.00     0.293 HD
ENDBRANCH   4  11
TORSDOF 3
ENDMDL
MODEL 8
REMARK VINA RESULT:    -1.652     21.492     22.573
REMARK INTER + INTRA:          -1.797
REMARK INTER:                  -1.797
REMARK INTRA:                   0.000
REMARK UNBOUND:                 0.000
REMARK SMILES Oc1cccc(O)c1O
REMARK SMILES IDX 4 1 5 2 6 3 8 4 2 5 3 6 7 7 1 9 9 11
REMARK H PARENT 7 8 1 10 9 12
REMARK Flexibility Score: inf
ROOT
ATOM      1  C   UNL     1      -6.493 -10.066   3.909  1.00  0.00     0.008 A 
ATOM      2  C   UNL     1      -7.125  -9.788   5.123  1.00  0.00     0.050 A 
ATOM      3  C   UNL     1      -6.363  -9.559   6.277  1.00  0.00     0.161 A 
ATOM      4  C   UNL     1      -4.962  -9.607   6.213  1.00  0.00     0.200 A 
ATOM      5  C   UNL     1      -4.327  -9.888   4.988  1.00  0.00     0.161 A 
ATOM      6  C   UNL     1      -5.099 -10.116   3.840  1.00  0.00     0.050 A 
ENDROOT
BRANCH   3   7
ATOM      7  O   UNL     1      -6.989  -9.281   7.491  1.00  0.00    -0.504 OA
ATOM      8  H   UNL     1      -7.800  -8.677   7.542  1.00  0.00     0.293 HD
ENDBRANCH   3   7
BRANCH   5   9
ATOM      9  O   UNL     1      -2.936  -9.938   4.918  1.00  0.00    -0.504 OA
ATOM     10  H   UNL     1      -2.354  -9.398   5.549  1.00  0.00     0.293 HD
ENDBRANCH   5   9
BRANCH   4  11
ATOM     11  O   UNL     1      -4.218  -9.376   7.369  1.00  0.00    -0.502 OA
ATOM     12  H   UNL     1      -4.581  -9.581   8.292  1.00  0.00     0.293 HD
ENDBRANCH   4  11
TORSDOF 3
ENDMDL
