MODEL 1
REMARK VINA RESULT:    -2.550      0.000      0.000
REMARK INTER + INTRA:          -5.773
REMARK INTER:                  -4.785
REMARK INTRA:                  -0.987
REMARK UNBOUND:                -0.987
REMARK SMILES O=C([O-])CCCCCCCCCCCCCCC(=O)[O-]
REMARK SMILES IDX 10 1 9 2 8 3 7 4 6 5 5 6 4 7 2 8 1 9 3 10 11 11 12 12 13 13
REMARK SMILES IDX 14 14 15 15 16 16 17 17 18 18 19 19 20 20
REMARK H PARENT
REMARK Flexibility Score: inf
ROOT
ATOM      1  C   UNL     1      -9.138  16.382 -12.998  1.00  0.00     0.000 C 
ENDROOT
BRANCH   1   2
ATOM      2  C   UNL     1      -8.287  16.649 -11.745  1.00  0.00     0.000 C 
BRANCH   2   3
ATOM      3  C   UNL     1      -7.122  15.654 -11.587  1.00  0.00     0.000 C 
BRANCH   3   4
ATOM      4  C   UNL     1      -7.530  14.169 -11.555  1.00  0.00     0.000 C 
BRANCH   4   5
ATOM      5  C   UNL     1      -6.778  13.318 -12.592  1.00  0.00     0.000 C 
BRANCH   5   6
ATOM      6  C   UNL     1      -7.702  12.800 -13.713  1.00  0.00     0.006 C 
BRANCH   6   7
ATOM      7  C   UNL     1      -7.041  12.791 -15.100  1.00  0.00     0.053 C 
BRANCH   7   8
ATOM      8  C   UNL     1      -5.547  12.846 -15.021  1.00  0.00     0.041 C 
ATOM      9  O   UNL     1      -4.875  11.783 -14.977  1.00  0.00    -0.550 OA
ATOM     10  O   UNL     1      -4.898  14.074 -14.970  1.00  0.00    -0.550 OA
ENDBRANCH   7   8
ENDBRANCH   6   7
ENDBRANCH   5   6
ENDBRANCH   4   5
ENDBRANCH   3   4
ENDBRANCH   2   3
ENDBRANCH   1   2
BRANCH   1  11
ATOM     11  C   UNL     1      -8.607  17.121 -14.238  1.00  0.00     0.000 C 
BRANCH  11  12
ATOM     12  C   UNL     1      -7.673  16.249 -15.092  1.00  0.00     0.000 C 
BRANCH  12  13
ATOM     13  C   UNL     1      -6.255  16.834 -15.125  1.00  0.00     0.000 C 
BRANCH  13  14
ATOM     14  C   UNL     1      -6.240  18.274 -14.589  1.00  0.00     0.000 C 
BRANCH  14  15
ATOM     15  C   UNL     1      -4.958  19.032 -14.966  1.00  0.00     0.000 C 
BRANCH  15  16
ATOM     16  C   UNL     1      -4.994  20.506 -14.540  1.00  0.00     0.006 C 
BRANCH  16  17
ATOM     17  C   UNL     1      -6.425  20.952 -14.224  1.00  0.00     0.053 C 
BRANCH  17  18
ATOM     18  C   UNL     1      -6.764  20.656 -12.797  1.00  0.00     0.041 C 
ATOM     19  O   UNL     1      -7.916  20.252 -12.489  1.00  0.00    -0.550 OA
ATOM     20  O   UNL     1      -5.822  20.876 -11.800  1.00  0.00    -0.550 OA
ENDBRANCH  17  18
ENDBRANCH  16  17
ENDBRANCH  15  16
ENDBRANCH  14  15
ENDBRANCH  13  14
ENDBRANCH  12  13
ENDBRANCH  11  12
ENDBRANCH   1  11
TORSDOF 15
ENDMDL
MODEL 2
REMARK VINA RESULT:    -1.998      2.237      6.076
REMARK INTER + INTRA:          -4.737
REMARK INTER:                  -3.854
REMARK INTRA:                  -0.883
REMARK UNBOUND:                -0.987
REMARK SMILES O=C([O-])CCCCCCCCCCCCCCC(=O)[O-]
REMARK SMILES IDX 10 1 9 2 8 3 7 4 6 5 5 6 4 7 2 8 1 9 3 10 11 11 12 12 13 13
REMARK SMILES IDX 14 14 15 15 16 16 17 17 18 18 19 19 20 20
REMARK H PARENT
REMARK Flexibility Score: inf
ROOT
ATOM      1  C   UNL     1      -5.845  16.481 -14.512  1.00  0.00     0.000 C 
ENDROOT
BRANCH   1   2
ATOM      2  C   UNL     1      -5.114  17.640 -13.812  1.00  0.00     0.000 C 
BRANCH   2   3
ATOM      3  C   UNL     1      -4.875  18.845 -14.740  1.00  0.00     0.000 C 
BRANCH   3   4
ATOM      4  C   UNL     1      -4.992  20.224 -14.064  1.00  0.00     0.000 C 
BRANCH   4   5
ATOM      5  C   UNL     1      -6.248  21.000 -14.497  1.00  0.00     0.000 C 
BRANCH   5   6
ATOM      6  C   UNL     1      -7.366  20.071 -15.012  1.00  0.00     0.006 C 
BRANCH   6   7
ATOM      7  C   UNL     1      -8.533  19.907 -14.026  1.00  0.00     0.053 C 
BRANCH   7   8
ATOM      8  C   UNL     1      -8.598  18.531 -13.441  1.00  0.00     0.041 C 
ATOM      9  O   UNL     1      -8.312  18.343 -12.229  1.00  0.00    -0.550 OA
ATOM     10  O   UNL     1      -8.949  17.450 -14.241  1.00  0.00    -0.550 OA
ENDBRANCH   7   8
ENDBRANCH   6   7
ENDBRANCH   5   6
ENDBRANCH   4   5
ENDBRANCH   3   4
ENDBRANCH   2   3
ENDBRANCH   1   2
BRANCH   1  11
ATOM     11  C   UNL     1      -4.878  15.406 -15.034  1.00  0.00     0.000 C 
BRANCH  11  12
ATOM     12  C   UNL     1      -4.969  14.093 -14.242  1.00  0.00     0.000 C 
BRANCH  12  13
ATOM     13  C   UNL     1      -5.512  12.959 -15.121  1.00  0.00     0.000 C 
BRANCH  13  14
ATOM     14  C   UNL     1      -6.750  12.311 -14.482  1.00  0.00     0.000 C 
BRANCH  14  15
ATOM     15  C   UNL     1      -8.056  13.021 -14.873  1.00  0.00     0.000 C 
BRANCH  15  16
ATOM     16  C   UNL     1      -8.463  14.107 -13.867  1.00  0.00     0.006 C 
BRANCH  16  17
ATOM     17  C   UNL     1      -7.660  13.983 -12.569  1.00  0.00     0.053 C 
BRANCH  17  18
ATOM     18  C   UNL     1      -7.913  15.160 -11.681  1.00  0.00     0.041 C 
ATOM     19  O   UNL     1      -6.980  15.648 -10.991  1.00  0.00    -0.550 OA
ATOM     20  O   UNL     1      -9.194  15.687 -11.575  1.00  0.00    -0.550 OA
ENDBRANCH  17  18
ENDBRANCH  16  17
ENDBRANCH  15  16
ENDBRANCH  14  15
ENDBRANCH  13  14
ENDBRANCH  12  13
ENDBRANCH  11  12
ENDBRANCH   1  11
TORSDOF 15
ENDMDL
MODEL 3
REMARK VINA RESULT:    -1.672      1.715      2.172
REMARK INTER + INTRA:          -4.125
REMARK INTER:                  -3.073
REMARK INTRA:                  -1.052
REMARK UNBOUND:                -0.987
REMARK SMILES O=C([O-])CCCCCCCCCCCCCCC(=O)[O-]
REMARK SMILES IDX 10 1 9 2 8 3 7 4 6 5 5 6 4 7 2 8 1 9 3 10 11 11 12 12 13 13
REMARK SMILES IDX 14 14 15 15 16 16 17 17 18 18 19 19 20 20
REMARK H PARENT
REMARK Flexibility Score: inf
ROOT
ATOM      1  C   UNL     1      -9.174  15.696 -11.478  1.00  0.00     0.000 C 
ENDROOT
BRANCH   1   2
ATOM      2  C   UNL     1      -7.701  15.254 -11.486  1.00  0.00     0.000 C 
BRANCH   2   3
ATOM      3  C   UNL     1      -7.518  13.784 -11.907  1.00  0.00     0.000 C 
BRANCH   3   4
ATOM      4  C   UNL     1      -6.175  13.461 -12.589  1.00  0.00     0.000 C 
BRANCH   4   5
ATOM      5  C   UNL     1      -5.833  14.435 -13.730  1.00  0.00     0.000 C 
BRANCH   5   6
ATOM      6  C   UNL     1      -6.149  13.849 -15.121  1.00  0.00     0.006 C 
BRANCH   6   7
ATOM      7  C   UNL     1      -7.265  12.792 -15.104  1.00  0.00     0.053 C 
BRANCH   7   8
ATOM      8  C   UNL     1      -8.630  13.403 -15.077  1.00  0.00     0.041 C 
ATOM      9  O   UNL     1      -9.653  12.669 -15.055  1.00  0.00    -0.550 OA
ATOM     10  O   UNL     1      -8.776  14.785 -15.103  1.00  0.00    -0.550 OA
ENDBRANCH   7   8
ENDBRANCH   6   7
ENDBRANCH   5   6
ENDBRANCH   4   5
ENDBRANCH   3   4
ENDBRANCH   2   3
ENDBRANCH   1   2
BRANCH   1  11
ATOM     11  C   UNL     1      -9.387  17.047 -12.180  1.00  0.00     0.000 C 
BRANCH  11  12
ATOM     12  C   UNL     1      -8.064  17.752 -12.518  1.00  0.00     0.000 C 
BRANCH  12  13
ATOM     13  C   UNL     1      -7.901  17.913 -14.035  1.00  0.00     0.000 C 
BRANCH  13  14
ATOM     14  C   UNL     1      -6.517  17.431 -14.495  1.00  0.00     0.000 C 
BRANCH  14  15
ATOM     15  C   UNL     1      -5.548  18.590 -14.772  1.00  0.00     0.000 C 
BRANCH  15  16
ATOM     16  C   UNL     1      -6.273  19.897 -15.125  1.00  0.00     0.006 C 
BRANCH  16  17
ATOM     17  C   UNL     1      -5.799  21.047 -14.231  1.00  0.00     0.053 C 
BRANCH  17  18
ATOM     18  C   UNL     1      -6.372  20.914 -12.856  1.00  0.00     0.041 C 
ATOM     19  O   UNL     1      -7.615  21.001 -12.675  1.00  0.00    -0.550 OA
ATOM     20  O   UNL     1      -5.528  20.745 -11.765  1.00  0.00    -0.550 OA
ENDBRANCH  17  18
ENDBRANCH  16  17
ENDBRANCH  15  16
ENDBRANCH  14  15
ENDBRANCH  13  14
ENDBRANCH  12  13
ENDBRANCH  11  12
ENDBRANCH   1  11
TORSDOF 15
ENDMDL
MODEL 4
REMARK VINA RESULT:    -1.459      1.644      6.416
REMARK INTER + INTRA:          -3.726
REMARK INTER:                  -2.710
REMARK INTRA:                  -1.017
REMARK UNBOUND:                -0.987
REMARK SMILES O=C([O-])CCCCCCCCCCCCCCC(=O)[O-]
REMARK SMILES IDX 10 1 9 2 8 3 7 4 6 5 5 6 4 7 2 8 1 9 3 10 11 11 12 12 13 13
REMARK SMILES IDX 14 14 15 15 16 16 17 17 18 18 19 19 20 20
REMARK H PARENT
REMARK Flexibility Score: inf
ROOT
ATOM      1  C   UNL     1      -8.615  16.394 -12.036  1.00  0.00     0.000 C 
ENDROOT
BRANCH   1   2
ATOM      2  C   UNL     1      -8.365  17.646 -12.895  1.00  0.00     0.000 C 
BRANCH   2   3
ATOM      3  C   UNL     1      -7.883  17.310 -14.318  1.00  0.00     0.000 C 
BRANCH   3   4
ATOM      4  C   UNL     1      -6.392  16.941 -14.434  1.00  0.00     0.000 C 
BRANCH   4   5
ATOM      5  C   UNL     1      -5.541  18.068 -15.044  1.00  0.00     0.000 C 
BRANCH   5   6
ATOM      6  C   UNL     1      -4.993  19.037 -13.976  1.00  0.00     0.006 C 
BRANCH   6   7
ATOM      7  C   UNL     1      -5.367  20.505 -14.229  1.00  0.00     0.053 C 
BRANCH   7   8
ATOM      8  C   UNL     1      -6.754  20.828 -13.770  1.00  0.00     0.041 C 
ATOM      9  O   UNL     1      -6.986  21.036 -12.550  1.00  0.00    -0.550 OA
ATOM     10  O   UNL     1      -7.798  20.875 -14.686  1.00  0.00    -0.550 OA
ENDBRANCH   7   8
ENDBRANCH   6   7
ENDBRANCH   5   6
ENDBRANCH   4   5
ENDBRANCH   3   4
ENDBRANCH   2   3
ENDBRANCH   1   2
BRANCH   1  11
ATOM     11  C   UNL     1      -7.358  15.520 -11.894  1.00  0.00     0.000 C 
BRANCH  11  12
ATOM     12  C   UNL     1      -7.651  14.168 -11.224  1.00  0.00     0.000 C 
BRANCH  12  13
ATOM     13  C   UNL     1      -6.818  13.049 -11.862  1.00  0.00     0.000 C 
BRANCH  13  14
ATOM     14  C   UNL     1      -5.724  13.626 -12.773  1.00  0.00     0.000 C 
BRANCH  14  15
ATOM     15  C   UNL     1      -5.228  12.614 -13.817  1.00  0.00     0.000 C 
BRANCH  15  16
ATOM     16  C   UNL     1      -6.031  12.671 -15.125  1.00  0.00     0.006 C 
BRANCH  16  17
ATOM     17  C   UNL     1      -7.001  13.857 -15.123  1.00  0.00     0.053 C 
BRANCH  17  18
ATOM     18  C   UNL     1      -8.399  13.390 -14.866  1.00  0.00     0.041 C 
ATOM     19  O   UNL     1      -9.286  14.209 -14.508  1.00  0.00    -0.550 OA
ATOM     20  O   UNL     1      -8.711  12.040 -14.971  1.00  0.00    -0.550 OA
ENDBRANCH  17  18
ENDBRANCH  16  17
ENDBRANCH  15  16
ENDBRANCH  14  15
ENDBRANCH  13  14
ENDBRANCH  12  13
ENDBRANCH  11  12
ENDBRANCH   1  11
TORSDOF 15
ENDMDL
MODEL 5
REMARK VINA RESULT:    -1.357      1.988      6.251
REMARK INTER + INTRA:          -3.533
REMARK INTER:                  -4.683
REMARK INTRA:                   1.149
REMARK UNBOUND:                -0.987
REMARK SMILES O=C([O-])CCCCCCCCCCCCCCC(=O)[O-]
REMARK SMILES IDX 10 1 9 2 8 3 7 4 6 5 5 6 4 7 2 8 1 9 3 10 11 11 12 12 13 13
REMARK SMILES IDX 14 14 15 15 16 16 17 17 18 18 19 19 20 20
REMARK H PARENT
REMARK Flexibility Score: inf
ROOT
ATOM      1  C   UNL     1      -5.881  15.068 -14.773  1.00  0.00     0.000 C 
ENDROOT
BRANCH   1   2
ATOM      2  C   UNL     1      -4.875  16.195 -15.064  1.00  0.00     0.000 C 
BRANCH   2   3
ATOM      3  C   UNL     1      -5.220  17.509 -14.339  1.00  0.00     0.000 C 
BRANCH   3   4
ATOM      4  C   UNL     1      -4.897  18.794 -15.124  1.00  0.00     0.000 C 
BRANCH   4   5
ATOM      5  C   UNL     1      -5.238  20.075 -14.343  1.00  0.00     0.000 C 
BRANCH   5   6
ATOM      6  C   UNL     1      -6.440  20.831 -14.945  1.00  0.00     0.006 C 
BRANCH   6   7
ATOM      7  C   UNL     1      -7.750  20.618 -14.172  1.00  0.00     0.053 C 
BRANCH   7   8
ATOM      8  C   UNL     1      -7.516  20.190 -12.757  1.00  0.00     0.041 C 
ATOM      9  O   UNL     1      -8.340  19.435 -12.178  1.00  0.00    -0.550 OA
ATOM     10  O   UNL     1      -6.398  20.648 -12.068  1.00  0.00    -0.550 OA
ENDBRANCH   7   8
ENDBRANCH   6   7
ENDBRANCH   5   6
ENDBRANCH   4   5
ENDBRANCH   3   4
ENDBRANCH   2   3
ENDBRANCH   1   2
BRANCH   1  11
ATOM     11  C   UNL     1      -5.237  13.674 -14.843  1.00  0.00     0.000 C 
BRANCH  11  12
ATOM     12  C   UNL     1      -5.635  12.778 -13.660  1.00  0.00     0.000 C 
BRANCH  12  13
ATOM     13  C   UNL     1      -7.158  12.615 -13.584  1.00  0.00     0.000 C 
BRANCH  13  14
ATOM     14  C   UNL     1      -7.775  12.528 -14.988  1.00  0.00     0.000 C 
BRANCH  14  15
ATOM     15  C   UNL     1      -9.060  13.359 -15.122  1.00  0.00     0.000 C 
BRANCH  15  16
ATOM     16  C   UNL     1      -9.350  14.206 -13.875  1.00  0.00     0.006 C 
BRANCH  16  17
ATOM     17  C   UNL     1      -8.353  15.362 -13.752  1.00  0.00     0.053 C 
BRANCH  17  18
ATOM     18  C   UNL     1      -8.365  15.920 -12.364  1.00  0.00     0.041 C 
ATOM     19  O   UNL     1      -9.368  16.554 -11.943  1.00  0.00    -0.550 OA
ATOM     20  O   UNL     1      -7.247  15.784 -11.551  1.00  0.00    -0.550 OA
ENDBRANCH  17  18
ENDBRANCH  16  17
ENDBRANCH  15  16
ENDBRANCH  14  15
ENDBRANCH  13  14
ENDBRANCH  12  13
ENDBRANCH  11  12
ENDBRANCH   1  11
TORSDOF 15
ENDMDL
MODEL 6
REMARK VINA RESULT:    -1.051      2.206      3.656
REMARK INTER + INTRA:          -2.960
REMARK INTER:                  -4.136
REMARK INTRA:                   1.176
REMARK UNBOUND:                -0.987
REMARK SMILES O=C([O-])CCCCCCCCCCCCCCC(=O)[O-]
REMARK SMILES IDX 10 1 9 2 8 3 7 4 6 5 5 6 4 7 2 8 1 9 3 10 11 11 12 12 13 13
REMARK SMILES IDX 14 14 15 15 16 16 17 17 18 18 19 19 20 20
REMARK H PARENT
REMARK Flexibility Score: inf
ROOT
ATOM      1  C   UNL     1      -5.982  15.649 -14.591  1.00  0.00     0.000 C 
ENDROOT
BRANCH   1   2
ATOM      2  C   UNL     1      -4.880  14.655 -14.996  1.00  0.00     0.000 C 
BRANCH   2   3
ATOM      3  C   UNL     1      -5.332  13.186 -14.897  1.00  0.00     0.000 C 
BRANCH   3   4
ATOM      4  C   UNL     1      -6.384  12.897 -13.810  1.00  0.00     0.000 C 
BRANCH   4   5
ATOM      5  C   UNL     1      -7.724  12.410 -14.388  1.00  0.00     0.000 C 
BRANCH   5   6
ATOM      6  C   UNL     1      -8.878  13.395 -14.110  1.00  0.00     0.006 C 
BRANCH   6   7
ATOM      7  C   UNL     1      -8.427  14.860 -14.013  1.00  0.00     0.053 C 
BRANCH   7   8
ATOM      8  C   UNL     1      -8.475  15.382 -12.611  1.00  0.00     0.041 C 
ATOM      9  O   UNL     1      -7.593  15.046 -11.779  1.00  0.00    -0.550 OA
ATOM     10  O   UNL     1      -9.511  16.221 -12.216  1.00  0.00    -0.550 OA
ENDBRANCH   7   8
ENDBRANCH   6   7
ENDBRANCH   5   6
ENDBRANCH   4   5
ENDBRANCH   3   4
ENDBRANCH   2   3
ENDBRANCH   1   2
BRANCH   1  11
ATOM     11  C   UNL     1      -5.719  17.066 -15.125  1.00  0.00     0.000 C 
BRANCH  11  12
ATOM     12  C   UNL     1      -5.134  18.002 -14.056  1.00  0.00     0.000 C 
BRANCH  12  13
ATOM     13  C   UNL     1      -4.875  19.400 -14.634  1.00  0.00     0.000 C 
BRANCH  13  14
ATOM     14  C   UNL     1      -5.088  20.486 -13.568  1.00  0.00     0.000 C 
BRANCH  14  15
ATOM     15  C   UNL     1      -6.504  21.080 -13.604  1.00  0.00     0.000 C 
BRANCH  15  16
ATOM     16  C   UNL     1      -7.418  20.501 -12.514  1.00  0.00     0.006 C 
BRANCH  16  17
ATOM     17  C   UNL     1      -8.048  19.181 -12.970  1.00  0.00     0.053 C 
BRANCH  17  18
ATOM     18  C   UNL     1      -8.499  19.279 -14.393  1.00  0.00     0.041 C 
ATOM     19  O   UNL     1      -8.568  20.401 -14.961  1.00  0.00    -0.550 OA
ATOM     20  O   UNL     1      -8.894  18.137 -15.077  1.00  0.00    -0.550 OA
ENDBRANCH  17  18
ENDBRANCH  16  17
ENDBRANCH  15  16
ENDBRANCH  14  15
ENDBRANCH  13  14
ENDBRANCH  12  13
ENDBRANCH  11  12
ENDBRANCH   1  11
TORSDOF 15
ENDMDL
MODEL 7
REMARK VINA RESULT:    -0.887      0.652      6.561
REMARK INTER + INTRA:          -2.652
REMARK INTER:                  -4.973
REMARK INTRA:                   2.322
REMARK UNBOUND:                -0.987
REMARK SMILES O=C([O-])CCCCCCCCCCCCCCC(=O)[O-]
REMARK SMILES IDX 10 1 9 2 8 3 7 4 6 5 5 6 4 7 2 8 1 9 3 10 11 11 12 12 13 13
REMARK SMILES IDX 14 14 15 15 16 16 17 17 18 18 19 19 20 20
REMARK H PARENT
REMARK Flexibility Score: inf
ROOT
ATOM      1  C   UNL     1      -8.790  16.464 -14.269  1.00  0.00     0.000 C 
ENDROOT
BRANCH   1   2
ATOM      2  C   UNL     1      -7.288  16.317 -13.971  1.00  0.00     0.000 C 
BRANCH   2   3
ATOM      3  C   UNL     1      -6.404  17.147 -14.920  1.00  0.00     0.000 C 
BRANCH   3   4
ATOM      4  C   UNL     1      -5.181  17.813 -14.262  1.00  0.00     0.000 C 
BRANCH   4   5
ATOM      5  C   UNL     1      -5.070  19.313 -14.582  1.00  0.00     0.000 C 
BRANCH   5   6
ATOM      6  C   UNL     1      -6.390  19.900 -15.125  1.00  0.00     0.006 C 
BRANCH   6   7
ATOM      7  C   UNL     1      -7.060  20.896 -14.166  1.00  0.00     0.053 C 
BRANCH   7   8
ATOM      8  C   UNL     1      -7.041  20.425 -12.746  1.00  0.00     0.041 C 
ATOM      9  O   UNL     1      -6.127  20.800 -11.966  1.00  0.00    -0.550 OA
ATOM     10  O   UNL     1      -8.019  19.548 -12.290  1.00  0.00    -0.550 OA
ENDBRANCH   7   8
ENDBRANCH   6   7
ENDBRANCH   5   6
ENDBRANCH   4   5
ENDBRANCH   3   4
ENDBRANCH   2   3
ENDBRANCH   1   2
BRANCH   1  11
ATOM     11  C   UNL     1      -9.627  16.646 -12.992  1.00  0.00     0.000 C 
BRANCH  11  12
ATOM     12  C   UNL     1      -8.768  16.660 -11.718  1.00  0.00     0.000 C 
BRANCH  12  13
ATOM     13  C   UNL     1      -7.445  15.915 -11.941  1.00  0.00     0.000 C 
BRANCH  13  14
ATOM     14  C   UNL     1      -7.569  14.439 -11.536  1.00  0.00     0.000 C 
BRANCH  14  15
ATOM     15  C   UNL     1      -6.755  13.506 -12.446  1.00  0.00     0.000 C 
BRANCH  15  16
ATOM     16  C   UNL     1      -7.639  12.695 -13.405  1.00  0.00     0.006 C 
BRANCH  16  17
ATOM     17  C   UNL     1      -7.044  12.676 -14.816  1.00  0.00     0.053 C 
BRANCH  17  18
ATOM     18  C   UNL     1      -5.550  12.718 -14.756  1.00  0.00     0.041 C 
ATOM     19  O   UNL     1      -4.875  11.684 -15.002  1.00  0.00    -0.550 OA
ATOM     20  O   UNL     1      -4.903  13.888 -14.377  1.00  0.00    -0.550 OA
ENDBRANCH  17  18
ENDBRANCH  16  17
ENDBRANCH  15  16
ENDBRANCH  14  15
ENDBRANCH  13  14
ENDBRANCH  12  13
ENDBRANCH  11  12
ENDBRANCH   1  11
TORSDOF 15
ENDMDL
MODEL 8
REMARK VINA RESULT:    -0.120      2.441      3.475
REMARK INTER + INTRA:          -1.213
REMARK INTER:                  -4.435
REMARK INTRA:                   3.223
REMARK UNBOUND:                -0.987
REMARK SMILES O=C([O-])CCCCCCCCCCCCCCC(=O)[O-]
REMARK SMILES IDX 10 1 9 2 8 3 7 4 6 5 5 6 4 7 2 8 1 9 3 10 11 11 12 12 13 13
REMARK SMILES IDX 14 14 15 15 16 16 17 17 18 18 19 19 20 20
REMARK H PARENT
REMARK Flexibility Score: inf
ROOT
ATOM      1  C   UNL     1      -8.219  14.804 -14.393  1.00  0.00     0.000 C 
ENDROOT
BRANCH   1   2
ATOM      2  C   UNL     1      -8.030  13.362 -14.892  1.00  0.00     0.000 C 
BRANCH   2   3
ATOM      3  C   UNL     1      -7.409  12.435 -13.830  1.00  0.00     0.000 C 
BRANCH   3   4
ATOM      4  C   UNL     1      -6.344  13.091 -12.932  1.00  0.00     0.000 C 
BRANCH   4   5
ATOM      5  C   UNL     1      -6.929  13.671 -11.633  1.00  0.00     0.000 C 
BRANCH   5   6
ATOM      6  C   UNL     1      -8.011  14.737 -11.897  1.00  0.00     0.006 C 
BRANCH   6   7
ATOM      7  C   UNL     1      -7.537  16.174 -11.630  1.00  0.00     0.053 C 
BRANCH   7   8
ATOM      8  C   UNL     1      -8.553  17.196 -12.034  1.00  0.00     0.041 C 
ATOM      9  O   UNL     1      -9.682  16.834 -12.458  1.00  0.00    -0.550 OA
ATOM     10  O   UNL     1      -8.244  18.549 -11.968  1.00  0.00    -0.550 OA
ENDBRANCH   7   8
ENDBRANCH   6   7
ENDBRANCH   5   6
ENDBRANCH   4   5
ENDBRANCH   3   4
ENDBRANCH   2   3
ENDBRANCH   1   2
BRANCH   1  11
ATOM     11  C   UNL     1      -7.308  15.804 -15.125  1.00  0.00     0.000 C 
BRANCH  11  12
ATOM     12  C   UNL     1      -5.815  15.515 -14.904  1.00  0.00     0.000 C 
BRANCH  12  13
ATOM     13  C   UNL     1      -5.111  16.722 -14.271  1.00  0.00     0.000 C 
BRANCH  13  14
ATOM     14  C   UNL     1      -5.536  18.030 -14.956  1.00  0.00     0.000 C 
BRANCH  14  15
ATOM     15  C   UNL     1      -6.962  18.459 -14.579  1.00  0.00     0.000 C 
BRANCH  15  16
ATOM     16  C   UNL     1      -7.327  19.847 -15.125  1.00  0.00     0.006 C 
BRANCH  16  17
ATOM     17  C   UNL     1      -7.439  20.871 -13.992  1.00  0.00     0.053 C 
BRANCH  17  18
ATOM     18  C   UNL     1      -6.196  20.869 -13.159  1.00  0.00     0.041 C 
ATOM     19  O   UNL     1      -6.269  20.993 -11.908  1.00  0.00    -0.550 OA
ATOM     20  O   UNL     1      -4.951  20.782 -13.769  1.00  0.00    -0.550 OA
ENDBRANCH  17  18
ENDBRANCH  16  17
ENDBRANCH  15  16
ENDBRANCH  14  15
ENDBRANCH  13  14
ENDBRANCH  12  13
ENDBRANCH  11  12
ENDBRANCH   1  11
TORSDOF 15
ENDMDL
