MODEL 1
REMARK VINA RESULT:    -2.958      0.000      0.000
REMARK INTER + INTRA:          -4.787
REMARK INTER:                  -4.515
REMARK INTRA:                  -0.272
REMARK UNBOUND:                -0.272
REMARK SMILES CC1=CCC[C@H](C)C(=O)C[C@@H](C(C)C)C(=O)C1
REMARK SMILES IDX 8 1 9 2 6 3 7 4 5 5 4 6 3 7 2 8 1 9 10 11 11 12 15 13 16 14
REMARK SMILES IDX 17 15 12 17 13 18 14 19
REMARK H PARENT
REMARK Flexibility Score: 70.00
ROOT
ATOM      1  C   UNL     1     180.004 180.162 236.361  1.00  0.00     0.136 C 
ATOM      2  O   UNL     1     180.311 180.784 235.355  1.00  0.00    -0.299 OA
ENDROOT
BRANCH   1   3
ATOM      3  C   UNL     1     179.218 180.835 237.471  1.00  0.00     0.053 C 
ATOM      4  C   UNL     1     180.016 181.951 238.171  1.00  0.00     0.016 C 
BRANCH   3   5
ATOM      5  C   UNL     1     177.847 181.360 236.970  1.00  0.00     0.015 C 
BRANCH   5   6
ATOM      6  C   UNL     1     176.754 180.273 236.941  1.00  0.00     0.028 C 
BRANCH   6   7
ATOM      7  C   UNL     1     176.480 179.736 235.562  1.00  0.00    -0.028 C 
ATOM      8  C   UNL     1     177.000 178.603 235.019  1.00  0.00    -0.070 CG0
ATOM      9  C   UNL     1     176.665 178.315 233.576  1.00  0.00     0.039 C 
ATOM     10  G   UNL     1     177.834 177.579 235.779  1.00  0.00     0.000 G0
ENDBRANCH   6   7
ENDBRANCH   5   6
ENDBRANCH   3   5
ENDBRANCH   1   3
BRANCH   1  11
ATOM     11  C   UNL     1     180.452 178.726 236.505  1.00  0.00     0.087 C 
BRANCH  11  12
ATOM     12  C   UNL     1     180.381 177.922 235.171  1.00  0.00     0.066 C 
BRANCH  12  13
ATOM     13  C   UNL     1     179.098 177.104 235.086  1.00  0.00     0.140 C 
ATOM     14  O   UNL     1     179.132 175.998 234.564  1.00  0.00    -0.299 OA
BRANCH  13  15
ATOM     15  C   UNL     1     177.827 177.553 235.776  1.00  0.00     0.106 CG0
ATOM     16  G   UNL     1     177.023 178.608 235.028  1.00  0.00     0.000 G0
ENDBRANCH  13  15
ENDBRANCH  12  13
BRANCH  12  17
ATOM     17  C   UNL     1     181.629 177.009 234.952  1.00  0.00    -0.006 C 
ATOM     18  C   UNL     1     182.435 176.774 236.245  1.00  0.00     0.008 C 
ATOM     19  C   UNL     1     182.571 177.609 233.893  1.00  0.00     0.008 C 
ENDBRANCH  12  17
ENDBRANCH  11  12
ENDBRANCH   1  11
TORSDOF 1
ENDMDL
MODEL 2
REMARK VINA RESULT:    -2.950     15.102     15.968
REMARK INTER + INTRA:          -4.773
REMARK INTER:                  -4.311
REMARK INTRA:                  -0.463
REMARK UNBOUND:                -0.272
REMARK SMILES CC1=CCC[C@H](C)C(=O)C[C@@H](C(C)C)C(=O)C1
REMARK SMILES IDX 8 1 9 2 6 3 7 4 5 5 4 6 3 7 2 8 1 9 10 11 11 12 15 13 16 14
REMARK SMILES IDX 17 15 12 17 13 18 14 19
REMARK H PARENT
REMARK Flexibility Score: 70.00
ROOT
ATOM      1  C   UNL     1     185.307 190.662 226.843  1.00  0.00     0.136 C 
ATOM      2  O   UNL     1     186.412 191.179 226.921  1.00  0.00    -0.299 OA
ENDROOT
BRANCH   1   3
ATOM      3  C   UNL     1     184.231 190.994 227.861  1.00  0.00     0.053 C 
ATOM      4  C   UNL     1     183.498 192.311 227.542  1.00  0.00     0.016 C 
BRANCH   3   5
ATOM      5  C   UNL     1     183.226 189.826 228.039  1.00  0.00     0.015 C 
BRANCH   5   6
ATOM      6  C   UNL     1     181.855 190.100 227.388  1.00  0.00     0.028 C 
BRANCH   6   7
ATOM      7  C   UNL     1     181.309 188.925 226.624  1.00  0.00    -0.028 C 
ATOM      8  C   UNL     1     181.253 188.796 225.271  1.00  0.00    -0.070 CG0
ATOM      9  C   UNL     1     180.564 187.569 224.725  1.00  0.00     0.039 C 
ATOM     10  G   UNL     1     181.890 189.761 224.280  1.00  0.00     0.000 G0
ENDBRANCH   6   7
ENDBRANCH   5   6
ENDBRANCH   3   5
ENDBRANCH   1   3
BRANCH   1  11
ATOM     11  C   UNL     1     185.037 189.660 225.745  1.00  0.00     0.087 C 
BRANCH  11  12
ATOM     12  C   UNL     1     184.467 190.308 224.446  1.00  0.00     0.066 C 
BRANCH  12  13
ATOM     13  C   UNL     1     183.322 189.481 223.873  1.00  0.00     0.140 C 
ATOM     14  O   UNL     1     183.582 188.493 223.201  1.00  0.00    -0.299 OA
BRANCH  13  15
ATOM     15  C   UNL     1     181.882 189.755 224.252  1.00  0.00     0.106 CG0
ATOM     16  G   UNL     1     181.285 188.788 225.266  1.00  0.00     0.000 G0
ENDBRANCH  13  15
ENDBRANCH  12  13
BRANCH  12  17
ATOM     17  C   UNL     1     185.566 190.549 223.362  1.00  0.00    -0.006 C 
ATOM     18  C   UNL     1     186.855 189.747 223.626  1.00  0.00     0.008 C 
ATOM     19  C   UNL     1     185.930 192.042 223.271  1.00  0.00     0.008 C 
ENDBRANCH  12  17
ENDBRANCH  11  12
ENDBRANCH   1  11
TORSDOF 1
ENDMDL
MODEL 3
REMARK VINA RESULT:    -2.623     13.030     13.913
REMARK INTER + INTRA:          -4.275
REMARK INTER:                  -3.839
REMARK INTRA:                  -0.436
REMARK UNBOUND:                -0.272
REMARK SMILES CC1=CCC[C@H](C)C(=O)C[C@@H](C(C)C)C(=O)C1
REMARK SMILES IDX 8 1 9 2 6 3 7 4 5 5 4 6 3 7 2 8 1 9 10 11 11 12 15 13 16 14
REMARK SMILES IDX 17 15 12 17 13 18 14 19
REMARK H PARENT
REMARK Flexibility Score: 70.00
ROOT
ATOM      1  C   UNL     1     182.117 188.122 224.826  1.00  0.00     0.136 C 
ATOM      2  O   UNL     1     183.245 187.752 224.530  1.00  0.00    -0.299 OA
ENDROOT
BRANCH   1   3
ATOM      3  C   UNL     1     181.461 189.262 224.070  1.00  0.00     0.053 C 
ATOM      4  C   UNL     1     182.475 190.314 223.583  1.00  0.00     0.016 C 
BRANCH   3   5
ATOM      5  C   UNL     1     180.585 188.749 222.898  1.00  0.00     0.015 C 
BRANCH   5   6
ATOM      6  C   UNL     1     179.088 189.077 223.069  1.00  0.00     0.028 C 
BRANCH   6   7
ATOM      7  C   UNL     1     178.194 187.872 222.959  1.00  0.00    -0.028 C 
ATOM      8  C   UNL     1     177.957 186.951 223.931  1.00  0.00    -0.070 CG0
ATOM      9  C   UNL     1     177.102 185.763 223.560  1.00  0.00     0.039 C 
ATOM     10  G   UNL     1     178.433 187.068 225.373  1.00  0.00     0.000 G0
ENDBRANCH   6   7
ENDBRANCH   5   6
ENDBRANCH   3   5
ENDBRANCH   1   3
BRANCH   1  11
ATOM     11  C   UNL     1     181.402 187.457 225.979  1.00  0.00     0.087 C 
BRANCH  11  12
ATOM     12  C   UNL     1     180.865 186.034 225.632  1.00  0.00     0.066 C 
BRANCH  12  13
ATOM     13  C   UNL     1     179.359 185.945 225.847  1.00  0.00     0.140 C 
ATOM     14  O   UNL     1     178.910 185.030 226.523  1.00  0.00    -0.299 OA
BRANCH  13  15
ATOM     15  C   UNL     1     178.428 187.046 225.386  1.00  0.00     0.106 CG0
ATOM     16  G   UNL     1     177.969 186.940 223.937  1.00  0.00     0.000 G0
ENDBRANCH  13  15
ENDBRANCH  12  13
BRANCH  12  17
ATOM     17  C   UNL     1     181.601 184.906 226.422  1.00  0.00    -0.006 C 
ATOM     18  C   UNL     1     182.679 185.449 227.380  1.00  0.00     0.008 C 
ATOM     19  C   UNL     1     182.262 183.902 225.461  1.00  0.00     0.008 C 
ENDBRANCH  12  17
ENDBRANCH  11  12
ENDBRANCH   1  11
TORSDOF 1
ENDMDL
MODEL 4
REMARK VINA RESULT:    -2.621     11.544     13.998
REMARK INTER + INTRA:          -4.272
REMARK INTER:                  -3.893
REMARK INTRA:                  -0.379
REMARK UNBOUND:                -0.272
REMARK SMILES CC1=CCC[C@H](C)C(=O)C[C@@H](C(C)C)C(=O)C1
REMARK SMILES IDX 8 1 9 2 6 3 7 4 5 5 4 6 3 7 2 8 1 9 10 11 11 12 15 13 16 14
REMARK SMILES IDX 17 15 12 17 13 18 14 19
REMARK H PARENT
REMARK Flexibility Score: 70.00
ROOT
ATOM      1  C   UNL     1     185.997 183.637 227.528  1.00  0.00     0.136 C 
ATOM      2  O   UNL     1     185.215 184.264 228.227  1.00  0.00    -0.299 OA
ENDROOT
BRANCH   1   3
ATOM      3  C   UNL     1     186.830 182.517 228.123  1.00  0.00     0.053 C 
ATOM      4  C   UNL     1     186.152 181.140 227.994  1.00  0.00     0.016 C 
BRANCH   3   5
ATOM      5  C   UNL     1     188.264 182.488 227.533  1.00  0.00     0.015 C 
BRANCH   5   6
ATOM      6  C   UNL     1     188.561 181.211 226.722  1.00  0.00     0.028 C 
BRANCH   6   7
ATOM      7  C   UNL     1     189.116 181.488 225.351  1.00  0.00    -0.028 C 
ATOM      8  C   UNL     1     188.425 181.466 224.180  1.00  0.00    -0.070 CG0
ATOM      9  C   UNL     1     189.214 181.674 222.910  1.00  0.00     0.039 C 
ATOM     10  G   UNL     1     186.913 181.317 224.068  1.00  0.00     0.000 G0
ENDBRANCH   6   7
ENDBRANCH   5   6
ENDBRANCH   3   5
ENDBRANCH   1   3
BRANCH   1  11
ATOM     11  C   UNL     1     186.153 184.017 226.074  1.00  0.00     0.087 C 
BRANCH  11  12
ATOM     12  C   UNL     1     185.295 183.139 225.112  1.00  0.00     0.066 C 
BRANCH  12  13
ATOM     13  C   UNL     1     186.127 182.624 223.944  1.00  0.00     0.140 C 
ATOM     14  O   UNL     1     186.281 183.339 222.964  1.00  0.00    -0.299 OA
BRANCH  13  15
ATOM     15  C   UNL     1     186.899 181.325 224.036  1.00  0.00     0.106 CG0
ATOM     16  G   UNL     1     188.408 181.479 224.175  1.00  0.00     0.000 G0
ENDBRANCH  13  15
ENDBRANCH  12  13
BRANCH  12  17
ATOM     17  C   UNL     1     184.022 183.882 224.595  1.00  0.00    -0.006 C 
ATOM     18  C   UNL     1     184.209 185.410 224.520  1.00  0.00     0.008 C 
ATOM     19  C   UNL     1     182.807 183.582 225.490  1.00  0.00     0.008 C 
ENDBRANCH  12  17
ENDBRANCH  11  12
ENDBRANCH   1  11
TORSDOF 1
ENDMDL
MODEL 5
REMARK VINA RESULT:    -2.568     15.568     17.069
REMARK INTER + INTRA:          -4.191
REMARK INTER:                  -3.803
REMARK INTRA:                  -0.388
REMARK UNBOUND:                -0.272
REMARK SMILES CC1=CCC[C@H](C)C(=O)C[C@@H](C(C)C)C(=O)C1
REMARK SMILES IDX 8 1 9 2 6 3 7 4 5 5 4 6 3 7 2 8 1 9 10 11 11 12 15 13 16 14
REMARK SMILES IDX 17 15 12 17 13 18 14 19
REMARK H PARENT
REMARK Flexibility Score: 70.00
ROOT
ATOM      1  C   UNL     1     185.380 191.636 226.991  1.00  0.00     0.136 C 
ATOM      2  O   UNL     1     184.413 192.342 227.235  1.00  0.00    -0.299 OA
ENDROOT
BRANCH   1   3
ATOM      3  C   UNL     1     186.224 191.073 228.120  1.00  0.00     0.053 C 
ATOM      4  C   UNL     1     185.567 189.856 228.801  1.00  0.00     0.016 C 
BRANCH   3   5
ATOM      5  C   UNL     1     187.664 190.739 227.654  1.00  0.00     0.015 C 
BRANCH   5   6
ATOM      6  C   UNL     1     187.968 189.228 227.652  1.00  0.00     0.028 C 
BRANCH   6   7
ATOM      7  C   UNL     1     188.848 188.794 226.511  1.00  0.00    -0.028 C 
ATOM      8  C   UNL     1     188.442 188.197 225.359  1.00  0.00    -0.070 CG0
ATOM      9  C   UNL     1     189.518 187.754 224.398  1.00  0.00     0.039 C 
ATOM     10  G   UNL     1     186.989 188.009 224.945  1.00  0.00     0.000 G0
ENDBRANCH   6   7
ENDBRANCH   5   6
ENDBRANCH   3   5
ENDBRANCH   1   3
BRANCH   1  11
ATOM     11  C   UNL     1     185.750 191.363 225.551  1.00  0.00     0.087 C 
BRANCH  11  12
ATOM     12  C   UNL     1     185.239 189.984 225.035  1.00  0.00     0.066 C 
BRANCH  12  13
ATOM     13  C   UNL     1     186.340 189.225 224.305  1.00  0.00     0.140 C 
ATOM     14  O   UNL     1     186.793 189.688 223.267  1.00  0.00    -0.299 OA
BRANCH  13  15
ATOM     15  C   UNL     1     186.999 188.005 224.915  1.00  0.00     0.106 CG0
ATOM     16  G   UNL     1     188.443 188.203 225.355  1.00  0.00     0.000 G0
ENDBRANCH  13  15
ENDBRANCH  12  13
BRANCH  12  17
ATOM     17  C   UNL     1     183.969 190.111 224.134  1.00  0.00    -0.006 C 
ATOM     18  C   UNL     1     183.865 191.481 223.435  1.00  0.00     0.008 C 
ATOM     19  C   UNL     1     182.687 189.883 224.954  1.00  0.00     0.008 C 
ENDBRANCH  12  17
ENDBRANCH  11  12
ENDBRANCH   1  11
TORSDOF 1
ENDMDL
MODEL 6
REMARK VINA RESULT:    -2.537     12.927     15.404
REMARK INTER + INTRA:          -4.143
REMARK INTER:                  -4.169
REMARK INTRA:                   0.027
REMARK UNBOUND:                -0.272
REMARK SMILES CC1=CCC[C@H](C)C(=O)C[C@@H](C(C)C)C(=O)C1
REMARK SMILES IDX 8 1 9 2 6 3 7 4 5 5 4 6 3 7 2 8 1 9 10 11 11 12 15 13 16 14
REMARK SMILES IDX 17 15 12 17 13 18 14 19
REMARK H PARENT
REMARK Flexibility Score: 70.00
ROOT
ATOM      1  C   UNL     1     188.846 181.637 223.740  1.00  0.00     0.136 C 
ATOM      2  O   UNL     1     189.852 181.834 223.075  1.00  0.00    -0.299 OA
ENDROOT
BRANCH   1   3
ATOM      3  C   UNL     1     187.485 181.570 223.072  1.00  0.00     0.053 C 
ATOM      4  C   UNL     1     186.642 180.376 223.560  1.00  0.00     0.016 C 
BRANCH   3   5
ATOM      5  C   UNL     1     186.703 182.901 223.221  1.00  0.00     0.015 C 
BRANCH   5   6
ATOM      6  C   UNL     1     187.570 184.147 222.955  1.00  0.00     0.028 C 
BRANCH   6   7
ATOM      7  C   UNL     1     187.337 185.261 223.939  1.00  0.00    -0.028 C 
ATOM      8  C   UNL     1     188.158 185.621 224.962  1.00  0.00    -0.070 CG0
ATOM      9  C   UNL     1     187.667 186.706 225.889  1.00  0.00     0.039 C 
ATOM     10  G   UNL     1     189.554 185.058 225.193  1.00  0.00     0.000 G0
ENDBRANCH   6   7
ENDBRANCH   5   6
ENDBRANCH   3   5
ENDBRANCH   1   3
BRANCH   1  11
ATOM     11  C   UNL     1     188.969 181.499 225.240  1.00  0.00     0.087 C 
BRANCH  11  12
ATOM     12  C   UNL     1     188.492 182.765 226.016  1.00  0.00     0.066 C 
BRANCH  12  13
ATOM     13  C   UNL     1     189.594 183.815 226.090  1.00  0.00     0.140 C 
ATOM     14  O   UNL     1     190.584 183.590 226.771  1.00  0.00    -0.299 OA
BRANCH  13  15
ATOM     15  C   UNL     1     189.568 185.051 225.215  1.00  0.00     0.106 CG0
ATOM     16  G   UNL     1     188.183 185.632 224.958  1.00  0.00     0.000 G0
ENDBRANCH  13  15
ENDBRANCH  12  13
BRANCH  12  17
ATOM     17  C   UNL     1     187.958 182.428 227.444  1.00  0.00    -0.006 C 
ATOM     18  C   UNL     1     187.491 180.966 227.581  1.00  0.00     0.008 C 
ATOM     19  C   UNL     1     186.786 183.352 227.825  1.00  0.00     0.008 C 
ENDBRANCH  12  17
ENDBRANCH  11  12
ENDBRANCH   1  11
TORSDOF 1
ENDMDL
MODEL 7
REMARK VINA RESULT:    -2.535     13.047     15.316
REMARK INTER + INTRA:          -4.141
REMARK INTER:                  -4.056
REMARK INTRA:                  -0.085
REMARK UNBOUND:                -0.272
REMARK SMILES CC1=CCC[C@H](C)C(=O)C[C@@H](C(C)C)C(=O)C1
REMARK SMILES IDX 8 1 9 2 6 3 7 4 5 5 4 6 3 7 2 8 1 9 10 11 11 12 15 13 16 14
REMARK SMILES IDX 17 15 12 17 13 18 14 19
REMARK H PARENT
REMARK Flexibility Score: 70.00
ROOT
ATOM      1  C   UNL     1     190.759 183.360 224.828  1.00  0.00     0.136 C 
ATOM      2  O   UNL     1     190.189 184.400 224.530  1.00  0.00    -0.299 OA
ENDROOT
BRANCH   1   3
ATOM      3  C   UNL     1     192.254 183.352 225.088  1.00  0.00     0.053 C 
ATOM      4  C   UNL     1     193.059 183.993 223.942  1.00  0.00     0.016 C 
BRANCH   3   5
ATOM      5  C   UNL     1     192.608 184.004 226.450  1.00  0.00     0.015 C 
BRANCH   5   6
ATOM      6  C   UNL     1     191.412 184.066 227.421  1.00  0.00     0.028 C 
BRANCH   6   7
ATOM      7  C   UNL     1     191.365 182.913 228.388  1.00  0.00    -0.028 C 
ATOM      8  C   UNL     1     190.254 182.239 228.787  1.00  0.00    -0.070 CG0
ATOM      9  C   UNL     1     190.435 181.182 229.849  1.00  0.00     0.039 C 
ATOM     10  G   UNL     1     188.864 182.428 228.194  1.00  0.00     0.000 G0
ENDBRANCH   6   7
ENDBRANCH   5   6
ENDBRANCH   3   5
ENDBRANCH   1   3
BRANCH   1  11
ATOM     11  C   UNL     1     189.964 182.077 224.897  1.00  0.00     0.087 C 
BRANCH  11  12
ATOM     12  C   UNL     1     188.567 182.253 225.568  1.00  0.00     0.066 C 
BRANCH  12  13
ATOM     13  C   UNL     1     188.536 181.618 226.953  1.00  0.00     0.140 C 
ATOM     14  O   UNL     1     188.390 180.408 227.048  1.00  0.00    -0.299 OA
BRANCH  13  15
ATOM     15  C   UNL     1     188.846 182.422 228.199  1.00  0.00     0.106 CG0
ATOM     16  G   UNL     1     190.246 182.223 228.765  1.00  0.00     0.000 G0
ENDBRANCH  13  15
ENDBRANCH  12  13
BRANCH  12  17
ATOM     17  C   UNL     1     187.403 181.702 224.685  1.00  0.00    -0.006 C 
ATOM     18  C   UNL     1     187.758 181.653 223.187  1.00  0.00     0.008 C 
ATOM     19  C   UNL     1     186.131 182.553 224.858  1.00  0.00     0.008 C 
ENDBRANCH  12  17
ENDBRANCH  11  12
ENDBRANCH   1  11
TORSDOF 1
ENDMDL
MODEL 8
REMARK VINA RESULT:    -2.522     15.753     17.208
REMARK INTER + INTRA:          -4.121
REMARK INTER:                  -4.119
REMARK INTRA:                  -0.002
REMARK UNBOUND:                -0.272
REMARK SMILES CC1=CCC[C@H](C)C(=O)C[C@@H](C(C)C)C(=O)C1
REMARK SMILES IDX 8 1 9 2 6 3 7 4 5 5 4 6 3 7 2 8 1 9 10 11 11 12 15 13 16 14
REMARK SMILES IDX 17 15 12 17 13 18 14 19
REMARK H PARENT
REMARK Flexibility Score: 70.00
ROOT
ATOM      1  C   UNL     1     186.878 190.356 227.257  1.00  0.00     0.136 C 
ATOM      2  O   UNL     1     186.397 189.547 228.037  1.00  0.00    -0.299 OA
ENDROOT
BRANCH   1   3
ATOM      3  C   UNL     1     188.379 190.416 227.041  1.00  0.00     0.053 C 
ATOM      4  C   UNL     1     189.154 190.697 228.343  1.00  0.00     0.016 C 
BRANCH   3   5
ATOM      5  C   UNL     1     188.913 189.141 226.339  1.00  0.00     0.015 C 
BRANCH   5   6
ATOM      6  C   UNL     1     188.475 189.031 224.865  1.00  0.00     0.028 C 
BRANCH   6   7
ATOM      7  C   UNL     1     187.369 188.035 224.641  1.00  0.00    -0.028 C 
ATOM      8  C   UNL     1     186.186 188.269 224.013  1.00  0.00    -0.070 CG0
ATOM      9  C   UNL     1     185.181 187.144 223.997  1.00  0.00     0.039 C 
ATOM     10  G   UNL     1     185.835 189.554 223.274  1.00  0.00     0.000 G0
ENDBRANCH   6   7
ENDBRANCH   5   6
ENDBRANCH   3   5
ENDBRANCH   1   3
BRANCH   1  11
ATOM     11  C   UNL     1     185.964 191.322 226.539  1.00  0.00     0.087 C 
BRANCH  11  12
ATOM     12  C   UNL     1     185.005 190.626 225.526  1.00  0.00     0.066 C 
BRANCH  12  13
ATOM     13  C   UNL     1     185.520 190.759 224.098  1.00  0.00     0.140 C 
ATOM     14  O   UNL     1     185.823 191.867 223.677  1.00  0.00    -0.299 OA
BRANCH  13  15
ATOM     15  C   UNL     1     185.821 189.542 223.249  1.00  0.00     0.106 CG0
ATOM     16  G   UNL     1     186.169 188.280 224.029  1.00  0.00     0.000 G0
ENDBRANCH  13  15
ENDBRANCH  12  13
BRANCH  12  17
ATOM     17  C   UNL     1     183.537 191.148 225.631  1.00  0.00    -0.006 C 
ATOM     18  C   UNL     1     183.101 191.423 227.083  1.00  0.00     0.008 C 
ATOM     19  C   UNL     1     182.550 190.145 225.007  1.00  0.00     0.008 C 
ENDBRANCH  12  17
ENDBRANCH  11  12
ENDBRANCH   1  11
TORSDOF 1
ENDMDL
MODEL 9
REMARK VINA RESULT:    -2.441     13.876     16.375
REMARK INTER + INTRA:          -3.996
REMARK INTER:                  -3.565
REMARK INTRA:                  -0.431
REMARK UNBOUND:                -0.272
REMARK SMILES CC1=CCC[C@H](C)C(=O)C[C@@H](C(C)C)C(=O)C1
REMARK SMILES IDX 8 1 9 2 6 3 7 4 5 5 4 6 3 7 2 8 1 9 10 11 11 12 15 13 16 14
REMARK SMILES IDX 17 15 12 17 13 18 14 19
REMARK H PARENT
REMARK Flexibility Score: 70.00
ROOT
ATOM      1  C   UNL     1     189.891 182.683 225.079  1.00  0.00     0.136 C 
ATOM      2  O   UNL     1     189.738 181.486 224.878  1.00  0.00    -0.299 OA
ENDROOT
BRANCH   1   3
ATOM      3  C   UNL     1     191.195 183.363 224.705  1.00  0.00     0.053 C 
ATOM      4  C   UNL     1     191.186 183.918 223.268  1.00  0.00     0.016 C 
BRANCH   3   5
ATOM      5  C   UNL     1     191.585 184.464 225.725  1.00  0.00     0.015 C 
BRANCH   5   6
ATOM      6  C   UNL     1     191.508 185.888 225.139  1.00  0.00     0.028 C 
BRANCH   6   7
ATOM      7  C   UNL     1     190.722 186.846 225.994  1.00  0.00    -0.028 C 
ATOM      8  C   UNL     1     189.453 187.276 225.766  1.00  0.00    -0.070 CG0
ATOM      9  C   UNL     1     188.902 188.322 226.704  1.00  0.00     0.039 C 
ATOM     10  G   UNL     1     188.533 186.731 224.681  1.00  0.00     0.000 G0
ENDBRANCH   6   7
ENDBRANCH   5   6
ENDBRANCH   3   5
ENDBRANCH   1   3
BRANCH   1  11
ATOM     11  C   UNL     1     188.781 183.468 225.737  1.00  0.00     0.087 C 
BRANCH  11  12
ATOM     12  C   UNL     1     187.834 184.171 224.717  1.00  0.00     0.066 C 
BRANCH  12  13
ATOM     13  C   UNL     1     187.585 185.624 225.105  1.00  0.00     0.140 C 
ATOM     14  O   UNL     1     186.688 185.882 225.895  1.00  0.00    -0.299 OA
BRANCH  13  15
ATOM     15  C   UNL     1     188.523 186.730 224.668  1.00  0.00     0.106 CG0
ATOM     16  G   UNL     1     189.448 187.260 225.756  1.00  0.00     0.000 G0
ENDBRANCH  13  15
ENDBRANCH  12  13
BRANCH  12  17
ATOM     17  C   UNL     1     186.481 183.413 224.531  1.00  0.00    -0.006 C 
ATOM     18  C   UNL     1     186.170 182.449 225.692  1.00  0.00     0.008 C 
ATOM     19  C   UNL     1     186.475 182.613 223.216  1.00  0.00     0.008 C 
ENDBRANCH  12  17
ENDBRANCH  11  12
ENDBRANCH   1  11
TORSDOF 1
ENDMDL
