MODEL 1
REMARK VINA RESULT:    -6.438      0.000      0.000
REMARK INTER + INTRA:          -8.184
REMARK INTER:                  -7.756
REMARK INTRA:                  -0.428
REMARK UNBOUND:                -0.428
REMARK SMILES O=c1c(O)c(-c2ccc(O)cc2O)oc2cc(O)cc(O)c12
REMARK SMILES IDX 5 1 3 2 2 3 1 4 22 5 20 6 19 7 17 8 16 9 15 10 14 11 6 12
REMARK SMILES IDX 8 13 7 14 9 15 11 16 12 17 10 18 13 20 4 22 21 24 18 26
REMARK H PARENT 10 19 13 21 4 23 21 25 18 27
REMARK Flexibility Score: inf
ROOT
ATOM      1  C   UNL     1       7.163  15.641  21.610  1.00  0.00     0.184 A 
ATOM      2  C   UNL     1       8.453  15.632  21.054  1.00  0.00     0.208 A 
ATOM      3  C   UNL     1       8.897  16.760  20.347  1.00  0.00     0.238 A 
ATOM      4  O   UNL     1      10.033  16.724  19.806  1.00  0.00    -0.285 OA
ATOM      5  C   UNL     1       8.052  17.889  20.219  1.00  0.00     0.111 A 
ATOM      6  C   UNL     1       8.415  19.101  19.560  1.00  0.00     0.134 A 
ATOM      7  C   UNL     1       7.454  20.104  19.381  1.00  0.00     0.093 A 
ATOM      8  C   UNL     1       6.162  19.965  19.896  1.00  0.00     0.123 A 
ATOM      9  C   UNL     1       5.817  18.809  20.593  1.00  0.00     0.094 A 
ATOM     10  C   UNL     1       6.742  17.776  20.756  1.00  0.00     0.146 A 
ATOM     11  O   UNL     1       6.369  16.687  21.417  1.00  0.00    -0.451 OA
ENDROOT
BRANCH   1  12
ATOM     12  C   UNL     1       6.640  14.493  22.379  1.00  0.00     0.063 A 
ATOM     13  C   UNL     1       6.615  13.219  24.449  1.00  0.00     0.047 A 
ATOM     14  C   UNL     1       7.085  14.297  23.696  1.00  0.00     0.020 A 
ATOM     15  C   UNL     1       5.706  12.315  23.893  1.00  0.00     0.119 A 
ATOM     16  C   UNL     1       5.275  12.488  22.571  1.00  0.00     0.093 A 
ATOM     17  C   UNL     1       5.746  13.565  21.806  1.00  0.00     0.130 A 
BRANCH  15  18
ATOM     18  O   UNL     1       5.243  11.247  24.657  1.00  0.00    -0.508 OA
ATOM     19  H   UNL     1       5.556  10.299  24.486  1.00  0.00     0.293 HD
ENDBRANCH  15  18
BRANCH  17  20
ATOM     20  O   UNL     1       5.347  13.700  20.476  1.00  0.00    -0.507 OA
ATOM     21  H   UNL     1       6.002  13.957  19.748  1.00  0.00     0.293 HD
ENDBRANCH  17  20
ENDBRANCH   1  12
BRANCH   2  22
ATOM     22  O   UNL     1       9.258  14.496  21.179  1.00  0.00    -0.502 OA
ATOM     23  H   UNL     1      10.095  14.361  20.624  1.00  0.00     0.293 HD
ENDBRANCH   2  22
BRANCH   6  24
ATOM     24  O   UNL     1       9.702  19.380  19.089  1.00  0.00    -0.507 OA
ATOM     25  H   UNL     1      10.554  19.154  19.580  1.00  0.00     0.293 HD
ENDBRANCH   6  24
BRANCH   8  26
ATOM     26  O   UNL     1       5.217  20.974  19.728  1.00  0.00    -0.508 OA
ATOM     27  H   UNL     1       4.406  20.846  19.133  1.00  0.00     0.293 HD
ENDBRANCH   8  26
TORSDOF 6
ENDMDL
MODEL 2
REMARK VINA RESULT:    -5.292      2.292      3.733
REMARK INTER + INTRA:          -6.803
REMARK INTER:                  -6.391
REMARK INTRA:                  -0.412
REMARK UNBOUND:                -0.428
REMARK SMILES O=c1c(O)c(-c2ccc(O)cc2O)oc2cc(O)cc(O)c12
REMARK SMILES IDX 5 1 3 2 2 3 1 4 22 5 20 6 19 7 17 8 16 9 15 10 14 11 6 12
REMARK SMILES IDX 8 13 7 14 9 15 11 16 12 17 10 18 13 20 4 22 21 24 18 26
REMARK H PARENT 10 19 13 21 4 23 21 25 18 27
REMARK Flexibility Score: inf
ROOT
ATOM      1  C   UNL     1       7.707  17.692  20.892  1.00  0.00     0.184 A 
ATOM      2  C   UNL     1       6.964  18.426  19.954  1.00  0.00     0.208 A 
ATOM      3  C   UNL     1       7.338  19.750  19.677  1.00  0.00     0.238 A 
ATOM      4  O   UNL     1       6.636  20.420  18.875  1.00  0.00    -0.285 OA
ATOM      5  C   UNL     1       8.459  20.317  20.330  1.00  0.00     0.111 A 
ATOM      6  C   UNL     1       8.952  21.636  20.095  1.00  0.00     0.134 A 
ATOM      7  C   UNL     1       9.989  22.137  20.891  1.00  0.00     0.093 A 
ATOM      8  C   UNL     1      10.595  21.344  21.869  1.00  0.00     0.123 A 
ATOM      9  C   UNL     1      10.160  20.035  22.065  1.00  0.00     0.094 A 
ATOM     10  C   UNL     1       9.103  19.519  21.312  1.00  0.00     0.146 A 
ATOM     11  O   UNL     1       8.713  18.270  21.537  1.00  0.00    -0.451 OA
ENDROOT
BRANCH   1  12
ATOM     12  C   UNL     1       7.378  16.289  21.218  1.00  0.00     0.063 A 
ATOM     13  C   UNL     1       5.906  14.706  22.331  1.00  0.00     0.047 A 
ATOM     14  C   UNL     1       6.243  16.020  22.000  1.00  0.00     0.020 A 
ATOM     15  C   UNL     1       6.704  13.644  21.898  1.00  0.00     0.119 A 
ATOM     16  C   UNL     1       7.853  13.903  21.138  1.00  0.00     0.093 A 
ATOM     17  C   UNL     1       8.201  15.221  20.805  1.00  0.00     0.130 A 
BRANCH  15  18
ATOM     18  O   UNL     1       6.353  12.339  22.232  1.00  0.00    -0.508 OA
ATOM     19  H   UNL     1       6.299  11.609  21.532  1.00  0.00     0.293 HD
ENDBRANCH  15  18
BRANCH  17  20
ATOM     20  O   UNL     1       9.372  15.469  20.090  1.00  0.00    -0.507 OA
ATOM     21  H   UNL     1       9.671  14.866  19.333  1.00  0.00     0.293 HD
ENDBRANCH  17  20
ENDBRANCH   1  12
BRANCH   2  22
ATOM     22  O   UNL     1       5.851  17.848  19.339  1.00  0.00    -0.502 OA
ATOM     23  H   UNL     1       5.196  17.262  19.844  1.00  0.00     0.293 HD
ENDBRANCH   2  22
BRANCH   6  24
ATOM     24  O   UNL     1       8.480  22.478  19.083  1.00  0.00    -0.507 OA
ATOM     25  H   UNL     1       7.550  22.442  18.695  1.00  0.00     0.293 HD
ENDBRANCH   6  24
BRANCH   8  26
ATOM     26  O   UNL     1      11.636  21.845  22.647  1.00  0.00    -0.508 OA
ATOM     27  H   UNL     1      11.620  22.792  23.008  1.00  0.00     0.293 HD
ENDBRANCH   8  26
TORSDOF 6
ENDMDL
MODEL 3
REMARK VINA RESULT:    -5.190      6.347      8.220
REMARK INTER + INTRA:          -6.680
REMARK INTER:                  -6.269
REMARK INTRA:                  -0.411
REMARK UNBOUND:                -0.428
REMARK SMILES O=c1c(O)c(-c2ccc(O)cc2O)oc2cc(O)cc(O)c12
REMARK SMILES IDX 5 1 3 2 2 3 1 4 22 5 20 6 19 7 17 8 16 9 15 10 14 11 6 12
REMARK SMILES IDX 8 13 7 14 9 15 11 16 12 17 10 18 13 20 4 22 21 24 18 26
REMARK H PARENT 10 19 13 21 4 23 21 25 18 27
REMARK Flexibility Score: inf
ROOT
ATOM      1  C   UNL     1       7.452  22.078  25.110  1.00  0.00     0.184 A 
ATOM      2  C   UNL     1       6.874  21.127  24.253  1.00  0.00     0.208 A 
ATOM      3  C   UNL     1       7.551  20.773  23.075  1.00  0.00     0.238 A 
ATOM      4  O   UNL     1       7.003  19.960  22.286  1.00  0.00    -0.285 OA
ATOM      5  C   UNL     1       8.803  21.363  22.778  1.00  0.00     0.111 A 
ATOM      6  C   UNL     1       9.595  21.049  21.633  1.00  0.00     0.134 A 
ATOM      7  C   UNL     1      10.755  21.788  21.372  1.00  0.00     0.093 A 
ATOM      8  C   UNL     1      11.187  22.786  22.250  1.00  0.00     0.123 A 
ATOM      9  C   UNL     1      10.451  23.059  23.401  1.00  0.00     0.094 A 
ATOM     10  C   UNL     1       9.270  22.364  23.670  1.00  0.00     0.146 A 
ATOM     11  O   UNL     1       8.594  22.663  24.772  1.00  0.00    -0.451 OA
ENDROOT
BRANCH   1  12
ATOM     12  C   UNL     1       6.801  22.483  26.373  1.00  0.00     0.063 A 
ATOM     13  C   UNL     1       5.025  23.708  27.495  1.00  0.00     0.047 A 
ATOM     14  C   UNL     1       5.662  23.302  26.319  1.00  0.00     0.020 A 
ATOM     15  C   UNL     1       5.525  23.312  28.738  1.00  0.00     0.119 A 
ATOM     16  C   UNL     1       6.676  22.515  28.803  1.00  0.00     0.093 A 
ATOM     17  C   UNL     1       7.324  22.108  27.628  1.00  0.00     0.130 A 
BRANCH  15  18
ATOM     18  O   UNL     1       4.878  23.722  29.901  1.00  0.00    -0.508 OA
ATOM     19  H   UNL     1       4.097  23.202  30.283  1.00  0.00     0.293 HD
ENDBRANCH  15  18
BRANCH  17  20
ATOM     20  O   UNL     1       8.496  21.355  27.707  1.00  0.00    -0.507 OA
ATOM     21  H   UNL     1       9.398  21.750  27.471  1.00  0.00     0.293 HD
ENDBRANCH  17  20
ENDBRANCH   1  12
BRANCH   2  22
ATOM     22  O   UNL     1       5.628  20.575  24.562  1.00  0.00    -0.502 OA
ATOM     23  H   UNL     1       5.188  19.869  23.982  1.00  0.00     0.293 HD
ENDBRANCH   2  22
BRANCH   6  24
ATOM     24  O   UNL     1       9.303  20.011  20.742  1.00  0.00    -0.507 OA
ATOM     25  H   UNL     1       9.429  20.060  19.743  1.00  0.00     0.293 HD
ENDBRANCH   6  24
BRANCH   8  26
ATOM     26  O   UNL     1      12.351  23.506  21.991  1.00  0.00    -0.508 OA
ATOM     27  H   UNL     1      12.349  24.519  21.950  1.00  0.00     0.293 HD
ENDBRANCH   8  26
TORSDOF 6
ENDMDL
MODEL 4
REMARK VINA RESULT:    -5.162      2.045      6.657
REMARK INTER + INTRA:          -6.647
REMARK INTER:                  -6.305
REMARK INTRA:                  -0.341
REMARK UNBOUND:                -0.428
REMARK SMILES O=c1c(O)c(-c2ccc(O)cc2O)oc2cc(O)cc(O)c12
REMARK SMILES IDX 5 1 3 2 2 3 1 4 22 5 20 6 19 7 17 8 16 9 15 10 14 11 6 12
REMARK SMILES IDX 8 13 7 14 9 15 11 16 12 17 10 18 13 20 4 22 21 24 18 26
REMARK H PARENT 10 19 13 21 4 23 21 25 18 27
REMARK Flexibility Score: inf
ROOT
ATOM      1  C   UNL     1       7.861  17.296  21.269  1.00  0.00     0.184 A 
ATOM      2  C   UNL     1       7.209  16.979  20.066  1.00  0.00     0.208 A 
ATOM      3  C   UNL     1       6.506  15.767  19.973  1.00  0.00     0.238 A 
ATOM      4  O   UNL     1       5.969  15.465  18.875  1.00  0.00    -0.285 OA
ATOM      5  C   UNL     1       6.451  14.896  21.088  1.00  0.00     0.111 A 
ATOM      6  C   UNL     1       5.735  13.663  21.117  1.00  0.00     0.134 A 
ATOM      7  C   UNL     1       5.857  12.820  22.229  1.00  0.00     0.093 A 
ATOM      8  C   UNL     1       6.617  13.197  23.339  1.00  0.00     0.123 A 
ATOM      9  C   UNL     1       7.272  14.427  23.343  1.00  0.00     0.094 A 
ATOM     10  C   UNL     1       7.200  15.273  22.234  1.00  0.00     0.146 A 
ATOM     11  O   UNL     1       7.848  16.430  22.275  1.00  0.00    -0.451 OA
ENDROOT
BRANCH   1  12
ATOM     12  C   UNL     1       8.604  18.561  21.440  1.00  0.00     0.063 A 
ATOM     13  C   UNL     1       8.696  20.807  22.367  1.00  0.00     0.047 A 
ATOM     14  C   UNL     1       8.024  19.595  22.191  1.00  0.00     0.020 A 
ATOM     15  C   UNL     1       9.951  21.006  21.784  1.00  0.00     0.119 A 
ATOM     16  C   UNL     1      10.528  19.989  21.012  1.00  0.00     0.093 A 
ATOM     17  C   UNL     1       9.856  18.772  20.826  1.00  0.00     0.130 A 
BRANCH  15  18
ATOM     18  O   UNL     1      10.611  22.217  21.972  1.00  0.00    -0.508 OA
ATOM     19  H   UNL     1      10.103  23.091  22.048  1.00  0.00     0.293 HD
ENDBRANCH  15  18
BRANCH  17  20
ATOM     20  O   UNL     1      10.419  17.786  20.015  1.00  0.00    -0.507 OA
ATOM     21  H   UNL     1      11.049  17.086  20.389  1.00  0.00     0.293 HD
ENDBRANCH  17  20
ENDBRANCH   1  12
BRANCH   2  22
ATOM     22  O   UNL     1       7.295  17.848  18.975  1.00  0.00    -0.502 OA
ATOM     23  H   UNL     1       8.135  18.377  18.769  1.00  0.00     0.293 HD
ENDBRANCH   2  22
BRANCH   6  24
ATOM     24  O   UNL     1       4.875  13.234  20.101  1.00  0.00    -0.507 OA
ATOM     25  H   UNL     1       4.579  12.280  19.965  1.00  0.00     0.293 HD
ENDBRANCH   6  24
BRANCH   8  26
ATOM     26  O   UNL     1       6.721  12.360  24.448  1.00  0.00    -0.508 OA
ATOM     27  H   UNL     1       6.261  12.582  25.324  1.00  0.00     0.293 HD
ENDBRANCH   8  26
TORSDOF 6
ENDMDL
MODEL 5
REMARK VINA RESULT:    -5.120      2.323      6.355
REMARK INTER + INTRA:          -6.596
REMARK INTER:                  -6.178
REMARK INTRA:                  -0.418
REMARK UNBOUND:                -0.428
REMARK SMILES O=c1c(O)c(-c2ccc(O)cc2O)oc2cc(O)cc(O)c12
REMARK SMILES IDX 5 1 3 2 2 3 1 4 22 5 20 6 19 7 17 8 16 9 15 10 14 11 6 12
REMARK SMILES IDX 8 13 7 14 9 15 11 16 12 17 10 18 13 20 4 22 21 24 18 26
REMARK H PARENT 10 19 13 21 4 23 21 25 18 27
REMARK Flexibility Score: inf
ROOT
ATOM      1  C   UNL     1       8.261  17.938  21.202  1.00  0.00     0.184 A 
ATOM      2  C   UNL     1       8.959  17.357  20.130  1.00  0.00     0.208 A 
ATOM      3  C   UNL     1       8.711  16.014  19.807  1.00  0.00     0.238 A 
ATOM      4  O   UNL     1       9.378  15.484  18.880  1.00  0.00    -0.285 OA
ATOM      5  C   UNL     1       7.759  15.274  20.549  1.00  0.00     0.111 A 
ATOM      6  C   UNL     1       7.400  13.919  20.282  1.00  0.00     0.134 A 
ATOM      7  C   UNL     1       6.541  13.247  21.161  1.00  0.00     0.093 A 
ATOM      8  C   UNL     1       5.977  13.901  22.259  1.00  0.00     0.123 A 
ATOM      9  C   UNL     1       6.276  15.242  22.493  1.00  0.00     0.094 A 
ATOM     10  C   UNL     1       7.158  15.929  21.656  1.00  0.00     0.146 A 
ATOM     11  O   UNL     1       7.423  17.202  21.922  1.00  0.00    -0.451 OA
ENDROOT
BRANCH   1  12
ATOM     12  C   UNL     1       8.462  19.351  21.585  1.00  0.00     0.063 A 
ATOM     13  C   UNL     1       9.608  20.984  22.976  1.00  0.00     0.047 A 
ATOM     14  C   UNL     1       9.397  19.659  22.586  1.00  0.00     0.020 A 
ATOM     15  C   UNL     1       8.878  22.016  22.381  1.00  0.00     0.119 A 
ATOM     16  C   UNL     1       7.925  21.717  21.399  1.00  0.00     0.093 A 
ATOM     17  C   UNL     1       7.704  20.389  21.005  1.00  0.00     0.130 A 
BRANCH  15  18
ATOM     18  O   UNL     1       9.101  23.332  22.778  1.00  0.00    -0.508 OA
ATOM     19  H   UNL     1       9.211  23.580  23.754  1.00  0.00     0.293 HD
ENDBRANCH  15  18
BRANCH  17  20
ATOM     20  O   UNL     1       6.718  20.100  20.061  1.00  0.00    -0.507 OA
ATOM     21  H   UNL     1       6.652  20.611  19.189  1.00  0.00     0.293 HD
ENDBRANCH  17  20
ENDBRANCH   1  12
BRANCH   2  22
ATOM     22  O   UNL     1       9.907  18.105  19.428  1.00  0.00    -0.502 OA
ATOM     23  H   UNL     1      10.784  17.709  19.111  1.00  0.00     0.293 HD
ENDBRANCH   2  22
BRANCH   6  24
ATOM     24  O   UNL     1       7.833  13.202  19.163  1.00  0.00    -0.507 OA
ATOM     25  H   UNL     1       7.700  12.211  19.030  1.00  0.00     0.293 HD
ENDBRANCH   6  24
BRANCH   8  26
ATOM     26  O   UNL     1       5.111  13.230  23.119  1.00  0.00    -0.508 OA
ATOM     27  H   UNL     1       5.433  12.846  24.001  1.00  0.00     0.293 HD
ENDBRANCH   8  26
TORSDOF 6
ENDMDL
MODEL 6
REMARK VINA RESULT:    -5.057      3.014      7.402
REMARK INTER + INTRA:          -6.520
REMARK INTER:                  -6.111
REMARK INTRA:                  -0.409
REMARK UNBOUND:                -0.428
REMARK SMILES O=c1c(O)c(-c2ccc(O)cc2O)oc2cc(O)cc(O)c12
REMARK SMILES IDX 5 1 3 2 2 3 1 4 22 5 20 6 19 7 17 8 16 9 15 10 14 11 6 12
REMARK SMILES IDX 8 13 7 14 9 15 11 16 12 17 10 18 13 20 4 22 21 24 18 26
REMARK H PARENT 10 19 13 21 4 23 21 25 18 27
REMARK Flexibility Score: inf
ROOT
ATOM      1  C   UNL     1       8.607  19.774  21.323  1.00  0.00     0.184 A 
ATOM      2  C   UNL     1       7.276  19.863  21.762  1.00  0.00     0.208 A 
ATOM      3  C   UNL     1       6.426  18.761  21.582  1.00  0.00     0.238 A 
ATOM      4  O   UNL     1       5.220  18.866  21.930  1.00  0.00    -0.285 OA
ATOM      5  C   UNL     1       6.922  17.579  20.980  1.00  0.00     0.111 A 
ATOM      6  C   UNL     1       6.160  16.389  20.785  1.00  0.00     0.134 A 
ATOM      7  C   UNL     1       6.715  15.325  20.061  1.00  0.00     0.093 A 
ATOM      8  C   UNL     1       8.026  15.385  19.583  1.00  0.00     0.123 A 
ATOM      9  C   UNL     1       8.797  16.521  19.821  1.00  0.00     0.094 A 
ATOM     10  C   UNL     1       8.260  17.612  20.507  1.00  0.00     0.146 A 
ATOM     11  O   UNL     1       9.026  18.679  20.702  1.00  0.00    -0.451 OA
ENDROOT
BRANCH   1  12
ATOM     12  C   UNL     1       9.559  20.892  21.497  1.00  0.00     0.063 A 
ATOM     13  C   UNL     1      10.876  22.284  22.992  1.00  0.00     0.047 A 
ATOM     14  C   UNL     1       9.982  21.230  22.792  1.00  0.00     0.020 A 
ATOM     15  C   UNL     1      11.348  23.022  21.904  1.00  0.00     0.119 A 
ATOM     16  C   UNL     1      10.913  22.708  20.609  1.00  0.00     0.093 A 
ATOM     17  C   UNL     1      10.010  21.655  20.400  1.00  0.00     0.130 A 
BRANCH  15  18
ATOM     18  O   UNL     1      12.242  24.068  22.118  1.00  0.00    -0.508 OA
ATOM     19  H   UNL     1      12.354  24.816  21.445  1.00  0.00     0.293 HD
ENDBRANCH  15  18
BRANCH  17  20
ATOM     20  O   UNL     1       9.547  21.383  19.113  1.00  0.00    -0.507 OA
ATOM     21  H   UNL     1       9.986  21.787  18.294  1.00  0.00     0.293 HD
ENDBRANCH  17  20
ENDBRANCH   1  12
BRANCH   2  22
ATOM     22  O   UNL     1       6.808  21.048  22.336  1.00  0.00    -0.502 OA
ATOM     23  H   UNL     1       7.394  21.640  22.914  1.00  0.00     0.293 HD
ENDBRANCH   2  22
BRANCH   6  24
ATOM     24  O   UNL     1       4.875  16.190  21.300  1.00  0.00    -0.507 OA
ATOM     25  H   UNL     1       4.312  15.369  21.136  1.00  0.00     0.293 HD
ENDBRANCH   6  24
BRANCH   8  26
ATOM     26  O   UNL     1       8.575  14.317  18.878  1.00  0.00    -0.508 OA
ATOM     27  H   UNL     1       9.399  14.432  18.298  1.00  0.00     0.293 HD
ENDBRANCH   8  26
TORSDOF 6
ENDMDL
MODEL 7
REMARK VINA RESULT:    -4.961      3.448      5.107
REMARK INTER + INTRA:          -6.404
REMARK INTER:                  -6.322
REMARK INTRA:                  -0.082
REMARK UNBOUND:                -0.428
REMARK SMILES O=c1c(O)c(-c2ccc(O)cc2O)oc2cc(O)cc(O)c12
REMARK SMILES IDX 5 1 3 2 2 3 1 4 22 5 20 6 19 7 17 8 16 9 15 10 14 11 6 12
REMARK SMILES IDX 8 13 7 14 9 15 11 16 12 17 10 18 13 20 4 22 21 24 18 26
REMARK H PARENT 10 19 13 21 4 23 21 25 18 27
REMARK Flexibility Score: inf
ROOT
ATOM      1  C   UNL     1       8.877  19.110  21.213  1.00  0.00     0.184 A 
ATOM      2  C   UNL     1       9.260  19.989  20.187  1.00  0.00     0.208 A 
ATOM      3  C   UNL     1       9.483  21.339  20.496  1.00  0.00     0.238 A 
ATOM      4  O   UNL     1       9.773  22.132  19.562  1.00  0.00    -0.285 OA
ATOM      5  C   UNL     1       9.337  21.790  21.830  1.00  0.00     0.111 A 
ATOM      6  C   UNL     1       9.578  23.128  22.264  1.00  0.00     0.134 A 
ATOM      7  C   UNL     1       9.277  23.491  23.583  1.00  0.00     0.093 A 
ATOM      8  C   UNL     1       8.806  22.548  24.500  1.00  0.00     0.123 A 
ATOM      9  C   UNL     1       8.624  21.226  24.101  1.00  0.00     0.094 A 
ATOM     10  C   UNL     1       8.881  20.841  22.783  1.00  0.00     0.146 A 
ATOM     11  O   UNL     1       8.684  19.574  22.442  1.00  0.00    -0.451 OA
ENDROOT
BRANCH   1  12
ATOM     12  C   UNL     1       8.642  17.673  20.959  1.00  0.00     0.063 A 
ATOM     13  C   UNL     1       7.174  15.744  21.144  1.00  0.00     0.047 A 
ATOM     14  C   UNL     1       7.427  17.101  21.364  1.00  0.00     0.020 A 
ATOM     15  C   UNL     1       8.138  14.940  20.529  1.00  0.00     0.119 A 
ATOM     16  C   UNL     1       9.364  15.497  20.143  1.00  0.00     0.093 A 
ATOM     17  C   UNL     1       9.627  16.857  20.365  1.00  0.00     0.130 A 
BRANCH  15  18
ATOM     18  O   UNL     1       7.870  13.591  20.313  1.00  0.00    -0.508 OA
ATOM     19  H   UNL     1       8.123  12.885  20.994  1.00  0.00     0.293 HD
ENDBRANCH  15  18
BRANCH  17  20
ATOM     20  O   UNL     1      10.870  17.389  20.020  1.00  0.00    -0.507 OA
ATOM     21  H   UNL     1      11.184  18.282  20.380  1.00  0.00     0.293 HD
ENDBRANCH  17  20
ENDBRANCH   1  12
BRANCH   2  22
ATOM     22  O   UNL     1       9.377  19.521  18.875  1.00  0.00    -0.502 OA
ATOM     23  H   UNL     1       9.480  18.536  18.658  1.00  0.00     0.293 HD
ENDBRANCH   2  22
BRANCH   6  24
ATOM     24  O   UNL     1      10.133  24.124  21.455  1.00  0.00    -0.507 OA
ATOM     25  H   UNL     1      10.844  24.775  21.751  1.00  0.00     0.293 HD
ENDBRANCH   6  24
BRANCH   8  26
ATOM     26  O   UNL     1       8.524  22.913  25.815  1.00  0.00    -0.508 OA
ATOM     27  H   UNL     1       7.691  23.442  26.050  1.00  0.00     0.293 HD
ENDBRANCH   8  26
TORSDOF 6
ENDMDL
MODEL 8
REMARK VINA RESULT:    -4.924      2.859      4.740
REMARK INTER + INTRA:          -6.360
REMARK INTER:                  -5.957
REMARK INTRA:                  -0.403
REMARK UNBOUND:                -0.428
REMARK SMILES O=c1c(O)c(-c2ccc(O)cc2O)oc2cc(O)cc(O)c12
REMARK SMILES IDX 5 1 3 2 2 3 1 4 22 5 20 6 19 7 17 8 16 9 15 10 14 11 6 12
REMARK SMILES IDX 8 13 7 14 9 15 11 16 12 17 10 18 13 20 4 22 21 24 18 26
REMARK H PARENT 10 19 13 21 4 23 21 25 18 27
REMARK Flexibility Score: inf
ROOT
ATOM      1  C   UNL     1       7.984  18.367  21.497  1.00  0.00     0.184 A 
ATOM      2  C   UNL     1       6.791  19.061  21.755  1.00  0.00     0.208 A 
ATOM      3  C   UNL     1       6.854  20.428  22.068  1.00  0.00     0.238 A 
ATOM      4  O   UNL     1       5.786  21.032  22.351  1.00  0.00    -0.285 OA
ATOM      5  C   UNL     1       8.107  21.086  22.103  1.00  0.00     0.111 A 
ATOM      6  C   UNL     1       8.285  22.477  22.369  1.00  0.00     0.134 A 
ATOM      7  C   UNL     1       9.579  22.994  22.505  1.00  0.00     0.093 A 
ATOM      8  C   UNL     1      10.702  22.183  22.321  1.00  0.00     0.123 A 
ATOM      9  C   UNL     1      10.538  20.837  22.002  1.00  0.00     0.094 A 
ATOM     10  C   UNL     1       9.260  20.284  21.895  1.00  0.00     0.146 A 
ATOM     11  O   UNL     1       9.149  18.994  21.601  1.00  0.00    -0.451 OA
ENDROOT
BRANCH   1  12
ATOM     12  C   UNL     1       7.986  16.932  21.145  1.00  0.00     0.063 A 
ATOM     13  C   UNL     1       7.674  14.623  21.840  1.00  0.00     0.047 A 
ATOM     14  C   UNL     1       7.674  15.988  22.136  1.00  0.00     0.020 A 
ATOM     15  C   UNL     1       7.997  14.182  20.554  1.00  0.00     0.119 A 
ATOM     16  C   UNL     1       8.335  15.115  19.564  1.00  0.00     0.093 A 
ATOM     17  C   UNL     1       8.343  16.487  19.855  1.00  0.00     0.130 A 
BRANCH  15  18
ATOM     18  O   UNL     1       7.989  12.819  20.272  1.00  0.00    -0.508 OA
ATOM     19  H   UNL     1       7.211  12.228  20.540  1.00  0.00     0.293 HD
ENDBRANCH  15  18
BRANCH  17  20
ATOM     20  O   UNL     1       8.727  17.403  18.875  1.00  0.00    -0.507 OA
ATOM     21  H   UNL     1       9.689  17.705  18.778  1.00  0.00     0.293 HD
ENDBRANCH  17  20
ENDBRANCH   1  12
BRANCH   2  22
ATOM     22  O   UNL     1       5.569  18.383  21.733  1.00  0.00    -0.502 OA
ATOM     23  H   UNL     1       4.716  18.789  22.100  1.00  0.00     0.293 HD
ENDBRANCH   2  22
BRANCH   6  24
ATOM     24  O   UNL     1       7.233  23.392  22.479  1.00  0.00    -0.507 OA
ATOM     25  H   UNL     1       6.880  23.955  21.721  1.00  0.00     0.293 HD
ENDBRANCH   6  24
BRANCH   8  26
ATOM     26  O   UNL     1      11.986  22.708  22.443  1.00  0.00    -0.508 OA
ATOM     27  H   UNL     1      12.364  23.349  21.754  1.00  0.00     0.293 HD
ENDBRANCH   8  26
TORSDOF 6
ENDMDL
MODEL 9
REMARK VINA RESULT:    -4.849      5.111      7.178
REMARK INTER + INTRA:          -6.270
REMARK INTER:                  -5.999
REMARK INTRA:                  -0.271
REMARK UNBOUND:                -0.428
REMARK SMILES O=c1c(O)c(-c2ccc(O)cc2O)oc2cc(O)cc(O)c12
REMARK SMILES IDX 5 1 3 2 2 3 1 4 22 5 20 6 19 7 17 8 16 9 15 10 14 11 6 12
REMARK SMILES IDX 8 13 7 14 9 15 11 16 12 17 10 18 13 20 4 22 21 24 18 26
REMARK H PARENT 10 19 13 21 4 23 21 25 18 27
REMARK Flexibility Score: inf
ROOT
ATOM      1  C   UNL     1       8.117  21.627  23.816  1.00  0.00     0.184 A 
ATOM      2  C   UNL     1       8.566  22.671  22.991  1.00  0.00     0.208 A 
ATOM      3  C   UNL     1       9.000  22.370  21.690  1.00  0.00     0.238 A 
ATOM      4  O   UNL     1       9.452  23.302  20.974  1.00  0.00    -0.285 OA
ATOM      5  C   UNL     1       8.963  21.033  21.226  1.00  0.00     0.111 A 
ATOM      6  C   UNL     1       9.340  20.620  19.913  1.00  0.00     0.134 A 
ATOM      7  C   UNL     1       9.386  19.255  19.605  1.00  0.00     0.093 A 
ATOM      8  C   UNL     1       9.006  18.291  20.543  1.00  0.00     0.123 A 
ATOM      9  C   UNL     1       8.580  18.689  21.809  1.00  0.00     0.094 A 
ATOM     10  C   UNL     1       8.558  20.041  22.157  1.00  0.00     0.146 A 
ATOM     11  O   UNL     1       8.155  20.375  23.377  1.00  0.00    -0.451 OA
ENDROOT
BRANCH   1  12
ATOM     12  C   UNL     1       7.631  21.877  25.189  1.00  0.00     0.063 A 
ATOM     13  C   UNL     1       8.057  22.762  27.413  1.00  0.00     0.047 A 
ATOM     14  C   UNL     1       8.481  22.516  26.105  1.00  0.00     0.020 A 
ATOM     15  C   UNL     1       6.783  22.361  27.826  1.00  0.00     0.119 A 
ATOM     16  C   UNL     1       5.937  21.701  26.926  1.00  0.00     0.093 A 
ATOM     17  C   UNL     1       6.358  21.445  25.613  1.00  0.00     0.130 A 
BRANCH  15  18
ATOM     18  O   UNL     1       6.372  22.617  29.132  1.00  0.00    -0.508 OA
ATOM     19  H   UNL     1       6.799  22.149  29.923  1.00  0.00     0.293 HD
ENDBRANCH  15  18
BRANCH  17  20
ATOM     20  O   UNL     1       5.525  20.744  24.741  1.00  0.00    -0.507 OA
ATOM     21  H   UNL     1       4.570  21.036  24.568  1.00  0.00     0.293 HD
ENDBRANCH  17  20
ENDBRANCH   1  12
BRANCH   2  22
ATOM     22  O   UNL     1       8.610  23.979  23.481  1.00  0.00    -0.502 OA
ATOM     23  H   UNL     1       8.048  24.725  23.088  1.00  0.00     0.293 HD
ENDBRANCH   2  22
BRANCH   6  24
ATOM     24  O   UNL     1       9.649  21.505  18.875  1.00  0.00    -0.507 OA
ATOM     25  H   UNL     1       9.776  21.236  17.911  1.00  0.00     0.293 HD
ENDBRANCH   6  24
BRANCH   8  26
ATOM     26  O   UNL     1       9.040  16.936  20.224  1.00  0.00    -0.508 OA
ATOM     27  H   UNL     1       8.230  16.462  19.838  1.00  0.00     0.293 HD
ENDBRANCH   8  26
TORSDOF 6
ENDMDL
