MODEL 1
REMARK VINA RESULT:    -3.505      0.000      0.000
REMARK INTER + INTRA:          -3.927
REMARK INTER:                  -3.915
REMARK INTRA:                  -0.012
REMARK UNBOUND:                -0.012
REMARK SMILES CCCC(=O)[O-]
REMARK SMILES IDX 3 1 4 2 5 3 6 4 2 5 1 6
REMARK H PARENT
REMARK Flexibility Score: inf
ROOT
ATOM      1  C   UNL     1      -5.506  18.984 -21.798  1.00  0.00     0.052 C 
ENDROOT
BRANCH   1   2
ATOM      2  C   UNL     1      -4.749  20.262 -21.603  1.00  0.00     0.041 C 
ATOM      3  O   UNL     1      -4.002  20.701 -22.516  1.00  0.00    -0.550 OA
ATOM      4  O   UNL     1      -4.894  20.985 -20.426  1.00  0.00    -0.550 OA
ENDBRANCH   1   2
BRANCH   1   5
ATOM      5  C   UNL     1      -5.128  18.293 -23.113  1.00  0.00     0.003 C 
ATOM      6  C   UNL     1      -5.475  16.804 -23.108  1.00  0.00     0.004 C 
ENDBRANCH   1   5
TORSDOF 2
ENDMDL
MODEL 2
REMARK VINA RESULT:    -3.473     20.671     21.263
REMARK INTER + INTRA:          -3.891
REMARK INTER:                  -3.880
REMARK INTRA:                  -0.011
REMARK UNBOUND:                -0.012
REMARK SMILES CCCC(=O)[O-]
REMARK SMILES IDX 3 1 4 2 5 3 6 4 2 5 1 6
REMARK H PARENT
REMARK Flexibility Score: inf
ROOT
ATOM      1  C   UNL     1     -15.167  10.197  -6.805  1.00  0.00     0.052 C 
ENDROOT
BRANCH   1   2
ATOM      2  C   UNL     1     -15.581  10.869  -5.532  1.00  0.00     0.041 C 
ATOM      3  O   UNL     1     -16.465  10.350  -4.801  1.00  0.00    -0.550 OA
ATOM      4  O   UNL     1     -14.967  12.050  -5.136  1.00  0.00    -0.550 OA
ENDBRANCH   1   2
BRANCH   1   5
ATOM      5  C   UNL     1     -15.576   8.719  -6.829  1.00  0.00     0.003 C 
ATOM      6  C   UNL     1     -15.358   8.078  -8.199  1.00  0.00     0.004 C 
ENDBRANCH   1   5
TORSDOF 2
ENDMDL
MODEL 3
REMARK VINA RESULT:    -3.410     20.738     21.442
REMARK INTER + INTRA:          -3.820
REMARK INTER:                  -3.806
REMARK INTRA:                  -0.014
REMARK UNBOUND:                -0.012
REMARK SMILES CCCC(=O)[O-]
REMARK SMILES IDX 3 1 4 2 5 3 6 4 2 5 1 6
REMARK H PARENT
REMARK Flexibility Score: inf
ROOT
ATOM      1  C   UNL     1     -15.298  10.231  -6.881  1.00  0.00     0.052 C 
ENDROOT
BRANCH   1   2
ATOM      2  C   UNL     1     -15.322   8.734  -6.822  1.00  0.00     0.041 C 
ATOM      3  O   UNL     1     -15.665   8.148  -5.762  1.00  0.00    -0.550 OA
ATOM      4  O   UNL     1     -15.000   7.988  -7.949  1.00  0.00    -0.550 OA
ENDBRANCH   1   2
BRANCH   1   5
ATOM      5  C   UNL     1     -15.573  10.859  -5.509  1.00  0.00     0.003 C 
ATOM      6  C   UNL     1     -14.892  12.218  -5.346  1.00  0.00     0.004 C 
ENDBRANCH   1   5
TORSDOF 2
ENDMDL
MODEL 4
REMARK VINA RESULT:    -3.291      2.344      3.257
REMARK INTER + INTRA:          -3.688
REMARK INTER:                  -3.656
REMARK INTRA:                  -0.032
REMARK UNBOUND:                -0.012
REMARK SMILES CCCC(=O)[O-]
REMARK SMILES IDX 3 1 4 2 5 3 6 4 2 5 1 6
REMARK H PARENT
REMARK Flexibility Score: inf
ROOT
ATOM      1  C   UNL     1      -5.278  19.470 -23.027  1.00  0.00     0.052 C 
ENDROOT
BRANCH   1   2
ATOM      2  C   UNL     1      -5.243  17.985 -22.831  1.00  0.00     0.041 C 
ATOM      3  O   UNL     1      -4.503  17.268 -23.554  1.00  0.00    -0.550 OA
ATOM      4  O   UNL     1      -6.003  17.397 -21.828  1.00  0.00    -0.550 OA
ENDBRANCH   1   2
BRANCH   1   5
ATOM      5  C   UNL     1      -4.409  20.200 -21.997  1.00  0.00     0.003 C 
ATOM      6  C   UNL     1      -5.211  20.653 -20.777  1.00  0.00     0.004 C 
ENDBRANCH   1   5
TORSDOF 2
ENDMDL
MODEL 5
REMARK VINA RESULT:    -2.986     16.978     17.435
REMARK INTER + INTRA:          -3.348
REMARK INTER:                  -3.302
REMARK INTRA:                  -0.046
REMARK UNBOUND:                -0.012
REMARK SMILES CCCC(=O)[O-]
REMARK SMILES IDX 3 1 4 2 5 3 6 4 2 5 1 6
REMARK H PARENT
REMARK Flexibility Score: inf
ROOT
ATOM      1  C   UNL     1      -1.147   8.562  -9.748  1.00  0.00     0.052 C 
ENDROOT
BRANCH   1   2
ATOM      2  C   UNL     1      -0.846   9.828  -9.005  1.00  0.00     0.041 C 
ATOM      3  O   UNL     1      -1.445  10.087  -7.929  1.00  0.00    -0.550 OA
ATOM      4  O   UNL     1       0.121  10.703  -9.483  1.00  0.00    -0.550 OA
ENDBRANCH   1   2
BRANCH   1   5
ATOM      5  C   UNL     1      -1.368   7.381  -8.796  1.00  0.00     0.003 C 
ATOM      6  C   UNL     1      -0.059   6.684  -8.423  1.00  0.00     0.004 C 
ENDBRANCH   1   5
TORSDOF 2
ENDMDL
MODEL 6
REMARK VINA RESULT:    -2.980     17.100     17.565
REMARK INTER + INTRA:          -3.341
REMARK INTER:                  -3.317
REMARK INTRA:                  -0.023
REMARK UNBOUND:                -0.012
REMARK SMILES CCCC(=O)[O-]
REMARK SMILES IDX 3 1 4 2 5 3 6 4 2 5 1 6
REMARK H PARENT
REMARK Flexibility Score: inf
ROOT
ATOM      1  C   UNL     1      -1.369   8.499  -9.505  1.00  0.00     0.052 C 
ENDROOT
BRANCH   1   2
ATOM      2  C   UNL     1      -2.023   9.560  -8.674  1.00  0.00     0.041 C 
ATOM      3  O   UNL     1      -1.322  10.363  -8.005  1.00  0.00    -0.550 OA
ATOM      4  O   UNL     1      -3.407   9.682  -8.664  1.00  0.00    -0.550 OA
ENDBRANCH   1   2
BRANCH   1   5
ATOM      5  C   UNL     1      -1.352   7.143  -8.789  1.00  0.00     0.003 C 
ATOM      6  C   UNL     1       0.067   6.662  -8.490  1.00  0.00     0.004 C 
ENDBRANCH   1   5
TORSDOF 2
ENDMDL
MODEL 7
REMARK VINA RESULT:    -2.909     10.832     11.479
REMARK INTER + INTRA:          -3.261
REMARK INTER:                  -3.240
REMARK INTRA:                  -0.021
REMARK UNBOUND:                -0.012
REMARK SMILES CCCC(=O)[O-]
REMARK SMILES IDX 3 1 4 2 5 3 6 4 2 5 1 6
REMARK H PARENT
REMARK Flexibility Score: inf
ROOT
ATOM      1  C   UNL     1      -2.300  10.462 -16.737  1.00  0.00     0.052 C 
ENDROOT
BRANCH   1   2
ATOM      2  C   UNL     1      -3.451   9.722 -17.346  1.00  0.00     0.041 C 
ATOM      3  O   UNL     1      -3.250   8.670 -18.007  1.00  0.00    -0.550 OA
ATOM      4  O   UNL     1      -4.750  10.177 -17.155  1.00  0.00    -0.550 OA
ENDBRANCH   1   2
BRANCH   1   5
ATOM      5  C   UNL     1      -2.068  10.052 -15.277  1.00  0.00     0.003 C 
ATOM      6  C   UNL     1      -2.929  10.858 -14.304  1.00  0.00     0.004 C 
ENDBRANCH   1   5
TORSDOF 2
ENDMDL
MODEL 8
REMARK VINA RESULT:    -2.907     14.028     14.425
REMARK INTER + INTRA:          -3.259
REMARK INTER:                  -3.224
REMARK INTRA:                  -0.035
REMARK UNBOUND:                -0.012
REMARK SMILES CCCC(=O)[O-]
REMARK SMILES IDX 3 1 4 2 5 3 6 4 2 5 1 6
REMARK H PARENT
REMARK Flexibility Score: inf
ROOT
ATOM      1  C   UNL     1     -18.654  17.636 -20.962  1.00  0.00     0.052 C 
ENDROOT
BRANCH   1   2
ATOM      2  C   UNL     1     -18.829  18.910 -20.193  1.00  0.00     0.041 C 
ATOM      3  O   UNL     1     -19.938  19.182 -19.662  1.00  0.00    -0.550 OA
ATOM      4  O   UNL     1     -17.758  19.781 -20.034  1.00  0.00    -0.550 OA
ENDBRANCH   1   2
BRANCH   1   5
ATOM      5  C   UNL     1     -19.982  17.136 -21.544  1.00  0.00     0.003 C 
ATOM      6  C   UNL     1     -20.125  17.463 -23.030  1.00  0.00     0.004 C 
ENDBRANCH   1   5
TORSDOF 2
ENDMDL
MODEL 9
REMARK VINA RESULT:    -2.858     17.546     18.045
REMARK INTER + INTRA:          -3.204
REMARK INTER:                  -3.171
REMARK INTRA:                  -0.034
REMARK UNBOUND:                -0.012
REMARK SMILES CCCC(=O)[O-]
REMARK SMILES IDX 3 1 4 2 5 3 6 4 2 5 1 6
REMARK H PARENT
REMARK Flexibility Score: inf
ROOT
ATOM      1  C   UNL     1      -0.634   8.498  -9.475  1.00  0.00     0.052 C 
ENDROOT
BRANCH   1   2
ATOM      2  C   UNL     1      -0.919   7.173  -8.836  1.00  0.00     0.041 C 
ATOM      3  O   UNL     1      -2.103   6.754  -8.751  1.00  0.00    -0.550 OA
ATOM      4  O   UNL     1       0.125   6.387  -8.365  1.00  0.00    -0.550 OA
ENDBRANCH   1   2
BRANCH   1   5
ATOM      5  C   UNL     1      -1.850   9.430  -9.422  1.00  0.00     0.003 C 
ATOM      6  C   UNL     1      -1.698  10.523  -8.363  1.00  0.00     0.004 C 
ENDBRANCH   1   5
TORSDOF 2
ENDMDL
