MODEL 1
REMARK VINA RESULT:    -3.224      0.000      0.000
REMARK INTER + INTRA:          -3.882
REMARK INTER:                  -3.695
REMARK INTRA:                  -0.187
REMARK UNBOUND:                -0.187
REMARK SMILES COc1ccc(C(C)=O)c(O)c1
REMARK SMILES IDX 6 1 10 2 12 3 3 4 4 5 5 6 7 7 8 8 9 9 11 10 2 12 1 13
REMARK H PARENT 11 11
REMARK Flexibility Score: inf
ROOT
ATOM      1  C   UNL     1      31.781  25.052  32.288  1.00  0.00     0.059 A 
ATOM      2  C   UNL     1      32.411  25.066  31.022  1.00  0.00     0.130 A 
ATOM      3  C   UNL     1      31.635  25.075  29.853  1.00  0.00     0.093 A 
ATOM      4  C   UNL     1      30.239  25.084  29.918  1.00  0.00     0.122 A 
ATOM      5  C   UNL     1      29.611  25.088  31.174  1.00  0.00     0.047 A 
ATOM      6  C   UNL     1      30.375  25.075  32.343  1.00  0.00     0.019 A 
ENDROOT
BRANCH   1   7
ATOM      7  C   UNL     1      32.547  25.025  33.563  1.00  0.00     0.163 C 
ATOM      8  C   UNL     1      31.881  25.095  34.904  1.00  0.00     0.093 C 
ATOM      9  O   UNL     1      33.805  24.939  33.525  1.00  0.00    -0.294 OA
ENDBRANCH   1   7
BRANCH   2  10
ATOM     10  O   UNL     1      33.801  25.096  30.915  1.00  0.00    -0.507 OA
ATOM     11  H   UNL     1      34.363  25.752  31.445  1.00  0.00     0.293 HD
ENDBRANCH   2  10
BRANCH   4  12
ATOM     12  O   UNL     1      29.516  25.093  28.715  1.00  0.00    -0.497 OA
ATOM     13  C   UNL     1      29.724  24.179  27.644  1.00  0.00     0.278 C 
ENDBRANCH   4  12
TORSDOF 3
ENDMDL
MODEL 2
REMARK VINA RESULT:    -3.103     16.889     18.802
REMARK INTER + INTRA:          -3.743
REMARK INTER:                  -3.422
REMARK INTRA:                  -0.321
REMARK UNBOUND:                -0.187
REMARK SMILES COc1ccc(C(C)=O)c(O)c1
REMARK SMILES IDX 6 1 10 2 12 3 3 4 4 5 5 6 7 7 8 8 9 9 11 10 2 12 1 13
REMARK H PARENT 11 11
REMARK Flexibility Score: inf
ROOT
ATOM      1  C   UNL     1      18.921  23.655  45.732  1.00  0.00     0.059 A 
ATOM      2  C   UNL     1      19.798  23.951  44.664  1.00  0.00     0.130 A 
ATOM      3  C   UNL     1      21.096  23.419  44.655  1.00  0.00     0.093 A 
ATOM      4  C   UNL     1      21.537  22.582  45.684  1.00  0.00     0.122 A 
ATOM      5  C   UNL     1      20.661  22.273  46.738  1.00  0.00     0.047 A 
ATOM      6  C   UNL     1      19.369  22.802  46.757  1.00  0.00     0.019 A 
ENDROOT
BRANCH   1   7
ATOM      7  C   UNL     1      17.540  24.202  45.809  1.00  0.00     0.163 C 
ATOM      8  C   UNL     1      16.898  24.589  47.106  1.00  0.00     0.093 C 
ATOM      9  O   UNL     1      16.875  24.351  44.747  1.00  0.00    -0.294 OA
ENDBRANCH   1   7
BRANCH   2  10
ATOM     10  O   UNL     1      19.384  24.750  43.598  1.00  0.00    -0.507 OA
ATOM     11  H   UNL     1      19.683  24.568  42.647  1.00  0.00     0.293 HD
ENDBRANCH   2  10
BRANCH   4  12
ATOM     12  O   UNL     1      22.845  22.079  45.621  1.00  0.00    -0.497 OA
ATOM     13  C   UNL     1      24.003  22.875  45.392  1.00  0.00     0.278 C 
ENDBRANCH   4  12
TORSDOF 3
ENDMDL
MODEL 3
REMARK VINA RESULT:    -2.854      3.242      4.874
REMARK INTER + INTRA:          -3.457
REMARK INTER:                  -3.125
REMARK INTRA:                  -0.333
REMARK UNBOUND:                -0.187
REMARK SMILES COc1ccc(C(C)=O)c(O)c1
REMARK SMILES IDX 6 1 10 2 12 3 3 4 4 5 5 6 7 7 8 8 9 9 11 10 2 12 1 13
REMARK H PARENT 11 11
REMARK Flexibility Score: inf
ROOT
ATOM      1  C   UNL     1      34.087  24.008  28.380  1.00  0.00     0.059 A 
ATOM      2  C   UNL     1      33.043  23.102  28.080  1.00  0.00     0.130 A 
ATOM      3  C   UNL     1      31.819  23.195  28.759  1.00  0.00     0.093 A 
ATOM      4  C   UNL     1      31.605  24.183  29.724  1.00  0.00     0.122 A 
ATOM      5  C   UNL     1      32.636  25.094  30.011  1.00  0.00     0.047 A 
ATOM      6  C   UNL     1      33.859  25.007  29.344  1.00  0.00     0.019 A 
ENDROOT
BRANCH   1   7
ATOM      7  C   UNL     1      35.413  23.950  27.709  1.00  0.00     0.163 C 
ATOM      8  C   UNL     1      36.002  25.125  26.988  1.00  0.00     0.093 C 
ATOM      9  O   UNL     1      36.076  22.877  27.741  1.00  0.00    -0.294 OA
ENDBRANCH   1   7
BRANCH   2  10
ATOM     10  O   UNL     1      33.203  22.127  27.096  1.00  0.00    -0.507 OA
ATOM     11  H   UNL     1      34.115  21.887  26.725  1.00  0.00     0.293 HD
ENDBRANCH   2  10
BRANCH   4  12
ATOM     12  O   UNL     1      30.361  24.227  30.370  1.00  0.00    -0.497 OA
ATOM     13  C   UNL     1      30.181  24.506  31.754  1.00  0.00     0.278 C 
ENDBRANCH   4  12
TORSDOF 3
ENDMDL
MODEL 4
REMARK VINA RESULT:    -2.761      2.467      4.325
REMARK INTER + INTRA:          -3.352
REMARK INTER:                  -3.020
REMARK INTRA:                  -0.331
REMARK UNBOUND:                -0.187
REMARK SMILES COc1ccc(C(C)=O)c(O)c1
REMARK SMILES IDX 6 1 10 2 12 3 3 4 4 5 5 6 7 7 8 8 9 9 11 10 2 12 1 13
REMARK H PARENT 11 11
REMARK Flexibility Score: inf
ROOT
ATOM      1  C   UNL     1      31.584  24.585  29.889  1.00  0.00     0.059 A 
ATOM      2  C   UNL     1      31.508  23.736  28.761  1.00  0.00     0.130 A 
ATOM      3  C   UNL     1      32.663  23.458  28.014  1.00  0.00     0.093 A 
ATOM      4  C   UNL     1      33.900  23.999  28.376  1.00  0.00     0.122 A 
ATOM      5  C   UNL     1      33.980  24.829  29.506  1.00  0.00     0.047 A 
ATOM      6  C   UNL     1      32.836  25.114  30.253  1.00  0.00     0.019 A 
ENDROOT
BRANCH   1   7
ATOM      7  C   UNL     1      30.394  24.932  30.710  1.00  0.00     0.163 C 
ATOM      8  C   UNL     1      30.455  25.063  32.202  1.00  0.00     0.093 C 
ATOM      9  O   UNL     1      29.285  25.125  30.140  1.00  0.00    -0.294 OA
ENDBRANCH   1   7
BRANCH   2  10
ATOM     10  O   UNL     1      30.300  23.145  28.390  1.00  0.00    -0.507 OA
ATOM     11  H   UNL     1      29.410  23.494  28.725  1.00  0.00     0.293 HD
ENDBRANCH   2  10
BRANCH   4  12
ATOM     12  O   UNL     1      35.020  23.685  27.591  1.00  0.00    -0.497 OA
ATOM     13  C   UNL     1      36.340  23.528  28.099  1.00  0.00     0.278 C 
ENDBRANCH   4  12
TORSDOF 3
ENDMDL
MODEL 5
REMARK VINA RESULT:    -2.504      2.713      5.101
REMARK INTER + INTRA:          -3.057
REMARK INTER:                  -2.742
REMARK INTRA:                  -0.315
REMARK UNBOUND:                -0.187
REMARK SMILES COc1ccc(C(C)=O)c(O)c1
REMARK SMILES IDX 6 1 10 2 12 3 3 4 4 5 5 6 7 7 8 8 9 9 11 10 2 12 1 13
REMARK H PARENT 11 11
REMARK Flexibility Score: inf
ROOT
ATOM      1  C   UNL     1      32.189  24.296  29.207  1.00  0.00     0.059 A 
ATOM      2  C   UNL     1      33.040  23.852  28.169  1.00  0.00     0.130 A 
ATOM      3  C   UNL     1      34.424  24.065  28.260  1.00  0.00     0.093 A 
ATOM      4  C   UNL     1      34.983  24.699  29.373  1.00  0.00     0.122 A 
ATOM      5  C   UNL     1      34.140  25.125  30.413  1.00  0.00     0.047 A 
ATOM      6  C   UNL     1      32.762  24.922  30.330  1.00  0.00     0.019 A 
ENDROOT
BRANCH   1   7
ATOM      7  C   UNL     1      30.713  24.117  29.163  1.00  0.00     0.163 C 
ATOM      8  C   UNL     1      29.764  25.092  29.792  1.00  0.00     0.093 C 
ATOM      9  O   UNL     1      30.231  23.109  28.576  1.00  0.00    -0.294 OA
ENDBRANCH   1   7
BRANCH   2  10
ATOM     10  O   UNL     1      32.527  23.181  27.060  1.00  0.00    -0.507 OA
ATOM     11  H   UNL     1      33.053  22.458  26.583  1.00  0.00     0.293 HD
ENDBRANCH   2  10
BRANCH   4  12
ATOM     12  O   UNL     1      36.373  24.883  29.408  1.00  0.00    -0.497 OA
ATOM     13  C   UNL     1      37.124  25.125  30.593  1.00  0.00     0.278 C 
ENDBRANCH   4  12
TORSDOF 3
ENDMDL
MODEL 6
REMARK VINA RESULT:    -2.427      1.832      4.545
REMARK INTER + INTRA:          -2.969
REMARK INTER:                  -2.630
REMARK INTRA:                  -0.339
REMARK UNBOUND:                -0.187
REMARK SMILES COc1ccc(C(C)=O)c(O)c1
REMARK SMILES IDX 6 1 10 2 12 3 3 4 4 5 5 6 7 7 8 8 9 9 11 10 2 12 1 13
REMARK H PARENT 11 11
REMARK Flexibility Score: inf
ROOT
ATOM      1  C   UNL     1      31.891  24.021  29.354  1.00  0.00     0.059 A 
ATOM      2  C   UNL     1      32.856  24.739  30.098  1.00  0.00     0.130 A 
ATOM      3  C   UNL     1      32.591  25.096  31.429  1.00  0.00     0.093 A 
ATOM      4  C   UNL     1      31.387  24.740  32.042  1.00  0.00     0.122 A 
ATOM      5  C   UNL     1      30.434  24.012  31.310  1.00  0.00     0.047 A 
ATOM      6  C   UNL     1      30.687  23.656  29.984  1.00  0.00     0.019 A 
ENDROOT
BRANCH   1   7
ATOM      7  C   UNL     1      32.104  23.629  27.935  1.00  0.00     0.163 C 
ATOM      8  C   UNL     1      31.057  23.823  26.880  1.00  0.00     0.093 C 
ATOM      9  O   UNL     1      33.204  23.112  27.596  1.00  0.00    -0.294 OA
ENDBRANCH   1   7
BRANCH   2  10
ATOM     10  O   UNL     1      34.085  25.079  29.535  1.00  0.00    -0.507 OA
ATOM     11  H   UNL     1      34.151  25.654  28.702  1.00  0.00     0.293 HD
ENDBRANCH   2  10
BRANCH   4  12
ATOM     12  O   UNL     1      31.178  25.125  33.375  1.00  0.00    -0.497 OA
ATOM     13  C   UNL     1      32.176  25.086  34.390  1.00  0.00     0.278 C 
ENDBRANCH   4  12
TORSDOF 3
ENDMDL
MODEL 7
REMARK VINA RESULT:    -2.154      2.593      3.227
REMARK INTER + INTRA:          -2.656
REMARK INTER:                  -2.375
REMARK INTRA:                  -0.281
REMARK UNBOUND:                -0.187
REMARK SMILES COc1ccc(C(C)=O)c(O)c1
REMARK SMILES IDX 6 1 10 2 12 3 3 4 4 5 5 6 7 7 8 8 9 9 11 10 2 12 1 13
REMARK H PARENT 11 11
REMARK Flexibility Score: inf
ROOT
ATOM      1  C   UNL     1      34.050  24.660  29.852  1.00  0.00     0.059 A 
ATOM      2  C   UNL     1      33.764  23.988  28.641  1.00  0.00     0.130 A 
ATOM      3  C   UNL     1      32.432  23.771  28.258  1.00  0.00     0.093 A 
ATOM      4  C   UNL     1      31.373  24.225  29.050  1.00  0.00     0.122 A 
ATOM      5  C   UNL     1      31.656  24.909  30.244  1.00  0.00     0.047 A 
ATOM      6  C   UNL     1      32.978  25.125  30.635  1.00  0.00     0.019 A 
ENDROOT
BRANCH   1   7
ATOM      7  C   UNL     1      35.440  24.905  30.322  1.00  0.00     0.163 C 
ATOM      8  C   UNL     1      35.774  25.125  31.766  1.00  0.00     0.093 C 
ATOM      9  O   UNL     1      36.380  24.931  29.481  1.00  0.00    -0.294 OA
ENDBRANCH   1   7
BRANCH   2  10
ATOM     10  O   UNL     1      34.791  23.554  27.804  1.00  0.00    -0.507 OA
ATOM     11  H   UNL     1      35.144  22.605  27.840  1.00  0.00     0.293 HD
ENDBRANCH   2  10
BRANCH   4  12
ATOM     12  O   UNL     1      30.062  23.980  28.615  1.00  0.00    -0.497 OA
ATOM     13  C   UNL     1      29.186  24.975  28.099  1.00  0.00     0.278 C 
ENDBRANCH   4  12
TORSDOF 3
ENDMDL
MODEL 8
REMARK VINA RESULT:    -2.013      1.806      4.780
REMARK INTER + INTRA:          -2.494
REMARK INTER:                  -2.296
REMARK INTRA:                  -0.198
REMARK UNBOUND:                -0.187
REMARK SMILES COc1ccc(C(C)=O)c(O)c1
REMARK SMILES IDX 6 1 10 2 12 3 3 4 4 5 5 6 7 7 8 8 9 9 11 10 2 12 1 13
REMARK H PARENT 11 11
REMARK Flexibility Score: inf
ROOT
ATOM      1  C   UNL     1      31.668  24.907  29.510  1.00  0.00     0.059 A 
ATOM      2  C   UNL     1      30.304  24.884  29.883  1.00  0.00     0.130 A 
ATOM      3  C   UNL     1      29.947  24.941  31.239  1.00  0.00     0.093 A 
ATOM      4  C   UNL     1      30.922  25.034  32.235  1.00  0.00     0.122 A 
ATOM      5  C   UNL     1      32.277  25.074  31.866  1.00  0.00     0.047 A 
ATOM      6  C   UNL     1      32.642  25.015  30.520  1.00  0.00     0.019 A 
ENDROOT
BRANCH   1   7
ATOM      7  C   UNL     1      32.111  24.833  28.092  1.00  0.00     0.163 C 
ATOM      8  C   UNL     1      33.548  24.970  27.690  1.00  0.00     0.093 C 
ATOM      9  O   UNL     1      31.253  24.648  27.186  1.00  0.00    -0.294 OA
ENDBRANCH   1   7
BRANCH   2  10
ATOM     10  O   UNL     1      29.299  24.831  28.917  1.00  0.00    -0.507 OA
ATOM     11  H   UNL     1      29.440  25.192  27.980  1.00  0.00     0.293 HD
ENDBRANCH   2  10
BRANCH   4  12
ATOM     12  O   UNL     1      30.505  25.088  33.574  1.00  0.00    -0.497 OA
ATOM     13  C   UNL     1      31.387  25.124  34.691  1.00  0.00     0.278 C 
ENDBRANCH   4  12
TORSDOF 3
ENDMDL
