MODEL 1
REMARK VINA RESULT:    -5.095      0.000      0.000
REMARK INTER + INTRA:          -5.835
REMARK INTER:                  -5.690
REMARK INTRA:                  -0.145
REMARK UNBOUND:                -0.145
REMARK SMILES O=C([O-])C=Cc1ccccc1
REMARK SMILES IDX 4 1 5 2 2 3 1 4 3 5 6 6 7 7 11 8 8 9 10 10 9 11
REMARK H PARENT
REMARK Flexibility Score: inf
ROOT
ATOM      1  C   UNL     1      12.404  51.439  42.246  1.00  0.00     0.025 C 
ATOM      2  C   UNL     1      11.579  50.592  41.610  1.00  0.00     0.010 C 
ENDROOT
BRANCH   1   3
ATOM      3  C   UNL     1      13.830  51.137  42.452  1.00  0.00     0.064 C 
ATOM      4  O   UNL     1      14.524  50.603  41.544  1.00  0.00    -0.545 OA
ATOM      5  O   UNL     1      14.424  51.447  43.669  1.00  0.00    -0.545 OA
ENDBRANCH   1   3
BRANCH   2   6
ATOM      6  C   UNL     1      10.132  50.836  41.370  1.00  0.00    -0.026 A 
ATOM      7  C   UNL     1       9.480  51.798  42.166  1.00  0.00     0.008 A 
ATOM      8  C   UNL     1       9.380  50.154  40.388  1.00  0.00     0.008 A 
ATOM      9  C   UNL     1       8.121  52.071  41.988  1.00  0.00     0.001 A 
ATOM     10  C   UNL     1       8.020  50.432  40.216  1.00  0.00     0.001 A 
ATOM     11  C   UNL     1       7.392  51.389  41.013  1.00  0.00     0.000 A 
ENDBRANCH   2   6
TORSDOF 2
ENDMDL
MODEL 2
REMARK VINA RESULT:    -4.860      3.849      5.443
REMARK INTER + INTRA:          -5.573
REMARK INTER:                  -5.442
REMARK INTRA:                  -0.131
REMARK UNBOUND:                -0.145
REMARK SMILES O=C([O-])C=Cc1ccccc1
REMARK SMILES IDX 4 1 5 2 2 3 1 4 3 5 6 6 7 7 11 8 8 9 10 10 9 11
REMARK H PARENT
REMARK Flexibility Score: inf
ROOT
ATOM      1  C   UNL     1       8.030  51.766  41.467  1.00  0.00     0.025 C 
ATOM      2  C   UNL     1       8.918  52.246  42.351  1.00  0.00     0.010 C 
ENDROOT
BRANCH   1   3
ATOM      3  C   UNL     1       6.599  52.110  41.528  1.00  0.00     0.064 C 
ATOM      4  O   UNL     1       5.718  51.316  41.100  1.00  0.00    -0.545 OA
ATOM      5  O   UNL     1       6.213  53.330  42.067  1.00  0.00    -0.545 OA
ENDBRANCH   1   3
BRANCH   2   6
ATOM      6  C   UNL     1      10.374  51.936  42.346  1.00  0.00    -0.026 A 
ATOM      7  C   UNL     1      11.265  52.934  42.784  1.00  0.00     0.008 A 
ATOM      8  C   UNL     1      10.904  50.697  41.924  1.00  0.00     0.008 A 
ATOM      9  C   UNL     1      12.644  52.703  42.801  1.00  0.00     0.001 A 
ATOM     10  C   UNL     1      12.284  50.472  41.944  1.00  0.00     0.001 A 
ATOM     11  C   UNL     1      13.152  51.473  42.382  1.00  0.00     0.000 A 
ENDBRANCH   2   6
TORSDOF 2
ENDMDL
MODEL 3
REMARK VINA RESULT:    -4.796      3.873      5.622
REMARK INTER + INTRA:          -5.502
REMARK INTER:                  -5.357
REMARK INTRA:                  -0.145
REMARK UNBOUND:                -0.145
REMARK SMILES O=C([O-])C=Cc1ccccc1
REMARK SMILES IDX 4 1 5 2 2 3 1 4 3 5 6 6 7 7 11 8 8 9 10 10 9 11
REMARK H PARENT
REMARK Flexibility Score: inf
ROOT
ATOM      1  C   UNL     1       7.924  51.778  41.584  1.00  0.00     0.025 C 
ATOM      2  C   UNL     1       8.862  52.396  42.317  1.00  0.00     0.010 C 
ENDROOT
BRANCH   1   3
ATOM      3  C   UNL     1       6.512  52.195  41.604  1.00  0.00     0.064 C 
ATOM      4  O   UNL     1       5.597  51.425  41.204  1.00  0.00    -0.545 OA
ATOM      5  O   UNL     1       6.180  53.460  42.072  1.00  0.00    -0.545 OA
ENDBRANCH   1   3
BRANCH   2   6
ATOM      6  C   UNL     1      10.303  52.023  42.342  1.00  0.00    -0.026 A 
ATOM      7  C   UNL     1      10.658  50.724  41.933  1.00  0.00     0.008 A 
ATOM      8  C   UNL     1      11.327  52.904  42.754  1.00  0.00     0.008 A 
ATOM      9  C   UNL     1      11.995  50.315  41.935  1.00  0.00     0.001 A 
ATOM     10  C   UNL     1      12.662  52.488  42.754  1.00  0.00     0.001 A 
ATOM     11  C   UNL     1      12.996  51.197  42.345  1.00  0.00     0.000 A 
ENDBRANCH   2   6
TORSDOF 2
ENDMDL
MODEL 4
REMARK VINA RESULT:    -4.689      3.852      5.430
REMARK INTER + INTRA:          -5.382
REMARK INTER:                  -5.255
REMARK INTRA:                  -0.127
REMARK UNBOUND:                -0.145
REMARK SMILES O=C([O-])C=Cc1ccccc1
REMARK SMILES IDX 4 1 5 2 2 3 1 4 3 5 6 6 7 7 11 8 8 9 10 10 9 11
REMARK H PARENT
REMARK Flexibility Score: inf
ROOT
ATOM      1  C   UNL     1      15.335  53.884  45.036  1.00  0.00     0.025 C 
ATOM      2  C   UNL     1      14.927  53.977  43.762  1.00  0.00     0.010 C 
ENDROOT
BRANCH   1   3
ATOM      3  C   UNL     1      16.068  54.971  45.707  1.00  0.00     0.064 C 
ATOM      4  O   UNL     1      17.203  55.341  45.301  1.00  0.00    -0.545 OA
ATOM      5  O   UNL     1      15.499  55.601  46.806  1.00  0.00    -0.545 OA
ENDBRANCH   1   3
BRANCH   2   6
ATOM      6  C   UNL     1      14.185  52.917  43.028  1.00  0.00    -0.026 A 
ATOM      7  C   UNL     1      14.929  51.969  42.300  1.00  0.00     0.008 A 
ATOM      8  C   UNL     1      12.776  52.814  43.024  1.00  0.00     0.008 A 
ATOM      9  C   UNL     1      14.288  50.950  41.590  1.00  0.00     0.001 A 
ATOM     10  C   UNL     1      12.141  51.792  42.311  1.00  0.00     0.001 A 
ATOM     11  C   UNL     1      12.895  50.861  41.596  1.00  0.00     0.000 A 
ENDBRANCH   2   6
TORSDOF 2
ENDMDL
MODEL 5
REMARK VINA RESULT:    -4.679      3.989      5.464
REMARK INTER + INTRA:          -5.371
REMARK INTER:                  -5.240
REMARK INTRA:                  -0.131
REMARK UNBOUND:                -0.145
REMARK SMILES O=C([O-])C=Cc1ccccc1
REMARK SMILES IDX 4 1 5 2 2 3 1 4 3 5 6 6 7 7 11 8 8 9 10 10 9 11
REMARK H PARENT
REMARK Flexibility Score: inf
ROOT
ATOM      1  C   UNL     1      15.382  53.956  45.058  1.00  0.00     0.025 C 
ATOM      2  C   UNL     1      15.187  53.949  43.731  1.00  0.00     0.010 C 
ENDROOT
BRANCH   1   3
ATOM      3  C   UNL     1      16.109  55.041  45.738  1.00  0.00     0.064 C 
ATOM      4  O   UNL     1      17.142  55.555  45.229  1.00  0.00    -0.545 OA
ATOM      5  O   UNL     1      15.649  55.509  46.962  1.00  0.00    -0.545 OA
ENDBRANCH   1   3
BRANCH   2   6
ATOM      6  C   UNL     1      14.464  52.885  42.984  1.00  0.00    -0.026 A 
ATOM      7  C   UNL     1      13.060  52.846  43.079  1.00  0.00     0.008 A 
ATOM      8  C   UNL     1      15.112  51.915  42.188  1.00  0.00     0.008 A 
ATOM      9  C   UNL     1      12.324  51.869  42.401  1.00  0.00     0.001 A 
ATOM     10  C   UNL     1      14.370  50.941  41.513  1.00  0.00     0.001 A 
ATOM     11  C   UNL     1      12.979  50.918  41.618  1.00  0.00     0.000 A 
ENDBRANCH   2   6
TORSDOF 2
ENDMDL
MODEL 6
REMARK VINA RESULT:    -4.679     13.741     15.706
REMARK INTER + INTRA:          -5.371
REMARK INTER:                  -5.233
REMARK INTRA:                  -0.138
REMARK UNBOUND:                -0.145
REMARK SMILES O=C([O-])C=Cc1ccccc1
REMARK SMILES IDX 4 1 5 2 2 3 1 4 3 5 6 6 7 7 11 8 8 9 10 10 9 11
REMARK H PARENT
REMARK Flexibility Score: inf
ROOT
ATOM      1  C   UNL     1      16.923  62.392  44.971  1.00  0.00     0.025 C 
ATOM      2  C   UNL     1      17.571  63.433  44.425  1.00  0.00     0.010 C 
ENDROOT
BRANCH   1   3
ATOM      3  C   UNL     1      16.127  61.453  44.162  1.00  0.00     0.064 C 
ATOM      4  O   UNL     1      14.873  61.392  44.277  1.00  0.00    -0.545 OA
ATOM      5  O   UNL     1      16.769  60.620  43.255  1.00  0.00    -0.545 OA
ENDBRANCH   1   3
BRANCH   2   6
ATOM      6  C   UNL     1      18.389  64.417  45.185  1.00  0.00    -0.026 A 
ATOM      7  C   UNL     1      19.261  63.929  46.177  1.00  0.00     0.008 A 
ATOM      8  C   UNL     1      18.334  65.810  44.963  1.00  0.00     0.008 A 
ATOM      9  C   UNL     1      20.054  64.803  46.924  1.00  0.00     0.001 A 
ATOM     10  C   UNL     1      19.130  66.680  45.715  1.00  0.00     0.001 A 
ATOM     11  C   UNL     1      19.989  66.178  46.693  1.00  0.00     0.000 A 
ENDBRANCH   2   6
TORSDOF 2
ENDMDL
MODEL 7
REMARK VINA RESULT:    -4.658      3.802      5.633
REMARK INTER + INTRA:          -5.348
REMARK INTER:                  -5.216
REMARK INTRA:                  -0.132
REMARK UNBOUND:                -0.145
REMARK SMILES O=C([O-])C=Cc1ccccc1
REMARK SMILES IDX 4 1 5 2 2 3 1 4 3 5 6 6 7 7 11 8 8 9 10 10 9 11
REMARK H PARENT
REMARK Flexibility Score: inf
ROOT
ATOM      1  C   UNL     1       8.386  52.810  42.243  1.00  0.00     0.025 C 
ATOM      2  C   UNL     1       9.182  51.734  42.144  1.00  0.00     0.010 C 
ENDROOT
BRANCH   1   3
ATOM      3  C   UNL     1       6.922  52.718  42.110  1.00  0.00     0.064 C 
ATOM      4  O   UNL     1       6.156  53.404  42.840  1.00  0.00    -0.545 OA
ATOM      5  O   UNL     1       6.375  51.861  41.164  1.00  0.00    -0.545 OA
ENDBRANCH   1   3
BRANCH   2   6
ATOM      6  C   UNL     1      10.664  51.760  42.267  1.00  0.00    -0.026 A 
ATOM      7  C   UNL     1      11.385  50.630  41.839  1.00  0.00     0.008 A 
ATOM      8  C   UNL     1      11.382  52.858  42.791  1.00  0.00     0.008 A 
ATOM      9  C   UNL     1      12.780  50.594  41.929  1.00  0.00     0.001 A 
ATOM     10  C   UNL     1      12.777  52.816  42.879  1.00  0.00     0.001 A 
ATOM     11  C   UNL     1      13.475  51.688  42.448  1.00  0.00     0.000 A 
ENDBRANCH   2   6
TORSDOF 2
ENDMDL
MODEL 8
REMARK VINA RESULT:    -4.603      4.056      5.573
REMARK INTER + INTRA:          -5.286
REMARK INTER:                  -5.150
REMARK INTRA:                  -0.136
REMARK UNBOUND:                -0.145
REMARK SMILES O=C([O-])C=Cc1ccccc1
REMARK SMILES IDX 4 1 5 2 2 3 1 4 3 5 6 6 7 7 11 8 8 9 10 10 9 11
REMARK H PARENT
REMARK Flexibility Score: inf
ROOT
ATOM      1  C   UNL     1      10.611  54.712  42.500  1.00  0.00     0.025 C 
ATOM      2  C   UNL     1      10.857  53.475  42.957  1.00  0.00     0.010 C 
ENDROOT
BRANCH   1   3
ATOM      3  C   UNL     1       9.386  55.449  42.851  1.00  0.00     0.064 C 
ATOM      4  O   UNL     1       8.915  55.414  44.021  1.00  0.00    -0.545 OA
ATOM      5  O   UNL     1       8.736  56.198  41.879  1.00  0.00    -0.545 OA
ENDBRANCH   1   3
BRANCH   2   6
ATOM      6  C   UNL     1      12.073  52.678  42.639  1.00  0.00    -0.026 A 
ATOM      7  C   UNL     1      13.331  53.263  42.879  1.00  0.00     0.008 A 
ATOM      8  C   UNL     1      12.028  51.370  42.109  1.00  0.00     0.008 A 
ATOM      9  C   UNL     1      14.509  52.564  42.600  1.00  0.00     0.001 A 
ATOM     10  C   UNL     1      13.211  50.677  41.831  1.00  0.00     0.001 A 
ATOM     11  C   UNL     1      14.448  51.271  42.077  1.00  0.00     0.000 A 
ENDBRANCH   2   6
TORSDOF 2
ENDMDL
MODEL 9
REMARK VINA RESULT:    -4.588      2.382      3.533
REMARK INTER + INTRA:          -5.269
REMARK INTER:                  -5.123
REMARK INTRA:                  -0.147
REMARK UNBOUND:                -0.145
REMARK SMILES O=C([O-])C=Cc1ccccc1
REMARK SMILES IDX 4 1 5 2 2 3 1 4 3 5 6 6 7 7 11 8 8 9 10 10 9 11
REMARK H PARENT
REMARK Flexibility Score: inf
ROOT
ATOM      1  C   UNL     1      14.742  53.728  42.787  1.00  0.00     0.025 C 
ATOM      2  C   UNL     1      14.391  52.437  42.687  1.00  0.00     0.010 C 
ENDROOT
BRANCH   1   3
ATOM      3  C   UNL     1      16.137  54.147  43.004  1.00  0.00     0.064 C 
ATOM      4  O   UNL     1      17.073  53.304  43.051  1.00  0.00    -0.545 OA
ATOM      5  O   UNL     1      16.427  55.496  43.160  1.00  0.00    -0.545 OA
ENDBRANCH   1   3
BRANCH   2   6
ATOM      6  C   UNL     1      13.003  51.948  42.469  1.00  0.00    -0.026 A 
ATOM      7  C   UNL     1      11.940  52.833  42.730  1.00  0.00     0.008 A 
ATOM      8  C   UNL     1      12.699  50.645  42.016  1.00  0.00     0.008 A 
ATOM      9  C   UNL     1      10.614  52.432  42.545  1.00  0.00     0.001 A 
ATOM     10  C   UNL     1      11.370  50.250  41.833  1.00  0.00     0.001 A 
ATOM     11  C   UNL     1      10.329  51.142  42.095  1.00  0.00     0.000 A 
ENDBRANCH   2   6
TORSDOF 2
ENDMDL
