MODEL 1
REMARK VINA RESULT:    -3.603      0.000      0.000
REMARK INTER + INTRA:          -4.327
REMARK INTER:                  -4.235
REMARK INTRA:                  -0.091
REMARK UNBOUND:                -0.091
REMARK SMILES O=C([O-])CCC(=O)[O-]
REMARK SMILES IDX 4 1 2 2 1 3 3 4 5 5 6 6 7 7 8 8
REMARK H PARENT
REMARK Flexibility Score: inf
ROOT
ATOM      1  C   UNL     1      15.406  34.713  13.614  1.00  0.00     0.059 C 
ENDROOT
BRANCH   1   2
ATOM      2  C   UNL     1      13.972  35.130  13.519  1.00  0.00     0.042 C 
ATOM      3  O   UNL     1      13.108  34.603  14.268  1.00  0.00    -0.550 OA
ATOM      4  O   UNL     1      13.597  36.136  12.637  1.00  0.00    -0.550 OA
ENDBRANCH   1   2
BRANCH   1   5
ATOM      5  C   UNL     1      15.520  33.336  14.270  1.00  0.00     0.059 C 
BRANCH   5   6
ATOM      6  C   UNL     1      15.625  32.267  13.229  1.00  0.00     0.042 C 
ATOM      7  O   UNL     1      16.731  31.710  13.002  1.00  0.00    -0.550 OA
ATOM      8  O   UNL     1      14.512  31.921  12.473  1.00  0.00    -0.550 OA
ENDBRANCH   5   6
ENDBRANCH   1   5
TORSDOF 3
ENDMDL
MODEL 2
REMARK VINA RESULT:    -3.564      0.108      3.706
REMARK INTER + INTRA:          -4.281
REMARK INTER:                  -4.184
REMARK INTRA:                  -0.097
REMARK UNBOUND:                -0.091
REMARK SMILES O=C([O-])CCC(=O)[O-]
REMARK SMILES IDX 4 1 2 2 1 3 3 4 5 5 6 6 7 7 8 8
REMARK H PARENT
REMARK Flexibility Score: inf
ROOT
ATOM      1  C   UNL     1      15.513  33.336  14.277  1.00  0.00     0.059 C 
ENDROOT
BRANCH   1   2
ATOM      2  C   UNL     1      15.533  32.260  13.237  1.00  0.00     0.042 C 
ATOM      3  O   UNL     1      16.607  31.659  12.968  1.00  0.00    -0.550 OA
ATOM      4  O   UNL     1      14.357  31.885  12.600  1.00  0.00    -0.550 OA
ENDBRANCH   1   2
BRANCH   1   5
ATOM      5  C   UNL     1      15.385  34.711  13.621  1.00  0.00     0.059 C 
BRANCH   5   6
ATOM      6  C   UNL     1      13.954  35.149  13.598  1.00  0.00     0.042 C 
ATOM      7  O   UNL     1      13.114  34.608  14.365  1.00  0.00    -0.550 OA
ATOM      8  O   UNL     1      13.538  36.118  12.695  1.00  0.00    -0.550 OA
ENDBRANCH   5   6
ENDBRANCH   1   5
TORSDOF 3
ENDMDL
MODEL 3
REMARK VINA RESULT:    -3.546      1.198      4.070
REMARK INTER + INTRA:          -4.259
REMARK INTER:                  -4.228
REMARK INTRA:                  -0.031
REMARK UNBOUND:                -0.091
REMARK SMILES O=C([O-])CCC(=O)[O-]
REMARK SMILES IDX 4 1 2 2 1 3 3 4 5 5 6 6 7 7 8 8
REMARK H PARENT
REMARK Flexibility Score: inf
ROOT
ATOM      1  C   UNL     1      13.760  33.208  12.951  1.00  0.00     0.059 C 
ENDROOT
BRANCH   1   2
ATOM      2  C   UNL     1      14.731  32.071  12.903  1.00  0.00     0.042 C 
ATOM      3  O   UNL     1      14.638  31.196  12.002  1.00  0.00    -0.550 OA
ATOM      4  O   UNL     1      15.770  32.004  13.822  1.00  0.00    -0.550 OA
ENDBRANCH   1   2
BRANCH   1   5
ATOM      5  C   UNL     1      14.389  34.420  13.639  1.00  0.00     0.059 C 
BRANCH   5   6
ATOM      6  C   UNL     1      13.643  35.668  13.285  1.00  0.00     0.042 C 
ATOM      7  O   UNL     1      12.754  36.115  14.059  1.00  0.00    -0.550 OA
ATOM      8  O   UNL     1      13.892  36.310  12.079  1.00  0.00    -0.550 OA
ENDBRANCH   5   6
ENDBRANCH   1   5
TORSDOF 3
ENDMDL
MODEL 4
REMARK VINA RESULT:    -3.526     15.262     16.655
REMARK INTER + INTRA:          -4.236
REMARK INTER:                  -4.199
REMARK INTRA:                  -0.037
REMARK UNBOUND:                -0.091
REMARK SMILES O=C([O-])CCC(=O)[O-]
REMARK SMILES IDX 4 1 2 2 1 3 3 4 5 5 6 6 7 7 8 8
REMARK H PARENT
REMARK Flexibility Score: inf
ROOT
ATOM      1  C   UNL     1       4.140  46.011  10.973  1.00  0.00     0.059 C 
ENDROOT
BRANCH   1   2
ATOM      2  C   UNL     1       4.011  44.589  11.419  1.00  0.00     0.042 C 
ATOM      3  O   UNL     1       3.791  44.322  12.630  1.00  0.00    -0.550 OA
ATOM      4  O   UNL     1       4.084  43.559  10.490  1.00  0.00    -0.550 OA
ENDBRANCH   1   2
BRANCH   1   5
ATOM      5  C   UNL     1       4.417  46.078   9.471  1.00  0.00     0.059 C 
BRANCH   5   6
ATOM      6  C   UNL     1       5.078  47.372   9.117  1.00  0.00     0.042 C 
ATOM      7  O   UNL     1       4.476  48.216   8.401  1.00  0.00    -0.550 OA
ATOM      8  O   UNL     1       6.378  47.628   9.536  1.00  0.00    -0.550 OA
ENDBRANCH   5   6
ENDBRANCH   1   5
TORSDOF 3
ENDMDL
MODEL 5
REMARK VINA RESULT:    -3.521     15.234     16.443
REMARK INTER + INTRA:          -4.229
REMARK INTER:                  -4.179
REMARK INTRA:                  -0.050
REMARK UNBOUND:                -0.091
REMARK SMILES O=C([O-])CCC(=O)[O-]
REMARK SMILES IDX 4 1 2 2 1 3 3 4 5 5 6 6 7 7 8 8
REMARK H PARENT
REMARK Flexibility Score: inf
ROOT
ATOM      1  C   UNL     1       4.171  45.958   9.572  1.00  0.00     0.059 C 
ENDROOT
BRANCH   1   2
ATOM      2  C   UNL     1       4.914  47.227   9.301  1.00  0.00     0.042 C 
ATOM      3  O   UNL     1       6.034  47.434   9.840  1.00  0.00    -0.550 OA
ATOM      4  O   UNL     1       4.394  48.162   8.414  1.00  0.00    -0.550 OA
ENDBRANCH   1   2
BRANCH   1   5
ATOM      5  C   UNL     1       3.698  45.915  11.026  1.00  0.00     0.059 C 
BRANCH   5   6
ATOM      6  C   UNL     1       3.928  44.557  11.611  1.00  0.00     0.042 C 
ATOM      7  O   UNL     1       4.096  44.423  12.852  1.00  0.00    -0.550 OA
ATOM      8  O   UNL     1       4.006  43.446  10.782  1.00  0.00    -0.550 OA
ENDBRANCH   5   6
ENDBRANCH   1   5
TORSDOF 3
ENDMDL
MODEL 6
REMARK VINA RESULT:    -3.500     15.360     16.436
REMARK INTER + INTRA:          -4.205
REMARK INTER:                  -4.105
REMARK INTRA:                  -0.100
REMARK UNBOUND:                -0.091
REMARK SMILES O=C([O-])CCC(=O)[O-]
REMARK SMILES IDX 4 1 2 2 1 3 3 4 5 5 6 6 7 7 8 8
REMARK H PARENT
REMARK Flexibility Score: inf
ROOT
ATOM      1  C   UNL     1       4.870  46.617  10.623  1.00  0.00     0.059 C 
ENDROOT
BRANCH   1   2
ATOM      2  C   UNL     1       5.178  47.337   9.348  1.00  0.00     0.042 C 
ATOM      3  O   UNL     1       4.253  47.627   8.545  1.00  0.00    -0.550 OA
ATOM      4  O   UNL     1       6.480  47.733   9.070  1.00  0.00    -0.550 OA
ENDBRANCH   1   2
BRANCH   1   5
ATOM      5  C   UNL     1       3.570  45.824  10.488  1.00  0.00     0.059 C 
BRANCH   5   6
ATOM      6  C   UNL     1       3.858  44.359  10.389  1.00  0.00     0.042 C 
ATOM      7  O   UNL     1       4.115  43.838   9.271  1.00  0.00    -0.550 OA
ATOM      8  O   UNL     1       3.794  43.559  11.523  1.00  0.00    -0.550 OA
ENDBRANCH   5   6
ENDBRANCH   1   5
TORSDOF 3
ENDMDL
MODEL 7
REMARK VINA RESULT:    -3.488     14.775     16.055
REMARK INTER + INTRA:          -4.190
REMARK INTER:                  -4.037
REMARK INTRA:                  -0.153
REMARK UNBOUND:                -0.091
REMARK SMILES O=C([O-])CCC(=O)[O-]
REMARK SMILES IDX 4 1 2 2 1 3 3 4 5 5 6 6 7 7 8 8
REMARK H PARENT
REMARK Flexibility Score: inf
ROOT
ATOM      1  C   UNL     1       4.505  45.596  11.515  1.00  0.00     0.059 C 
ENDROOT
BRANCH   1   2
ATOM      2  C   UNL     1       3.748  46.169  10.359  1.00  0.00     0.042 C 
ATOM      3  O   UNL     1       2.623  46.704  10.541  1.00  0.00    -0.550 OA
ATOM      4  O   UNL     1       4.307  46.157   9.087  1.00  0.00    -0.550 OA
ENDBRANCH   1   2
BRANCH   1   5
ATOM      5  C   UNL     1       3.695  44.486  12.187  1.00  0.00     0.059 C 
BRANCH   5   6
ATOM      6  C   UNL     1       3.373  43.405  11.205  1.00  0.00     0.042 C 
ATOM      7  O   UNL     1       2.185  43.011  11.063  1.00  0.00    -0.550 OA
ATOM      8  O   UNL     1       4.390  42.797  10.480  1.00  0.00    -0.550 OA
ENDBRANCH   5   6
ENDBRANCH   1   5
TORSDOF 3
ENDMDL
MODEL 8
REMARK VINA RESULT:    -3.446     14.778     16.239
REMARK INTER + INTRA:          -4.141
REMARK INTER:                  -3.991
REMARK INTRA:                  -0.151
REMARK UNBOUND:                -0.091
REMARK SMILES O=C([O-])CCC(=O)[O-]
REMARK SMILES IDX 4 1 2 2 1 3 3 4 5 5 6 6 7 7 8 8
REMARK H PARENT
REMARK Flexibility Score: inf
ROOT
ATOM      1  C   UNL     1       2.761  43.843  11.493  1.00  0.00     0.059 C 
ENDROOT
BRANCH   1   2
ATOM      2  C   UNL     1       3.305  43.166  10.275  1.00  0.00     0.042 C 
ATOM      3  O   UNL     1       4.476  42.702  10.278  1.00  0.00    -0.550 OA
ATOM      4  O   UNL     1       2.502  43.002   9.153  1.00  0.00    -0.550 OA
ENDBRANCH   1   2
BRANCH   1   5
ATOM      5  C   UNL     1       3.748  44.891  12.009  1.00  0.00     0.059 C 
BRANCH   5   6
ATOM      6  C   UNL     1       3.828  46.046  11.062  1.00  0.00     0.042 C 
ATOM      7  O   UNL     1       4.946  46.539  10.756  1.00  0.00    -0.550 OA
ATOM      8  O   UNL     1       2.665  46.612  10.555  1.00  0.00    -0.550 OA
ENDBRANCH   5   6
ENDBRANCH   1   5
TORSDOF 3
ENDMDL
MODEL 9
REMARK VINA RESULT:    -3.436     16.723     17.394
REMARK INTER + INTRA:          -4.130
REMARK INTER:                  -4.011
REMARK INTRA:                  -0.119
REMARK UNBOUND:                -0.091
REMARK SMILES O=C([O-])CCC(=O)[O-]
REMARK SMILES IDX 4 1 2 2 1 3 3 4 5 5 6 6 7 7 8 8
REMARK H PARENT
REMARK Flexibility Score: inf
ROOT
ATOM      1  C   UNL     1       4.026  45.661   9.799  1.00  0.00     0.059 C 
ENDROOT
BRANCH   1   2
ATOM      2  C   UNL     1       2.650  45.908  10.332  1.00  0.00     0.042 C 
ATOM      3  O   UNL     1       2.217  45.234  11.305  1.00  0.00    -0.550 OA
ATOM      4  O   UNL     1       1.864  46.915   9.788  1.00  0.00    -0.550 OA
ENDBRANCH   1   2
BRANCH   1   5
ATOM      5  C   UNL     1       5.014  46.674  10.378  1.00  0.00     0.059 C 
BRANCH   5   6
ATOM      6  C   UNL     1       5.571  47.540   9.292  1.00  0.00     0.042 C 
ATOM      7  O   UNL     1       6.808  47.773   9.239  1.00  0.00    -0.550 OA
ATOM      8  O   UNL     1       4.719  48.132   8.368  1.00  0.00    -0.550 OA
ENDBRANCH   5   6
ENDBRANCH   1   5
TORSDOF 3
ENDMDL
