MODEL 1
REMARK VINA RESULT:    -3.047      0.000      0.000
REMARK INTER + INTRA:          -7.323
REMARK INTER:                  -5.541
REMARK INTRA:                  -1.782
REMARK UNBOUND:                -1.782
REMARK SMILES CCCCCCCCCCCCCC[C@H](C)C(=O)[O-]
REMARK SMILES IDX 9 1 10 2 11 3 12 4 13 5 14 6 15 7 16 8 17 9 18 10 19 11 8 12
REMARK SMILES IDX 7 13 6 14 5 15 4 16 3 17 2 18 1 19
REMARK H PARENT
REMARK Flexibility Score: inf
ROOT
ATOM      1  C   UNL     1     -11.843 -22.738  12.479  1.00  0.00     0.000 C 
ENDROOT
BRANCH   1   2
ATOM      2  C   UNL     1     -12.795 -22.439  13.648  1.00  0.00     0.000 C 
BRANCH   2   3
ATOM      3  C   UNL     1     -12.302 -23.031  14.978  1.00  0.00     0.000 C 
BRANCH   3   4
ATOM      4  C   UNL     1     -12.101 -21.964  16.065  1.00  0.00     0.000 C 
BRANCH   4   5
ATOM      5  C   UNL     1     -12.386 -20.559  15.512  1.00  0.00     0.001 C 
BRANCH   5   6
ATOM      6  C   UNL     1     -11.436 -19.485  16.075  1.00  0.00     0.009 C 
BRANCH   6   7
ATOM      7  C   UNL     1     -10.574 -18.755  15.018  1.00  0.00     0.032 C 
ATOM      8  C   UNL     1      -9.095 -18.672  15.420  1.00  0.00     0.014 C 
BRANCH   7   9
ATOM      9  C   UNL     1     -11.118 -17.372  14.788  1.00  0.00     0.044 C 
ATOM     10  O   UNL     1     -10.834 -16.739  13.736  1.00  0.00    -0.550 OA
ATOM     11  O   UNL     1     -11.931 -16.779  15.746  1.00  0.00    -0.550 OA
ENDBRANCH   7   9
ENDBRANCH   6   7
ENDBRANCH   5   6
ENDBRANCH   4   5
ENDBRANCH   3   4
ENDBRANCH   2   3
ENDBRANCH   1   2
BRANCH   1  12
ATOM     12  C   UNL     1     -10.409 -23.059  12.940  1.00  0.00     0.000 C 
BRANCH  12  13
ATOM     13  C   UNL     1      -9.394 -21.914  12.766  1.00  0.00    -0.000 C 
BRANCH  13  14
ATOM     14  C   UNL     1      -9.975 -20.706  12.017  1.00  0.00    -0.000 C 
BRANCH  14  15
ATOM     15  C   UNL     1      -8.900 -19.641  11.774  1.00  0.00    -0.000 C 
BRANCH  15  16
ATOM     16  C   UNL     1      -8.082 -19.958  10.515  1.00  0.00    -0.000 C 
BRANCH  16  17
ATOM     17  C   UNL     1      -8.488 -19.042   9.351  1.00  0.00    -0.000 C 
BRANCH  17  18
ATOM     18  C   UNL     1      -9.721 -18.186   9.676  1.00  0.00    -0.003 C 
ATOM     19  C   UNL     1      -9.420 -16.687   9.665  1.00  0.00     0.004 C 
ENDBRANCH  17  18
ENDBRANCH  16  17
ENDBRANCH  15  16
ENDBRANCH  14  15
ENDBRANCH  13  14
ENDBRANCH  12  13
ENDBRANCH   1  12
TORSDOF 14
ENDMDL
MODEL 2
REMARK VINA RESULT:    -2.636      1.494      4.824
REMARK INTER + INTRA:          -6.576
REMARK INTER:                  -4.835
REMARK INTRA:                  -1.741
REMARK UNBOUND:                -1.782
REMARK SMILES CCCCCCCCCCCCCC[C@H](C)C(=O)[O-]
REMARK SMILES IDX 9 1 10 2 11 3 12 4 13 5 14 6 15 7 16 8 17 9 18 10 19 11 8 12
REMARK SMILES IDX 7 13 6 14 5 15 4 16 3 17 2 18 1 19
REMARK H PARENT
REMARK Flexibility Score: inf
ROOT
ATOM      1  C   UNL     1      -9.833 -19.964  11.356  1.00  0.00     0.000 C 
ENDROOT
BRANCH   1   2
ATOM      2  C   UNL     1      -9.710 -18.443  11.169  1.00  0.00     0.000 C 
BRANCH   2   3
ATOM      3  C   UNL     1      -8.278 -17.934  11.401  1.00  0.00     0.000 C 
BRANCH   3   4
ATOM      4  C   UNL     1      -8.091 -17.302  12.789  1.00  0.00     0.000 C 
BRANCH   4   5
ATOM      5  C   UNL     1      -9.443 -17.121  13.496  1.00  0.00     0.001 C 
BRANCH   5   6
ATOM      6  C   UNL     1      -9.309 -16.961  15.022  1.00  0.00     0.009 C 
BRANCH   6   7
ATOM      7  C   UNL     1      -9.876 -18.134  15.856  1.00  0.00     0.032 C 
ATOM      8  C   UNL     1      -9.479 -19.504  15.288  1.00  0.00     0.014 C 
BRANCH   7   9
ATOM      9  C   UNL     1     -11.375 -18.026  15.929  1.00  0.00     0.044 C 
ATOM     10  O   UNL     1     -12.091 -19.063  15.946  1.00  0.00    -0.550 OA
ATOM     11  O   UNL     1     -11.978 -16.776  15.964  1.00  0.00    -0.550 OA
ENDBRANCH   7   9
ENDBRANCH   6   7
ENDBRANCH   5   6
ENDBRANCH   4   5
ENDBRANCH   3   4
ENDBRANCH   2   3
ENDBRANCH   1   2
BRANCH   1  12
ATOM     12  C   UNL     1      -8.468 -20.673  11.422  1.00  0.00     0.000 C 
BRANCH  12  13
ATOM     13  C   UNL     1      -8.490 -22.081  12.045  1.00  0.00    -0.000 C 
BRANCH  13  14
ATOM     14  C   UNL     1      -9.896 -22.524  12.475  1.00  0.00    -0.000 C 
BRANCH  14  15
ATOM     15  C   UNL     1      -9.913 -22.949  13.948  1.00  0.00    -0.000 C 
BRANCH  15  16
ATOM     16  C   UNL     1     -11.335 -22.902  14.521  1.00  0.00    -0.000 C 
BRANCH  16  17
ATOM     17  C   UNL     1     -12.333 -22.385  13.474  1.00  0.00    -0.000 C 
BRANCH  17  18
ATOM     18  C   UNL     1     -13.794 -22.608  13.892  1.00  0.00    -0.003 C 
ATOM     19  C   UNL     1     -14.261 -21.620  14.962  1.00  0.00     0.004 C 
ENDBRANCH  17  18
ENDBRANCH  16  17
ENDBRANCH  15  16
ENDBRANCH  14  15
ENDBRANCH  13  14
ENDBRANCH  12  13
ENDBRANCH   1  12
TORSDOF 14
ENDMDL
MODEL 3
REMARK VINA RESULT:    -2.587      2.124      5.450
REMARK INTER + INTRA:          -6.486
REMARK INTER:                  -4.540
REMARK INTRA:                  -1.946
REMARK UNBOUND:                -1.782
REMARK SMILES CCCCCCCCCCCCCC[C@H](C)C(=O)[O-]
REMARK SMILES IDX 9 1 10 2 11 3 12 4 13 5 14 6 15 7 16 8 17 9 18 10 19 11 8 12
REMARK SMILES IDX 7 13 6 14 5 15 4 16 3 17 2 18 1 19
REMARK H PARENT
REMARK Flexibility Score: inf
ROOT
ATOM      1  C   UNL     1     -10.736 -19.782  15.230  1.00  0.00     0.000 C 
ENDROOT
BRANCH   1   2
ATOM      2  C   UNL     1     -10.741 -18.292  15.607  1.00  0.00     0.000 C 
BRANCH   2   3
ATOM      3  C   UNL     1      -9.364 -17.798  16.081  1.00  0.00     0.000 C 
BRANCH   3   4
ATOM      4  C   UNL     1      -8.367 -17.621  14.926  1.00  0.00     0.000 C 
BRANCH   4   5
ATOM      5  C   UNL     1      -9.039 -16.946  13.720  1.00  0.00     0.001 C 
BRANCH   5   6
ATOM      6  C   UNL     1      -8.541 -17.492  12.368  1.00  0.00     0.009 C 
BRANCH   6   7
ATOM      7  C   UNL     1      -9.593 -18.281  11.554  1.00  0.00     0.032 C 
ATOM      8  C   UNL     1      -9.437 -19.801  11.709  1.00  0.00     0.014 C 
BRANCH   7   9
ATOM      9  C   UNL     1      -9.496 -17.904  10.101  1.00  0.00     0.044 C 
ATOM     10  O   UNL     1      -9.252 -18.778   9.227  1.00  0.00    -0.550 OA
ATOM     11  O   UNL     1      -9.664 -16.580   9.716  1.00  0.00    -0.550 OA
ENDBRANCH   7   9
ENDBRANCH   6   7
ENDBRANCH   5   6
ENDBRANCH   4   5
ENDBRANCH   3   4
ENDBRANCH   2   3
ENDBRANCH   1   2
BRANCH   1  12
ATOM     12  C   UNL     1      -9.629 -20.579  15.945  1.00  0.00     0.000 C 
BRANCH  12  13
ATOM     13  C   UNL     1      -9.246 -21.912  15.277  1.00  0.00    -0.000 C 
BRANCH  13  14
ATOM     14  C   UNL     1     -10.465 -22.768  14.904  1.00  0.00    -0.000 C 
BRANCH  14  15
ATOM     15  C   UNL     1     -10.620 -22.869  13.382  1.00  0.00    -0.000 C 
BRANCH  15  16
ATOM     16  C   UNL     1     -12.056 -22.544  12.950  1.00  0.00    -0.000 C 
BRANCH  16  17
ATOM     17  C   UNL     1     -13.071 -23.077  13.971  1.00  0.00    -0.000 C 
BRANCH  17  18
ATOM     18  C   UNL     1     -14.093 -22.012  14.399  1.00  0.00    -0.003 C 
ATOM     19  C   UNL     1     -13.862 -21.509  15.824  1.00  0.00     0.004 C 
ENDBRANCH  17  18
ENDBRANCH  16  17
ENDBRANCH  15  16
ENDBRANCH  14  15
ENDBRANCH  13  14
ENDBRANCH  12  13
ENDBRANCH   1  12
TORSDOF 14
ENDMDL
MODEL 4
REMARK VINA RESULT:    -2.539      2.106      5.635
REMARK INTER + INTRA:          -6.399
REMARK INTER:                  -4.628
REMARK INTRA:                  -1.771
REMARK UNBOUND:                -1.782
REMARK SMILES CCCCCCCCCCCCCC[C@H](C)C(=O)[O-]
REMARK SMILES IDX 9 1 10 2 11 3 12 4 13 5 14 6 15 7 16 8 17 9 18 10 19 11 8 12
REMARK SMILES IDX 7 13 6 14 5 15 4 16 3 17 2 18 1 19
REMARK H PARENT
REMARK Flexibility Score: inf
ROOT
ATOM      1  C   UNL     1     -10.764 -19.492  15.267  1.00  0.00     0.000 C 
ENDROOT
BRANCH   1   2
ATOM      2  C   UNL     1     -10.476 -17.982  15.252  1.00  0.00     0.000 C 
BRANCH   2   3
ATOM      3  C   UNL     1      -9.058 -17.647  15.741  1.00  0.00     0.000 C 
BRANCH   3   4
ATOM      4  C   UNL     1      -7.999 -17.792  14.637  1.00  0.00     0.000 C 
BRANCH   4   5
ATOM      5  C   UNL     1      -8.308 -16.859  13.456  1.00  0.00     0.001 C 
BRANCH   5   6
ATOM      6  C   UNL     1      -8.113 -17.534  12.086  1.00  0.00     0.009 C 
BRANCH   6   7
ATOM      7  C   UNL     1      -9.409 -18.056  11.422  1.00  0.00     0.032 C 
ATOM      8  C   UNL     1      -9.602 -19.567  11.616  1.00  0.00     0.014 C 
BRANCH   7   9
ATOM      9  C   UNL     1      -9.394 -17.728   9.954  1.00  0.00     0.044 C 
ATOM     10  O   UNL     1      -9.359 -16.530   9.566  1.00  0.00    -0.550 OA
ATOM     11  O   UNL     1      -9.432 -18.751   9.015  1.00  0.00    -0.550 OA
ENDBRANCH   7   9
ENDBRANCH   6   7
ENDBRANCH   5   6
ENDBRANCH   4   5
ENDBRANCH   3   4
ENDBRANCH   2   3
ENDBRANCH   1   2
BRANCH   1  12
ATOM     12  C   UNL     1     -12.000 -19.859  16.110  1.00  0.00     0.000 C 
BRANCH  12  13
ATOM     13  C   UNL     1     -12.529 -21.291  15.907  1.00  0.00    -0.000 C 
BRANCH  13  14
ATOM     14  C   UNL     1     -13.968 -21.328  15.370  1.00  0.00    -0.000 C 
BRANCH  14  15
ATOM     15  C   UNL     1     -14.114 -22.378  14.263  1.00  0.00    -0.000 C 
BRANCH  15  16
ATOM     16  C   UNL     1     -12.795 -23.125  14.031  1.00  0.00    -0.000 C 
BRANCH  16  17
ATOM     17  C   UNL     1     -12.413 -23.120  12.544  1.00  0.00    -0.000 C 
BRANCH  17  18
ATOM     18  C   UNL     1     -10.908 -22.911  12.322  1.00  0.00    -0.003 C 
ATOM     19  C   UNL     1     -10.126 -22.796  13.631  1.00  0.00     0.004 C 
ENDBRANCH  17  18
ENDBRANCH  16  17
ENDBRANCH  15  16
ENDBRANCH  14  15
ENDBRANCH  13  14
ENDBRANCH  12  13
ENDBRANCH   1  12
TORSDOF 14
ENDMDL
MODEL 5
REMARK VINA RESULT:    -2.202      2.611      5.800
REMARK INTER + INTRA:          -5.785
REMARK INTER:                  -3.912
REMARK INTRA:                  -1.874
REMARK UNBOUND:                -1.782
REMARK SMILES CCCCCCCCCCCCCC[C@H](C)C(=O)[O-]
REMARK SMILES IDX 9 1 10 2 11 3 12 4 13 5 14 6 15 7 16 8 17 9 18 10 19 11 8 12
REMARK SMILES IDX 7 13 6 14 5 15 4 16 3 17 2 18 1 19
REMARK H PARENT
REMARK Flexibility Score: inf
ROOT
ATOM      1  C   UNL     1      -9.309 -17.547  12.271  1.00  0.00     0.000 C 
ENDROOT
BRANCH   1   2
ATOM      2  C   UNL     1      -9.326 -17.985  10.797  1.00  0.00     0.000 C 
BRANCH   2   3
ATOM      3  C   UNL     1      -9.402 -19.512  10.637  1.00  0.00     0.000 C 
BRANCH   3   4
ATOM      4  C   UNL     1      -9.778 -20.229  11.943  1.00  0.00     0.000 C 
BRANCH   4   5
ATOM      5  C   UNL     1      -9.132 -21.622  12.009  1.00  0.00     0.001 C 
BRANCH   5   6
ATOM      6  C   UNL     1      -9.966 -22.636  12.814  1.00  0.00     0.009 C 
BRANCH   6   7
ATOM      7  C   UNL     1     -11.261 -22.068  13.442  1.00  0.00     0.032 C 
ATOM      8  C   UNL     1     -11.335 -22.310  14.956  1.00  0.00     0.014 C 
BRANCH   7   9
ATOM      9  C   UNL     1     -12.460 -22.675  12.768  1.00  0.00     0.044 C 
ATOM     10  O   UNL     1     -12.421 -22.983  11.547  1.00  0.00    -0.550 OA
ATOM     11  O   UNL     1     -13.627 -22.890  13.491  1.00  0.00    -0.550 OA
ENDBRANCH   7   9
ENDBRANCH   6   7
ENDBRANCH   5   6
ENDBRANCH   4   5
ENDBRANCH   3   4
ENDBRANCH   2   3
ENDBRANCH   1   2
BRANCH   1  12
ATOM     12  C   UNL     1     -10.721 -17.408  12.872  1.00  0.00     0.000 C 
BRANCH  12  13
ATOM     13  C   UNL     1     -10.851 -16.375  14.006  1.00  0.00    -0.000 C 
BRANCH  13  14
ATOM     14  C   UNL     1      -9.987 -16.715  15.230  1.00  0.00    -0.000 C 
BRANCH  14  15
ATOM     15  C   UNL     1     -10.682 -17.750  16.122  1.00  0.00    -0.000 C 
BRANCH  15  16
ATOM     16  C   UNL     1     -10.052 -19.138  15.952  1.00  0.00    -0.000 C 
BRANCH  16  17
ATOM     17  C   UNL     1      -8.519 -19.047  15.925  1.00  0.00    -0.000 C 
BRANCH  17  18
ATOM     18  C   UNL     1      -7.876 -20.174  15.104  1.00  0.00    -0.003 C 
ATOM     19  C   UNL     1      -7.908 -21.523  15.823  1.00  0.00     0.004 C 
ENDBRANCH  17  18
ENDBRANCH  16  17
ENDBRANCH  15  16
ENDBRANCH  14  15
ENDBRANCH  13  14
ENDBRANCH  12  13
ENDBRANCH   1  12
TORSDOF 14
ENDMDL
MODEL 6
REMARK VINA RESULT:    -2.172      1.322      2.014
REMARK INTER + INTRA:          -5.732
REMARK INTER:                  -4.651
REMARK INTRA:                  -1.080
REMARK UNBOUND:                -1.782
REMARK SMILES CCCCCCCCCCCCCC[C@H](C)C(=O)[O-]
REMARK SMILES IDX 9 1 10 2 11 3 12 4 13 5 14 6 15 7 16 8 17 9 18 10 19 11 8 12
REMARK SMILES IDX 7 13 6 14 5 15 4 16 3 17 2 18 1 19
REMARK H PARENT
REMARK Flexibility Score: inf
ROOT
ATOM      1  C   UNL     1     -13.638 -22.897  13.198  1.00  0.00     0.000 C 
ENDROOT
BRANCH   1   2
ATOM      2  C   UNL     1     -13.791 -22.813  14.726  1.00  0.00     0.000 C 
BRANCH   2   3
ATOM      3  C   UNL     1     -13.841 -21.363  15.235  1.00  0.00     0.000 C 
BRANCH   3   4
ATOM      4  C   UNL     1     -12.640 -21.004  16.123  1.00  0.00     0.000 C 
BRANCH   4   5
ATOM      5  C   UNL     1     -12.321 -19.503  16.032  1.00  0.00     0.001 C 
BRANCH   5   6
ATOM      6  C   UNL     1     -10.977 -19.213  15.338  1.00  0.00     0.009 C 
BRANCH   6   7
ATOM      7  C   UNL     1     -10.450 -17.768  15.507  1.00  0.00     0.032 C 
ATOM      8  C   UNL     1     -11.365 -16.728  14.846  1.00  0.00     0.014 C 
BRANCH   7   9
ATOM      9  C   UNL     1      -9.063 -17.665  14.937  1.00  0.00     0.044 C 
ATOM     10  O   UNL     1      -8.830 -16.913  13.952  1.00  0.00    -0.550 OA
ATOM     11  O   UNL     1      -8.029 -18.411  15.488  1.00  0.00    -0.550 OA
ENDBRANCH   7   9
ENDBRANCH   6   7
ENDBRANCH   5   6
ENDBRANCH   4   5
ENDBRANCH   3   4
ENDBRANCH   2   3
ENDBRANCH   1   2
BRANCH   1  12
ATOM     12  C   UNL     1     -12.178 -23.101  12.752  1.00  0.00     0.000 C 
BRANCH  12  13
ATOM     13  C   UNL     1     -11.118 -22.449  13.660  1.00  0.00    -0.000 C 
BRANCH  13  14
ATOM     14  C   UNL     1      -9.761 -22.271  12.964  1.00  0.00    -0.000 C 
BRANCH  14  15
ATOM     15  C   UNL     1      -9.917 -21.522  11.636  1.00  0.00    -0.000 C 
BRANCH  15  16
ATOM     16  C   UNL     1     -10.114 -20.019  11.869  1.00  0.00    -0.000 C 
BRANCH  16  17
ATOM     17  C   UNL     1      -8.986 -19.209  11.214  1.00  0.00    -0.000 C 
BRANCH  17  18
ATOM     18  C   UNL     1      -9.396 -18.615   9.858  1.00  0.00    -0.003 C 
ATOM     19  C   UNL     1      -9.243 -17.095   9.806  1.00  0.00     0.004 C 
ENDBRANCH  17  18
ENDBRANCH  16  17
ENDBRANCH  15  16
ENDBRANCH  14  15
ENDBRANCH  13  14
ENDBRANCH  12  13
ENDBRANCH   1  12
TORSDOF 14
ENDMDL
MODEL 7
REMARK VINA RESULT:    -1.989      2.247      5.709
REMARK INTER + INTRA:          -5.400
REMARK INTER:                  -4.720
REMARK INTRA:                  -0.680
REMARK UNBOUND:                -1.782
REMARK SMILES CCCCCCCCCCCCCC[C@H](C)C(=O)[O-]
REMARK SMILES IDX 9 1 10 2 11 3 12 4 13 5 14 6 15 7 16 8 17 9 18 10 19 11 8 12
REMARK SMILES IDX 7 13 6 14 5 15 4 16 3 17 2 18 1 19
REMARK H PARENT
REMARK Flexibility Score: inf
ROOT
ATOM      1  C   UNL     1      -7.967 -18.936  15.112  1.00  0.00     0.000 C 
ENDROOT
BRANCH   1   2
ATOM      2  C   UNL     1      -7.875 -17.691  14.216  1.00  0.00     0.000 C 
BRANCH   2   3
ATOM      3  C   UNL     1      -8.673 -16.501  14.774  1.00  0.00     0.000 C 
BRANCH   3   4
ATOM      4  C   UNL     1     -10.186 -16.763  14.805  1.00  0.00     0.000 C 
BRANCH   4   5
ATOM      5  C   UNL     1     -10.742 -16.937  13.383  1.00  0.00     0.001 C 
BRANCH   5   6
ATOM      6  C   UNL     1      -9.650 -17.246  12.342  1.00  0.00     0.009 C 
BRANCH   6   7
ATOM      7  C   UNL     1     -10.139 -18.003  11.085  1.00  0.00     0.032 C 
ATOM      8  C   UNL     1     -10.047 -19.527  11.243  1.00  0.00     0.014 C 
BRANCH   7   9
ATOM      9  C   UNL     1      -9.342 -17.564   9.887  1.00  0.00     0.044 C 
ATOM     10  O   UNL     1      -9.561 -16.448   9.345  1.00  0.00    -0.550 OA
ATOM     11  O   UNL     1      -8.363 -18.399   9.363  1.00  0.00    -0.550 OA
ENDBRANCH   7   9
ENDBRANCH   6   7
ENDBRANCH   5   6
ENDBRANCH   4   5
ENDBRANCH   3   4
ENDBRANCH   2   3
ENDBRANCH   1   2
BRANCH   1  12
ATOM     12  C   UNL     1      -8.057 -20.248  14.310  1.00  0.00     0.000 C 
BRANCH  12  13
ATOM     13  C   UNL     1      -9.346 -21.061  14.528  1.00  0.00    -0.000 C 
BRANCH  13  14
ATOM     14  C   UNL     1     -10.073 -20.696  15.831  1.00  0.00    -0.000 C 
BRANCH  14  15
ATOM     15  C   UNL     1     -11.352 -19.902  15.544  1.00  0.00    -0.000 C 
BRANCH  15  16
ATOM     16  C   UNL     1     -12.579 -20.821  15.517  1.00  0.00    -0.000 C 
BRANCH  16  17
ATOM     17  C   UNL     1     -12.165 -22.286  15.312  1.00  0.00    -0.000 C 
BRANCH  17  18
ATOM     18  C   UNL     1     -12.912 -22.953  14.148  1.00  0.00    -0.003 C 
ATOM     19  C   UNL     1     -12.333 -22.583  12.783  1.00  0.00     0.004 C 
ENDBRANCH  17  18
ENDBRANCH  16  17
ENDBRANCH  15  16
ENDBRANCH  14  15
ENDBRANCH  13  14
ENDBRANCH  12  13
ENDBRANCH   1  12
TORSDOF 14
ENDMDL
