MODEL 1
REMARK VINA RESULT:    -4.213      0.000      0.000
REMARK INTER + INTRA:          -4.672
REMARK INTER:                  -4.583
REMARK INTRA:                  -0.089
REMARK UNBOUND:                -0.089
REMARK SMILES C=C(C)[C@H]1CC[C@@H](C)[C@H](O)C1
REMARK SMILES IDX 8 1 7 2 6 3 5 4 4 5 11 6 9 7 10 8 2 10 1 11 3 12
REMARK H PARENT 10 9
REMARK Flexibility Score: inf
ROOT
ATOM      1  C   UNL     1     136.189 135.007 138.512  1.00  0.00     0.010 C 
ATOM      2  C   UNL     1     135.195 133.844 138.386  1.00  0.00     0.015 C 
ATOM      3  C   UNL     1     135.206 133.280 136.940  1.00  0.00     0.006 C 
ATOM      4  C   UNL     1     133.886 132.591 136.532  1.00  0.00     0.008 C 
ATOM      5  C   UNL     1     133.161 131.985 137.746  1.00  0.00     0.017 C 
ATOM      6  C   UNL     1     132.773 133.077 138.775  1.00  0.00     0.040 C 
ATOM      7  C   UNL     1     133.765 134.268 138.809  1.00  0.00     0.117 C 
ENDROOT
BRANCH   7   8
ATOM      8  O   UNL     1     133.757 134.869 140.081  1.00  0.00    -0.393 OA
ATOM      9  H   UNL     1     133.999 135.825 139.963  1.00  0.00     0.210 HD
ENDBRANCH   7   8
BRANCH   5  10
ATOM     10  C   UNL     1     131.954 131.157 137.322  1.00  0.00    -0.077 C 
ATOM     11  C   UNL     1     131.239 131.476 136.231  1.00  0.00     0.008 C 
ATOM     12  C   UNL     1     131.544 129.950 138.127  1.00  0.00     0.039 C 
ENDBRANCH   5  10
TORSDOF 2
ENDMDL
MODEL 2
REMARK VINA RESULT:    -4.201      2.215      4.342
REMARK INTER + INTRA:          -4.659
REMARK INTER:                  -4.569
REMARK INTRA:                  -0.090
REMARK UNBOUND:                -0.089
REMARK SMILES C=C(C)[C@H]1CC[C@@H](C)[C@H](O)C1
REMARK SMILES IDX 8 1 7 2 6 3 5 4 4 5 11 6 9 7 10 8 2 10 1 11 3 12
REMARK H PARENT 10 9
REMARK Flexibility Score: inf
ROOT
ATOM      1  C   UNL     1     133.932 131.037 134.330  1.00  0.00     0.010 C 
ATOM      2  C   UNL     1     133.867 132.164 135.370  1.00  0.00     0.015 C 
ATOM      3  C   UNL     1     135.242 132.876 135.479  1.00  0.00     0.006 C 
ATOM      4  C   UNL     1     135.487 133.547 136.847  1.00  0.00     0.008 C 
ATOM      5  C   UNL     1     134.170 133.993 137.507  1.00  0.00     0.017 C 
ATOM      6  C   UNL     1     133.241 132.784 137.784  1.00  0.00     0.040 C 
ATOM      7  C   UNL     1     133.400 131.638 136.751  1.00  0.00     0.117 C 
ENDROOT
BRANCH   7   8
ATOM      8  O   UNL     1     132.201 130.908 136.650  1.00  0.00    -0.393 OA
ATOM      9  H   UNL     1     132.438 129.944 136.635  1.00  0.00     0.210 HD
ENDBRANCH   7   8
BRANCH   5  10
ATOM     10  C   UNL     1     134.423 134.809 138.769  1.00  0.00    -0.077 C 
ATOM     11  C   UNL     1     135.294 134.394 139.704  1.00  0.00     0.008 C 
ATOM     12  C   UNL     1     133.697 136.111 138.986  1.00  0.00     0.039 C 
ENDBRANCH   5  10
TORSDOF 2
ENDMDL
MODEL 3
REMARK VINA RESULT:    -4.112      1.579      2.239
REMARK INTER + INTRA:          -4.562
REMARK INTER:                  -4.471
REMARK INTRA:                  -0.091
REMARK UNBOUND:                -0.089
REMARK SMILES C=C(C)[C@H]1CC[C@@H](C)[C@H](O)C1
REMARK SMILES IDX 8 1 7 2 6 3 5 4 4 5 11 6 9 7 10 8 2 10 1 11 3 12
REMARK H PARENT 10 9
REMARK Flexibility Score: inf
ROOT
ATOM      1  C   UNL     1     134.539 136.125 139.287  1.00  0.00     0.010 C 
ATOM      2  C   UNL     1     134.091 135.015 138.326  1.00  0.00     0.015 C 
ATOM      3  C   UNL     1     132.785 134.352 138.840  1.00  0.00     0.006 C 
ATOM      4  C   UNL     1     132.594 132.899 138.356  1.00  0.00     0.008 C 
ATOM      5  C   UNL     1     133.267 132.659 136.994  1.00  0.00     0.017 C 
ATOM      6  C   UNL     1     134.799 132.886 137.073  1.00  0.00     0.040 C 
ATOM      7  C   UNL     1     135.207 133.960 138.114  1.00  0.00     0.117 C 
ENDROOT
BRANCH   7   8
ATOM      8  O   UNL     1     136.423 134.560 137.739  1.00  0.00    -0.393 OA
ATOM      9  H   UNL     1     136.214 135.464 137.385  1.00  0.00     0.210 HD
ENDBRANCH   7   8
BRANCH   5  10
ATOM     10  C   UNL     1     132.930 131.282 136.436  1.00  0.00    -0.077 C 
ATOM     11  C   UNL     1     133.371 130.893 135.228  1.00  0.00     0.008 C 
ATOM     12  C   UNL     1     132.095 130.322 137.243  1.00  0.00     0.039 C 
ENDBRANCH   5  10
TORSDOF 2
ENDMDL
MODEL 4
REMARK VINA RESULT:    -3.846      2.029      4.778
REMARK INTER + INTRA:          -4.272
REMARK INTER:                  -4.183
REMARK INTRA:                  -0.090
REMARK UNBOUND:                -0.089
REMARK SMILES C=C(C)[C@H]1CC[C@@H](C)[C@H](O)C1
REMARK SMILES IDX 8 1 7 2 6 3 5 4 4 5 11 6 9 7 10 8 2 10 1 11 3 12
REMARK H PARENT 10 9
REMARK Flexibility Score: inf
ROOT
ATOM      1  C   UNL     1     131.444 130.687 136.719  1.00  0.00     0.010 C 
ATOM      2  C   UNL     1     132.565 131.529 137.342  1.00  0.00     0.015 C 
ATOM      3  C   UNL     1     131.973 132.565 138.335  1.00  0.00     0.006 C 
ATOM      4  C   UNL     1     132.856 133.816 138.527  1.00  0.00     0.008 C 
ATOM      5  C   UNL     1     134.346 133.500 138.315  1.00  0.00     0.017 C 
ATOM      6  C   UNL     1     134.618 133.002 136.873  1.00  0.00     0.040 C 
ATOM      7  C   UNL     1     133.426 132.224 136.257  1.00  0.00     0.117 C 
ENDROOT
BRANCH   7   8
ATOM      8  O   UNL     1     133.891 131.307 135.297  1.00  0.00    -0.393 OA
ATOM      9  H   UNL     1     134.867 131.195 135.438  1.00  0.00     0.210 HD
ENDBRANCH   7   8
BRANCH   5  10
ATOM     10  C   UNL     1     135.229 134.689 138.676  1.00  0.00    -0.077 C 
ATOM     11  C   UNL     1     136.563 134.561 138.771  1.00  0.00     0.008 C 
ATOM     12  C   UNL     1     134.613 136.041 138.926  1.00  0.00     0.039 C 
ENDBRANCH   5  10
TORSDOF 2
ENDMDL
MODEL 5
REMARK VINA RESULT:    -3.087      2.305      4.433
REMARK INTER + INTRA:          -3.447
REMARK INTER:                  -3.358
REMARK INTRA:                  -0.089
REMARK UNBOUND:                -0.089
REMARK SMILES C=C(C)[C@H]1CC[C@@H](C)[C@H](O)C1
REMARK SMILES IDX 8 1 7 2 6 3 5 4 4 5 11 6 9 7 10 8 2 10 1 11 3 12
REMARK H PARENT 10 9
REMARK Flexibility Score: inf
ROOT
ATOM      1  C   UNL     1     133.732 131.165 134.492  1.00  0.00     0.010 C 
ATOM      2  C   UNL     1     134.200 131.741 135.836  1.00  0.00     0.015 C 
ATOM      3  C   UNL     1     133.014 131.806 136.836  1.00  0.00     0.006 C 
ATOM      4  C   UNL     1     133.179 132.886 137.926  1.00  0.00     0.008 C 
ATOM      5  C   UNL     1     134.661 133.153 138.244  1.00  0.00     0.017 C 
ATOM      6  C   UNL     1     135.419 133.681 136.999  1.00  0.00     0.040 C 
ATOM      7  C   UNL     1     134.859 133.133 135.661  1.00  0.00     0.117 C 
ENDROOT
BRANCH   7   8
ATOM      8  O   UNL     1     135.874 133.107 134.687  1.00  0.00    -0.393 OA
ATOM      9  H   UNL     1     136.641 133.629 135.040  1.00  0.00     0.210 HD
ENDBRANCH   7   8
BRANCH   5  10
ATOM     10  C   UNL     1     134.819 134.087 139.438  1.00  0.00    -0.077 C 
ATOM     11  C   UNL     1     133.878 134.997 139.740  1.00  0.00     0.008 C 
ATOM     12  C   UNL     1     136.044 133.998 140.311  1.00  0.00     0.039 C 
ENDBRANCH   5  10
TORSDOF 2
ENDMDL
MODEL 6
REMARK VINA RESULT:    -2.900      1.481      2.061
REMARK INTER + INTRA:          -3.243
REMARK INTER:                  -3.150
REMARK INTRA:                  -0.093
REMARK UNBOUND:                -0.089
REMARK SMILES C=C(C)[C@H]1CC[C@@H](C)[C@H](O)C1
REMARK SMILES IDX 8 1 7 2 6 3 5 4 4 5 11 6 9 7 10 8 2 10 1 11 3 12
REMARK H PARENT 10 9
REMARK Flexibility Score: inf
ROOT
ATOM      1  C   UNL     1     137.884 134.251 139.617  1.00  0.00     0.010 C 
ATOM      2  C   UNL     1     136.468 133.789 139.249  1.00  0.00     0.015 C 
ATOM      3  C   UNL     1     136.355 133.562 137.718  1.00  0.00     0.006 C 
ATOM      4  C   UNL     1     134.920 133.716 137.171  1.00  0.00     0.008 C 
ATOM      5  C   UNL     1     133.865 133.351 138.230  1.00  0.00     0.017 C 
ATOM      6  C   UNL     1     133.956 134.288 139.462  1.00  0.00     0.040 C 
ATOM      7  C   UNL     1     135.395 134.791 139.746  1.00  0.00     0.117 C 
ENDROOT
BRANCH   7   8
ATOM      8  O   UNL     1     135.546 135.077 141.115  1.00  0.00    -0.393 OA
ATOM      9  H   UNL     1     134.815 135.697 141.374  1.00  0.00     0.210 HD
ENDBRANCH   7   8
BRANCH   5  10
ATOM     10  C   UNL     1     132.460 133.333 137.640  1.00  0.00    -0.077 C 
ATOM     11  C   UNL     1     131.782 134.472 137.422  1.00  0.00     0.008 C 
ATOM     12  C   UNL     1     131.808 132.023 137.281  1.00  0.00     0.039 C 
ENDBRANCH   5  10
TORSDOF 2
ENDMDL
MODEL 7
REMARK VINA RESULT:    -2.559      1.740      4.284
REMARK INTER + INTRA:          -2.872
REMARK INTER:                  -2.785
REMARK INTRA:                  -0.087
REMARK UNBOUND:                -0.089
REMARK SMILES C=C(C)[C@H]1CC[C@@H](C)[C@H](O)C1
REMARK SMILES IDX 8 1 7 2 6 3 5 4 4 5 11 6 9 7 10 8 2 10 1 11 3 12
REMARK H PARENT 10 9
REMARK Flexibility Score: inf
ROOT
ATOM      1  C   UNL     1     131.870 130.297 136.073  1.00  0.00     0.010 C 
ATOM      2  C   UNL     1     132.340 131.654 136.615  1.00  0.00     0.015 C 
ATOM      3  C   UNL     1     133.778 131.963 136.120  1.00  0.00     0.006 C 
ATOM      4  C   UNL     1     134.562 132.915 137.047  1.00  0.00     0.008 C 
ATOM      5  C   UNL     1     133.626 133.878 137.798  1.00  0.00     0.017 C 
ATOM      6  C   UNL     1     132.639 133.107 138.713  1.00  0.00     0.040 C 
ATOM      7  C   UNL     1     132.257 131.709 138.161  1.00  0.00     0.117 C 
ENDROOT
BRANCH   7   8
ATOM      8  O   UNL     1     130.981 131.339 138.626  1.00  0.00    -0.393 OA
ATOM      9  H   UNL     1     130.978 130.352 138.737  1.00  0.00     0.210 HD
ENDBRANCH   7   8
BRANCH   5  10
ATOM     10  C   UNL     1     134.408 134.930 138.575  1.00  0.00    -0.077 C 
ATOM     11  C   UNL     1     133.866 136.123 138.871  1.00  0.00     0.008 C 
ATOM     12  C   UNL     1     135.814 134.641 139.035  1.00  0.00     0.039 C 
ENDBRANCH   5  10
TORSDOF 2
ENDMDL
MODEL 8
REMARK VINA RESULT:    -2.254      2.072      3.066
REMARK INTER + INTRA:          -2.540
REMARK INTER:                  -2.453
REMARK INTRA:                  -0.087
REMARK UNBOUND:                -0.089
REMARK SMILES C=C(C)[C@H]1CC[C@@H](C)[C@H](O)C1
REMARK SMILES IDX 8 1 7 2 6 3 5 4 4 5 11 6 9 7 10 8 2 10 1 11 3 12
REMARK H PARENT 10 9
REMARK Flexibility Score: inf
ROOT
ATOM      1  C   UNL     1     137.869 134.171 139.617  1.00  0.00     0.010 C 
ATOM      2  C   UNL     1     136.457 134.383 139.052  1.00  0.00     0.015 C 
ATOM      3  C   UNL     1     135.395 134.164 140.162  1.00  0.00     0.006 C 
ATOM      4  C   UNL     1     134.013 133.736 139.624  1.00  0.00     0.008 C 
ATOM      5  C   UNL     1     133.759 134.284 138.209  1.00  0.00     0.017 C 
ATOM      6  C   UNL     1     134.800 133.739 137.197  1.00  0.00     0.040 C 
ATOM      7  C   UNL     1     136.188 133.466 137.832  1.00  0.00     0.117 C 
ENDROOT
BRANCH   7   8
ATOM      8  O   UNL     1     137.197 133.587 136.860  1.00  0.00    -0.393 OA
ATOM      9  H   UNL     1     137.006 132.924 136.146  1.00  0.00     0.210 HD
ENDBRANCH   7   8
BRANCH   5  10
ATOM     10  C   UNL     1     132.332 134.011 137.749  1.00  0.00    -0.077 C 
ATOM     11  C   UNL     1     131.482 135.016 137.482  1.00  0.00     0.008 C 
ATOM     12  C   UNL     1     131.850 132.593 137.578  1.00  0.00     0.039 C 
ENDBRANCH   5  10
TORSDOF 2
ENDMDL
MODEL 9
REMARK VINA RESULT:    -1.903      2.424      4.475
REMARK INTER + INTRA:          -2.160
REMARK INTER:                  -2.070
REMARK INTRA:                  -0.089
REMARK UNBOUND:                -0.089
REMARK SMILES C=C(C)[C@H]1CC[C@@H](C)[C@H](O)C1
REMARK SMILES IDX 8 1 7 2 6 3 5 4 4 5 11 6 9 7 10 8 2 10 1 11 3 12
REMARK H PARENT 10 9
REMARK Flexibility Score: inf
ROOT
ATOM      1  C   UNL     1     131.494 135.305 137.576  1.00  0.00     0.010 C 
ATOM      2  C   UNL     1     132.647 134.755 138.428  1.00  0.00     0.015 C 
ATOM      3  C   UNL     1     133.669 135.880 138.742  1.00  0.00     0.006 C 
ATOM      4  C   UNL     1     135.097 135.364 139.016  1.00  0.00     0.008 C 
ATOM      5  C   UNL     1     135.085 133.945 139.613  1.00  0.00     0.017 C 
ATOM      6  C   UNL     1     134.442 132.928 138.636  1.00  0.00     0.040 C 
ATOM      7  C   UNL     1     133.338 133.549 137.742  1.00  0.00     0.117 C 
ENDROOT
BRANCH   7   8
ATOM      8  O   UNL     1     132.407 132.563 137.367  1.00  0.00    -0.393 OA
ATOM      9  H   UNL     1     132.326 131.925 138.124  1.00  0.00     0.210 HD
ENDBRANCH   7   8
BRANCH   5  10
ATOM     10  C   UNL     1     136.479 133.506 140.045  1.00  0.00    -0.077 C 
ATOM     11  C   UNL     1     137.566 134.229 139.727  1.00  0.00     0.008 C 
ATOM     12  C   UNL     1     136.659 132.245 140.850  1.00  0.00     0.039 C 
ENDBRANCH   5  10
TORSDOF 2
ENDMDL
