MODEL 1
REMARK VINA RESULT:    -1.594      0.000      0.000
REMARK INTER + INTRA:          -4.929
REMARK INTER:                  -2.480
REMARK INTRA:                  -2.450
REMARK UNBOUND:                -2.450
REMARK SMILES COc1cc(CNC(=O)CCCCC=CC(C)C)ccc1O
REMARK SMILES IDX 11 1 12 2 13 3 14 4 15 5 16 6 17 7 18 8 10 9 8 10 9 11 7 12
REMARK SMILES IDX 6 14 5 15 4 16 19 17 3 18 20 19 21 20 2 21 1 22 22 23
REMARK H PARENT 7 13 22 24
REMARK Flexibility Score: inf
ROOT
ATOM      1  C   UNL     1     122.588 108.868 131.655  1.00  0.00     0.010 C 
ENDROOT
BRANCH   1   2
ATOM      2  C   UNL     1     122.555 107.581 132.493  1.00  0.00     0.005 C 
BRANCH   2   3
ATOM      3  C   UNL     1     122.763 107.844 133.994  1.00  0.00     0.027 C 
BRANCH   3   4
ATOM      4  C   UNL     1     122.927 109.313 134.272  1.00  0.00    -0.031 C 
ATOM      5  C   UNL     1     122.435 109.880 135.386  1.00  0.00    -0.028 C 
BRANCH   5   6
ATOM      6  C   UNL     1     122.606 111.356 135.656  1.00  0.00     0.005 C 
ATOM      7  C   UNL     1     123.246 112.052 134.449  1.00  0.00     0.012 C 
ATOM      8  C   UNL     1     121.255 111.999 135.989  1.00  0.00     0.012 C 
ENDBRANCH   5   6
ENDBRANCH   3   4
ENDBRANCH   2   3
ENDBRANCH   1   2
BRANCH   1   9
ATOM      9  C   UNL     1     123.715 108.869 130.613  1.00  0.00     0.100 C 
BRANCH   9  10
ATOM     10  C   UNL     1     124.957 109.472 131.196  1.00  0.00     0.220 C 
ATOM     11  O   UNL     1     125.031 110.723 131.337  1.00  0.00    -0.275 OA
ATOM     12  N   UNL     1     126.026 108.626 131.641  1.00  0.00    -0.352 N 
ATOM     13  H   UNL     1     125.944 107.593 131.504  1.00  0.00     0.163 HD
BRANCH  12  14
ATOM     14  C   UNL     1     127.125 109.123 132.464  1.00  0.00     0.151 C 
BRANCH  14  15
ATOM     15  C   UNL     1     126.728 109.093 133.914  1.00  0.00    -0.025 A 
ATOM     16  C   UNL     1     126.585 110.286 134.637  1.00  0.00     0.056 A 
ATOM     17  C   UNL     1     126.424 107.871 134.532  1.00  0.00     0.009 A 
ATOM     18  C   UNL     1     126.157 110.263 135.980  1.00  0.00     0.160 A 
ATOM     19  C   UNL     1     126.007 107.841 135.865  1.00  0.00     0.050 A 
ATOM     20  C   UNL     1     125.874 109.032 136.590  1.00  0.00     0.157 A 
BRANCH  18  21
ATOM     21  O   UNL     1     125.999 111.436 136.734  1.00  0.00    -0.493 OA
ATOM     22  C   UNL     1     127.074 112.191 137.284  1.00  0.00     0.278 C 
ENDBRANCH  18  21
BRANCH  20  23
ATOM     23  O   UNL     1     125.457 109.001 137.920  1.00  0.00    -0.504 OA
ATOM     24  H   UNL     1     125.803 108.302 138.567  1.00  0.00     0.293 HD
ENDBRANCH  20  23
ENDBRANCH  14  15
ENDBRANCH  12  14
ENDBRANCH   9  10
ENDBRANCH   1   9
TORSDOF 10
ENDMDL
MODEL 2
REMARK VINA RESULT:    -1.547      1.522      2.589
REMARK INTER + INTRA:          -4.855
REMARK INTER:                  -2.517
REMARK INTRA:                  -2.338
REMARK UNBOUND:                -2.450
REMARK SMILES COc1cc(CNC(=O)CCCCC=CC(C)C)ccc1O
REMARK SMILES IDX 11 1 12 2 13 3 14 4 15 5 16 6 17 7 18 8 10 9 8 10 9 11 7 12
REMARK SMILES IDX 6 14 5 15 4 16 19 17 3 18 20 19 21 20 2 21 1 22 22 23
REMARK H PARENT 7 13 22 24
REMARK Flexibility Score: inf
ROOT
ATOM      1  C   UNL     1     122.618 108.475 131.747  1.00  0.00     0.010 C 
ENDROOT
BRANCH   1   2
ATOM      2  C   UNL     1     122.660 108.345 133.277  1.00  0.00     0.005 C 
BRANCH   2   3
ATOM      3  C   UNL     1     122.761 109.705 133.986  1.00  0.00     0.027 C 
BRANCH   3   4
ATOM      4  C   UNL     1     123.378 110.743 133.089  1.00  0.00    -0.031 C 
ATOM      5  C   UNL     1     123.512 112.022 133.477  1.00  0.00    -0.028 C 
BRANCH   5   6
ATOM      6  C   UNL     1     124.132 113.056 132.568  1.00  0.00     0.005 C 
ATOM      7  C   UNL     1     124.852 112.379 131.396  1.00  0.00     0.012 C 
ATOM      8  C   UNL     1     123.063 114.026 132.051  1.00  0.00     0.012 C 
ENDBRANCH   5   6
ENDBRANCH   3   4
ENDBRANCH   2   3
ENDBRANCH   1   2
BRANCH   1   9
ATOM      9  C   UNL     1     123.592 107.519 131.043  1.00  0.00     0.100 C 
BRANCH   9  10
ATOM     10  C   UNL     1     125.007 107.930 131.316  1.00  0.00     0.220 C 
ATOM     11  O   UNL     1     125.519 108.868 130.648  1.00  0.00    -0.275 OA
ATOM     12  N   UNL     1     125.749 107.297 132.367  1.00  0.00    -0.352 N 
ATOM     13  H   UNL     1     125.304 106.514 132.900  1.00  0.00     0.163 HD
BRANCH  12  14
ATOM     14  C   UNL     1     127.012 107.833 132.865  1.00  0.00     0.151 C 
BRANCH  14  15
ATOM     15  C   UNL     1     126.743 108.951 133.834  1.00  0.00    -0.025 A 
ATOM     16  C   UNL     1     126.179 108.681 135.090  1.00  0.00     0.056 A 
ATOM     17  C   UNL     1     127.125 110.262 133.516  1.00  0.00     0.009 A 
ATOM     18  C   UNL     1     125.979 109.720 136.023  1.00  0.00     0.160 A 
ATOM     19  C   UNL     1     126.921 111.296 134.433  1.00  0.00     0.050 A 
ATOM     20  C   UNL     1     126.349 111.029 135.683  1.00  0.00     0.157 A 
BRANCH  18  21
ATOM     21  O   UNL     1     125.421 109.489 137.289  1.00  0.00    -0.493 OA
ATOM     22  C   UNL     1     124.746 108.293 137.667  1.00  0.00     0.278 C 
ENDBRANCH  18  21
BRANCH  20  23
ATOM     23  O   UNL     1     126.148 112.062 136.597  1.00  0.00    -0.504 OA
ATOM     24  H   UNL     1     125.720 112.938 136.321  1.00  0.00     0.293 HD
ENDBRANCH  20  23
ENDBRANCH  14  15
ENDBRANCH  12  14
ENDBRANCH   9  10
ENDBRANCH   1   9
TORSDOF 10
ENDMDL
MODEL 3
REMARK VINA RESULT:    -1.490      1.471      2.670
REMARK INTER + INTRA:          -4.768
REMARK INTER:                  -2.308
REMARK INTRA:                  -2.460
REMARK UNBOUND:                -2.450
REMARK SMILES COc1cc(CNC(=O)CCCCC=CC(C)C)ccc1O
REMARK SMILES IDX 11 1 12 2 13 3 14 4 15 5 16 6 17 7 18 8 10 9 8 10 9 11 7 12
REMARK SMILES IDX 6 14 5 15 4 16 19 17 3 18 20 19 21 20 2 21 1 22 22 23
REMARK H PARENT 7 13 22 24
REMARK Flexibility Score: inf
ROOT
ATOM      1  C   UNL     1     123.362 111.932 131.787  1.00  0.00     0.010 C 
ENDROOT
BRANCH   1   2
ATOM      2  C   UNL     1     123.553 112.587 133.164  1.00  0.00     0.005 C 
BRANCH   2   3
ATOM      3  C   UNL     1     123.133 111.668 134.323  1.00  0.00     0.027 C 
BRANCH   3   4
ATOM      4  C   UNL     1     123.060 110.232 133.881  1.00  0.00    -0.031 C 
ATOM      5  C   UNL     1     122.463 109.293 134.632  1.00  0.00    -0.028 C 
BRANCH   5   6
ATOM      6  C   UNL     1     122.395 107.853 134.179  1.00  0.00     0.005 C 
ATOM      7  C   UNL     1     123.257 107.642 132.929  1.00  0.00     0.012 C 
ATOM      8  C   UNL     1     122.845 106.916 135.306  1.00  0.00     0.012 C 
ENDBRANCH   5   6
ENDBRANCH   3   4
ENDBRANCH   2   3
ENDBRANCH   1   2
BRANCH   1   9
ATOM      9  C   UNL     1     124.518 112.227 130.823  1.00  0.00     0.100 C 
BRANCH   9  10
ATOM     10  C   UNL     1     125.799 111.670 131.365  1.00  0.00     0.220 C 
ATOM     11  O   UNL     1     126.792 112.433 131.514  1.00  0.00    -0.275 OA
ATOM     12  N   UNL     1     125.873 110.295 131.763  1.00  0.00    -0.352 N 
ATOM     13  H   UNL     1     125.039 109.681 131.620  1.00  0.00     0.163 HD
BRANCH  12  14
ATOM     14  C   UNL     1     126.984 109.767 132.550  1.00  0.00     0.151 C 
BRANCH  14  15
ATOM     15  C   UNL     1     126.654 109.851 134.015  1.00  0.00    -0.025 A 
ATOM     16  C   UNL     1     126.745 111.075 134.695  1.00  0.00     0.056 A 
ATOM     17  C   UNL     1     126.181 108.718 134.692  1.00  0.00     0.009 A 
ATOM     18  C   UNL     1     126.381 111.167 136.054  1.00  0.00     0.160 A 
ATOM     19  C   UNL     1     125.827 108.801 136.040  1.00  0.00     0.050 A 
ATOM     20  C   UNL     1     125.927 110.021 136.722  1.00  0.00     0.157 A 
BRANCH  18  21
ATOM     21  O   UNL     1     126.455 112.373 136.767  1.00  0.00    -0.493 OA
ATOM     22  C   UNL     1     125.534 113.450 136.626  1.00  0.00     0.278 C 
ENDBRANCH  18  21
BRANCH  20  23
ATOM     23  O   UNL     1     125.572 110.103 138.068  1.00  0.00    -0.504 OA
ATOM     24  H   UNL     1     125.099 109.340 138.539  1.00  0.00     0.293 HD
ENDBRANCH  20  23
ENDBRANCH  14  15
ENDBRANCH  12  14
ENDBRANCH   9  10
ENDBRANCH   1   9
TORSDOF 10
ENDMDL
MODEL 4
REMARK VINA RESULT:    -1.426      2.176      3.171
REMARK INTER + INTRA:          -4.667
REMARK INTER:                  -2.447
REMARK INTRA:                  -2.220
REMARK UNBOUND:                -2.450
REMARK SMILES COc1cc(CNC(=O)CCCCC=CC(C)C)ccc1O
REMARK SMILES IDX 11 1 12 2 13 3 14 4 15 5 16 6 17 7 18 8 10 9 8 10 9 11 7 12
REMARK SMILES IDX 6 14 5 15 4 16 19 17 3 18 20 19 21 20 2 21 1 22 22 23
REMARK H PARENT 7 13 22 24
REMARK Flexibility Score: inf
ROOT
ATOM      1  C   UNL     1     122.857 112.798 132.049  1.00  0.00     0.010 C 
ENDROOT
BRANCH   1   2
ATOM      2  C   UNL     1     123.075 111.509 131.242  1.00  0.00     0.005 C 
BRANCH   2   3
ATOM      3  C   UNL     1     123.696 110.380 132.080  1.00  0.00     0.027 C 
BRANCH   3   4
ATOM      4  C   UNL     1     123.252 110.459 133.515  1.00  0.00    -0.031 C 
ATOM      5  C   UNL     1     122.723 109.401 134.149  1.00  0.00    -0.028 C 
BRANCH   5   6
ATOM      6  C   UNL     1     122.280 109.492 135.591  1.00  0.00     0.005 C 
ATOM      7  C   UNL     1     122.379 110.936 136.094  1.00  0.00     0.012 C 
ATOM      8  C   UNL     1     120.846 108.969 135.744  1.00  0.00     0.012 C 
ENDBRANCH   5   6
ENDBRANCH   3   4
ENDBRANCH   2   3
ENDBRANCH   1   2
BRANCH   1   9
ATOM      9  C   UNL     1     123.982 113.822 131.847  1.00  0.00     0.100 C 
BRANCH   9  10
ATOM     10  C   UNL     1     124.980 113.722 132.960  1.00  0.00     0.220 C 
ATOM     11  O   UNL     1     124.739 114.290 134.060  1.00  0.00    -0.275 OA
ATOM     12  N   UNL     1     126.168 112.939 132.791  1.00  0.00    -0.352 N 
ATOM     13  H   UNL     1     126.349 112.486 131.866  1.00  0.00     0.163 HD
BRANCH  12  14
ATOM     14  C   UNL     1     127.029 112.573 133.912  1.00  0.00     0.151 C 
BRANCH  14  15
ATOM     15  C   UNL     1     126.819 111.126 134.263  1.00  0.00    -0.025 A 
ATOM     16  C   UNL     1     126.249 110.768 135.493  1.00  0.00     0.056 A 
ATOM     17  C   UNL     1     127.125 110.127 133.327  1.00  0.00     0.009 A 
ATOM     18  C   UNL     1     125.998 109.415 135.800  1.00  0.00     0.160 A 
ATOM     19  C   UNL     1     126.887 108.784 133.628  1.00  0.00     0.050 A 
ATOM     20  C   UNL     1     126.326 108.426 134.860  1.00  0.00     0.157 A 
BRANCH  18  21
ATOM     21  O   UNL     1     125.426 109.018 137.018  1.00  0.00    -0.493 OA
ATOM     22  C   UNL     1     126.152 108.846 138.231  1.00  0.00     0.278 C 
ENDBRANCH  18  21
BRANCH  20  23
ATOM     23  O   UNL     1     126.088 107.085 135.160  1.00  0.00    -0.504 OA
ATOM     24  H   UNL     1     125.842 106.417 134.438  1.00  0.00     0.293 HD
ENDBRANCH  20  23
ENDBRANCH  14  15
ENDBRANCH  12  14
ENDBRANCH   9  10
ENDBRANCH   1   9
TORSDOF 10
ENDMDL
MODEL 5
REMARK VINA RESULT:    -1.385      2.840      4.609
REMARK INTER + INTRA:          -4.603
REMARK INTER:                  -2.155
REMARK INTRA:                  -2.448
REMARK UNBOUND:                -2.450
REMARK SMILES COc1cc(CNC(=O)CCCCC=CC(C)C)ccc1O
REMARK SMILES IDX 11 1 12 2 13 3 14 4 15 5 16 6 17 7 18 8 10 9 8 10 9 11 7 12
REMARK SMILES IDX 6 14 5 15 4 16 19 17 3 18 20 19 21 20 2 21 1 22 22 23
REMARK H PARENT 7 13 22 24
REMARK Flexibility Score: inf
ROOT
ATOM      1  C   UNL     1     123.557 114.861 135.005  1.00  0.00     0.010 C 
ENDROOT
BRANCH   1   2
ATOM      2  C   UNL     1     124.063 115.026 136.446  1.00  0.00     0.005 C 
BRANCH   2   3
ATOM      3  C   UNL     1     123.752 113.806 137.328  1.00  0.00     0.027 C 
BRANCH   3   4
ATOM      4  C   UNL     1     123.283 112.641 136.501  1.00  0.00    -0.031 C 
ATOM      5  C   UNL     1     122.831 111.510 137.067  1.00  0.00    -0.028 C 
BRANCH   5   6
ATOM      6  C   UNL     1     122.363 110.345 136.227  1.00  0.00     0.005 C 
ATOM      7  C   UNL     1     120.895 110.021 136.529  1.00  0.00     0.012 C 
ATOM      8  C   UNL     1     122.547 110.651 134.736  1.00  0.00     0.012 C 
ENDBRANCH   5   6
ENDBRANCH   3   4
ENDBRANCH   2   3
ENDBRANCH   1   2
BRANCH   1   9
ATOM      9  C   UNL     1     124.563 115.367 133.961  1.00  0.00     0.100 C 
BRANCH   9  10
ATOM     10  C   UNL     1     125.833 114.576 134.041  1.00  0.00     0.220 C 
ATOM     11  O   UNL     1     126.908 115.161 134.343  1.00  0.00    -0.275 OA
ATOM     12  N   UNL     1     125.811 113.158 133.830  1.00  0.00    -0.352 N 
ATOM     13  H   UNL     1     124.908 112.700 133.570  1.00  0.00     0.163 HD
BRANCH  12  14
ATOM     14  C   UNL     1     126.944 112.300 134.166  1.00  0.00     0.151 C 
BRANCH  14  15
ATOM     15  C   UNL     1     126.682 111.603 135.472  1.00  0.00    -0.025 A 
ATOM     16  C   UNL     1     126.149 110.305 135.491  1.00  0.00     0.056 A 
ATOM     17  C   UNL     1     127.041 112.219 136.680  1.00  0.00     0.009 A 
ATOM     18  C   UNL     1     125.958 109.627 136.712  1.00  0.00     0.160 A 
ATOM     19  C   UNL     1     126.845 111.556 137.893  1.00  0.00     0.050 A 
ATOM     20  C   UNL     1     126.304 110.265 137.913  1.00  0.00     0.157 A 
BRANCH  18  21
ATOM     21  O   UNL     1     125.431 108.328 136.771  1.00  0.00    -0.493 OA
ATOM     22  C   UNL     1     125.987 107.202 136.100  1.00  0.00     0.278 C 
ENDBRANCH  18  21
BRANCH  20  23
ATOM     23  O   UNL     1     126.110 109.603 139.125  1.00  0.00    -0.504 OA
ATOM     24  H   UNL     1     125.769 110.090 139.945  1.00  0.00     0.293 HD
ENDBRANCH  20  23
ENDBRANCH  14  15
ENDBRANCH  12  14
ENDBRANCH   9  10
ENDBRANCH   1   9
TORSDOF 10
ENDMDL
MODEL 6
REMARK VINA RESULT:    -1.344     11.613     14.066
REMARK INTER + INTRA:          -4.540
REMARK INTER:                  -2.042
REMARK INTRA:                  -2.498
REMARK UNBOUND:                -2.450
REMARK SMILES COc1cc(CNC(=O)CCCCC=CC(C)C)ccc1O
REMARK SMILES IDX 11 1 12 2 13 3 14 4 15 5 16 6 17 7 18 8 10 9 8 10 9 11 7 12
REMARK SMILES IDX 6 14 5 15 4 16 19 17 3 18 20 19 21 20 2 21 1 22 22 23
REMARK H PARENT 7 13 22 24
REMARK Flexibility Score: inf
ROOT
ATOM      1  C   UNL     1     125.629 120.628 121.522  1.00  0.00     0.010 C 
ENDROOT
BRANCH   1   2
ATOM      2  C   UNL     1     124.161 120.891 121.889  1.00  0.00     0.005 C 
BRANCH   2   3
ATOM      3  C   UNL     1     123.286 119.631 121.783  1.00  0.00     0.027 C 
BRANCH   3   4
ATOM      4  C   UNL     1     124.128 118.396 121.611  1.00  0.00    -0.031 C 
ATOM      5  C   UNL     1     123.699 117.189 122.011  1.00  0.00    -0.028 C 
BRANCH   5   6
ATOM      6  C   UNL     1     124.552 115.955 121.834  1.00  0.00     0.005 C 
ATOM      7  C   UNL     1     125.990 116.225 122.292  1.00  0.00     0.012 C 
ATOM      8  C   UNL     1     123.956 114.775 122.611  1.00  0.00     0.012 C 
ENDBRANCH   5   6
ENDBRANCH   3   4
ENDBRANCH   2   3
ENDBRANCH   1   2
BRANCH   1   9
ATOM      9  C   UNL     1     126.605 121.517 122.303  1.00  0.00     0.100 C 
BRANCH   9  10
ATOM     10  C   UNL     1     126.757 121.012 123.706  1.00  0.00     0.220 C 
ATOM     11  O   UNL     1     126.837 121.837 124.656  1.00  0.00    -0.275 OA
ATOM     12  N   UNL     1     126.753 119.602 123.965  1.00  0.00    -0.352 N 
ATOM     13  H   UNL     1     126.696 118.939 123.159  1.00  0.00     0.163 HD
BRANCH  12  14
ATOM     14  C   UNL     1     126.614 119.056 125.313  1.00  0.00     0.151 C 
BRANCH  14  15
ATOM     15  C   UNL     1     125.305 118.324 125.431  1.00  0.00    -0.025 A 
ATOM     16  C   UNL     1     125.282 116.958 125.749  1.00  0.00     0.056 A 
ATOM     17  C   UNL     1     124.097 119.023 125.298  1.00  0.00     0.009 A 
ATOM     18  C   UNL     1     124.055 116.283 125.917  1.00  0.00     0.160 A 
ATOM     19  C   UNL     1     122.879 118.358 125.455  1.00  0.00     0.050 A 
ATOM     20  C   UNL     1     122.855 116.992 125.762  1.00  0.00     0.157 A 
BRANCH  18  21
ATOM     21  O   UNL     1     123.991 114.918 126.238  1.00  0.00    -0.493 OA
ATOM     22  C   UNL     1     125.090 114.017 126.149  1.00  0.00     0.278 C 
ENDBRANCH  18  21
BRANCH  20  23
ATOM     23  O   UNL     1     121.638 116.329 125.920  1.00  0.00    -0.504 OA
ATOM     24  H   UNL     1     120.757 116.782 125.709  1.00  0.00     0.293 HD
ENDBRANCH  20  23
ENDBRANCH  14  15
ENDBRANCH  12  14
ENDBRANCH   9  10
ENDBRANCH   1   9
TORSDOF 10
ENDMDL
MODEL 7
REMARK VINA RESULT:    -1.306     14.545     16.774
REMARK INTER + INTRA:          -4.481
REMARK INTER:                  -2.045
REMARK INTRA:                  -2.436
REMARK UNBOUND:                -2.450
REMARK SMILES COc1cc(CNC(=O)CCCCC=CC(C)C)ccc1O
REMARK SMILES IDX 11 1 12 2 13 3 14 4 15 5 16 6 17 7 18 8 10 9 8 10 9 11 7 12
REMARK SMILES IDX 6 14 5 15 4 16 19 17 3 18 20 19 21 20 2 21 1 22 22 23
REMARK H PARENT 7 13 22 24
REMARK Flexibility Score: inf
ROOT
ATOM      1  C   UNL     1     127.125 121.772 121.875  1.00  0.00     0.010 C 
ENDROOT
BRANCH   1   2
ATOM      2  C   UNL     1     126.692 121.659 123.344  1.00  0.00     0.005 C 
BRANCH   2   3
ATOM      3  C   UNL     1     126.034 120.307 123.668  1.00  0.00     0.027 C 
BRANCH   3   4
ATOM      4  C   UNL     1     125.382 119.713 122.450  1.00  0.00    -0.031 C 
ATOM      5  C   UNL     1     125.143 118.396 122.349  1.00  0.00    -0.028 C 
BRANCH   5   6
ATOM      6  C   UNL     1     124.487 117.809 121.121  1.00  0.00     0.005 C 
ATOM      7  C   UNL     1     123.239 117.009 121.508  1.00  0.00     0.012 C 
ATOM      8  C   UNL     1     124.125 118.918 120.126  1.00  0.00     0.012 C 
ENDBRANCH   5   6
ENDBRANCH   3   4
ENDBRANCH   2   3
ENDBRANCH   1   2
BRANCH   1   9
ATOM      9  C   UNL     1     126.682 123.090 121.226  1.00  0.00     0.100 C 
BRANCH   9  10
ATOM     10  C   UNL     1     125.203 123.078 120.986  1.00  0.00     0.220 C 
ATOM     11  O   UNL     1     124.741 122.441 120.001  1.00  0.00    -0.275 OA
ATOM     12  N   UNL     1     124.321 123.739 121.903  1.00  0.00    -0.352 N 
ATOM     13  H   UNL     1     124.731 124.268 122.706  1.00  0.00     0.163 HD
BRANCH  12  14
ATOM     14  C   UNL     1     122.876 123.530 121.886  1.00  0.00     0.151 C 
BRANCH  14  15
ATOM     15  C   UNL     1     122.541 122.240 122.582  1.00  0.00    -0.025 A 
ATOM     16  C   UNL     1     122.850 122.063 123.939  1.00  0.00     0.056 A 
ATOM     17  C   UNL     1     121.849 121.231 121.895  1.00  0.00     0.009 A 
ATOM     18  C   UNL     1     122.485 120.877 124.608  1.00  0.00     0.160 A 
ATOM     19  C   UNL     1     121.493 120.051 122.550  1.00  0.00     0.050 A 
ATOM     20  C   UNL     1     121.809 119.870 123.902  1.00  0.00     0.157 A 
BRANCH  18  21
ATOM     21  O   UNL     1     122.773 120.666 125.965  1.00  0.00    -0.493 OA
ATOM     22  C   UNL     1     122.700 121.672 126.970  1.00  0.00     0.278 C 
ENDBRANCH  18  21
BRANCH  20  23
ATOM     23  O   UNL     1     121.452 118.692 124.555  1.00  0.00    -0.504 OA
ATOM     24  H   UNL     1     121.598 117.784 124.129  1.00  0.00     0.293 HD
ENDBRANCH  20  23
ENDBRANCH  14  15
ENDBRANCH  12  14
ENDBRANCH   9  10
ENDBRANCH   1   9
TORSDOF 10
ENDMDL
MODEL 8
REMARK VINA RESULT:    -0.971      2.268      4.548
REMARK INTER + INTRA:          -3.960
REMARK INTER:                  -1.531
REMARK INTRA:                  -2.430
REMARK UNBOUND:                -2.450
REMARK SMILES COc1cc(CNC(=O)CCCCC=CC(C)C)ccc1O
REMARK SMILES IDX 11 1 12 2 13 3 14 4 15 5 16 6 17 7 18 8 10 9 8 10 9 11 7 12
REMARK SMILES IDX 6 14 5 15 4 16 19 17 3 18 20 19 21 20 2 21 1 22 22 23
REMARK H PARENT 7 13 22 24
REMARK Flexibility Score: inf
ROOT
ATOM      1  C   UNL     1     122.673 113.210 134.977  1.00  0.00     0.010 C 
ENDROOT
BRANCH   1   2
ATOM      2  C   UNL     1     123.599 112.613 133.907  1.00  0.00     0.005 C 
BRANCH   2   3
ATOM      3  C   UNL     1     122.890 111.580 133.016  1.00  0.00     0.027 C 
BRANCH   3   4
ATOM      4  C   UNL     1     122.568 110.327 133.784  1.00  0.00    -0.031 C 
ATOM      5  C   UNL     1     122.931 109.114 133.339  1.00  0.00    -0.028 C 
BRANCH   5   6
ATOM      6  C   UNL     1     122.604 107.862 134.118  1.00  0.00     0.005 C 
ATOM      7  C   UNL     1     122.079 108.219 135.513  1.00  0.00     0.012 C 
ATOM      8  C   UNL     1     121.575 107.014 133.360  1.00  0.00     0.012 C 
ENDBRANCH   5   6
ENDBRANCH   3   4
ENDBRANCH   2   3
ENDBRANCH   1   2
BRANCH   1   9
ATOM      9  C   UNL     1     123.354 113.339 136.346  1.00  0.00     0.100 C 
BRANCH   9  10
ATOM     10  C   UNL     1     123.589 111.981 136.937  1.00  0.00     0.220 C 
ATOM     11  O   UNL     1     122.601 111.258 137.237  1.00  0.00    -0.275 OA
ATOM     12  N   UNL     1     124.926 111.492 137.104  1.00  0.00    -0.352 N 
ATOM     13  H   UNL     1     125.728 112.117 136.857  1.00  0.00     0.163 HD
BRANCH  12  14
ATOM     14  C   UNL     1     125.215 110.093 137.403  1.00  0.00     0.151 C 
BRANCH  14  15
ATOM     15  C   UNL     1     125.679 109.392 136.156  1.00  0.00    -0.025 A 
ATOM     16  C   UNL     1     126.150 110.130 135.060  1.00  0.00     0.056 A 
ATOM     17  C   UNL     1     125.713 107.990 136.111  1.00  0.00     0.009 A 
ATOM     18  C   UNL     1     126.639 109.473 133.912  1.00  0.00     0.160 A 
ATOM     19  C   UNL     1     126.188 107.335 134.974  1.00  0.00     0.050 A 
ATOM     20  C   UNL     1     126.649 108.071 133.875  1.00  0.00     0.157 A 
BRANCH  18  21
ATOM     21  O   UNL     1     127.121 110.176 132.798  1.00  0.00    -0.493 OA
ATOM     22  C   UNL     1     126.299 110.715 131.767  1.00  0.00     0.278 C 
ENDBRANCH  18  21
BRANCH  20  23
ATOM     23  O   UNL     1     127.125 107.415 132.740  1.00  0.00    -0.504 OA
ATOM     24  H   UNL     1     127.938 106.810 132.779  1.00  0.00     0.293 HD
ENDBRANCH  20  23
ENDBRANCH  14  15
ENDBRANCH  12  14
ENDBRANCH   9  10
ENDBRANCH   1   9
TORSDOF 10
ENDMDL
