MODEL 1
REMARK VINA RESULT:    -4.262      0.000      0.000
REMARK INTER + INTRA:          -8.563
REMARK INTER:                  -7.252
REMARK INTRA:                  -1.311
REMARK UNBOUND:                -1.311
REMARK SMILES CCCCCCCCCCCCCC(=O)[O-]
REMARK SMILES IDX 8 1 9 2 10 3 11 4 12 5 13 6 14 7 15 8 16 9 7 10 6 11 5 12
REMARK SMILES IDX 4 13 3 14 2 15 1 16
REMARK H PARENT
REMARK Flexibility Score: inf
ROOT
ATOM      1  C   UNL     1       8.218 -17.374  33.065  1.00  0.00     0.000 C 
ENDROOT
BRANCH   1   2
ATOM      2  C   UNL     1       8.102 -16.603  34.391  1.00  0.00     0.000 C 
BRANCH   2   3
ATOM      3  C   UNL     1       9.203 -16.984  35.394  1.00  0.00     0.000 C 
BRANCH   3   4
ATOM      4  C   UNL     1      10.072 -15.786  35.807  1.00  0.00     0.000 C 
BRANCH   4   5
ATOM      5  C   UNL     1      10.087 -14.715  34.708  1.00  0.00     0.006 C 
BRANCH   5   6
ATOM      6  C   UNL     1      11.460 -14.594  34.033  1.00  0.00     0.053 C 
BRANCH   6   7
ATOM      7  C   UNL     1      12.324 -13.575  34.710  1.00  0.00     0.041 C 
ATOM      8  O   UNL     1      13.556 -13.520  34.458  1.00  0.00    -0.550 OA
ATOM      9  O   UNL     1      11.761 -12.664  35.595  1.00  0.00    -0.550 OA
ENDBRANCH   6   7
ENDBRANCH   5   6
ENDBRANCH   4   5
ENDBRANCH   3   4
ENDBRANCH   2   3
ENDBRANCH   1   2
BRANCH   1  10
ATOM     10  C   UNL     1       9.614 -17.986  32.858  1.00  0.00     0.000 C 
BRANCH  10  11
ATOM     11  C   UNL     1      10.380 -17.336  31.695  1.00  0.00    -0.000 C 
BRANCH  11  12
ATOM     12  C   UNL     1      11.046 -18.401  30.816  1.00  0.00    -0.000 C 
BRANCH  12  13
ATOM     13  C   UNL     1      10.456 -19.790  31.089  1.00  0.00    -0.000 C 
BRANCH  13  14
ATOM     14  C   UNL     1      10.206 -20.550  29.782  1.00  0.00    -0.000 C 
BRANCH  14  15
ATOM     15  C   UNL     1       8.741 -20.992  29.673  1.00  0.00    -0.003 C 
ATOM     16  C   UNL     1       7.837 -20.118  30.536  1.00  0.00     0.004 C 
ENDBRANCH  14  15
ENDBRANCH  13  14
ENDBRANCH  12  13
ENDBRANCH  11  12
ENDBRANCH  10  11
ENDBRANCH   1  10
TORSDOF 12
ENDMDL
MODEL 2
REMARK VINA RESULT:    -4.089      3.811      6.555
REMARK INTER + INTRA:          -8.268
REMARK INTER:                  -6.500
REMARK INTRA:                  -1.769
REMARK UNBOUND:                -1.311
REMARK SMILES CCCCCCCCCCCCCC(=O)[O-]
REMARK SMILES IDX 8 1 9 2 10 3 11 4 12 5 13 6 14 7 15 8 16 9 7 10 6 11 5 12
REMARK SMILES IDX 4 13 3 14 2 15 1 16
REMARK H PARENT
REMARK Flexibility Score: inf
ROOT
ATOM      1  C   UNL     1       9.892 -16.753  30.958  1.00  0.00     0.000 C 
ENDROOT
BRANCH   1   2
ATOM      2  C   UNL     1      11.029 -17.733  31.298  1.00  0.00     0.000 C 
BRANCH   2   3
ATOM      3  C   UNL     1      10.526 -19.169  31.512  1.00  0.00     0.000 C 
BRANCH   3   4
ATOM      4  C   UNL     1       8.993 -19.271  31.494  1.00  0.00     0.000 C 
BRANCH   4   5
ATOM      5  C   UNL     1       8.520 -20.240  30.400  1.00  0.00     0.006 C 
BRANCH   5   6
ATOM      6  C   UNL     1       9.692 -20.858  29.625  1.00  0.00     0.053 C 
BRANCH   6   7
ATOM      7  C   UNL     1       9.778 -20.322  28.229  1.00  0.00     0.041 C 
ATOM      8  O   UNL     1       9.485 -19.121  27.991  1.00  0.00    -0.550 OA
ATOM      9  O   UNL     1      10.215 -21.141  27.196  1.00  0.00    -0.550 OA
ENDBRANCH   6   7
ENDBRANCH   5   6
ENDBRANCH   4   5
ENDBRANCH   3   4
ENDBRANCH   2   3
ENDBRANCH   1   2
BRANCH   1  10
ATOM     10  C   UNL     1       9.928 -15.483  31.824  1.00  0.00     0.000 C 
BRANCH  10  11
ATOM     11  C   UNL     1      10.754 -15.662  33.107  1.00  0.00    -0.000 C 
BRANCH  11  12
ATOM     12  C   UNL     1       9.853 -15.618  34.348  1.00  0.00    -0.000 C 
BRANCH  12  13
ATOM     13  C   UNL     1       9.530 -17.032  34.845  1.00  0.00    -0.000 C 
BRANCH  13  14
ATOM     14  C   UNL     1       8.053 -17.153  35.239  1.00  0.00    -0.000 C 
BRANCH  14  15
ATOM     15  C   UNL     1       7.164 -16.333  34.297  1.00  0.00    -0.003 C 
ATOM     16  C   UNL     1       6.604 -17.200  33.174  1.00  0.00     0.004 C 
ENDBRANCH  14  15
ENDBRANCH  13  14
ENDBRANCH  12  13
ENDBRANCH  11  12
ENDBRANCH  10  11
ENDBRANCH   1  10
TORSDOF 12
ENDMDL
MODEL 3
REMARK VINA RESULT:    -4.021      1.086      2.134
REMARK INTER + INTRA:          -8.153
REMARK INTER:                  -6.650
REMARK INTRA:                  -1.503
REMARK UNBOUND:                -1.311
REMARK SMILES CCCCCCCCCCCCCC(=O)[O-]
REMARK SMILES IDX 8 1 9 2 10 3 11 4 12 5 13 6 14 7 15 8 16 9 7 10 6 11 5 12
REMARK SMILES IDX 4 13 3 14 2 15 1 16
REMARK H PARENT
REMARK Flexibility Score: inf
ROOT
ATOM      1  C   UNL     1       9.721 -17.144  31.574  1.00  0.00     0.000 C 
ENDROOT
BRANCH   1   2
ATOM      2  C   UNL     1       9.503 -17.834  32.932  1.00  0.00     0.000 C 
BRANCH   2   3
ATOM      3  C   UNL     1       8.335 -17.222  33.723  1.00  0.00     0.000 C 
BRANCH   3   4
ATOM      4  C   UNL     1       8.580 -17.223  35.240  1.00  0.00     0.000 C 
BRANCH   4   5
ATOM      5  C   UNL     1       9.884 -16.490  35.585  1.00  0.00     0.006 C 
BRANCH   5   6
ATOM      6  C   UNL     1       9.720 -14.965  35.554  1.00  0.00     0.053 C 
BRANCH   6   7
ATOM      7  C   UNL     1      10.787 -14.309  34.730  1.00  0.00     0.041 C 
ATOM      8  O   UNL     1      11.016 -13.078  34.855  1.00  0.00    -0.550 OA
ATOM      9  O   UNL     1      11.548 -15.066  33.849  1.00  0.00    -0.550 OA
ENDBRANCH   6   7
ENDBRANCH   5   6
ENDBRANCH   4   5
ENDBRANCH   3   4
ENDBRANCH   2   3
ENDBRANCH   1   2
BRANCH   1  10
ATOM     10  C   UNL     1      10.744 -17.882  30.694  1.00  0.00     0.000 C 
BRANCH  10  11
ATOM     11  C   UNL     1      11.140 -19.252  31.266  1.00  0.00    -0.000 C 
BRANCH  11  12
ATOM     12  C   UNL     1      10.382 -20.381  30.558  1.00  0.00    -0.000 C 
BRANCH  12  13
ATOM     13  C   UNL     1       9.888 -19.932  29.176  1.00  0.00    -0.000 C 
BRANCH  13  14
ATOM     14  C   UNL     1       8.360 -20.009  29.085  1.00  0.00    -0.000 C 
BRANCH  14  15
ATOM     15  C   UNL     1       7.753 -20.487  30.410  1.00  0.00    -0.003 C 
ATOM     16  C   UNL     1       6.806 -19.442  30.991  1.00  0.00     0.004 C 
ENDBRANCH  14  15
ENDBRANCH  13  14
ENDBRANCH  12  13
ENDBRANCH  11  12
ENDBRANCH  10  11
ENDBRANCH   1  10
TORSDOF 12
ENDMDL
MODEL 4
REMARK VINA RESULT:    -3.998      4.209      6.991
REMARK INTER + INTRA:          -8.114
REMARK INTER:                  -6.916
REMARK INTRA:                  -1.198
REMARK UNBOUND:                -1.311
REMARK SMILES CCCCCCCCCCCCCC(=O)[O-]
REMARK SMILES IDX 8 1 9 2 10 3 11 4 12 5 13 6 14 7 15 8 16 9 7 10 6 11 5 12
REMARK SMILES IDX 4 13 3 14 2 15 1 16
REMARK H PARENT
REMARK Flexibility Score: inf
ROOT
ATOM      1  C   UNL     1       9.848 -16.008  31.437  1.00  0.00     0.000 C 
ENDROOT
BRANCH   1   2
ATOM      2  C   UNL     1      10.751 -17.246  31.298  1.00  0.00     0.000 C 
BRANCH   2   3
ATOM      3  C   UNL     1      10.044 -18.543  31.723  1.00  0.00     0.000 C 
BRANCH   3   4
ATOM      4  C   UNL     1      10.783 -19.805  31.253  1.00  0.00     0.000 C 
BRANCH   4   5
ATOM      5  C   UNL     1       9.939 -20.589  30.238  1.00  0.00     0.006 C 
BRANCH   5   6
ATOM      6  C   UNL     1       8.437 -20.330  30.408  1.00  0.00     0.053 C 
BRANCH   6   7
ATOM      7  C   UNL     1       7.625 -21.096  29.408  1.00  0.00     0.041 C 
ATOM      8  O   UNL     1       6.471 -20.703  29.094  1.00  0.00    -0.550 OA
ATOM      9  O   UNL     1       8.157 -22.226  28.801  1.00  0.00    -0.550 OA
ENDBRANCH   6   7
ENDBRANCH   5   6
ENDBRANCH   4   5
ENDBRANCH   3   4
ENDBRANCH   2   3
ENDBRANCH   1   2
BRANCH   1  10
ATOM     10  C   UNL     1      10.481 -14.910  32.308  1.00  0.00     0.000 C 
BRANCH  10  11
ATOM     11  C   UNL     1      11.043 -15.452  33.631  1.00  0.00    -0.000 C 
BRANCH  11  12
ATOM     12  C   UNL     1      10.339 -14.805  34.830  1.00  0.00    -0.000 C 
BRANCH  12  13
ATOM     13  C   UNL     1       9.863 -15.868  35.828  1.00  0.00    -0.000 C 
BRANCH  13  14
ATOM     14  C   UNL     1       9.455 -17.157  35.107  1.00  0.00    -0.000 C 
BRANCH  14  15
ATOM     15  C   UNL     1       7.965 -17.137  34.744  1.00  0.00    -0.003 C 
ATOM     16  C   UNL     1       7.092 -17.242  35.990  1.00  0.00     0.004 C 
ENDBRANCH  14  15
ENDBRANCH  13  14
ENDBRANCH  12  13
ENDBRANCH  11  12
ENDBRANCH  10  11
ENDBRANCH   1  10
TORSDOF 12
ENDMDL
MODEL 5
REMARK VINA RESULT:    -3.998      1.736      2.952
REMARK INTER + INTRA:          -8.113
REMARK INTER:                  -6.988
REMARK INTRA:                  -1.125
REMARK UNBOUND:                -1.311
REMARK SMILES CCCCCCCCCCCCCC(=O)[O-]
REMARK SMILES IDX 8 1 9 2 10 3 11 4 12 5 13 6 14 7 15 8 16 9 7 10 6 11 5 12
REMARK SMILES IDX 4 13 3 14 2 15 1 16
REMARK H PARENT
REMARK Flexibility Score: inf
ROOT
ATOM      1  C   UNL     1      10.751 -16.991  31.660  1.00  0.00     0.000 C 
ENDROOT
BRANCH   1   2
ATOM      2  C   UNL     1       9.380 -16.294  31.620  1.00  0.00     0.000 C 
BRANCH   2   3
ATOM      3  C   UNL     1       8.634 -16.381  32.961  1.00  0.00     0.000 C 
BRANCH   3   4
ATOM      4  C   UNL     1       9.203 -17.466  33.888  1.00  0.00     0.000 C 
BRANCH   4   5
ATOM      5  C   UNL     1       9.086 -17.045  35.361  1.00  0.00     0.006 C 
BRANCH   5   6
ATOM      6  C   UNL     1      10.086 -15.942  35.730  1.00  0.00     0.053 C 
BRANCH   6   7
ATOM      7  C   UNL     1       9.392 -14.685  36.158  1.00  0.00     0.041 C 
ATOM      8  O   UNL     1       8.244 -14.738  36.672  1.00  0.00    -0.550 OA
ATOM      9  O   UNL     1      10.029 -13.458  36.020  1.00  0.00    -0.550 OA
ENDBRANCH   6   7
ENDBRANCH   5   6
ENDBRANCH   4   5
ENDBRANCH   3   4
ENDBRANCH   2   3
ENDBRANCH   1   2
BRANCH   1  10
ATOM     10  C   UNL     1      10.883 -18.096  30.599  1.00  0.00     0.000 C 
BRANCH  10  11
ATOM     11  C   UNL     1      10.808 -19.508  31.199  1.00  0.00    -0.000 C 
BRANCH  11  12
ATOM     12  C   UNL     1       9.745 -20.351  30.484  1.00  0.00    -0.000 C 
BRANCH  12  13
ATOM     13  C   UNL     1       8.350 -19.734  30.648  1.00  0.00    -0.000 C 
BRANCH  13  14
ATOM     14  C   UNL     1       7.256 -20.737  30.266  1.00  0.00    -0.000 C 
BRANCH  14  15
ATOM     15  C   UNL     1       7.444 -21.236  28.828  1.00  0.00    -0.003 C 
ATOM     16  C   UNL     1       7.396 -22.759  28.763  1.00  0.00     0.004 C 
ENDBRANCH  14  15
ENDBRANCH  13  14
ENDBRANCH  12  13
ENDBRANCH  11  12
ENDBRANCH  10  11
ENDBRANCH   1  10
TORSDOF 12
ENDMDL
MODEL 6
REMARK VINA RESULT:    -3.990      1.737      2.609
REMARK INTER + INTRA:          -8.099
REMARK INTER:                  -6.599
REMARK INTRA:                  -1.500
REMARK UNBOUND:                -1.311
REMARK SMILES CCCCCCCCCCCCCC(=O)[O-]
REMARK SMILES IDX 8 1 9 2 10 3 11 4 12 5 13 6 14 7 15 8 16 9 7 10 6 11 5 12
REMARK SMILES IDX 4 13 3 14 2 15 1 16
REMARK H PARENT
REMARK Flexibility Score: inf
ROOT
ATOM      1  C   UNL     1       8.646 -16.050  30.702  1.00  0.00     0.000 C 
ENDROOT
BRANCH   1   2
ATOM      2  C   UNL     1       8.663 -15.594  32.171  1.00  0.00     0.000 C 
BRANCH   2   3
ATOM      3  C   UNL     1       8.073 -16.647  33.123  1.00  0.00     0.000 C 
BRANCH   3   4
ATOM      4  C   UNL     1       9.147 -17.364  33.955  1.00  0.00     0.000 C 
BRANCH   4   5
ATOM      5  C   UNL     1       9.014 -17.011  35.443  1.00  0.00     0.006 C 
BRANCH   5   6
ATOM      6  C   UNL     1      10.010 -15.926  35.874  1.00  0.00     0.053 C 
BRANCH   6   7
ATOM      7  C   UNL     1       9.323 -14.626  36.165  1.00  0.00     0.041 C 
ATOM      8  O   UNL     1       8.215 -14.614  36.762  1.00  0.00    -0.550 OA
ATOM      9  O   UNL     1       9.923 -13.427  35.804  1.00  0.00    -0.550 OA
ENDBRANCH   6   7
ENDBRANCH   5   6
ENDBRANCH   4   5
ENDBRANCH   3   4
ENDBRANCH   2   3
ENDBRANCH   1   2
BRANCH   1  10
ATOM     10  C   UNL     1      10.053 -16.109  30.085  1.00  0.00     0.000 C 
BRANCH  10  11
ATOM     11  C   UNL     1      10.504 -17.543  29.770  1.00  0.00    -0.000 C 
BRANCH  11  12
ATOM     12  C   UNL     1      11.159 -18.193  30.995  1.00  0.00    -0.000 C 
BRANCH  12  13
ATOM     13  C   UNL     1      10.408 -19.464  31.412  1.00  0.00    -0.000 C 
BRANCH  13  14
ATOM     14  C   UNL     1      10.120 -20.357  30.201  1.00  0.00    -0.000 C 
BRANCH  14  15
ATOM     15  C   UNL     1       8.620 -20.644  30.073  1.00  0.00    -0.003 C 
ATOM     16  C   UNL     1       7.803 -19.721  30.972  1.00  0.00     0.004 C 
ENDBRANCH  14  15
ENDBRANCH  13  14
ENDBRANCH  12  13
ENDBRANCH  11  12
ENDBRANCH  10  11
ENDBRANCH   1  10
TORSDOF 12
ENDMDL
MODEL 7
REMARK VINA RESULT:    -3.981      2.067      3.399
REMARK INTER + INTRA:          -8.085
REMARK INTER:                  -6.727
REMARK INTRA:                  -1.358
REMARK UNBOUND:                -1.311
REMARK SMILES CCCCCCCCCCCCCC(=O)[O-]
REMARK SMILES IDX 8 1 9 2 10 3 11 4 12 5 13 6 14 7 15 8 16 9 7 10 6 11 5 12
REMARK SMILES IDX 4 13 3 14 2 15 1 16
REMARK H PARENT
REMARK Flexibility Score: inf
ROOT
ATOM      1  C   UNL     1      10.056 -19.107  31.486  1.00  0.00     0.000 C 
ENDROOT
BRANCH   1   2
ATOM      2  C   UNL     1       8.530 -19.052  31.679  1.00  0.00     0.000 C 
BRANCH   2   3
ATOM      3  C   UNL     1       8.103 -17.988  32.703  1.00  0.00     0.000 C 
BRANCH   3   4
ATOM      4  C   UNL     1       9.285 -17.430  33.510  1.00  0.00     0.000 C 
BRANCH   4   5
ATOM      5  C   UNL     1       8.878 -17.166  34.967  1.00  0.00     0.006 C 
BRANCH   5   6
ATOM      6  C   UNL     1       9.929 -16.344  35.724  1.00  0.00     0.053 C 
BRANCH   6   7
ATOM      7  C   UNL     1       9.565 -14.892  35.776  1.00  0.00     0.041 C 
ATOM      8  O   UNL     1       9.974 -14.103  34.883  1.00  0.00    -0.550 OA
ATOM      9  O   UNL     1       8.748 -14.416  36.793  1.00  0.00    -0.550 OA
ENDBRANCH   6   7
ENDBRANCH   5   6
ENDBRANCH   4   5
ENDBRANCH   3   4
ENDBRANCH   2   3
ENDBRANCH   1   2
BRANCH   1  10
ATOM     10  C   UNL     1      10.504 -20.325  30.662  1.00  0.00     0.000 C 
BRANCH  10  11
ATOM     11  C   UNL     1       9.404 -20.843  29.723  1.00  0.00    -0.000 C 
BRANCH  11  12
ATOM     12  C   UNL     1       9.829 -20.708  28.255  1.00  0.00    -0.000 C 
BRANCH  12  13
ATOM     13  C   UNL     1       9.000 -19.636  27.537  1.00  0.00    -0.000 C 
BRANCH  13  14
ATOM     14  C   UNL     1       9.614 -18.245  27.727  1.00  0.00    -0.000 C 
BRANCH  14  15
ATOM     15  C   UNL     1       8.634 -17.303  28.435  1.00  0.00    -0.003 C 
ATOM     16  C   UNL     1       7.223 -17.881  28.445  1.00  0.00     0.004 C 
ENDBRANCH  14  15
ENDBRANCH  13  14
ENDBRANCH  12  13
ENDBRANCH  11  12
ENDBRANCH  10  11
ENDBRANCH   1  10
TORSDOF 12
ENDMDL
MODEL 8
REMARK VINA RESULT:    -3.972      2.328      3.391
REMARK INTER + INTRA:          -8.069
REMARK INTER:                  -6.556
REMARK INTRA:                  -1.513
REMARK UNBOUND:                -1.311
REMARK SMILES CCCCCCCCCCCCCC(=O)[O-]
REMARK SMILES IDX 8 1 9 2 10 3 11 4 12 5 13 6 14 7 15 8 16 9 7 10 6 11 5 12
REMARK SMILES IDX 4 13 3 14 2 15 1 16
REMARK H PARENT
REMARK Flexibility Score: inf
ROOT
ATOM      1  C   UNL     1       9.451 -15.456  33.200  1.00  0.00     0.000 C 
ENDROOT
BRANCH   1   2
ATOM      2  C   UNL     1       9.948 -16.120  34.496  1.00  0.00     0.000 C 
BRANCH   2   3
ATOM      3  C   UNL     1       9.099 -17.336  34.899  1.00  0.00     0.000 C 
BRANCH   3   4
ATOM      4  C   UNL     1       7.590 -17.076  34.774  1.00  0.00     0.000 C 
BRANCH   4   5
ATOM      5  C   UNL     1       6.977 -16.739  36.141  1.00  0.00     0.006 C 
BRANCH   5   6
ATOM      6  C   UNL     1       6.530 -15.274  36.231  1.00  0.00     0.053 C 
BRANCH   6   7
ATOM      7  C   UNL     1       7.352 -14.502  37.219  1.00  0.00     0.041 C 
ATOM      8  O   UNL     1       8.499 -14.091  36.904  1.00  0.00    -0.550 OA
ATOM      9  O   UNL     1       6.835 -14.210  38.474  1.00  0.00    -0.550 OA
ENDBRANCH   6   7
ENDBRANCH   5   6
ENDBRANCH   4   5
ENDBRANCH   3   4
ENDBRANCH   2   3
ENDBRANCH   1   2
BRANCH   1  10
ATOM     10  C   UNL     1      10.447 -15.607  32.039  1.00  0.00     0.000 C 
BRANCH  10  11
ATOM     11  C   UNL     1      10.069 -16.744  31.077  1.00  0.00    -0.000 C 
BRANCH  11  12
ATOM     12  C   UNL     1      11.051 -17.915  31.201  1.00  0.00    -0.000 C 
BRANCH  12  13
ATOM     13  C   UNL     1      10.321 -19.210  31.579  1.00  0.00    -0.000 C 
BRANCH  13  14
ATOM     14  C   UNL     1       8.807 -18.987  31.656  1.00  0.00    -0.000 C 
BRANCH  14  15
ATOM     15  C   UNL     1       8.057 -19.993  30.775  1.00  0.00    -0.003 C 
ATOM     16  C   UNL     1       9.019 -20.764  29.877  1.00  0.00     0.004 C 
ENDBRANCH  14  15
ENDBRANCH  13  14
ENDBRANCH  12  13
ENDBRANCH  11  12
ENDBRANCH  10  11
ENDBRANCH   1  10
TORSDOF 12
ENDMDL
MODEL 9
REMARK VINA RESULT:    -3.927      1.324      1.873
REMARK INTER + INTRA:          -7.993
REMARK INTER:                  -6.753
REMARK INTRA:                  -1.240
REMARK UNBOUND:                -1.311
REMARK SMILES CCCCCCCCCCCCCC(=O)[O-]
REMARK SMILES IDX 8 1 9 2 10 3 11 4 12 5 13 6 14 7 15 8 16 9 7 10 6 11 5 12
REMARK SMILES IDX 4 13 3 14 2 15 1 16
REMARK H PARENT
REMARK Flexibility Score: inf
ROOT
ATOM      1  C   UNL     1       7.718 -17.481  31.959  1.00  0.00     0.000 C 
ENDROOT
BRANCH   1   2
ATOM      2  C   UNL     1       6.844 -17.327  33.216  1.00  0.00     0.000 C 
BRANCH   2   3
ATOM      3  C   UNL     1       7.487 -16.414  34.273  1.00  0.00     0.000 C 
BRANCH   3   4
ATOM      4  C   UNL     1       8.200 -17.201  35.384  1.00  0.00     0.000 C 
BRANCH   4   5
ATOM      5  C   UNL     1       9.702 -16.884  35.402  1.00  0.00     0.006 C 
BRANCH   5   6
ATOM      6  C   UNL     1      10.073 -15.770  34.414  1.00  0.00     0.053 C 
BRANCH   6   7
ATOM      7  C   UNL     1      10.522 -14.528  35.122  1.00  0.00     0.041 C 
ATOM      8  O   UNL     1      11.563 -13.927  34.749  1.00  0.00    -0.550 OA
ATOM      9  O   UNL     1       9.769 -14.016  36.171  1.00  0.00    -0.550 OA
ENDBRANCH   6   7
ENDBRANCH   5   6
ENDBRANCH   4   5
ENDBRANCH   3   4
ENDBRANCH   2   3
ENDBRANCH   1   2
BRANCH   1  10
ATOM     10  C   UNL     1       8.510 -18.799  31.948  1.00  0.00     0.000 C 
BRANCH  10  11
ATOM     11  C   UNL     1      10.030 -18.578  31.922  1.00  0.00    -0.000 C 
BRANCH  11  12
ATOM     12  C   UNL     1      10.731 -19.692  31.135  1.00  0.00    -0.000 C 
BRANCH  12  13
ATOM     13  C   UNL     1       9.719 -20.533  30.347  1.00  0.00    -0.000 C 
BRANCH  13  14
ATOM     14  C   UNL     1       9.948 -20.400  28.838  1.00  0.00    -0.000 C 
BRANCH  14  15
ATOM     15  C   UNL     1       8.908 -21.207  28.051  1.00  0.00    -0.003 C 
ATOM     16  C   UNL     1       7.982 -21.976  28.987  1.00  0.00     0.004 C 
ENDBRANCH  14  15
ENDBRANCH  13  14
ENDBRANCH  12  13
ENDBRANCH  11  12
ENDBRANCH  10  11
ENDBRANCH   1  10
TORSDOF 12
ENDMDL
