MODEL 1
REMARK VINA RESULT:    23.134      0.000      0.000
REMARK INTER + INTRA:          36.138
REMARK INTER:                  31.925
REMARK INTRA:                   4.213
REMARK UNBOUND:                 4.213
REMARK SMILES C[C@@H]1O[C@@H](O[C@@H]2CC[C@]3(C)[C@@H](CC[C@@]4(C)[C@@H]3C=C[C@]35OC[C@@]6(CCC(C)(C)C[C@@H]63)[C@@H](O)C[C@]45C)[C@]2(C)CO)[C@@H](O)[C@H](O[C@H]2O[C@H](CO)[C@@H](O)[C@@H](O)[C@H]2O)[C@H]1O
REMARK SMILES IDX 1 1 2 2 54 3 41 4 39 5 4 6 3 7 55 8 42 10 43 11 52 12 44 13
REMARK SMILES IDX 50 14 45 15 48 16 53 17 51 19 46 21 47 22 49 24 5 26 6 27
REMARK SMILES IDX 7 28 35 29 8 30 11 31 36 32 9 33 12 34 10 35 16 36 13 37
REMARK SMILES IDX 14 38 17 39 15 40 33 41 18 42 19 43 32 44 34 45 29 46 20 47
REMARK SMILES IDX 30 48 22 49 28 50 21 51 23 52 25 53 24 54 26 55 27 56 37 57
REMARK SMILES IDX 38 58 31 60 40 62
REMARK H PARENT 55 9 53 18 51 20 47 23 49 25 38 59 31 61 40 63
REMARK Flexibility Score: inf
ROOT
ATOM      1  C   UNL     1      -3.141   1.815  -4.462  1.00  0.00     0.041 C 
ATOM      2  C   UNL     1      -4.405   2.874  -4.887  1.00  0.00     0.150 C 
ATOM      3  C   UNL     1      -5.780   2.451  -4.092  1.00  0.00     0.175 C 
ATOM      4  C   UNL     1      -6.759   3.620  -3.385  1.00  0.00     0.186 C 
ATOM      5  C   UNL     1      -5.613   4.649  -3.156  1.00  0.00     0.202 C 
ATOM      6  C   UNL     1      -5.352   5.198  -4.649  1.00  0.00     0.282 C 
ATOM      7  O   UNL     1      -4.184   4.357  -5.007  1.00  0.00    -0.344 OA
ENDROOT
BRANCH   3   8
ATOM      8  O   UNL     1      -6.388   1.240  -4.497  1.00  0.00    -0.388 OA
ATOM      9  H   UNL     1      -7.270   1.469  -4.928  1.00  0.00     0.211 HD
ENDBRANCH   3   8
BRANCH   4  10
ATOM     10  O   UNL     1      -7.658   3.134  -2.263  1.00  0.00    -0.341 OA
BRANCH  10  11
ATOM     11  C   UNL     1      -7.381   3.800  -0.971  1.00  0.00     0.282 C 
ATOM     12  C   UNL     1      -8.125   5.114  -0.879  1.00  0.00     0.202 C 
ATOM     13  O   UNL     1      -5.981   4.074  -0.641  1.00  0.00    -0.341 OA
ATOM     14  C   UNL     1      -7.731   5.948   0.367  1.00  0.00     0.179 C 
ATOM     15  C   UNL     1      -5.748   4.343   0.771  1.00  0.00     0.178 C 
ATOM     16  C   UNL     1      -6.729   5.298   1.424  1.00  0.00     0.177 C 
BRANCH  12  17
ATOM     17  O   UNL     1      -8.088   5.821  -2.108  1.00  0.00    -0.385 OA
ATOM     18  H   UNL     1      -8.926   6.369  -2.129  1.00  0.00     0.211 HD
ENDBRANCH  12  17
BRANCH  14  19
ATOM     19  O   UNL     1      -7.423   7.381   0.345  1.00  0.00    -0.387 OA
ATOM     20  H   UNL     1      -6.297   7.285   0.289  1.00  0.00     0.211 HD
ENDBRANCH  14  19
BRANCH  15  21
ATOM     21  C   UNL     1      -5.486   2.956   1.617  1.00  0.00     0.191 C 
BRANCH  21  22
ATOM     22  O   UNL     1      -7.067   2.441   1.683  1.00  0.00    -0.394 OA
ATOM     23  H   UNL     1      -7.942   2.634   0.973  1.00  0.00     0.210 HD
ENDBRANCH  21  22
ENDBRANCH  15  21
BRANCH  16  24
ATOM     24  O   UNL     1      -6.031   6.380   2.074  1.00  0.00    -0.387 OA
ATOM     25  H   UNL     1      -5.349   5.946   2.632  1.00  0.00     0.211 HD
ENDBRANCH  16  24
ENDBRANCH  10  11
ENDBRANCH   4  10
BRANCH   6  26
ATOM     26  O   UNL     1      -6.878   5.567  -5.684  1.00  0.00    -0.346 OA
BRANCH  26  27
ATOM     27  C   UNL     1      -6.231   6.838  -6.687  1.00  0.00     0.130 C 
ATOM     28  C   UNL     1      -7.424   7.611  -7.309  1.00  0.00     0.033 C 
ATOM     29  C   UNL     1      -5.123   7.102  -8.041  1.00  0.00     0.020 C 
ATOM     30  C   UNL     1      -7.669   7.644  -8.908  1.00  0.00     0.010 C 
ATOM     31  C   UNL     1      -5.364   5.776  -9.054  1.00  0.00     0.006 C 
ATOM     32  C   UNL     1      -4.706   8.395  -9.075  1.00  0.00     0.017 C 
ATOM     33  C   UNL     1      -7.070   6.279  -9.607  1.00  0.00    -0.022 C 
ATOM     34  C   UNL     1      -4.506   5.883 -10.540  1.00  0.00     0.005 C 
ATOM     35  C   UNL     1      -8.123   5.149  -8.738  1.00  0.00     0.012 C 
ATOM     36  C   UNL     1      -7.416   5.768 -11.182  1.00  0.00     0.024 C 
ATOM     37  C   UNL     1      -5.518   6.162 -11.624  1.00  0.00     0.008 C 
ATOM     38  C   UNL     1      -6.401   4.801 -11.933  1.00  0.00    -0.017 C 
ATOM     39  C   UNL     1      -8.001   6.527 -12.473  1.00  0.00    -0.024 C 
ATOM     40  C   UNL     1      -7.698   3.757 -11.956  1.00  0.00     0.013 C 
ATOM     41  C   UNL     1      -5.565   4.413 -13.418  1.00  0.00     0.009 C 
ATOM     42  C   UNL     1      -7.948   5.948 -13.766  1.00  0.00     0.005 C 
ATOM     43  C   UNL     1      -6.843   4.871 -14.396  1.00  0.00     0.096 C 
ATOM     44  C   UNL     1      -4.833   3.056 -14.115  1.00  0.00     0.043 C 
ATOM     45  C   UNL     1      -4.067   5.075 -13.611  1.00  0.00     0.015 C 
ATOM     46  C   UNL     1      -7.422   3.457 -15.272  1.00  0.00     0.037 C 
ATOM     47  O   UNL     1      -6.311   5.798 -15.294  1.00  0.00    -0.369 OA
ATOM     48  C   UNL     1      -5.008   3.359 -15.839  1.00  0.00     0.124 C 
ATOM     49  C   UNL     1      -6.601   3.963 -16.444  1.00  0.00     0.026 C 
ATOM     50  C   UNL     1      -8.118   2.077 -15.931  1.00  0.00     0.014 C 
ATOM     51  C   UNL     1      -7.054   5.479 -16.379  1.00  0.00     0.171 C 
ATOM     52  C   UNL     1      -7.025   3.630 -17.959  1.00  0.00     0.013 C 
ATOM     53  C   UNL     1      -7.196   1.141 -16.894  1.00  0.00    -0.035 C 
ATOM     54  C   UNL     1      -6.713   2.048 -18.125  1.00  0.00     0.007 C 
ATOM     55  C   UNL     1      -8.069  -0.025 -17.446  1.00  0.00     0.011 C 
ATOM     56  C   UNL     1      -6.035   0.339 -16.197  1.00  0.00     0.011 C 
BRANCH  29  57
ATOM     57  C   UNL     1      -4.076   7.849  -6.965  1.00  0.00     0.165 C 
BRANCH  57  58
ATOM     58  O   UNL     1      -4.356   7.638  -5.569  1.00  0.00    -0.396 OA
ATOM     59  H   UNL     1      -5.302   7.405  -5.405  1.00  0.00     0.210 HD
ENDBRANCH  57  58
ENDBRANCH  29  57
BRANCH  48  60
ATOM     60  O   UNL     1      -3.735   3.721 -16.665  1.00  0.00    -0.392 OA
ATOM     61  H   UNL     1      -2.729   3.703 -16.253  1.00  0.00     0.210 HD
ENDBRANCH  48  60
ENDBRANCH  26  27
ENDBRANCH   6  26
BRANCH   5  62
ATOM     62  O   UNL     1      -5.900   5.768  -2.415  1.00  0.00    -0.385 OA
ATOM     63  H   UNL     1      -5.599   6.551  -3.059  1.00  0.00     0.211 HD
ENDBRANCH   5  62
TORSDOF 14
ENDMDL
