MODEL 1
REMARK VINA RESULT:    -4.567      0.000      0.000
REMARK INTER + INTRA:          -6.800
REMARK INTER:                  -6.303
REMARK INTRA:                  -0.497
REMARK UNBOUND:                -0.497
REMARK SMILES CCCCCCCCO
REMARK SMILES IDX 5 1 4 2 3 3 2 4 1 5 6 6 7 7 8 8 9 9
REMARK H PARENT 9 10
REMARK Flexibility Score: inf
ROOT
ATOM      1  C   UNL     1      21.689  -5.047  14.709  1.00  0.00     0.000 C 
ENDROOT
BRANCH   1   2
ATOM      2  C   UNL     1      20.739  -3.919  14.278  1.00  0.00    -0.000 C 
BRANCH   2   3
ATOM      3  C   UNL     1      20.525  -2.918  15.419  1.00  0.00    -0.000 C 
BRANCH   3   4
ATOM      4  C   UNL     1      19.232  -3.225  16.184  1.00  0.00    -0.003 C 
ATOM      5  C   UNL     1      18.154  -3.767  15.249  1.00  0.00     0.004 C 
ENDBRANCH   3   4
ENDBRANCH   2   3
ENDBRANCH   1   2
BRANCH   1   6
ATOM      6  C   UNL     1      20.958  -6.379  14.946  1.00  0.00     0.002 C 
BRANCH   6   7
ATOM      7  C   UNL     1      20.774  -6.695  16.439  1.00  0.00     0.028 C 
BRANCH   7   8
ATOM      8  C   UNL     1      19.297  -6.853  16.806  1.00  0.00     0.156 C 
BRANCH   8   9
ATOM      9  O   UNL     1      19.170  -7.604  17.981  1.00  0.00    -0.396 OA
ATOM     10  H   UNL     1      19.786  -7.190  18.639  1.00  0.00     0.210 HD
ENDBRANCH   8   9
ENDBRANCH   7   8
ENDBRANCH   6   7
ENDBRANCH   1   6
TORSDOF 7
ENDMDL
MODEL 2
REMARK VINA RESULT:    -4.397      2.784      3.427
REMARK INTER + INTRA:          -6.565
REMARK INTER:                  -6.136
REMARK INTRA:                  -0.430
REMARK UNBOUND:                -0.497
REMARK SMILES CCCCCCCCO
REMARK SMILES IDX 5 1 4 2 3 3 2 4 1 5 6 6 7 7 8 8 9 9
REMARK H PARENT 9 10
REMARK Flexibility Score: inf
ROOT
ATOM      1  C   UNL     1      21.902  -5.292  14.642  1.00  0.00     0.000 C 
ENDROOT
BRANCH   1   2
ATOM      2  C   UNL     1      20.801  -4.247  14.402  1.00  0.00    -0.000 C 
BRANCH   2   3
ATOM      3  C   UNL     1      19.419  -4.819  14.738  1.00  0.00    -0.000 C 
BRANCH   3   4
ATOM      4  C   UNL     1      18.583  -3.807  15.530  1.00  0.00    -0.003 C 
ATOM      5  C   UNL     1      18.882  -3.894  17.024  1.00  0.00     0.004 C 
ENDBRANCH   3   4
ENDBRANCH   2   3
ENDBRANCH   1   2
BRANCH   1   6
ATOM      6  C   UNL     1      22.473  -5.232  16.068  1.00  0.00     0.002 C 
BRANCH   6   7
ATOM      7  C   UNL     1      22.669  -3.792  16.568  1.00  0.00     0.028 C 
BRANCH   7   8
ATOM      8  C   UNL     1      24.139  -3.493  16.870  1.00  0.00     0.156 C 
BRANCH   8   9
ATOM      9  O   UNL     1      24.364  -3.529  18.252  1.00  0.00    -0.396 OA
ATOM     10  H   UNL     1      23.468  -3.481  18.677  1.00  0.00     0.210 HD
ENDBRANCH   8   9
ENDBRANCH   7   8
ENDBRANCH   6   7
ENDBRANCH   1   6
TORSDOF 7
ENDMDL
MODEL 3
REMARK VINA RESULT:    -4.302      1.342      2.836
REMARK INTER + INTRA:          -6.433
REMARK INTER:                  -6.012
REMARK INTRA:                  -0.421
REMARK UNBOUND:                -0.497
REMARK SMILES CCCCCCCCO
REMARK SMILES IDX 5 1 4 2 3 3 2 4 1 5 6 6 7 7 8 8 9 9
REMARK H PARENT 9 10
REMARK Flexibility Score: inf
ROOT
ATOM      1  C   UNL     1      19.453  -4.116  14.814  1.00  0.00     0.000 C 
ENDROOT
BRANCH   1   2
ATOM      2  C   UNL     1      20.938  -3.723  14.820  1.00  0.00    -0.000 C 
BRANCH   2   3
ATOM      3  C   UNL     1      21.831  -4.948  14.591  1.00  0.00    -0.000 C 
BRANCH   3   4
ATOM      4  C   UNL     1      23.001  -4.970  15.582  1.00  0.00    -0.003 C 
ATOM      5  C   UNL     1      22.889  -3.829  16.590  1.00  0.00     0.004 C 
ENDBRANCH   3   4
ENDBRANCH   2   3
ENDBRANCH   1   2
BRANCH   1   6
ATOM      6  C   UNL     1      18.801  -3.986  16.200  1.00  0.00     0.002 C 
BRANCH   6   7
ATOM      7  C   UNL     1      19.397  -4.960  17.229  1.00  0.00     0.028 C 
BRANCH   7   8
ATOM      8  C   UNL     1      19.297  -6.412  16.758  1.00  0.00     0.156 C 
BRANCH   8   9
ATOM      9  O   UNL     1      19.259  -7.275  17.861  1.00  0.00    -0.396 OA
ATOM     10  H   UNL     1      18.944  -8.150  17.514  1.00  0.00     0.210 HD
ENDBRANCH   8   9
ENDBRANCH   7   8
ENDBRANCH   6   7
ENDBRANCH   1   6
TORSDOF 7
ENDMDL
MODEL 4
REMARK VINA RESULT:    -4.278      2.132      4.106
REMARK INTER + INTRA:          -6.400
REMARK INTER:                  -6.041
REMARK INTRA:                  -0.359
REMARK UNBOUND:                -0.497
REMARK SMILES CCCCCCCCO
REMARK SMILES IDX 5 1 4 2 3 3 2 4 1 5 6 6 7 7 8 8 9 9
REMARK H PARENT 9 10
REMARK Flexibility Score: inf
ROOT
ATOM      1  C   UNL     1      19.020  -4.319  17.134  1.00  0.00     0.000 C 
ENDROOT
BRANCH   1   2
ATOM      2  C   UNL     1      20.349  -5.083  17.243  1.00  0.00    -0.000 C 
BRANCH   2   3
ATOM      3  C   UNL     1      20.133  -6.588  17.046  1.00  0.00    -0.000 C 
BRANCH   3   4
ATOM      4  C   UNL     1      19.109  -6.857  15.938  1.00  0.00    -0.003 C 
ATOM      5  C   UNL     1      18.509  -8.255  16.069  1.00  0.00     0.004 C 
ENDBRANCH   3   4
ENDBRANCH   2   3
ENDBRANCH   1   2
BRANCH   1   6
ATOM      6  C   UNL     1      18.977  -3.375  15.922  1.00  0.00     0.002 C 
BRANCH   6   7
ATOM      7  C   UNL     1      20.373  -3.089  15.344  1.00  0.00     0.028 C 
BRANCH   7   8
ATOM      8  C   UNL     1      20.510  -3.609  13.912  1.00  0.00     0.156 C 
BRANCH   8   9
ATOM      9  O   UNL     1      21.244  -4.801  13.900  1.00  0.00    -0.396 OA
ATOM     10  H   UNL     1      20.788  -5.397  13.251  1.00  0.00     0.210 HD
ENDBRANCH   8   9
ENDBRANCH   7   8
ENDBRANCH   6   7
ENDBRANCH   1   6
TORSDOF 7
ENDMDL
MODEL 5
REMARK VINA RESULT:    -4.278      1.998      3.592
REMARK INTER + INTRA:          -6.400
REMARK INTER:                  -6.032
REMARK INTRA:                  -0.368
REMARK UNBOUND:                -0.497
REMARK SMILES CCCCCCCCO
REMARK SMILES IDX 5 1 4 2 3 3 2 4 1 5 6 6 7 7 8 8 9 9
REMARK H PARENT 9 10
REMARK Flexibility Score: inf
ROOT
ATOM      1  C   UNL     1      20.836  -4.197  14.275  1.00  0.00     0.000 C 
ENDROOT
BRANCH   1   2
ATOM      2  C   UNL     1      21.826  -5.119  15.003  1.00  0.00    -0.000 C 
BRANCH   2   3
ATOM      3  C   UNL     1      22.380  -4.443  16.262  1.00  0.00    -0.000 C 
BRANCH   3   4
ATOM      4  C   UNL     1      23.912  -4.383  16.225  1.00  0.00    -0.003 C 
ATOM      5  C   UNL     1      24.434  -3.161  16.978  1.00  0.00     0.004 C 
ENDBRANCH   3   4
ENDBRANCH   2   3
ENDBRANCH   1   2
BRANCH   1   6
ATOM      6  C   UNL     1      20.134  -3.214  15.226  1.00  0.00     0.002 C 
BRANCH   6   7
ATOM      7  C   UNL     1      18.777  -3.739  15.724  1.00  0.00     0.028 C 
BRANCH   7   8
ATOM      8  C   UNL     1      18.769  -3.934  17.241  1.00  0.00     0.156 C 
BRANCH   8   9
ATOM      9  O   UNL     1      19.201  -5.227  17.563  1.00  0.00    -0.396 OA
ATOM     10  H   UNL     1      18.652  -5.515  18.338  1.00  0.00     0.210 HD
ENDBRANCH   8   9
ENDBRANCH   7   8
ENDBRANCH   6   7
ENDBRANCH   1   6
TORSDOF 7
ENDMDL
MODEL 6
REMARK VINA RESULT:    -4.277      2.129      3.537
REMARK INTER + INTRA:          -6.399
REMARK INTER:                  -5.765
REMARK INTRA:                  -0.634
REMARK UNBOUND:                -0.497
REMARK SMILES CCCCCCCCO
REMARK SMILES IDX 5 1 4 2 3 3 2 4 1 5 6 6 7 7 8 8 9 9
REMARK H PARENT 9 10
REMARK Flexibility Score: inf
ROOT
ATOM      1  C   UNL     1      19.828  -2.788  16.523  1.00  0.00     0.000 C 
ENDROOT
BRANCH   1   2
ATOM      2  C   UNL     1      18.772  -3.904  16.558  1.00  0.00    -0.000 C 
BRANCH   2   3
ATOM      3  C   UNL     1      18.482  -4.427  15.146  1.00  0.00    -0.000 C 
BRANCH   3   4
ATOM      4  C   UNL     1      18.496  -5.960  15.115  1.00  0.00    -0.003 C 
ATOM      5  C   UNL     1      19.345  -6.527  16.250  1.00  0.00     0.004 C 
ENDBRANCH   3   4
ENDBRANCH   2   3
ENDBRANCH   1   2
BRANCH   1   6
ATOM      6  C   UNL     1      20.992  -3.105  15.571  1.00  0.00     0.002 C 
BRANCH   6   7
ATOM      7  C   UNL     1      22.053  -4.013  16.214  1.00  0.00     0.028 C 
BRANCH   7   8
ATOM      8  C   UNL     1      22.628  -5.011  15.207  1.00  0.00     0.156 C 
BRANCH   8   9
ATOM      9  O   UNL     1      21.826  -5.055  14.060  1.00  0.00    -0.396 OA
ATOM     10  H   UNL     1      20.892  -4.940  14.374  1.00  0.00     0.210 HD
ENDBRANCH   8   9
ENDBRANCH   7   8
ENDBRANCH   6   7
ENDBRANCH   1   6
TORSDOF 7
ENDMDL
MODEL 7
REMARK VINA RESULT:    -4.202      0.964      2.422
REMARK INTER + INTRA:          -6.296
REMARK INTER:                  -5.980
REMARK INTRA:                  -0.315
REMARK UNBOUND:                -0.497
REMARK SMILES CCCCCCCCO
REMARK SMILES IDX 5 1 4 2 3 3 2 4 1 5 6 6 7 7 8 8 9 9
REMARK H PARENT 9 10
REMARK Flexibility Score: inf
ROOT
ATOM      1  C   UNL     1      18.933  -4.293  17.219  1.00  0.00     0.000 C 
ENDROOT
BRANCH   1   2
ATOM      2  C   UNL     1      18.763  -3.694  15.815  1.00  0.00    -0.000 C 
BRANCH   2   3
ATOM      3  C   UNL     1      20.064  -3.037  15.339  1.00  0.00    -0.000 C 
BRANCH   3   4
ATOM      4  C   UNL     1      20.601  -3.727  14.080  1.00  0.00    -0.003 C 
ATOM      5  C   UNL     1      21.718  -4.709  14.423  1.00  0.00     0.004 C 
ENDBRANCH   3   4
ENDBRANCH   2   3
ENDBRANCH   1   2
BRANCH   1   6
ATOM      6  C   UNL     1      19.762  -5.588  17.215  1.00  0.00     0.002 C 
BRANCH   6   7
ATOM      7  C   UNL     1      19.308  -6.578  16.131  1.00  0.00     0.028 C 
BRANCH   7   8
ATOM      8  C   UNL     1      18.717  -7.851  16.739  1.00  0.00     0.156 C 
BRANCH   8   9
ATOM      9  O   UNL     1      19.023  -7.920  18.104  1.00  0.00    -0.396 OA
ATOM     10  H   UNL     1      19.006  -8.883  18.341  1.00  0.00     0.210 HD
ENDBRANCH   8   9
ENDBRANCH   7   8
ENDBRANCH   6   7
ENDBRANCH   1   6
TORSDOF 7
ENDMDL
MODEL 8
REMARK VINA RESULT:    -4.162      2.246      3.169
REMARK INTER + INTRA:          -6.240
REMARK INTER:                  -5.809
REMARK INTRA:                  -0.432
REMARK UNBOUND:                -0.497
REMARK SMILES CCCCCCCCO
REMARK SMILES IDX 5 1 4 2 3 3 2 4 1 5 6 6 7 7 8 8 9 9
REMARK H PARENT 9 10
REMARK Flexibility Score: inf
ROOT
ATOM      1  C   UNL     1      19.402  -6.076  16.641  1.00  0.00     0.000 C 
ENDROOT
BRANCH   1   2
ATOM      2  C   UNL     1      18.682  -5.604  15.368  1.00  0.00    -0.000 C 
BRANCH   2   3
ATOM      3  C   UNL     1      18.326  -4.116  15.460  1.00  0.00    -0.000 C 
BRANCH   3   4
ATOM      4  C   UNL     1      19.145  -3.421  16.555  1.00  0.00    -0.003 C 
ATOM      5  C   UNL     1      20.224  -2.526  15.951  1.00  0.00     0.004 C 
ENDBRANCH   3   4
ENDBRANCH   2   3
ENDBRANCH   1   2
BRANCH   1   6
ATOM      6  C   UNL     1      20.858  -6.493  16.379  1.00  0.00     0.002 C 
BRANCH   6   7
ATOM      7  C   UNL     1      21.279  -6.281  14.915  1.00  0.00     0.028 C 
BRANCH   7   8
ATOM      8  C   UNL     1      22.418  -5.267  14.795  1.00  0.00     0.156 C 
BRANCH   8   9
ATOM      9  O   UNL     1      23.352  -5.701  13.846  1.00  0.00    -0.396 OA
ATOM     10  H   UNL     1      23.670  -4.884  13.381  1.00  0.00     0.210 HD
ENDBRANCH   8   9
ENDBRANCH   7   8
ENDBRANCH   6   7
ENDBRANCH   1   6
TORSDOF 7
ENDMDL
MODEL 9
REMARK VINA RESULT:    -4.081      1.628      2.282
REMARK INTER + INTRA:          -6.129
REMARK INTER:                  -5.674
REMARK INTRA:                  -0.456
REMARK UNBOUND:                -0.497
REMARK SMILES CCCCCCCCO
REMARK SMILES IDX 5 1 4 2 3 3 2 4 1 5 6 6 7 7 8 8 9 9
REMARK H PARENT 9 10
REMARK Flexibility Score: inf
ROOT
ATOM      1  C   UNL     1      21.180  -3.449  15.515  1.00  0.00     0.000 C 
ENDROOT
BRANCH   1   2
ATOM      2  C   UNL     1      20.022  -2.762  16.255  1.00  0.00    -0.000 C 
BRANCH   2   3
ATOM      3  C   UNL     1      18.847  -3.727  16.449  1.00  0.00    -0.000 C 
BRANCH   3   4
ATOM      4  C   UNL     1      18.357  -4.274  15.103  1.00  0.00    -0.003 C 
ATOM      5  C   UNL     1      18.396  -5.800  15.082  1.00  0.00     0.004 C 
ENDBRANCH   3   4
ENDBRANCH   2   3
ENDBRANCH   1   2
BRANCH   1   6
ATOM      6  C   UNL     1      22.221  -4.052  16.473  1.00  0.00     0.002 C 
BRANCH   6   7
ATOM      7  C   UNL     1      22.475  -5.544  16.207  1.00  0.00     0.028 C 
BRANCH   7   8
ATOM      8  C   UNL     1      21.479  -6.430  16.957  1.00  0.00     0.156 C 
BRANCH   8   9
ATOM      9  O   UNL     1      21.200  -7.582  16.211  1.00  0.00    -0.396 OA
ATOM     10  H   UNL     1      21.508  -8.347  16.762  1.00  0.00     0.210 HD
ENDBRANCH   8   9
ENDBRANCH   7   8
ENDBRANCH   6   7
ENDBRANCH   1   6
TORSDOF 7
ENDMDL
