MODEL 1
REMARK VINA RESULT:    -5.024      0.000      0.000
REMARK INTER + INTRA:          -9.302
REMARK INTER:                  -8.549
REMARK INTRA:                  -0.753
REMARK UNBOUND:                -0.753
REMARK SMILES CCCCCCCCCCCCCC(=O)[O-]
REMARK SMILES IDX 8 1 9 2 10 3 11 4 12 5 13 6 14 7 15 8 16 9 7 10 6 11 5 12
REMARK SMILES IDX 4 13 3 14 2 15 1 16
REMARK H PARENT
REMARK Flexibility Score: inf
ROOT
ATOM      1  C   UNL     1      12.757 -21.499 -14.000  1.00  0.00     0.000 C 
ENDROOT
BRANCH   1   2
ATOM      2  C   UNL     1      11.553 -20.964 -14.794  1.00  0.00     0.000 C 
BRANCH   2   3
ATOM      3  C   UNL     1      11.763 -19.528 -15.298  1.00  0.00     0.000 C 
BRANCH   3   4
ATOM      4  C   UNL     1      12.572 -19.474 -16.606  1.00  0.00     0.000 C 
BRANCH   4   5
ATOM      5  C   UNL     1      13.764 -18.504 -16.529  1.00  0.00     0.006 C 
BRANCH   5   6
ATOM      6  C   UNL     1      14.471 -18.472 -15.164  1.00  0.00     0.053 C 
BRANCH   6   7
ATOM      7  C   UNL     1      14.727 -17.072 -14.699  1.00  0.00     0.041 C 
ATOM      8  O   UNL     1      13.787 -16.235 -14.658  1.00  0.00    -0.550 OA
ATOM      9  O   UNL     1      16.011 -16.683 -14.339  1.00  0.00    -0.550 OA
ENDBRANCH   6   7
ENDBRANCH   5   6
ENDBRANCH   4   5
ENDBRANCH   3   4
ENDBRANCH   2   3
ENDBRANCH   1   2
BRANCH   1  10
ATOM     10  C   UNL     1      12.701 -23.021 -13.793  1.00  0.00     0.000 C 
BRANCH  10  11
ATOM     11  C   UNL     1      11.300 -23.599 -14.045  1.00  0.00    -0.000 C 
BRANCH  11  12
ATOM     12  C   UNL     1      11.359 -25.120 -14.226  1.00  0.00    -0.000 C 
BRANCH  12  13
ATOM     13  C   UNL     1      12.779 -25.650 -13.991  1.00  0.00    -0.000 C 
BRANCH  13  14
ATOM     14  C   UNL     1      12.930 -27.079 -14.533  1.00  0.00    -0.000 C 
BRANCH  14  15
ATOM     15  C   UNL     1      14.394 -27.544 -14.572  1.00  0.00    -0.003 C 
ATOM     16  C   UNL     1      14.859 -27.915 -15.980  1.00  0.00     0.004 C 
ENDBRANCH  14  15
ENDBRANCH  13  14
ENDBRANCH  12  13
ENDBRANCH  11  12
ENDBRANCH  10  11
ENDBRANCH   1  10
TORSDOF 12
ENDMDL
MODEL 2
REMARK VINA RESULT:    -5.018      3.488      6.888
REMARK INTER + INTRA:          -9.291
REMARK INTER:                  -7.567
REMARK INTRA:                  -1.725
REMARK UNBOUND:                -0.753
REMARK SMILES CCCCCCCCCCCCCC(=O)[O-]
REMARK SMILES IDX 8 1 9 2 10 3 11 4 12 5 13 6 14 7 15 8 16 9 7 10 6 11 5 12
REMARK SMILES IDX 4 13 3 14 2 15 1 16
REMARK H PARENT
REMARK Flexibility Score: inf
ROOT
ATOM      1  C   UNL     1      14.245 -18.406 -15.610  1.00  0.00     0.000 C 
ENDROOT
BRANCH   1   2
ATOM      2  C   UNL     1      13.459 -18.710 -16.897  1.00  0.00     0.000 C 
BRANCH   2   3
ATOM      3  C   UNL     1      12.499 -19.900 -16.739  1.00  0.00     0.000 C 
BRANCH   3   4
ATOM      4  C   UNL     1      11.534 -19.727 -15.554  1.00  0.00     0.000 C 
BRANCH   4   5
ATOM      5  C   UNL     1      11.415 -20.996 -14.691  1.00  0.00     0.006 C 
BRANCH   5   6
ATOM      6  C   UNL     1      12.677 -21.333 -13.880  1.00  0.00     0.053 C 
BRANCH   6   7
ATOM      7  C   UNL     1      12.993 -22.796 -13.916  1.00  0.00     0.041 C 
ATOM      8  O   UNL     1      14.178 -23.193 -13.764  1.00  0.00    -0.550 OA
ATOM      9  O   UNL     1      11.982 -23.720 -14.148  1.00  0.00    -0.550 OA
ENDBRANCH   6   7
ENDBRANCH   5   6
ENDBRANCH   4   5
ENDBRANCH   3   4
ENDBRANCH   2   3
ENDBRANCH   1   2
BRANCH   1  10
ATOM     10  C   UNL     1      14.178 -16.922 -15.213  1.00  0.00     0.000 C 
BRANCH  10  11
ATOM     11  C   UNL     1      13.351 -16.688 -13.941  1.00  0.00    -0.000 C 
BRANCH  11  12
ATOM     12  C   UNL     1      14.011 -17.352 -12.727  1.00  0.00    -0.000 C 
BRANCH  12  13
ATOM     13  C   UNL     1      12.961 -17.972 -11.798  1.00  0.00    -0.000 C 
BRANCH  13  14
ATOM     14  C   UNL     1      11.556 -17.872 -12.410  1.00  0.00    -0.000 C 
BRANCH  14  15
ATOM     15  C   UNL     1      10.545 -18.802 -11.723  1.00  0.00    -0.003 C 
ATOM     16  C   UNL     1      10.809 -18.962 -10.226  1.00  0.00     0.004 C 
ENDBRANCH  14  15
ENDBRANCH  13  14
ENDBRANCH  12  13
ENDBRANCH  11  12
ENDBRANCH  10  11
ENDBRANCH   1  10
TORSDOF 12
ENDMDL
MODEL 3
REMARK VINA RESULT:    -4.986      4.232      8.054
REMARK INTER + INTRA:          -9.237
REMARK INTER:                  -8.306
REMARK INTRA:                  -0.931
REMARK UNBOUND:                -0.753
REMARK SMILES CCCCCCCCCCCCCC(=O)[O-]
REMARK SMILES IDX 8 1 9 2 10 3 11 4 12 5 13 6 14 7 15 8 16 9 7 10 6 11 5 12
REMARK SMILES IDX 4 13 3 14 2 15 1 16
REMARK H PARENT
REMARK Flexibility Score: inf
ROOT
ATOM      1  C   UNL     1      12.853 -22.694 -13.927  1.00  0.00     0.000 C 
ENDROOT
BRANCH   1   2
ATOM      2  C   UNL     1      11.427 -23.269 -13.890  1.00  0.00     0.000 C 
BRANCH   2   3
ATOM      3  C   UNL     1      11.394 -24.791 -14.103  1.00  0.00     0.000 C 
BRANCH   3   4
ATOM      4  C   UNL     1      12.790 -25.430 -14.009  1.00  0.00     0.000 C 
BRANCH   4   5
ATOM      5  C   UNL     1      12.780 -26.934 -14.338  1.00  0.00     0.006 C 
BRANCH   5   6
ATOM      6  C   UNL     1      13.981 -27.410 -15.172  1.00  0.00     0.053 C 
BRANCH   6   7
ATOM      7  C   UNL     1      15.055 -28.008 -14.317  1.00  0.00     0.041 C 
ATOM      8  O   UNL     1      14.896 -29.146 -13.802  1.00  0.00    -0.550 OA
ATOM      9  O   UNL     1      16.220 -27.295 -14.064  1.00  0.00    -0.550 OA
ENDBRANCH   6   7
ENDBRANCH   5   6
ENDBRANCH   4   5
ENDBRANCH   3   4
ENDBRANCH   2   3
ENDBRANCH   1   2
BRANCH   1  10
ATOM     10  C   UNL     1      12.968 -21.455 -14.829  1.00  0.00     0.000 C 
BRANCH  10  11
ATOM     11  C   UNL     1      11.612 -21.010 -15.396  1.00  0.00    -0.000 C 
BRANCH  11  12
ATOM     12  C   UNL     1      11.382 -19.514 -15.159  1.00  0.00    -0.000 C 
BRANCH  12  13
ATOM     13  C   UNL     1      11.253 -19.205 -13.662  1.00  0.00    -0.000 C 
BRANCH  13  14
ATOM     14  C   UNL     1      12.030 -17.932 -13.294  1.00  0.00    -0.000 C 
BRANCH  14  15
ATOM     15  C   UNL     1      13.436 -17.899 -13.913  1.00  0.00    -0.003 C 
ATOM     16  C   UNL     1      13.740 -16.578 -14.621  1.00  0.00     0.004 C 
ENDBRANCH  14  15
ENDBRANCH  13  14
ENDBRANCH  12  13
ENDBRANCH  11  12
ENDBRANCH  10  11
ENDBRANCH   1  10
TORSDOF 12
ENDMDL
MODEL 4
REMARK VINA RESULT:    -4.980      2.035      4.034
REMARK INTER + INTRA:          -9.226
REMARK INTER:                  -7.645
REMARK INTRA:                  -1.581
REMARK UNBOUND:                -0.753
REMARK SMILES CCCCCCCCCCCCCC(=O)[O-]
REMARK SMILES IDX 8 1 9 2 10 3 11 4 12 5 13 6 14 7 15 8 16 9 7 10 6 11 5 12
REMARK SMILES IDX 4 13 3 14 2 15 1 16
REMARK H PARENT
REMARK Flexibility Score: inf
ROOT
ATOM      1  C   UNL     1      11.852 -17.848 -12.521  1.00  0.00     0.000 C 
ENDROOT
BRANCH   1   2
ATOM      2  C   UNL     1      12.807 -18.118 -11.345  1.00  0.00     0.000 C 
BRANCH   2   3
ATOM      3  C   UNL     1      14.279 -17.864 -11.705  1.00  0.00     0.000 C 
BRANCH   3   4
ATOM      4  C   UNL     1      15.015 -19.148 -12.123  1.00  0.00     0.000 C 
BRANCH   4   5
ATOM      5  C   UNL     1      15.560 -19.081 -13.561  1.00  0.00     0.006 C 
BRANCH   5   6
ATOM      6  C   UNL     1      15.638 -17.661 -14.145  1.00  0.00     0.053 C 
BRANCH   6   7
ATOM      7  C   UNL     1      14.564 -17.411 -15.159  1.00  0.00     0.041 C 
ATOM      8  O   UNL     1      14.421 -18.192 -16.136  1.00  0.00    -0.550 OA
ATOM      9  O   UNL     1      13.742 -16.298 -15.040  1.00  0.00    -0.550 OA
ENDBRANCH   6   7
ENDBRANCH   5   6
ENDBRANCH   4   5
ENDBRANCH   3   4
ENDBRANCH   2   3
ENDBRANCH   1   2
BRANCH   1  10
ATOM     10  C   UNL     1      11.218 -19.134 -13.075  1.00  0.00     0.000 C 
BRANCH  10  11
ATOM     11  C   UNL     1      11.339 -19.242 -14.602  1.00  0.00    -0.000 C 
BRANCH  11  12
ATOM     12  C   UNL     1      11.921 -20.599 -15.012  1.00  0.00    -0.000 C 
BRANCH  12  13
ATOM     13  C   UNL     1      12.550 -21.316 -13.812  1.00  0.00    -0.000 C 
BRANCH  13  14
ATOM     14  C   UNL     1      12.624 -22.831 -14.052  1.00  0.00    -0.000 C 
BRANCH  14  15
ATOM     15  C   UNL     1      11.245 -23.505 -13.999  1.00  0.00    -0.003 C 
ATOM     16  C   UNL     1      11.316 -25.017 -14.216  1.00  0.00     0.004 C 
ENDBRANCH  14  15
ENDBRANCH  13  14
ENDBRANCH  12  13
ENDBRANCH  11  12
ENDBRANCH  10  11
ENDBRANCH   1  10
TORSDOF 12
ENDMDL
MODEL 5
REMARK VINA RESULT:    -4.971      3.025      5.070
REMARK INTER + INTRA:          -9.212
REMARK INTER:                  -8.015
REMARK INTRA:                  -1.197
REMARK UNBOUND:                -0.753
REMARK SMILES CCCCCCCCCCCCCC(=O)[O-]
REMARK SMILES IDX 8 1 9 2 10 3 11 4 12 5 13 6 14 7 15 8 16 9 7 10 6 11 5 12
REMARK SMILES IDX 4 13 3 14 2 15 1 16
REMARK H PARENT
REMARK Flexibility Score: inf
ROOT
ATOM      1  C   UNL     1      14.149 -18.397 -15.485  1.00  0.00     0.000 C 
ENDROOT
BRANCH   1   2
ATOM      2  C   UNL     1      14.212 -16.879 -15.243  1.00  0.00     0.000 C 
BRANCH   2   3
ATOM      3  C   UNL     1      13.574 -16.464 -13.908  1.00  0.00     0.000 C 
BRANCH   3   4
ATOM      4  C   UNL     1      14.431 -16.862 -12.695  1.00  0.00     0.000 C 
BRANCH   4   5
ATOM      5  C   UNL     1      13.594 -17.098 -11.425  1.00  0.00     0.006 C 
BRANCH   5   6
ATOM      6  C   UNL     1      12.779 -18.402 -11.435  1.00  0.00     0.053 C 
BRANCH   6   7
ATOM      7  C   UNL     1      11.402 -18.207 -10.878  1.00  0.00     0.041 C 
ATOM      8  O   UNL     1      11.245 -17.667  -9.752  1.00  0.00    -0.550 OA
ATOM      9  O   UNL     1      10.295 -18.651 -11.590  1.00  0.00    -0.550 OA
ENDBRANCH   6   7
ENDBRANCH   5   6
ENDBRANCH   4   5
ENDBRANCH   3   4
ENDBRANCH   2   3
ENDBRANCH   1   2
BRANCH   1  10
ATOM     10  C   UNL     1      13.247 -18.769 -16.674  1.00  0.00     0.000 C 
BRANCH  10  11
ATOM     11  C   UNL     1      12.163 -19.788 -16.296  1.00  0.00    -0.000 C 
BRANCH  11  12
ATOM     12  C   UNL     1      11.638 -19.532 -14.879  1.00  0.00    -0.000 C 
BRANCH  12  13
ATOM     13  C   UNL     1      11.779 -20.783 -14.003  1.00  0.00    -0.000 C 
BRANCH  13  14
ATOM     14  C   UNL     1      11.661 -22.061 -14.846  1.00  0.00    -0.000 C 
BRANCH  14  15
ATOM     15  C   UNL     1      12.176 -23.306 -14.107  1.00  0.00    -0.003 C 
ATOM     16  C   UNL     1      11.082 -24.346 -13.866  1.00  0.00     0.004 C 
ENDBRANCH  14  15
ENDBRANCH  13  14
ENDBRANCH  12  13
ENDBRANCH  11  12
ENDBRANCH  10  11
ENDBRANCH   1  10
TORSDOF 12
ENDMDL
MODEL 6
REMARK VINA RESULT:    -4.961      4.073      7.107
REMARK INTER + INTRA:          -9.194
REMARK INTER:                  -7.507
REMARK INTRA:                  -1.687
REMARK UNBOUND:                -0.753
REMARK SMILES CCCCCCCCCCCCCC(=O)[O-]
REMARK SMILES IDX 8 1 9 2 10 3 11 4 12 5 13 6 14 7 15 8 16 9 7 10 6 11 5 12
REMARK SMILES IDX 4 13 3 14 2 15 1 16
REMARK H PARENT
REMARK Flexibility Score: inf
ROOT
ATOM      1  C   UNL     1      11.528 -18.719  -9.446  1.00  0.00     0.000 C 
ENDROOT
BRANCH   1   2
ATOM      2  C   UNL     1      10.567 -19.156 -10.565  1.00  0.00     0.000 C 
BRANCH   2   3
ATOM      3  C   UNL     1      10.847 -18.446 -11.899  1.00  0.00     0.000 C 
BRANCH   3   4
ATOM      4  C   UNL     1      11.478 -19.382 -12.945  1.00  0.00     0.000 C 
BRANCH   4   5
ATOM      5  C   UNL     1      11.161 -18.960 -14.391  1.00  0.00     0.006 C 
BRANCH   5   6
ATOM      6  C   UNL     1      12.042 -19.632 -15.456  1.00  0.00     0.053 C 
BRANCH   6   7
ATOM      7  C   UNL     1      12.232 -21.093 -15.187  1.00  0.00     0.041 C 
ATOM      8  O   UNL     1      11.273 -21.895 -15.335  1.00  0.00    -0.550 OA
ATOM      9  O   UNL     1      13.461 -21.564 -14.742  1.00  0.00    -0.550 OA
ENDBRANCH   6   7
ENDBRANCH   5   6
ENDBRANCH   4   5
ENDBRANCH   3   4
ENDBRANCH   2   3
ENDBRANCH   1   2
BRANCH   1  10
ATOM     10  C   UNL     1      11.874 -17.223  -9.515  1.00  0.00     0.000 C 
BRANCH  10  11
ATOM     11  C   UNL     1      13.387 -16.963  -9.461  1.00  0.00    -0.000 C 
BRANCH  11  12
ATOM     12  C   UNL     1      13.956 -16.736 -10.866  1.00  0.00    -0.000 C 
BRANCH  12  13
ATOM     13  C   UNL     1      14.650 -17.999 -11.391  1.00  0.00    -0.000 C 
BRANCH  13  14
ATOM     14  C   UNL     1      14.855 -17.923 -12.911  1.00  0.00    -0.000 C 
BRANCH  14  15
ATOM     15  C   UNL     1      13.971 -16.854 -13.573  1.00  0.00    -0.003 C 
ATOM     16  C   UNL     1      14.457 -16.466 -14.969  1.00  0.00     0.004 C 
ENDBRANCH  14  15
ENDBRANCH  13  14
ENDBRANCH  12  13
ENDBRANCH  11  12
ENDBRANCH  10  11
ENDBRANCH   1  10
TORSDOF 12
ENDMDL
MODEL 7
REMARK VINA RESULT:    -4.915      3.840      7.780
REMARK INTER + INTRA:          -9.116
REMARK INTER:                  -7.949
REMARK INTRA:                  -1.167
REMARK UNBOUND:                -0.753
REMARK SMILES CCCCCCCCCCCCCC(=O)[O-]
REMARK SMILES IDX 8 1 9 2 10 3 11 4 12 5 13 6 14 7 15 8 16 9 7 10 6 11 5 12
REMARK SMILES IDX 4 13 3 14 2 15 1 16
REMARK H PARENT
REMARK Flexibility Score: inf
ROOT
ATOM      1  C   UNL     1      12.465 -19.882 -16.354  1.00  0.00     0.000 C 
ENDROOT
BRANCH   1   2
ATOM      2  C   UNL     1      11.485 -19.450 -15.250  1.00  0.00     0.000 C 
BRANCH   2   3
ATOM      3  C   UNL     1      11.426 -20.449 -14.083  1.00  0.00     0.000 C 
BRANCH   3   4
ATOM      4  C   UNL     1      12.433 -21.601 -14.241  1.00  0.00     0.000 C 
BRANCH   4   5
ATOM      5  C   UNL     1      11.869 -22.954 -13.769  1.00  0.00     0.006 C 
BRANCH   5   6
ATOM      6  C   UNL     1      12.839 -24.136 -13.929  1.00  0.00     0.053 C 
BRANCH   6   7
ATOM      7  C   UNL     1      12.120 -25.413 -14.239  1.00  0.00     0.041 C 
ATOM      8  O   UNL     1      10.893 -25.396 -14.524  1.00  0.00    -0.550 OA
ATOM      9  O   UNL     1      12.797 -26.624 -14.183  1.00  0.00    -0.550 OA
ENDBRANCH   6   7
ENDBRANCH   5   6
ENDBRANCH   4   5
ENDBRANCH   3   4
ENDBRANCH   2   3
ENDBRANCH   1   2
BRANCH   1  10
ATOM     10  C   UNL     1      13.413 -18.750 -16.779  1.00  0.00     0.000 C 
BRANCH  10  11
ATOM     11  C   UNL     1      14.428 -18.387 -15.685  1.00  0.00    -0.000 C 
BRANCH  11  12
ATOM     12  C   UNL     1      14.513 -16.868 -15.497  1.00  0.00    -0.000 C 
BRANCH  12  13
ATOM     13  C   UNL     1      14.436 -16.490 -14.013  1.00  0.00    -0.000 C 
BRANCH  13  14
ATOM     14  C   UNL     1      13.018 -16.704 -13.464  1.00  0.00    -0.000 C 
BRANCH  14  15
ATOM     15  C   UNL     1      13.008 -17.497 -12.148  1.00  0.00    -0.003 C 
ATOM     16  C   UNL     1      13.814 -16.817 -11.041  1.00  0.00     0.004 C 
ENDBRANCH  14  15
ENDBRANCH  13  14
ENDBRANCH  12  13
ENDBRANCH  11  12
ENDBRANCH  10  11
ENDBRANCH   1  10
TORSDOF 12
ENDMDL
MODEL 8
REMARK VINA RESULT:    -4.907      3.926      7.608
REMARK INTER + INTRA:          -9.102
REMARK INTER:                  -8.073
REMARK INTRA:                  -1.029
REMARK UNBOUND:                -0.753
REMARK SMILES CCCCCCCCCCCCCC(=O)[O-]
REMARK SMILES IDX 8 1 9 2 10 3 11 4 12 5 13 6 14 7 15 8 16 9 7 10 6 11 5 12
REMARK SMILES IDX 4 13 3 14 2 15 1 16
REMARK H PARENT
REMARK Flexibility Score: inf
ROOT
ATOM      1  C   UNL     1      11.534 -19.778 -14.621  1.00  0.00     0.000 C 
ENDROOT
BRANCH   1   2
ATOM      2  C   UNL     1      11.685 -21.174 -15.251  1.00  0.00     0.000 C 
BRANCH   2   3
ATOM      3  C   UNL     1      12.148 -22.235 -14.241  1.00  0.00     0.000 C 
BRANCH   3   4
ATOM      4  C   UNL     1      11.101 -23.340 -14.023  1.00  0.00     0.000 C 
BRANCH   4   5
ATOM      5  C   UNL     1      11.709 -24.753 -14.056  1.00  0.00     0.006 C 
BRANCH   5   6
ATOM      6  C   UNL     1      13.235 -24.792 -13.872  1.00  0.00     0.053 C 
BRANCH   6   7
ATOM      7  C   UNL     1      13.811 -26.124 -14.244  1.00  0.00     0.041 C 
ATOM      8  O   UNL     1      13.075 -27.145 -14.280  1.00  0.00    -0.550 OA
ATOM      9  O   UNL     1      15.167 -26.242 -14.522  1.00  0.00    -0.550 OA
ENDBRANCH   6   7
ENDBRANCH   5   6
ENDBRANCH   4   5
ENDBRANCH   3   4
ENDBRANCH   2   3
ENDBRANCH   1   2
BRANCH   1  10
ATOM     10  C   UNL     1      11.706 -19.798 -13.094  1.00  0.00     0.000 C 
BRANCH  10  11
ATOM     11  C   UNL     1      11.365 -18.449 -12.444  1.00  0.00    -0.000 C 
BRANCH  11  12
ATOM     12  C   UNL     1      12.133 -17.306 -13.117  1.00  0.00    -0.000 C 
BRANCH  12  13
ATOM     13  C   UNL     1      13.540 -17.162 -12.525  1.00  0.00    -0.000 C 
BRANCH  13  14
ATOM     14  C   UNL     1      14.562 -16.807 -13.616  1.00  0.00    -0.000 C 
BRANCH  14  15
ATOM     15  C   UNL     1      13.951 -16.827 -15.026  1.00  0.00    -0.003 C 
ATOM     16  C   UNL     1      14.449 -18.000 -15.870  1.00  0.00     0.004 C 
ENDBRANCH  14  15
ENDBRANCH  13  14
ENDBRANCH  12  13
ENDBRANCH  11  12
ENDBRANCH  10  11
ENDBRANCH   1  10
TORSDOF 12
ENDMDL
MODEL 9
REMARK VINA RESULT:    -4.893      3.696      7.040
REMARK INTER + INTRA:          -9.079
REMARK INTER:                  -7.434
REMARK INTRA:                  -1.646
REMARK UNBOUND:                -0.753
REMARK SMILES CCCCCCCCCCCCCC(=O)[O-]
REMARK SMILES IDX 8 1 9 2 10 3 11 4 12 5 13 6 14 7 15 8 16 9 7 10 6 11 5 12
REMARK SMILES IDX 4 13 3 14 2 15 1 16
REMARK H PARENT
REMARK Flexibility Score: inf
ROOT
ATOM      1  C   UNL     1      12.986 -18.950 -15.986  1.00  0.00     0.000 C 
ENDROOT
BRANCH   1   2
ATOM      2  C   UNL     1      11.921 -18.864 -14.879  1.00  0.00     0.000 C 
BRANCH   2   3
ATOM      3  C   UNL     1      11.879 -20.123 -13.997  1.00  0.00     0.000 C 
BRANCH   3   4
ATOM      4  C   UNL     1      11.618 -21.403 -14.808  1.00  0.00     0.000 C 
BRANCH   4   5
ATOM      5  C   UNL     1      12.360 -22.628 -14.243  1.00  0.00     0.006 C 
BRANCH   5   6
ATOM      6  C   UNL     1      11.495 -23.893 -14.118  1.00  0.00     0.053 C 
BRANCH   6   7
ATOM      7  C   UNL     1      12.327 -25.133 -14.015  1.00  0.00     0.041 C 
ATOM      8  O   UNL     1      11.894 -26.227 -14.464  1.00  0.00    -0.550 OA
ATOM      9  O   UNL     1      13.570 -25.087 -13.395  1.00  0.00    -0.550 OA
ENDBRANCH   6   7
ENDBRANCH   5   6
ENDBRANCH   4   5
ENDBRANCH   3   4
ENDBRANCH   2   3
ENDBRANCH   1   2
BRANCH   1  10
ATOM     10  C   UNL     1      14.107 -17.914 -15.809  1.00  0.00     0.000 C 
BRANCH  10  11
ATOM     11  C   UNL     1      13.804 -16.900 -14.695  1.00  0.00    -0.000 C 
BRANCH  11  12
ATOM     12  C   UNL     1      14.978 -16.793 -13.716  1.00  0.00    -0.000 C 
BRANCH  12  13
ATOM     13  C   UNL     1      14.578 -17.279 -12.318  1.00  0.00    -0.000 C 
BRANCH  13  14
ATOM     14  C   UNL     1      14.778 -18.796 -12.185  1.00  0.00    -0.000 C 
BRANCH  14  15
ATOM     15  C   UNL     1      15.994 -19.303 -12.977  1.00  0.00    -0.003 C 
ATOM     16  C   UNL     1      15.703 -20.591 -13.747  1.00  0.00     0.004 C 
ENDBRANCH  14  15
ENDBRANCH  13  14
ENDBRANCH  12  13
ENDBRANCH  11  12
ENDBRANCH  10  11
ENDBRANCH   1  10
TORSDOF 12
ENDMDL
