MODEL 1
REMARK VINA RESULT:    -6.005      0.000      0.000
REMARK INTER + INTRA:         -20.577
REMARK INTER:                 -15.833
REMARK INTRA:                  -4.744
REMARK UNBOUND:                -4.744
REMARK SMILES CCCCCCCCCCCCCCCCCCCCCCCCCCCCCC(=O)[O-]
REMARK SMILES IDX 16 1 17 2 18 3 19 4 20 5 21 6 22 7 23 8 24 9 25 10 26 11
REMARK SMILES IDX 27 12 28 13 29 14 30 15 31 16 32 17 15 18 14 19 13 20 12 21
REMARK SMILES IDX 11 22 10 23 9 24 8 25 7 26 6 27 5 28 4 29 3 30 2 31 1 32
REMARK H PARENT
REMARK Flexibility Score: inf
ROOT
ATOM      1  C   UNL     1     138.714 138.393 114.636  1.00  0.00     0.000 C 
ENDROOT
BRANCH   1   2
ATOM      2  C   UNL     1     139.850 138.833 113.699  1.00  0.00     0.000 C 
BRANCH   2   3
ATOM      3  C   UNL     1     139.343 139.637 112.489  1.00  0.00     0.000 C 
BRANCH   3   4
ATOM      4  C   UNL     1     140.413 139.804 111.398  1.00  0.00     0.000 C 
BRANCH   4   5
ATOM      5  C   UNL     1     141.013 141.217 111.376  1.00  0.00     0.000 C 
BRANCH   5   6
ATOM      6  C   UNL     1     142.548 141.164 111.385  1.00  0.00     0.000 C 
BRANCH   6   7
ATOM      7  C   UNL     1     143.099 140.001 112.231  1.00  0.00     0.000 C 
BRANCH   7   8
ATOM      8  C   UNL     1     143.780 140.420 113.547  1.00  0.00     0.000 C 
BRANCH   8   9
ATOM      9  C   UNL     1     142.820 140.867 114.666  1.00  0.00     0.000 C 
BRANCH   9  10
ATOM     10  C   UNL     1     142.947 142.361 115.033  1.00  0.00     0.000 C 
BRANCH  10  11
ATOM     11  C   UNL     1     141.674 143.156 114.706  1.00  0.00     0.000 C 
BRANCH  11  12
ATOM     12  C   UNL     1     140.419 142.293 114.900  1.00  0.00     0.000 C 
BRANCH  12  13
ATOM     13  C   UNL     1     139.824 142.419 116.311  1.00  0.00     0.006 C 
BRANCH  13  14
ATOM     14  C   UNL     1     139.574 141.059 116.977  1.00  0.00     0.053 C 
BRANCH  14  15
ATOM     15  C   UNL     1     140.526 140.848 118.111  1.00  0.00     0.041 C 
ATOM     16  O   UNL     1     140.229 141.242 119.270  1.00  0.00    -0.550 OA
ATOM     17  O   UNL     1     141.761 140.256 117.882  1.00  0.00    -0.550 OA
ENDBRANCH  14  15
ENDBRANCH  13  14
ENDBRANCH  12  13
ENDBRANCH  11  12
ENDBRANCH  10  11
ENDBRANCH   9  10
ENDBRANCH   8   9
ENDBRANCH   7   8
ENDBRANCH   6   7
ENDBRANCH   5   6
ENDBRANCH   4   5
ENDBRANCH   3   4
ENDBRANCH   2   3
ENDBRANCH   1   2
BRANCH   1  18
ATOM     18  C   UNL     1     137.942 137.178 114.097  1.00  0.00     0.000 C 
BRANCH  18  19
ATOM     19  C   UNL     1     136.535 137.581 113.629  1.00  0.00     0.000 C 
BRANCH  19  20
ATOM     20  C   UNL     1     136.253 137.189 112.168  1.00  0.00     0.000 C 
BRANCH  20  21
ATOM     21  C   UNL     1     135.795 135.731 111.958  1.00  0.00     0.000 C 
BRANCH  21  22
ATOM     22  C   UNL     1     134.284 135.550 111.727  1.00  0.00     0.000 C 
BRANCH  22  23
ATOM     23  C   UNL     1     133.435 136.561 112.511  1.00  0.00     0.000 C 
BRANCH  23  24
ATOM     24  C   UNL     1     133.340 136.162 113.990  1.00  0.00    -0.000 C 
BRANCH  24  25
ATOM     25  C   UNL     1     132.761 134.750 114.195  1.00  0.00    -0.000 C 
BRANCH  25  26
ATOM     26  C   UNL     1     133.647 133.791 115.018  1.00  0.00    -0.000 C 
BRANCH  26  27
ATOM     27  C   UNL     1     134.674 132.978 114.208  1.00  0.00    -0.000 C 
BRANCH  27  28
ATOM     28  C   UNL     1     136.050 132.900 114.887  1.00  0.00    -0.000 C 
BRANCH  28  29
ATOM     29  C   UNL     1     136.568 134.276 115.344  1.00  0.00    -0.000 C 
BRANCH  29  30
ATOM     30  C   UNL     1     136.656 134.467 116.869  1.00  0.00    -0.000 C 
BRANCH  30  31
ATOM     31  C   UNL     1     136.434 135.924 117.302  1.00  0.00    -0.003 C 
ATOM     32  C   UNL     1     134.952 136.211 117.526  1.00  0.00     0.004 C 
ENDBRANCH  30  31
ENDBRANCH  29  30
ENDBRANCH  28  29
ENDBRANCH  27  28
ENDBRANCH  26  27
ENDBRANCH  25  26
ENDBRANCH  24  25
ENDBRANCH  23  24
ENDBRANCH  22  23
ENDBRANCH  21  22
ENDBRANCH  20  21
ENDBRANCH  19  20
ENDBRANCH  18  19
ENDBRANCH   1  18
TORSDOF 28
ENDMDL
MODEL 2
REMARK VINA RESULT:    -5.970      1.986      8.808
REMARK INTER + INTRA:         -20.486
REMARK INTER:                 -15.838
REMARK INTRA:                  -4.649
REMARK UNBOUND:                -4.744
REMARK SMILES CCCCCCCCCCCCCCCCCCCCCCCCCCCCCC(=O)[O-]
REMARK SMILES IDX 16 1 17 2 18 3 19 4 20 5 21 6 22 7 23 8 24 9 25 10 26 11
REMARK SMILES IDX 27 12 28 13 29 14 30 15 31 16 32 17 15 18 14 19 13 20 12 21
REMARK SMILES IDX 11 22 10 23 9 24 8 25 7 26 6 27 5 28 4 29 3 30 2 31 1 32
REMARK H PARENT
REMARK Flexibility Score: inf
ROOT
ATOM      1  C   UNL     1     137.949 137.799 114.562  1.00  0.00     0.000 C 
ENDROOT
BRANCH   1   2
ATOM      2  C   UNL     1     136.785 137.667 113.566  1.00  0.00     0.000 C 
BRANCH   2   3
ATOM      3  C   UNL     1     137.257 137.286 112.152  1.00  0.00     0.000 C 
BRANCH   3   4
ATOM      4  C   UNL     1     136.097 136.865 111.235  1.00  0.00     0.000 C 
BRANCH   4   5
ATOM      5  C   UNL     1     135.758 135.372 111.364  1.00  0.00     0.000 C 
BRANCH   5   6
ATOM      6  C   UNL     1     134.269 135.171 111.681  1.00  0.00     0.000 C 
BRANCH   6   7
ATOM      7  C   UNL     1     133.629 136.405 112.344  1.00  0.00     0.000 C 
BRANCH   7   8
ATOM      8  C   UNL     1     132.914 136.128 113.680  1.00  0.00     0.000 C 
BRANCH   8   9
ATOM      9  C   UNL     1     132.733 134.637 114.026  1.00  0.00     0.000 C 
BRANCH   9  10
ATOM     10  C   UNL     1     133.665 134.145 115.154  1.00  0.00     0.000 C 
BRANCH  10  11
ATOM     11  C   UNL     1     134.835 133.303 114.624  1.00  0.00     0.000 C 
BRANCH  11  12
ATOM     12  C   UNL     1     136.166 133.757 115.241  1.00  0.00     0.000 C 
BRANCH  12  13
ATOM     13  C   UNL     1     136.046 135.087 116.001  1.00  0.00     0.006 C 
BRANCH  13  14
ATOM     14  C   UNL     1     136.845 135.100 117.311  1.00  0.00     0.053 C 
BRANCH  14  15
ATOM     15  C   UNL     1     136.017 135.658 118.425  1.00  0.00     0.041 C 
ATOM     16  O   UNL     1     136.385 135.516 119.621  1.00  0.00    -0.550 OA
ATOM     17  O   UNL     1     134.816 136.296 118.146  1.00  0.00    -0.550 OA
ENDBRANCH  14  15
ENDBRANCH  13  14
ENDBRANCH  12  13
ENDBRANCH  11  12
ENDBRANCH  10  11
ENDBRANCH   9  10
ENDBRANCH   8   9
ENDBRANCH   7   8
ENDBRANCH   6   7
ENDBRANCH   5   6
ENDBRANCH   4   5
ENDBRANCH   3   4
ENDBRANCH   2   3
ENDBRANCH   1   2
BRANCH   1  18
ATOM     18  C   UNL     1     138.613 139.183 114.511  1.00  0.00     0.000 C 
BRANCH  18  19
ATOM     19  C   UNL     1     139.983 139.112 113.819  1.00  0.00     0.000 C 
BRANCH  19  20
ATOM     20  C   UNL     1     139.961 139.677 112.387  1.00  0.00     0.000 C 
BRANCH  20  21
ATOM     21  C   UNL     1     141.348 139.969 111.778  1.00  0.00     0.000 C 
BRANCH  21  22
ATOM     22  C   UNL     1     142.521 139.224 112.441  1.00  0.00     0.000 C 
BRANCH  22  23
ATOM     23  C   UNL     1     143.654 140.163 112.877  1.00  0.00     0.000 C 
BRANCH  23  24
ATOM     24  C   UNL     1     143.165 141.618 112.931  1.00  0.00    -0.000 C 
BRANCH  24  25
ATOM     25  C   UNL     1     143.249 142.228 114.342  1.00  0.00    -0.000 C 
BRANCH  25  26
ATOM     26  C   UNL     1     142.101 143.192 114.708  1.00  0.00    -0.000 C 
BRANCH  26  27
ATOM     27  C   UNL     1     140.705 142.782 114.204  1.00  0.00    -0.000 C 
BRANCH  27  28
ATOM     28  C   UNL     1     139.654 142.724 115.325  1.00  0.00    -0.000 C 
BRANCH  28  29
ATOM     29  C   UNL     1     140.274 142.471 116.710  1.00  0.00    -0.000 C 
BRANCH  29  30
ATOM     30  C   UNL     1     139.986 141.082 117.310  1.00  0.00    -0.000 C 
BRANCH  30  31
ATOM     31  C   UNL     1     141.251 140.381 117.826  1.00  0.00    -0.003 C 
ATOM     32  C   UNL     1     142.088 139.838 116.672  1.00  0.00     0.004 C 
ENDBRANCH  30  31
ENDBRANCH  29  30
ENDBRANCH  28  29
ENDBRANCH  27  28
ENDBRANCH  26  27
ENDBRANCH  25  26
ENDBRANCH  24  25
ENDBRANCH  23  24
ENDBRANCH  22  23
ENDBRANCH  21  22
ENDBRANCH  20  21
ENDBRANCH  19  20
ENDBRANCH  18  19
ENDBRANCH   1  18
TORSDOF 28
ENDMDL
MODEL 3
REMARK VINA RESULT:    -5.800      2.015      8.705
REMARK INTER + INTRA:         -20.039
REMARK INTER:                 -15.459
REMARK INTRA:                  -4.580
REMARK UNBOUND:                -4.744
REMARK SMILES CCCCCCCCCCCCCCCCCCCCCCCCCCCCCC(=O)[O-]
REMARK SMILES IDX 16 1 17 2 18 3 19 4 20 5 21 6 22 7 23 8 24 9 25 10 26 11
REMARK SMILES IDX 27 12 28 13 29 14 30 15 31 16 32 17 15 18 14 19 13 20 12 21
REMARK SMILES IDX 11 22 10 23 9 24 8 25 7 26 6 27 5 28 4 29 3 30 2 31 1 32
REMARK H PARENT
REMARK Flexibility Score: inf
ROOT
ATOM      1  C   UNL     1     137.058 137.599 114.313  1.00  0.00     0.000 C 
ENDROOT
BRANCH   1   2
ATOM      2  C   UNL     1     137.085 136.650 113.104  1.00  0.00     0.000 C 
BRANCH   2   3
ATOM      3  C   UNL     1     136.018 136.999 112.052  1.00  0.00     0.000 C 
BRANCH   3   4
ATOM      4  C   UNL     1     135.464 135.756 111.337  1.00  0.00     0.000 C 
BRANCH   4   5
ATOM      5  C   UNL     1     133.928 135.711 111.343  1.00  0.00     0.000 C 
BRANCH   5   6
ATOM      6  C   UNL     1     133.359 136.501 112.531  1.00  0.00     0.000 C 
BRANCH   6   7
ATOM      7  C   UNL     1     132.620 135.605 113.543  1.00  0.00     0.000 C 
BRANCH   7   8
ATOM      8  C   UNL     1     133.387 135.331 114.850  1.00  0.00     0.000 C 
BRANCH   8   9
ATOM      9  C   UNL     1     133.563 133.841 115.204  1.00  0.00     0.000 C 
BRANCH   9  10
ATOM     10  C   UNL     1     134.560 133.100 114.287  1.00  0.00     0.000 C 
BRANCH  10  11
ATOM     11  C   UNL     1     135.972 133.698 114.350  1.00  0.00     0.000 C 
BRANCH  11  12
ATOM     12  C   UNL     1     136.633 133.416 115.707  1.00  0.00     0.000 C 
BRANCH  12  13
ATOM     13  C   UNL     1     136.699 134.659 116.606  1.00  0.00     0.006 C 
BRANCH  13  14
ATOM     14  C   UNL     1     136.051 134.439 117.979  1.00  0.00     0.053 C 
BRANCH  14  15
ATOM     15  C   UNL     1     135.427 135.705 118.474  1.00  0.00     0.041 C 
ATOM     16  O   UNL     1     134.807 136.460 117.678  1.00  0.00    -0.550 OA
ATOM     17  O   UNL     1     135.568 136.077 119.804  1.00  0.00    -0.550 OA
ENDBRANCH  14  15
ENDBRANCH  13  14
ENDBRANCH  12  13
ENDBRANCH  11  12
ENDBRANCH  10  11
ENDBRANCH   9  10
ENDBRANCH   8   9
ENDBRANCH   7   8
ENDBRANCH   6   7
ENDBRANCH   5   6
ENDBRANCH   4   5
ENDBRANCH   3   4
ENDBRANCH   2   3
ENDBRANCH   1   2
BRANCH   1  18
ATOM     18  C   UNL     1     137.987 138.810 114.133  1.00  0.00     0.000 C 
BRANCH  18  19
ATOM     19  C   UNL     1     139.462 138.394 114.244  1.00  0.00     0.000 C 
BRANCH  19  20
ATOM     20  C   UNL     1     140.317 138.895 113.067  1.00  0.00     0.000 C 
BRANCH  20  21
ATOM     21  C   UNL     1     139.561 139.062 111.733  1.00  0.00     0.000 C 
BRANCH  21  22
ATOM     22  C   UNL     1     139.778 140.412 111.026  1.00  0.00     0.000 C 
BRANCH  22  23
ATOM     23  C   UNL     1     140.709 141.351 111.805  1.00  0.00     0.000 C 
BRANCH  23  24
ATOM     24  C   UNL     1     142.099 141.404 111.154  1.00  0.00    -0.000 C 
BRANCH  24  25
ATOM     25  C   UNL     1     143.203 140.808 112.046  1.00  0.00    -0.000 C 
BRANCH  25  26
ATOM     26  C   UNL     1     143.420 141.533 113.392  1.00  0.00    -0.000 C 
BRANCH  26  27
ATOM     27  C   UNL     1     143.119 140.697 114.650  1.00  0.00    -0.000 C 
BRANCH  27  28
ATOM     28  C   UNL     1     142.414 141.502 115.753  1.00  0.00    -0.000 C 
BRANCH  28  29
ATOM     29  C   UNL     1     141.195 142.285 115.232  1.00  0.00    -0.000 C 
BRANCH  29  30
ATOM     30  C   UNL     1     139.829 141.767 115.719  1.00  0.00    -0.000 C 
BRANCH  30  31
ATOM     31  C   UNL     1     139.951 140.735 116.851  1.00  0.00    -0.003 C 
ATOM     32  C   UNL     1     139.841 141.404 118.218  1.00  0.00     0.004 C 
ENDBRANCH  30  31
ENDBRANCH  29  30
ENDBRANCH  28  29
ENDBRANCH  27  28
ENDBRANCH  26  27
ENDBRANCH  25  26
ENDBRANCH  24  25
ENDBRANCH  23  24
ENDBRANCH  22  23
ENDBRANCH  21  22
ENDBRANCH  20  21
ENDBRANCH  19  20
ENDBRANCH  18  19
ENDBRANCH   1  18
TORSDOF 28
ENDMDL
MODEL 4
REMARK VINA RESULT:    -5.475      2.197      8.680
REMARK INTER + INTRA:         -19.181
REMARK INTER:                 -15.347
REMARK INTRA:                  -3.833
REMARK UNBOUND:                -4.744
REMARK SMILES CCCCCCCCCCCCCCCCCCCCCCCCCCCCCC(=O)[O-]
REMARK SMILES IDX 16 1 17 2 18 3 19 4 20 5 21 6 22 7 23 8 24 9 25 10 26 11
REMARK SMILES IDX 27 12 28 13 29 14 30 15 31 16 32 17 15 18 14 19 13 20 12 21
REMARK SMILES IDX 11 22 10 23 9 24 8 25 7 26 6 27 5 28 4 29 3 30 2 31 1 32
REMARK H PARENT
REMARK Flexibility Score: inf
ROOT
ATOM      1  C   UNL     1     138.421 139.026 113.799  1.00  0.00     0.000 C 
ENDROOT
BRANCH   1   2
ATOM      2  C   UNL     1     138.166 137.588 114.279  1.00  0.00     0.000 C 
BRANCH   2   3
ATOM      3  C   UNL     1     137.007 136.909 113.528  1.00  0.00     0.000 C 
BRANCH   3   4
ATOM      4  C   UNL     1     135.637 137.213 114.156  1.00  0.00     0.000 C 
BRANCH   4   5
ATOM      5  C   UNL     1     134.517 137.297 113.108  1.00  0.00     0.000 C 
BRANCH   5   6
ATOM      6  C   UNL     1     133.485 136.178 113.314  1.00  0.00     0.000 C 
BRANCH   6   7
ATOM      7  C   UNL     1     133.359 135.747 114.788  1.00  0.00     0.000 C 
BRANCH   7   8
ATOM      8  C   UNL     1     133.780 134.295 115.078  1.00  0.00     0.000 C 
BRANCH   8   9
ATOM      9  C   UNL     1     134.597 133.616 113.962  1.00  0.00     0.000 C 
BRANCH   9  10
ATOM     10  C   UNL     1     136.059 133.318 114.357  1.00  0.00     0.000 C 
BRANCH  10  11
ATOM     11  C   UNL     1     136.283 133.385 115.874  1.00  0.00     0.000 C 
BRANCH  11  12
ATOM     12  C   UNL     1     137.172 134.580 116.250  1.00  0.00     0.000 C 
BRANCH  12  13
ATOM     13  C   UNL     1     136.516 135.508 117.283  1.00  0.00     0.006 C 
BRANCH  13  14
ATOM     14  C   UNL     1     135.835 134.743 118.426  1.00  0.00     0.053 C 
BRANCH  14  15
ATOM     15  C   UNL     1     135.527 135.665 119.563  1.00  0.00     0.041 C 
ATOM     16  O   UNL     1     136.426 135.976 120.388  1.00  0.00    -0.550 OA
ATOM     17  O   UNL     1     134.236 136.146 119.739  1.00  0.00    -0.550 OA
ENDBRANCH  14  15
ENDBRANCH  13  14
ENDBRANCH  12  13
ENDBRANCH  11  12
ENDBRANCH  10  11
ENDBRANCH   9  10
ENDBRANCH   8   9
ENDBRANCH   7   8
ENDBRANCH   6   7
ENDBRANCH   5   6
ENDBRANCH   4   5
ENDBRANCH   3   4
ENDBRANCH   2   3
ENDBRANCH   1   2
BRANCH   1  18
ATOM     18  C   UNL     1     139.511 139.102 112.719  1.00  0.00     0.000 C 
BRANCH  18  19
ATOM     19  C   UNL     1     140.912 138.988 113.340  1.00  0.00     0.000 C 
BRANCH  19  20
ATOM     20  C   UNL     1     141.998 138.633 112.309  1.00  0.00     0.000 C 
BRANCH  20  21
ATOM     21  C   UNL     1     142.062 139.562 111.079  1.00  0.00     0.000 C 
BRANCH  21  22
ATOM     22  C   UNL     1     142.447 141.021 111.384  1.00  0.00     0.000 C 
BRANCH  22  23
ATOM     23  C   UNL     1     141.234 141.961 111.424  1.00  0.00     0.000 C 
BRANCH  23  24
ATOM     24  C   UNL     1     141.079 142.590 112.817  1.00  0.00    -0.000 C 
BRANCH  24  25
ATOM     25  C   UNL     1     142.429 142.927 113.477  1.00  0.00    -0.000 C 
BRANCH  25  26
ATOM     26  C   UNL     1     142.444 142.837 115.018  1.00  0.00    -0.000 C 
BRANCH  26  27
ATOM     27  C   UNL     1     141.567 141.727 115.626  1.00  0.00    -0.000 C 
BRANCH  27  28
ATOM     28  C   UNL     1     142.379 140.511 116.099  1.00  0.00    -0.000 C 
BRANCH  28  29
ATOM     29  C   UNL     1     141.746 139.807 117.312  1.00  0.00    -0.000 C 
BRANCH  29  30
ATOM     30  C   UNL     1     141.875 140.563 118.647  1.00  0.00    -0.000 C 
BRANCH  30  31
ATOM     31  C   UNL     1     140.546 141.170 119.120  1.00  0.00    -0.003 C 
ATOM     32  C   UNL     1     140.094 140.543 120.436  1.00  0.00     0.004 C 
ENDBRANCH  30  31
ENDBRANCH  29  30
ENDBRANCH  28  29
ENDBRANCH  27  28
ENDBRANCH  26  27
ENDBRANCH  25  26
ENDBRANCH  24  25
ENDBRANCH  23  24
ENDBRANCH  22  23
ENDBRANCH  21  22
ENDBRANCH  20  21
ENDBRANCH  19  20
ENDBRANCH  18  19
ENDBRANCH   1  18
TORSDOF 28
ENDMDL
MODEL 5
REMARK VINA RESULT:    -5.348      2.596      8.932
REMARK INTER + INTRA:         -18.847
REMARK INTER:                 -14.397
REMARK INTRA:                  -4.450
REMARK UNBOUND:                -4.744
REMARK SMILES CCCCCCCCCCCCCCCCCCCCCCCCCCCCCC(=O)[O-]
REMARK SMILES IDX 16 1 17 2 18 3 19 4 20 5 21 6 22 7 23 8 24 9 25 10 26 11
REMARK SMILES IDX 27 12 28 13 29 14 30 15 31 16 32 17 15 18 14 19 13 20 12 21
REMARK SMILES IDX 11 22 10 23 9 24 8 25 7 26 6 27 5 28 4 29 3 30 2 31 1 32
REMARK H PARENT
REMARK Flexibility Score: inf
ROOT
ATOM      1  C   UNL     1     138.463 138.759 114.616  1.00  0.00     0.000 C 
ENDROOT
BRANCH   1   2
ATOM      2  C   UNL     1     137.975 137.347 114.254  1.00  0.00     0.000 C 
BRANCH   2   3
ATOM      3  C   UNL     1     136.545 137.340 113.687  1.00  0.00     0.000 C 
BRANCH   3   4
ATOM      4  C   UNL     1     136.518 137.292 112.151  1.00  0.00     0.000 C 
BRANCH   4   5
ATOM      5  C   UNL     1     136.352 135.864 111.610  1.00  0.00     0.000 C 
BRANCH   5   6
ATOM      6  C   UNL     1     134.947 135.658 111.024  1.00  0.00     0.000 C 
BRANCH   6   7
ATOM      7  C   UNL     1     134.101 136.945 111.036  1.00  0.00     0.000 C 
BRANCH   7   8
ATOM      8  C   UNL     1     132.982 136.977 112.093  1.00  0.00     0.000 C 
BRANCH   8   9
ATOM      9  C   UNL     1     132.562 135.599 112.642  1.00  0.00     0.000 C 
BRANCH   9  10
ATOM     10  C   UNL     1     132.302 135.590 114.163  1.00  0.00     0.000 C 
BRANCH  10  11
ATOM     11  C   UNL     1     133.495 136.127 114.966  1.00  0.00     0.000 C 
BRANCH  11  12
ATOM     12  C   UNL     1     134.225 134.991 115.698  1.00  0.00     0.000 C 
BRANCH  12  13
ATOM     13  C   UNL     1     134.227 133.677 114.903  1.00  0.00     0.006 C 
BRANCH  13  14
ATOM     14  C   UNL     1     135.551 133.426 114.168  1.00  0.00     0.053 C 
BRANCH  14  15
ATOM     15  C   UNL     1     136.526 132.734 115.067  1.00  0.00     0.041 C 
ATOM     16  O   UNL     1     136.756 131.503 114.925  1.00  0.00    -0.550 OA
ATOM     17  O   UNL     1     137.149 133.435 116.090  1.00  0.00    -0.550 OA
ENDBRANCH  14  15
ENDBRANCH  13  14
ENDBRANCH  12  13
ENDBRANCH  11  12
ENDBRANCH  10  11
ENDBRANCH   9  10
ENDBRANCH   8   9
ENDBRANCH   7   8
ENDBRANCH   6   7
ENDBRANCH   5   6
ENDBRANCH   4   5
ENDBRANCH   3   4
ENDBRANCH   2   3
ENDBRANCH   1   2
BRANCH   1  18
ATOM     18  C   UNL     1     139.020 139.519 113.402  1.00  0.00     0.000 C 
BRANCH  18  19
ATOM     19  C   UNL     1     140.232 138.789 112.804  1.00  0.00     0.000 C 
BRANCH  19  20
ATOM     20  C   UNL     1     140.591 139.282 111.390  1.00  0.00     0.000 C 
BRANCH  20  21
ATOM     21  C   UNL     1     140.037 140.673 111.021  1.00  0.00     0.000 C 
BRANCH  21  22
ATOM     22  C   UNL     1     141.018 141.841 111.228  1.00  0.00     0.000 C 
BRANCH  22  23
ATOM     23  C   UNL     1     140.986 142.401 112.657  1.00  0.00     0.000 C 
BRANCH  23  24
ATOM     24  C   UNL     1     142.404 142.498 113.237  1.00  0.00    -0.000 C 
BRANCH  24  25
ATOM     25  C   UNL     1     143.244 141.232 112.985  1.00  0.00    -0.000 C 
BRANCH  25  26
ATOM     26  C   UNL     1     143.483 140.348 114.227  1.00  0.00    -0.000 C 
BRANCH  26  27
ATOM     27  C   UNL     1     142.808 140.831 115.524  1.00  0.00    -0.000 C 
BRANCH  27  28
ATOM     28  C   UNL     1     141.674 139.905 115.993  1.00  0.00    -0.000 C 
BRANCH  28  29
ATOM     29  C   UNL     1     140.729 140.583 117.001  1.00  0.00    -0.000 C 
BRANCH  29  30
ATOM     30  C   UNL     1     139.731 141.583 116.389  1.00  0.00    -0.000 C 
BRANCH  30  31
ATOM     31  C   UNL     1     140.293 143.010 116.301  1.00  0.00    -0.003 C 
ATOM     32  C   UNL     1     139.337 143.931 115.549  1.00  0.00     0.004 C 
ENDBRANCH  30  31
ENDBRANCH  29  30
ENDBRANCH  28  29
ENDBRANCH  27  28
ENDBRANCH  26  27
ENDBRANCH  25  26
ENDBRANCH  24  25
ENDBRANCH  23  24
ENDBRANCH  22  23
ENDBRANCH  21  22
ENDBRANCH  20  21
ENDBRANCH  19  20
ENDBRANCH  18  19
ENDBRANCH   1  18
TORSDOF 28
ENDMDL
MODEL 6
REMARK VINA RESULT:    -4.839      5.189      8.786
REMARK INTER + INTRA:         -17.503
REMARK INTER:                 -14.786
REMARK INTRA:                  -2.718
REMARK UNBOUND:                -4.744
REMARK SMILES CCCCCCCCCCCCCCCCCCCCCCCCCCCCCC(=O)[O-]
REMARK SMILES IDX 16 1 17 2 18 3 19 4 20 5 21 6 22 7 23 8 24 9 25 10 26 11
REMARK SMILES IDX 27 12 28 13 29 14 30 15 31 16 32 17 15 18 14 19 13 20 12 21
REMARK SMILES IDX 11 22 10 23 9 24 8 25 7 26 6 27 5 28 4 29 3 30 2 31 1 32
REMARK H PARENT
REMARK Flexibility Score: inf
ROOT
ATOM      1  C   UNL     1     136.910 134.708 116.044  1.00  0.00     0.000 C 
ENDROOT
BRANCH   1   2
ATOM      2  C   UNL     1     135.946 133.570 115.675  1.00  0.00     0.000 C 
BRANCH   2   3
ATOM      3  C   UNL     1     135.807 133.380 114.154  1.00  0.00     0.000 C 
BRANCH   3   4
ATOM      4  C   UNL     1     134.418 133.782 113.632  1.00  0.00     0.000 C 
BRANCH   4   5
ATOM      5  C   UNL     1     133.481 134.251 114.755  1.00  0.00     0.000 C 
BRANCH   5   6
ATOM      6  C   UNL     1     133.234 135.765 114.670  1.00  0.00     0.000 C 
BRANCH   6   7
ATOM      7  C   UNL     1     132.880 136.231 113.244  1.00  0.00     0.000 C 
BRANCH   7   8
ATOM      8  C   UNL     1     133.941 137.120 112.570  1.00  0.00     0.000 C 
BRANCH   8   9
ATOM      9  C   UNL     1     134.737 136.442 111.438  1.00  0.00     0.000 C 
BRANCH   9  10
ATOM     10  C   UNL     1     136.265 136.463 111.656  1.00  0.00     0.000 C 
BRANCH  10  11
ATOM     11  C   UNL     1     136.650 136.901 113.076  1.00  0.00     0.000 C 
BRANCH  11  12
ATOM     12  C   UNL     1     137.893 137.802 113.059  1.00  0.00     0.000 C 
BRANCH  12  13
ATOM     13  C   UNL     1     138.159 138.474 114.415  1.00  0.00     0.006 C 
BRANCH  13  14
ATOM     14  C   UNL     1     138.897 139.813 114.283  1.00  0.00     0.053 C 
BRANCH  14  15
ATOM     15  C   UNL     1     140.056 139.868 115.227  1.00  0.00     0.041 C 
ATOM     16  O   UNL     1     141.123 139.256 114.957  1.00  0.00    -0.550 OA
ATOM     17  O   UNL     1     139.944 140.557 116.427  1.00  0.00    -0.550 OA
ENDBRANCH  14  15
ENDBRANCH  13  14
ENDBRANCH  12  13
ENDBRANCH  11  12
ENDBRANCH  10  11
ENDBRANCH   9  10
ENDBRANCH   8   9
ENDBRANCH   7   8
ENDBRANCH   6   7
ENDBRANCH   5   6
ENDBRANCH   4   5
ENDBRANCH   3   4
ENDBRANCH   2   3
ENDBRANCH   1   2
BRANCH   1  18
ATOM     18  C   UNL     1     136.202 135.872 116.756  1.00  0.00     0.000 C 
BRANCH  18  19
ATOM     19  C   UNL     1     135.450 135.379 118.002  1.00  0.00     0.000 C 
BRANCH  19  20
ATOM     20  C   UNL     1     136.326 135.366 119.267  1.00  0.00     0.000 C 
BRANCH  20  21
ATOM     21  C   UNL     1     135.734 136.112 120.481  1.00  0.00     0.000 C 
BRANCH  21  22
ATOM     22  C   UNL     1     136.150 135.554 121.854  1.00  0.00     0.000 C 
BRANCH  22  23
ATOM     23  C   UNL     1     135.059 135.722 122.921  1.00  0.00     0.000 C 
BRANCH  23  24
ATOM     24  C   UNL     1     135.599 135.366 124.314  1.00  0.00    -0.000 C 
BRANCH  24  25
ATOM     25  C   UNL     1     134.646 134.460 125.114  1.00  0.00    -0.000 C 
BRANCH  25  26
ATOM     26  C   UNL     1     133.260 134.239 124.472  1.00  0.00    -0.000 C 
BRANCH  26  27
ATOM     27  C   UNL     1     132.389 133.153 125.133  1.00  0.00    -0.000 C 
BRANCH  27  28
ATOM     28  C   UNL     1     131.672 132.255 124.113  1.00  0.00    -0.000 C 
BRANCH  28  29
ATOM     29  C   UNL     1     131.122 130.962 124.740  1.00  0.00    -0.000 C 
BRANCH  29  30
ATOM     30  C   UNL     1     131.573 129.659 124.053  1.00  0.00    -0.000 C 
BRANCH  30  31
ATOM     31  C   UNL     1     130.471 128.590 124.020  1.00  0.00    -0.003 C 
ATOM     32  C   UNL     1     129.875 128.372 125.408  1.00  0.00     0.004 C 
ENDBRANCH  30  31
ENDBRANCH  29  30
ENDBRANCH  28  29
ENDBRANCH  27  28
ENDBRANCH  26  27
ENDBRANCH  25  26
ENDBRANCH  24  25
ENDBRANCH  23  24
ENDBRANCH  22  23
ENDBRANCH  21  22
ENDBRANCH  20  21
ENDBRANCH  19  20
ENDBRANCH  18  19
ENDBRANCH   1  18
TORSDOF 28
ENDMDL
MODEL 7
REMARK VINA RESULT:    -4.819      4.934      8.198
REMARK INTER + INTRA:         -17.451
REMARK INTER:                 -14.764
REMARK INTRA:                  -2.687
REMARK UNBOUND:                -4.744
REMARK SMILES CCCCCCCCCCCCCCCCCCCCCCCCCCCCCC(=O)[O-]
REMARK SMILES IDX 16 1 17 2 18 3 19 4 20 5 21 6 22 7 23 8 24 9 25 10 26 11
REMARK SMILES IDX 27 12 28 13 29 14 30 15 31 16 32 17 15 18 14 19 13 20 12 21
REMARK SMILES IDX 11 22 10 23 9 24 8 25 7 26 6 27 5 28 4 29 3 30 2 31 1 32
REMARK H PARENT
REMARK Flexibility Score: inf
ROOT
ATOM      1  C   UNL     1     140.304 142.521 116.590  1.00  0.00     0.000 C 
ENDROOT
BRANCH   1   2
ATOM      2  C   UNL     1     139.359 141.353 116.918  1.00  0.00     0.000 C 
BRANCH   2   3
ATOM      3  C   UNL     1     139.697 140.676 118.257  1.00  0.00     0.000 C 
BRANCH   3   4
ATOM      4  C   UNL     1     141.207 140.656 118.546  1.00  0.00     0.000 C 
BRANCH   4   5
ATOM      5  C   UNL     1     141.523 140.265 119.998  1.00  0.00     0.000 C 
BRANCH   5   6
ATOM      6  C   UNL     1     140.354 140.619 120.930  1.00  0.00     0.000 C 
BRANCH   6   7
ATOM      7  C   UNL     1     140.812 140.928 122.368  1.00  0.00     0.000 C 
BRANCH   7   8
ATOM      8  C   UNL     1     142.278 140.570 122.675  1.00  0.00     0.000 C 
BRANCH   8   9
ATOM      9  C   UNL     1     142.684 140.695 124.156  1.00  0.00     0.000 C 
BRANCH   9  10
ATOM     10  C   UNL     1     142.292 142.045 124.795  1.00  0.00     0.000 C 
BRANCH  10  11
ATOM     11  C   UNL     1     143.515 142.876 125.208  1.00  0.00     0.000 C 
BRANCH  11  12
ATOM     12  C   UNL     1     144.052 143.695 124.025  1.00  0.00     0.000 C 
BRANCH  12  13
ATOM     13  C   UNL     1     145.415 144.340 124.319  1.00  0.00     0.006 C 
BRANCH  13  14
ATOM     14  C   UNL     1     145.369 145.874 124.283  1.00  0.00     0.053 C 
BRANCH  14  15
ATOM     15  C   UNL     1     145.625 146.438 125.644  1.00  0.00     0.041 C 
ATOM     16  O   UNL     1     145.559 147.681 125.838  1.00  0.00    -0.550 OA
ATOM     17  O   UNL     1     145.980 145.597 126.690  1.00  0.00    -0.550 OA
ENDBRANCH  14  15
ENDBRANCH  13  14
ENDBRANCH  12  13
ENDBRANCH  11  12
ENDBRANCH  10  11
ENDBRANCH   9  10
ENDBRANCH   8   9
ENDBRANCH   7   8
ENDBRANCH   6   7
ENDBRANCH   5   6
ENDBRANCH   4   5
ENDBRANCH   3   4
ENDBRANCH   2   3
ENDBRANCH   1   2
BRANCH   1  18
ATOM     18  C   UNL     1     140.228 142.943 115.115  1.00  0.00     0.000 C 
BRANCH  18  19
ATOM     19  C   UNL     1     141.620 142.930 114.465  1.00  0.00     0.000 C 
BRANCH  19  20
ATOM     20  C   UNL     1     142.689 142.261 115.349  1.00  0.00     0.000 C 
BRANCH  20  21
ATOM     21  C   UNL     1     143.005 140.793 114.996  1.00  0.00     0.000 C 
BRANCH  21  22
ATOM     22  C   UNL     1     142.875 140.439 113.504  1.00  0.00     0.000 C 
BRANCH  22  23
ATOM     23  C   UNL     1     141.987 139.211 113.257  1.00  0.00     0.000 C 
BRANCH  23  24
ATOM     24  C   UNL     1     140.620 139.382 113.936  1.00  0.00    -0.000 C 
BRANCH  24  25
ATOM     25  C   UNL     1     139.473 139.594 112.931  1.00  0.00    -0.000 C 
BRANCH  25  26
ATOM     26  C   UNL     1     138.289 138.615 113.074  1.00  0.00    -0.000 C 
BRANCH  26  27
ATOM     27  C   UNL     1     138.249 137.810 114.386  1.00  0.00    -0.000 C 
BRANCH  27  28
ATOM     28  C   UNL     1     136.898 137.118 114.626  1.00  0.00    -0.000 C 
BRANCH  28  29
ATOM     29  C   UNL     1     136.892 136.246 115.894  1.00  0.00    -0.000 C 
BRANCH  29  30
ATOM     30  C   UNL     1     135.503 135.998 116.510  1.00  0.00    -0.000 C 
BRANCH  30  31
ATOM     31  C   UNL     1     135.068 134.527 116.431  1.00  0.00    -0.003 C 
ATOM     32  C   UNL     1     134.078 134.308 115.290  1.00  0.00     0.004 C 
ENDBRANCH  30  31
ENDBRANCH  29  30
ENDBRANCH  28  29
ENDBRANCH  27  28
ENDBRANCH  26  27
ENDBRANCH  25  26
ENDBRANCH  24  25
ENDBRANCH  23  24
ENDBRANCH  22  23
ENDBRANCH  21  22
ENDBRANCH  20  21
ENDBRANCH  19  20
ENDBRANCH  18  19
ENDBRANCH   1  18
TORSDOF 28
ENDMDL
MODEL 8
REMARK VINA RESULT:    -4.806      4.496      7.670
REMARK INTER + INTRA:         -17.417
REMARK INTER:                 -14.964
REMARK INTRA:                  -2.453
REMARK UNBOUND:                -4.744
REMARK SMILES CCCCCCCCCCCCCCCCCCCCCCCCCCCCCC(=O)[O-]
REMARK SMILES IDX 16 1 17 2 18 3 19 4 20 5 21 6 22 7 23 8 24 9 25 10 26 11
REMARK SMILES IDX 27 12 28 13 29 14 30 15 31 16 32 17 15 18 14 19 13 20 12 21
REMARK SMILES IDX 11 22 10 23 9 24 8 25 7 26 6 27 5 28 4 29 3 30 2 31 1 32
REMARK H PARENT
REMARK Flexibility Score: inf
ROOT
ATOM      1  C   UNL     1     135.939 133.663 114.427  1.00  0.00     0.000 C 
ENDROOT
BRANCH   1   2
ATOM      2  C   UNL     1     134.429 133.424 114.585  1.00  0.00     0.000 C 
BRANCH   2   3
ATOM      3  C   UNL     1     133.606 134.056 113.449  1.00  0.00     0.000 C 
BRANCH   3   4
ATOM      4  C   UNL     1     132.812 135.289 113.909  1.00  0.00     0.000 C 
BRANCH   4   5
ATOM      5  C   UNL     1     133.028 136.502 112.991  1.00  0.00     0.000 C 
BRANCH   5   6
ATOM      6  C   UNL     1     134.426 137.104 113.193  1.00  0.00     0.000 C 
BRANCH   6   7
ATOM      7  C   UNL     1     135.367 136.839 112.002  1.00  0.00     0.000 C 
BRANCH   7   8
ATOM      8  C   UNL     1     136.835 136.571 112.381  1.00  0.00     0.000 C 
BRANCH   8   9
ATOM      9  C   UNL     1     137.640 137.817 112.798  1.00  0.00     0.000 C 
BRANCH   9  10
ATOM     10  C   UNL     1     138.180 137.752 114.243  1.00  0.00     0.000 C 
BRANCH  10  11
ATOM     11  C   UNL     1     138.745 139.098 114.719  1.00  0.00     0.000 C 
BRANCH  11  12
ATOM     12  C   UNL     1     140.253 139.191 114.448  1.00  0.00     0.000 C 
BRANCH  12  13
ATOM     13  C   UNL     1     140.984 140.090 115.457  1.00  0.00     0.006 C 
BRANCH  13  14
ATOM     14  C   UNL     1     140.733 141.585 115.217  1.00  0.00     0.053 C 
BRANCH  14  15
ATOM     15  C   UNL     1     141.945 142.232 114.625  1.00  0.00     0.041 C 
ATOM     16  O   UNL     1     142.984 142.387 115.320  1.00  0.00    -0.550 OA
ATOM     17  O   UNL     1     141.915 142.704 113.320  1.00  0.00    -0.550 OA
ENDBRANCH  14  15
ENDBRANCH  13  14
ENDBRANCH  12  13
ENDBRANCH  11  12
ENDBRANCH  10  11
ENDBRANCH   9  10
ENDBRANCH   8   9
ENDBRANCH   7   8
ENDBRANCH   6   7
ENDBRANCH   5   6
ENDBRANCH   4   5
ENDBRANCH   3   4
ENDBRANCH   2   3
ENDBRANCH   1   2
BRANCH   1  18
ATOM     18  C   UNL     1     136.547 134.405 115.627  1.00  0.00     0.000 C 
BRANCH  18  19
ATOM     19  C   UNL     1     135.462 135.144 116.426  1.00  0.00     0.000 C 
BRANCH  19  20
ATOM     20  C   UNL     1     135.402 134.709 117.901  1.00  0.00     0.000 C 
BRANCH  20  21
ATOM     21  C   UNL     1     135.281 135.862 118.919  1.00  0.00     0.000 C 
BRANCH  21  22
ATOM     22  C   UNL     1     136.344 135.864 120.032  1.00  0.00     0.000 C 
BRANCH  22  23
ATOM     23  C   UNL     1     135.736 135.751 121.437  1.00  0.00     0.000 C 
BRANCH  23  24
ATOM     24  C   UNL     1     134.248 136.129 121.419  1.00  0.00    -0.000 C 
BRANCH  24  25
ATOM     25  C   UNL     1     133.577 135.993 122.798  1.00  0.00    -0.000 C 
BRANCH  25  26
ATOM     26  C   UNL     1     134.486 135.440 123.916  1.00  0.00    -0.000 C 
BRANCH  26  27
ATOM     27  C   UNL     1     133.787 135.161 125.260  1.00  0.00    -0.000 C 
BRANCH  27  28
ATOM     28  C   UNL     1     133.528 133.665 125.503  1.00  0.00    -0.000 C 
BRANCH  28  29
ATOM     29  C   UNL     1     132.314 133.136 124.720  1.00  0.00    -0.000 C 
BRANCH  29  30
ATOM     30  C   UNL     1     132.380 131.644 124.342  1.00  0.00    -0.000 C 
BRANCH  30  31
ATOM     31  C   UNL     1     130.995 131.028 124.095  1.00  0.00    -0.003 C 
ATOM     32  C   UNL     1     130.917 129.611 124.656  1.00  0.00     0.004 C 
ENDBRANCH  30  31
ENDBRANCH  29  30
ENDBRANCH  28  29
ENDBRANCH  27  28
ENDBRANCH  26  27
ENDBRANCH  25  26
ENDBRANCH  24  25
ENDBRANCH  23  24
ENDBRANCH  22  23
ENDBRANCH  21  22
ENDBRANCH  20  21
ENDBRANCH  19  20
ENDBRANCH  18  19
ENDBRANCH   1  18
TORSDOF 28
ENDMDL
MODEL 9
REMARK VINA RESULT:    -4.780      2.545      8.745
REMARK INTER + INTRA:         -17.348
REMARK INTER:                 -14.267
REMARK INTRA:                  -3.081
REMARK UNBOUND:                -4.744
REMARK SMILES CCCCCCCCCCCCCCCCCCCCCCCCCCCCCC(=O)[O-]
REMARK SMILES IDX 16 1 17 2 18 3 19 4 20 5 21 6 22 7 23 8 24 9 25 10 26 11
REMARK SMILES IDX 27 12 28 13 29 14 30 15 31 16 32 17 15 18 14 19 13 20 12 21
REMARK SMILES IDX 11 22 10 23 9 24 8 25 7 26 6 27 5 28 4 29 3 30 2 31 1 32
REMARK H PARENT
REMARK Flexibility Score: inf
ROOT
ATOM      1  C   UNL     1     138.768 139.367 114.605  1.00  0.00     0.000 C 
ENDROOT
BRANCH   1   2
ATOM      2  C   UNL     1     137.881 138.157 114.270  1.00  0.00     0.000 C 
BRANCH   2   3
ATOM      3  C   UNL     1     137.630 138.005 112.760  1.00  0.00     0.000 C 
BRANCH   3   4
ATOM      4  C   UNL     1     136.612 136.900 112.437  1.00  0.00     0.000 C 
BRANCH   4   5
ATOM      5  C   UNL     1     135.878 137.146 111.110  1.00  0.00     0.000 C 
BRANCH   5   6
ATOM      6  C   UNL     1     134.431 137.598 111.356  1.00  0.00     0.000 C 
BRANCH   6   7
ATOM      7  C   UNL     1     133.524 136.452 111.844  1.00  0.00     0.000 C 
BRANCH   7   8
ATOM      8  C   UNL     1     133.547 136.208 113.364  1.00  0.00     0.000 C 
BRANCH   8   9
ATOM      9  C   UNL     1     132.774 134.961 113.837  1.00  0.00     0.000 C 
BRANCH   9  10
ATOM     10  C   UNL     1     133.677 133.740 114.115  1.00  0.00     0.000 C 
BRANCH  10  11
ATOM     11  C   UNL     1     135.153 134.016 113.794  1.00  0.00     0.000 C 
BRANCH  11  12
ATOM     12  C   UNL     1     136.061 133.584 114.955  1.00  0.00     0.000 C 
BRANCH  12  13
ATOM     13  C   UNL     1     136.835 134.759 115.573  1.00  0.00     0.006 C 
BRANCH  13  14
ATOM     14  C   UNL     1     135.932 135.727 116.348  1.00  0.00     0.053 C 
BRANCH  14  15
ATOM     15  C   UNL     1     135.952 135.407 117.809  1.00  0.00     0.041 C 
ATOM     16  O   UNL     1     134.873 135.249 118.439  1.00  0.00    -0.550 OA
ATOM     17  O   UNL     1     137.161 135.325 118.487  1.00  0.00    -0.550 OA
ENDBRANCH  14  15
ENDBRANCH  13  14
ENDBRANCH  12  13
ENDBRANCH  11  12
ENDBRANCH  10  11
ENDBRANCH   9  10
ENDBRANCH   8   9
ENDBRANCH   7   8
ENDBRANCH   6   7
ENDBRANCH   5   6
ENDBRANCH   4   5
ENDBRANCH   3   4
ENDBRANCH   2   3
ENDBRANCH   1   2
BRANCH   1  18
ATOM     18  C   UNL     1     139.745 139.713 113.470  1.00  0.00     0.000 C 
BRANCH  18  19
ATOM     19  C   UNL     1     140.974 138.791 113.502  1.00  0.00     0.000 C 
BRANCH  19  20
ATOM     20  C   UNL     1     142.304 139.565 113.560  1.00  0.00     0.000 C 
BRANCH  20  21
ATOM     21  C   UNL     1     142.503 140.609 112.442  1.00  0.00     0.000 C 
BRANCH  21  22
ATOM     22  C   UNL     1     142.948 142.002 112.924  1.00  0.00     0.000 C 
BRANCH  22  23
ATOM     23  C   UNL     1     141.771 142.886 113.359  1.00  0.00     0.000 C 
BRANCH  23  24
ATOM     24  C   UNL     1     141.837 143.176 114.866  1.00  0.00    -0.000 C 
BRANCH  24  25
ATOM     25  C   UNL     1     140.776 142.405 115.672  1.00  0.00    -0.000 C 
BRANCH  25  26
ATOM     26  C   UNL     1     141.326 141.566 116.845  1.00  0.00    -0.000 C 
BRANCH  26  27
ATOM     27  C   UNL     1     140.284 140.723 117.603  1.00  0.00    -0.000 C 
BRANCH  27  28
ATOM     28  C   UNL     1     139.937 141.297 118.986  1.00  0.00    -0.000 C 
BRANCH  28  29
ATOM     29  C   UNL     1     140.170 140.290 120.125  1.00  0.00    -0.000 C 
BRANCH  29  30
ATOM     30  C   UNL     1     141.199 140.726 121.184  1.00  0.00    -0.000 C 
BRANCH  30  31
ATOM     31  C   UNL     1     140.555 141.090 122.530  1.00  0.00    -0.003 C 
ATOM     32  C   UNL     1     141.516 140.830 123.686  1.00  0.00     0.004 C 
ENDBRANCH  30  31
ENDBRANCH  29  30
ENDBRANCH  28  29
ENDBRANCH  27  28
ENDBRANCH  26  27
ENDBRANCH  25  26
ENDBRANCH  24  25
ENDBRANCH  23  24
ENDBRANCH  22  23
ENDBRANCH  21  22
ENDBRANCH  20  21
ENDBRANCH  19  20
ENDBRANCH  18  19
ENDBRANCH   1  18
TORSDOF 28
ENDMDL
