MODEL 1
REMARK VINA RESULT:    -6.358      0.000      0.000
REMARK INTER + INTRA:         -19.186
REMARK INTER:                 -16.766
REMARK INTRA:                  -2.419
REMARK UNBOUND:                -2.419
REMARK SMILES CCCCCCCCCCCCCCCCCCCCCCCCCCCCCC(=O)[O-]
REMARK SMILES IDX 16 1 17 2 18 3 19 4 20 5 21 6 22 7 23 8 24 9 25 10 26 11
REMARK SMILES IDX 27 12 28 13 29 14 30 15 31 16 32 17 15 18 14 19 13 20 12 21
REMARK SMILES IDX 11 22 10 23 9 24 8 25 7 26 6 27 5 28 4 29 3 30 2 31 1 32
REMARK H PARENT
REMARK Flexibility Score: inf
ROOT
ATOM      1  C   UNL     1     -22.771 -23.745  31.343  1.00  0.00     0.000 C 
ENDROOT
BRANCH   1   2
ATOM      2  C   UNL     1     -22.821 -22.375  32.049  1.00  0.00     0.000 C 
BRANCH   2   3
ATOM      3  C   UNL     1     -21.638 -21.450  31.696  1.00  0.00     0.000 C 
BRANCH   3   4
ATOM      4  C   UNL     1     -22.088 -20.169  30.971  1.00  0.00     0.000 C 
BRANCH   4   5
ATOM      5  C   UNL     1     -22.210 -20.369  29.451  1.00  0.00     0.000 C 
BRANCH   5   6
ATOM      6  C   UNL     1     -21.177 -19.547  28.665  1.00  0.00     0.000 C 
BRANCH   6   7
ATOM      7  C   UNL     1     -20.786 -18.279  29.432  1.00  0.00     0.000 C 
BRANCH   7   8
ATOM      8  C   UNL     1     -19.288 -18.276  29.768  1.00  0.00     0.000 C 
BRANCH   8   9
ATOM      9  C   UNL     1     -19.003 -17.950  31.244  1.00  0.00     0.000 C 
BRANCH   9  10
ATOM     10  C   UNL     1     -18.071 -16.735  31.446  1.00  0.00     0.000 C 
BRANCH  10  11
ATOM     11  C   UNL     1     -18.411 -15.583  30.486  1.00  0.00     0.000 C 
BRANCH  11  12
ATOM     12  C   UNL     1     -17.481 -15.521  29.260  1.00  0.00     0.000 C 
BRANCH  12  13
ATOM     13  C   UNL     1     -18.187 -15.666  27.899  1.00  0.00     0.006 C 
BRANCH  13  14
ATOM     14  C   UNL     1     -17.247 -16.160  26.789  1.00  0.00     0.053 C 
BRANCH  14  15
ATOM     15  C   UNL     1     -17.353 -15.294  25.572  1.00  0.00     0.041 C 
ATOM     16  O   UNL     1     -16.322 -14.777  25.066  1.00  0.00    -0.550 OA
ATOM     17  O   UNL     1     -18.593 -15.065  24.986  1.00  0.00    -0.550 OA
ENDBRANCH  14  15
ENDBRANCH  13  14
ENDBRANCH  12  13
ENDBRANCH  11  12
ENDBRANCH  10  11
ENDBRANCH   9  10
ENDBRANCH   8   9
ENDBRANCH   7   8
ENDBRANCH   6   7
ENDBRANCH   5   6
ENDBRANCH   4   5
ENDBRANCH   3   4
ENDBRANCH   2   3
ENDBRANCH   1   2
BRANCH   1  18
ATOM     18  C   UNL     1     -21.935 -23.776  30.051  1.00  0.00     0.000 C 
BRANCH  18  19
ATOM     19  C   UNL     1     -22.787 -24.066  28.807  1.00  0.00     0.000 C 
BRANCH  19  20
ATOM     20  C   UNL     1     -24.025 -24.898  29.161  1.00  0.00     0.000 C 
BRANCH  20  21
ATOM     21  C   UNL     1     -23.729 -26.399  29.027  1.00  0.00     0.000 C 
BRANCH  21  22
ATOM     22  C   UNL     1     -23.816 -27.153  30.364  1.00  0.00     0.000 C 
BRANCH  22  23
ATOM     23  C   UNL     1     -24.739 -26.457  31.377  1.00  0.00     0.000 C 
BRANCH  23  24
ATOM     24  C   UNL     1     -26.115 -27.137  31.480  1.00  0.00    -0.000 C 
BRANCH  24  25
ATOM     25  C   UNL     1     -26.153 -28.505  30.779  1.00  0.00    -0.000 C 
BRANCH  25  26
ATOM     26  C   UNL     1     -27.055 -28.462  29.537  1.00  0.00    -0.000 C 
BRANCH  26  27
ATOM     27  C   UNL     1     -26.339 -28.925  28.254  1.00  0.00    -0.000 C 
BRANCH  27  28
ATOM     28  C   UNL     1     -26.524 -28.009  27.030  1.00  0.00    -0.000 C 
BRANCH  28  29
ATOM     29  C   UNL     1     -26.518 -28.778  25.698  1.00  0.00    -0.000 C 
BRANCH  29  30
ATOM     30  C   UNL     1     -27.936 -29.057  25.174  1.00  0.00    -0.000 C 
BRANCH  30  31
ATOM     31  C   UNL     1     -28.624 -27.797  24.631  1.00  0.00    -0.003 C 
ATOM     32  C   UNL     1     -29.277 -28.066  23.277  1.00  0.00     0.004 C 
ENDBRANCH  30  31
ENDBRANCH  29  30
ENDBRANCH  28  29
ENDBRANCH  27  28
ENDBRANCH  26  27
ENDBRANCH  25  26
ENDBRANCH  24  25
ENDBRANCH  23  24
ENDBRANCH  22  23
ENDBRANCH  21  22
ENDBRANCH  20  21
ENDBRANCH  19  20
ENDBRANCH  18  19
ENDBRANCH   1  18
TORSDOF 28
ENDMDL
MODEL 2
REMARK VINA RESULT:    -6.344      4.228     12.583
REMARK INTER + INTRA:         -19.149
REMARK INTER:                 -17.437
REMARK INTRA:                  -1.712
REMARK UNBOUND:                -2.419
REMARK SMILES CCCCCCCCCCCCCCCCCCCCCCCCCCCCCC(=O)[O-]
REMARK SMILES IDX 16 1 17 2 18 3 19 4 20 5 21 6 22 7 23 8 24 9 25 10 26 11
REMARK SMILES IDX 27 12 28 13 29 14 30 15 31 16 32 17 15 18 14 19 13 20 12 21
REMARK SMILES IDX 11 22 10 23 9 24 8 25 7 26 6 27 5 28 4 29 3 30 2 31 1 32
REMARK H PARENT
REMARK Flexibility Score: inf
ROOT
ATOM      1  C   UNL     1     -21.976 -20.188  31.085  1.00  0.00     0.000 C 
ENDROOT
BRANCH   1   2
ATOM      2  C   UNL     1     -21.584 -21.487  31.816  1.00  0.00     0.000 C 
BRANCH   2   3
ATOM      3  C   UNL     1     -22.762 -22.460  32.029  1.00  0.00     0.000 C 
BRANCH   3   4
ATOM      4  C   UNL     1     -22.633 -23.736  31.178  1.00  0.00     0.000 C 
BRANCH   4   5
ATOM      5  C   UNL     1     -21.855 -23.492  29.873  1.00  0.00     0.000 C 
BRANCH   5   6
ATOM      6  C   UNL     1     -22.345 -24.383  28.721  1.00  0.00     0.000 C 
BRANCH   6   7
ATOM      7  C   UNL     1     -23.702 -25.013  29.054  1.00  0.00     0.000 C 
BRANCH   7   8
ATOM      8  C   UNL     1     -23.558 -26.515  29.342  1.00  0.00     0.000 C 
BRANCH   8   9
ATOM      9  C   UNL     1     -24.349 -26.968  30.581  1.00  0.00     0.000 C 
BRANCH   9  10
ATOM     10  C   UNL     1     -25.871 -27.069  30.347  1.00  0.00     0.000 C 
BRANCH  10  11
ATOM     11  C   UNL     1     -26.386 -28.509  30.512  1.00  0.00     0.000 C 
BRANCH  11  12
ATOM     12  C   UNL     1     -26.815 -29.155  29.182  1.00  0.00     0.000 C 
BRANCH  12  13
ATOM     13  C   UNL     1     -26.186 -28.531  27.922  1.00  0.00     0.006 C 
BRANCH  13  14
ATOM     14  C   UNL     1     -27.234 -27.997  26.934  1.00  0.00     0.053 C 
BRANCH  14  15
ATOM     15  C   UNL     1     -27.153 -28.717  25.624  1.00  0.00     0.041 C 
ATOM     16  O   UNL     1     -26.034 -29.003  25.122  1.00  0.00    -0.550 OA
ATOM     17  O   UNL     1     -28.317 -29.085  24.959  1.00  0.00    -0.550 OA
ENDBRANCH  14  15
ENDBRANCH  13  14
ENDBRANCH  12  13
ENDBRANCH  11  12
ENDBRANCH  10  11
ENDBRANCH   9  10
ENDBRANCH   8   9
ENDBRANCH   7   8
ENDBRANCH   6   7
ENDBRANCH   5   6
ENDBRANCH   4   5
ENDBRANCH   3   4
ENDBRANCH   2   3
ENDBRANCH   1   2
BRANCH   1  18
ATOM     18  C   UNL     1     -22.453 -20.382  29.634  1.00  0.00     0.000 C 
BRANCH  18  19
ATOM     19  C   UNL     1     -21.488 -19.765  28.611  1.00  0.00     0.000 C 
BRANCH  19  20
ATOM     20  C   UNL     1     -20.872 -18.464  29.139  1.00  0.00     0.000 C 
BRANCH  20  21
ATOM     21  C   UNL     1     -19.362 -18.630  29.366  1.00  0.00     0.000 C 
BRANCH  21  22
ATOM     22  C   UNL     1     -18.991 -18.831  30.844  1.00  0.00     0.000 C 
BRANCH  22  23
ATOM     23  C   UNL     1     -19.330 -17.607  31.710  1.00  0.00     0.000 C 
BRANCH  23  24
ATOM     24  C   UNL     1     -19.348 -16.301  30.898  1.00  0.00    -0.000 C 
BRANCH  24  25
ATOM     25  C   UNL     1     -18.029 -15.518  31.007  1.00  0.00    -0.000 C 
BRANCH  25  26
ATOM     26  C   UNL     1     -17.856 -14.561  29.818  1.00  0.00    -0.000 C 
BRANCH  26  27
ATOM     27  C   UNL     1     -17.169 -15.219  28.607  1.00  0.00    -0.000 C 
BRANCH  27  28
ATOM     28  C   UNL     1     -18.105 -15.992  27.659  1.00  0.00    -0.000 C 
BRANCH  28  29
ATOM     29  C   UNL     1     -17.515 -16.178  26.251  1.00  0.00    -0.000 C 
BRANCH  29  30
ATOM     30  C   UNL     1     -17.153 -14.840  25.585  1.00  0.00    -0.000 C 
BRANCH  30  31
ATOM     31  C   UNL     1     -15.807 -14.892  24.849  1.00  0.00    -0.003 C 
ATOM     32  C   UNL     1     -15.623 -16.228  24.133  1.00  0.00     0.004 C 
ENDBRANCH  30  31
ENDBRANCH  29  30
ENDBRANCH  28  29
ENDBRANCH  27  28
ENDBRANCH  26  27
ENDBRANCH  25  26
ENDBRANCH  24  25
ENDBRANCH  23  24
ENDBRANCH  22  23
ENDBRANCH  21  22
ENDBRANCH  20  21
ENDBRANCH  19  20
ENDBRANCH  18  19
ENDBRANCH   1  18
TORSDOF 28
ENDMDL
MODEL 3
REMARK VINA RESULT:    -6.092      4.312     12.721
REMARK INTER + INTRA:         -18.484
REMARK INTER:                 -15.891
REMARK INTRA:                  -2.593
REMARK UNBOUND:                -2.419
REMARK SMILES CCCCCCCCCCCCCCCCCCCCCCCCCCCCCC(=O)[O-]
REMARK SMILES IDX 16 1 17 2 18 3 19 4 20 5 21 6 22 7 23 8 24 9 25 10 26 11
REMARK SMILES IDX 27 12 28 13 29 14 30 15 31 16 32 17 15 18 14 19 13 20 12 21
REMARK SMILES IDX 11 22 10 23 9 24 8 25 7 26 6 27 5 28 4 29 3 30 2 31 1 32
REMARK H PARENT
REMARK Flexibility Score: inf
ROOT
ATOM      1  C   UNL     1     -22.770 -22.390  31.992  1.00  0.00     0.000 C 
ENDROOT
BRANCH   1   2
ATOM      2  C   UNL     1     -22.688 -23.737  31.248  1.00  0.00     0.000 C 
BRANCH   2   3
ATOM      3  C   UNL     1     -21.960 -23.654  29.890  1.00  0.00     0.000 C 
BRANCH   3   4
ATOM      4  C   UNL     1     -22.639 -24.510  28.805  1.00  0.00     0.000 C 
BRANCH   4   5
ATOM      5  C   UNL     1     -24.081 -24.893  29.180  1.00  0.00     0.000 C 
BRANCH   5   6
ATOM      6  C   UNL     1     -24.301 -26.414  29.192  1.00  0.00     0.000 C 
BRANCH   6   7
ATOM      7  C   UNL     1     -24.046 -26.993  30.588  1.00  0.00     0.000 C 
BRANCH   7   8
ATOM      8  C   UNL     1     -25.305 -26.904  31.462  1.00  0.00     0.000 C 
BRANCH   8   9
ATOM      9  C   UNL     1     -26.508 -27.652  30.862  1.00  0.00     0.000 C 
BRANCH   9  10
ATOM     10  C   UNL     1     -26.178 -29.085  30.390  1.00  0.00     0.000 C 
BRANCH  10  11
ATOM     11  C   UNL     1     -26.738 -29.374  28.987  1.00  0.00     0.000 C 
BRANCH  11  12
ATOM     12  C   UNL     1     -27.277 -28.117  28.280  1.00  0.00     0.000 C 
BRANCH  12  13
ATOM     13  C   UNL     1     -26.608 -27.791  26.932  1.00  0.00     0.006 C 
BRANCH  13  14
ATOM     14  C   UNL     1     -26.796 -28.902  25.888  1.00  0.00     0.053 C 
BRANCH  14  15
ATOM     15  C   UNL     1     -28.086 -28.730  25.147  1.00  0.00     0.041 C 
ATOM     16  O   UNL     1     -28.236 -27.773  24.342  1.00  0.00    -0.550 OA
ATOM     17  O   UNL     1     -29.124 -29.635  25.339  1.00  0.00    -0.550 OA
ENDBRANCH  14  15
ENDBRANCH  13  14
ENDBRANCH  12  13
ENDBRANCH  11  12
ENDBRANCH  10  11
ENDBRANCH   9  10
ENDBRANCH   8   9
ENDBRANCH   7   8
ENDBRANCH   6   7
ENDBRANCH   5   6
ENDBRANCH   4   5
ENDBRANCH   3   4
ENDBRANCH   2   3
ENDBRANCH   1   2
BRANCH   1  18
ATOM     18  C   UNL     1     -21.613 -21.418  31.698  1.00  0.00     0.000 C 
BRANCH  18  19
ATOM     19  C   UNL     1     -22.044 -20.243  30.808  1.00  0.00     0.000 C 
BRANCH  19  20
ATOM     20  C   UNL     1     -21.421 -20.345  29.411  1.00  0.00     0.000 C 
BRANCH  20  21
ATOM     21  C   UNL     1     -21.566 -19.018  28.652  1.00  0.00     0.000 C 
BRANCH  21  22
ATOM     22  C   UNL     1     -20.442 -18.017  28.967  1.00  0.00     0.000 C 
BRANCH  22  23
ATOM     23  C   UNL     1     -19.292 -18.651  29.766  1.00  0.00     0.000 C 
BRANCH  23  24
ATOM     24  C   UNL     1     -19.062 -17.953  31.117  1.00  0.00    -0.000 C 
BRANCH  24  25
ATOM     25  C   UNL     1     -19.137 -16.421  31.011  1.00  0.00    -0.000 C 
BRANCH  25  26
ATOM     26  C   UNL     1     -17.782 -15.830  30.592  1.00  0.00    -0.000 C 
BRANCH  26  27
ATOM     27  C   UNL     1     -17.880 -14.904  29.364  1.00  0.00    -0.000 C 
BRANCH  27  28
ATOM     28  C   UNL     1     -17.139 -15.397  28.108  1.00  0.00    -0.000 C 
BRANCH  28  29
ATOM     29  C   UNL     1     -18.083 -15.979  27.043  1.00  0.00    -0.000 C 
BRANCH  29  30
ATOM     30  C   UNL     1     -17.941 -15.276  25.683  1.00  0.00    -0.000 C 
BRANCH  30  31
ATOM     31  C   UNL     1     -16.487 -14.905  25.359  1.00  0.00    -0.003 C 
ATOM     32  C   UNL     1     -15.801 -16.012  24.563  1.00  0.00     0.004 C 
ENDBRANCH  30  31
ENDBRANCH  29  30
ENDBRANCH  28  29
ENDBRANCH  27  28
ENDBRANCH  26  27
ENDBRANCH  25  26
ENDBRANCH  24  25
ENDBRANCH  23  24
ENDBRANCH  22  23
ENDBRANCH  21  22
ENDBRANCH  20  21
ENDBRANCH  19  20
ENDBRANCH  18  19
ENDBRANCH   1  18
TORSDOF 28
ENDMDL
MODEL 4
REMARK VINA RESULT:    -5.951      1.229      2.047
REMARK INTER + INTRA:         -18.111
REMARK INTER:                 -15.746
REMARK INTRA:                  -2.365
REMARK UNBOUND:                -2.419
REMARK SMILES CCCCCCCCCCCCCCCCCCCCCCCCCCCCCC(=O)[O-]
REMARK SMILES IDX 16 1 17 2 18 3 19 4 20 5 21 6 22 7 23 8 24 9 25 10 26 11
REMARK SMILES IDX 27 12 28 13 29 14 30 15 31 16 32 17 15 18 14 19 13 20 12 21
REMARK SMILES IDX 11 22 10 23 9 24 8 25 7 26 6 27 5 28 4 29 3 30 2 31 1 32
REMARK H PARENT
REMARK Flexibility Score: inf
ROOT
ATOM      1  C   UNL     1     -21.890 -21.829  28.617  1.00  0.00     0.000 C 
ENDROOT
BRANCH   1   2
ATOM      2  C   UNL     1     -22.410 -20.462  29.107  1.00  0.00     0.000 C 
BRANCH   2   3
ATOM      3  C   UNL     1     -22.640 -20.395  30.631  1.00  0.00     0.000 C 
BRANCH   3   4
ATOM      4  C   UNL     1     -21.559 -21.152  31.423  1.00  0.00     0.000 C 
BRANCH   4   5
ATOM      5  C   UNL     1     -20.513 -20.205  32.037  1.00  0.00     0.000 C 
BRANCH   5   6
ATOM      6  C   UNL     1     -20.866 -18.724  31.828  1.00  0.00     0.000 C 
BRANCH   6   7
ATOM      7  C   UNL     1     -19.601 -17.860  31.787  1.00  0.00     0.000 C 
BRANCH   7   8
ATOM      8  C   UNL     1     -18.598 -18.398  30.755  1.00  0.00     0.000 C 
BRANCH   8   9
ATOM      9  C   UNL     1     -19.098 -18.268  29.306  1.00  0.00     0.000 C 
BRANCH   9  10
ATOM     10  C   UNL     1     -19.406 -16.816  28.881  1.00  0.00     0.000 C 
BRANCH  10  11
ATOM     11  C   UNL     1     -18.274 -15.849  29.269  1.00  0.00     0.000 C 
BRANCH  11  12
ATOM     12  C   UNL     1     -17.483 -15.325  28.057  1.00  0.00     0.000 C 
BRANCH  12  13
ATOM     13  C   UNL     1     -17.827 -15.997  26.715  1.00  0.00     0.006 C 
BRANCH  13  14
ATOM     14  C   UNL     1     -17.457 -15.132  25.501  1.00  0.00     0.053 C 
BRANCH  14  15
ATOM     15  C   UNL     1     -16.048 -15.392  25.065  1.00  0.00     0.041 C 
ATOM     16  O   UNL     1     -15.747 -16.473  24.494  1.00  0.00    -0.550 OA
ATOM     17  O   UNL     1     -15.065 -14.432  25.281  1.00  0.00    -0.550 OA
ENDBRANCH  14  15
ENDBRANCH  13  14
ENDBRANCH  12  13
ENDBRANCH  11  12
ENDBRANCH  10  11
ENDBRANCH   9  10
ENDBRANCH   8   9
ENDBRANCH   7   8
ENDBRANCH   6   7
ENDBRANCH   5   6
ENDBRANCH   4   5
ENDBRANCH   3   4
ENDBRANCH   2   3
ENDBRANCH   1   2
BRANCH   1  18
ATOM     18  C   UNL     1     -22.938 -22.956  28.615  1.00  0.00     0.000 C 
BRANCH  18  19
ATOM     19  C   UNL     1     -22.375 -24.283  29.143  1.00  0.00     0.000 C 
BRANCH  19  20
ATOM     20  C   UNL     1     -22.116 -24.216  30.653  1.00  0.00     0.000 C 
BRANCH  20  21
ATOM     21  C   UNL     1     -23.424 -24.394  31.438  1.00  0.00     0.000 C 
BRANCH  21  22
ATOM     22  C   UNL     1     -24.393 -25.388  30.779  1.00  0.00     0.000 C 
BRANCH  22  23
ATOM     23  C   UNL     1     -25.705 -25.546  31.565  1.00  0.00     0.000 C 
BRANCH  23  24
ATOM     24  C   UNL     1     -26.037 -27.018  31.862  1.00  0.00    -0.000 C 
BRANCH  24  25
ATOM     25  C   UNL     1     -25.498 -27.975  30.786  1.00  0.00    -0.000 C 
BRANCH  25  26
ATOM     26  C   UNL     1     -26.542 -29.041  30.423  1.00  0.00    -0.000 C 
BRANCH  26  27
ATOM     27  C   UNL     1     -26.831 -29.114  28.911  1.00  0.00    -0.000 C 
BRANCH  27  28
ATOM     28  C   UNL     1     -26.123 -28.048  28.055  1.00  0.00    -0.000 C 
BRANCH  28  29
ATOM     29  C   UNL     1     -26.892 -27.704  26.768  1.00  0.00    -0.000 C 
BRANCH  29  30
ATOM     30  C   UNL     1     -26.701 -28.762  25.668  1.00  0.00    -0.000 C 
BRANCH  30  31
ATOM     31  C   UNL     1     -28.020 -29.149  24.985  1.00  0.00    -0.003 C 
ATOM     32  C   UNL     1     -28.656 -27.944  24.297  1.00  0.00     0.004 C 
ENDBRANCH  30  31
ENDBRANCH  29  30
ENDBRANCH  28  29
ENDBRANCH  27  28
ENDBRANCH  26  27
ENDBRANCH  25  26
ENDBRANCH  24  25
ENDBRANCH  23  24
ENDBRANCH  22  23
ENDBRANCH  21  22
ENDBRANCH  20  21
ENDBRANCH  19  20
ENDBRANCH  18  19
ENDBRANCH   1  18
TORSDOF 28
ENDMDL
MODEL 5
REMARK VINA RESULT:    -5.430      4.456     12.755
REMARK INTER + INTRA:         -16.737
REMARK INTER:                 -14.626
REMARK INTRA:                  -2.111
REMARK UNBOUND:                -2.419
REMARK SMILES CCCCCCCCCCCCCCCCCCCCCCCCCCCCCC(=O)[O-]
REMARK SMILES IDX 16 1 17 2 18 3 19 4 20 5 21 6 22 7 23 8 24 9 25 10 26 11
REMARK SMILES IDX 27 12 28 13 29 14 30 15 31 16 32 17 15 18 14 19 13 20 12 21
REMARK SMILES IDX 11 22 10 23 9 24 8 25 7 26 6 27 5 28 4 29 3 30 2 31 1 32
REMARK H PARENT
REMARK Flexibility Score: inf
ROOT
ATOM      1  C   UNL     1     -21.673 -21.327  28.924  1.00  0.00     0.000 C 
ENDROOT
BRANCH   1   2
ATOM      2  C   UNL     1     -22.378 -22.543  28.290  1.00  0.00     0.000 C 
BRANCH   2   3
ATOM      3  C   UNL     1     -22.186 -23.854  29.081  1.00  0.00     0.000 C 
BRANCH   3   4
ATOM      4  C   UNL     1     -22.184 -23.627  30.604  1.00  0.00     0.000 C 
BRANCH   4   5
ATOM      5  C   UNL     1     -22.843 -24.788  31.369  1.00  0.00     0.000 C 
BRANCH   5   6
ATOM      6  C   UNL     1     -24.351 -24.579  31.571  1.00  0.00     0.000 C 
BRANCH   6   7
ATOM      7  C   UNL     1     -25.083 -25.922  31.673  1.00  0.00     0.000 C 
BRANCH   7   8
ATOM      8  C   UNL     1     -24.469 -26.959  30.719  1.00  0.00     0.000 C 
BRANCH   8   9
ATOM      9  C   UNL     1     -24.576 -26.552  29.240  1.00  0.00     0.000 C 
BRANCH   9  10
ATOM     10  C   UNL     1     -25.993 -26.720  28.648  1.00  0.00     0.000 C 
BRANCH  10  11
ATOM     11  C   UNL     1     -26.602 -28.090  28.992  1.00  0.00     0.000 C 
BRANCH  11  12
ATOM     12  C   UNL     1     -26.818 -28.984  27.757  1.00  0.00     0.000 C 
BRANCH  12  13
ATOM     13  C   UNL     1     -26.675 -28.267  26.401  1.00  0.00     0.006 C 
BRANCH  13  14
ATOM     14  C   UNL     1     -27.162 -29.120  25.221  1.00  0.00     0.053 C 
BRANCH  14  15
ATOM     15  C   UNL     1     -28.563 -28.755  24.837  1.00  0.00     0.041 C 
ATOM     16  O   UNL     1     -28.775 -27.879  23.958  1.00  0.00    -0.550 OA
ATOM     17  O   UNL     1     -29.638 -29.393  25.444  1.00  0.00    -0.550 OA
ENDBRANCH  14  15
ENDBRANCH  13  14
ENDBRANCH  12  13
ENDBRANCH  11  12
ENDBRANCH  10  11
ENDBRANCH   9  10
ENDBRANCH   8   9
ENDBRANCH   7   8
ENDBRANCH   6   7
ENDBRANCH   5   6
ENDBRANCH   4   5
ENDBRANCH   3   4
ENDBRANCH   2   3
ENDBRANCH   1   2
BRANCH   1  18
ATOM     18  C   UNL     1     -22.609 -20.336  29.637  1.00  0.00     0.000 C 
BRANCH  18  19
ATOM     19  C   UNL     1     -22.448 -20.368  31.164  1.00  0.00     0.000 C 
BRANCH  19  20
ATOM     20  C   UNL     1     -20.974 -20.502  31.565  1.00  0.00     0.000 C 
BRANCH  20  21
ATOM     21  C   UNL     1     -20.388 -19.136  31.950  1.00  0.00     0.000 C 
BRANCH  21  22
ATOM     22  C   UNL     1     -19.074 -18.815  31.220  1.00  0.00     0.000 C 
BRANCH  22  23
ATOM     23  C   UNL     1     -19.293 -18.443  29.744  1.00  0.00     0.000 C 
BRANCH  23  24
ATOM     24  C   UNL     1     -19.592 -16.946  29.555  1.00  0.00    -0.000 C 
BRANCH  24  25
ATOM     25  C   UNL     1     -18.683 -16.048  30.411  1.00  0.00    -0.000 C 
BRANCH  25  26
ATOM     26  C   UNL     1     -18.167 -14.852  29.599  1.00  0.00    -0.000 C 
BRANCH  26  27
ATOM     27  C   UNL     1     -16.920 -15.186  28.756  1.00  0.00    -0.000 C 
BRANCH  27  28
ATOM     28  C   UNL     1     -17.181 -16.056  27.513  1.00  0.00    -0.000 C 
BRANCH  28  29
ATOM     29  C   UNL     1     -18.234 -15.453  26.568  1.00  0.00    -0.000 C 
BRANCH  29  30
ATOM     30  C   UNL     1     -17.668 -15.161  25.168  1.00  0.00    -0.000 C 
BRANCH  30  31
ATOM     31  C   UNL     1     -16.136 -15.067  25.158  1.00  0.00    -0.003 C 
ATOM     32  C   UNL     1     -15.535 -15.993  24.103  1.00  0.00     0.004 C 
ENDBRANCH  30  31
ENDBRANCH  29  30
ENDBRANCH  28  29
ENDBRANCH  27  28
ENDBRANCH  26  27
ENDBRANCH  25  26
ENDBRANCH  24  25
ENDBRANCH  23  24
ENDBRANCH  22  23
ENDBRANCH  21  22
ENDBRANCH  20  21
ENDBRANCH  19  20
ENDBRANCH  18  19
ENDBRANCH   1  18
TORSDOF 28
ENDMDL
MODEL 6
REMARK VINA RESULT:    -4.821      6.290     14.211
REMARK INTER + INTRA:         -15.131
REMARK INTER:                 -13.704
REMARK INTRA:                  -1.427
REMARK UNBOUND:                -2.419
REMARK SMILES CCCCCCCCCCCCCCCCCCCCCCCCCCCCCC(=O)[O-]
REMARK SMILES IDX 16 1 17 2 18 3 19 4 20 5 21 6 22 7 23 8 24 9 25 10 26 11
REMARK SMILES IDX 27 12 28 13 29 14 30 15 31 16 32 17 15 18 14 19 13 20 12 21
REMARK SMILES IDX 11 22 10 23 9 24 8 25 7 26 6 27 5 28 4 29 3 30 2 31 1 32
REMARK H PARENT
REMARK Flexibility Score: inf
ROOT
ATOM      1  C   UNL     1     -18.993 -16.821  29.514  1.00  0.00     0.000 C 
ENDROOT
BRANCH   1   2
ATOM      2  C   UNL     1     -20.463 -17.231  29.300  1.00  0.00     0.000 C 
BRANCH   2   3
ATOM      3  C   UNL     1     -20.644 -18.710  28.900  1.00  0.00     0.000 C 
BRANCH   3   4
ATOM      4  C   UNL     1     -21.507 -19.492  29.907  1.00  0.00     0.000 C 
BRANCH   4   5
ATOM      5  C   UNL     1     -20.918 -19.464  31.327  1.00  0.00     0.000 C 
BRANCH   5   6
ATOM      6  C   UNL     1     -21.017 -20.826  32.032  1.00  0.00     0.000 C 
BRANCH   6   7
ATOM      7  C   UNL     1     -21.898 -21.794  31.232  1.00  0.00     0.000 C 
BRANCH   7   8
ATOM      8  C   UNL     1     -22.766 -22.650  32.166  1.00  0.00     0.000 C 
BRANCH   8   9
ATOM      9  C   UNL     1     -23.428 -23.839  31.450  1.00  0.00     0.000 C 
BRANCH   9  10
ATOM     10  C   UNL     1     -22.625 -24.362  30.239  1.00  0.00     0.000 C 
BRANCH  10  11
ATOM     11  C   UNL     1     -23.541 -24.784  29.078  1.00  0.00     0.000 C 
BRANCH  11  12
ATOM     12  C   UNL     1     -24.804 -25.531  29.543  1.00  0.00     0.000 C 
BRANCH  12  13
ATOM     13  C   UNL     1     -24.730 -27.066  29.433  1.00  0.00     0.006 C 
BRANCH  13  14
ATOM     14  C   UNL     1     -25.233 -27.592  28.080  1.00  0.00     0.053 C 
BRANCH  14  15
ATOM     15  C   UNL     1     -26.519 -28.342  28.241  1.00  0.00     0.041 C 
ATOM     16  O   UNL     1     -27.203 -28.658  27.231  1.00  0.00    -0.550 OA
ATOM     17  O   UNL     1     -26.959 -28.705  29.509  1.00  0.00    -0.550 OA
ENDBRANCH  14  15
ENDBRANCH  13  14
ENDBRANCH  12  13
ENDBRANCH  11  12
ENDBRANCH  10  11
ENDBRANCH   9  10
ENDBRANCH   8   9
ENDBRANCH   7   8
ENDBRANCH   6   7
ENDBRANCH   5   6
ENDBRANCH   4   5
ENDBRANCH   3   4
ENDBRANCH   2   3
ENDBRANCH   1   2
BRANCH   1  18
ATOM     18  C   UNL     1     -18.073 -17.058  28.303  1.00  0.00     0.000 C 
BRANCH  18  19
ATOM     19  C   UNL     1     -18.263 -16.003  27.204  1.00  0.00     0.000 C 
BRANCH  19  20
ATOM     20  C   UNL     1     -16.922 -15.394  26.778  1.00  0.00     0.000 C 
BRANCH  20  21
ATOM     21  C   UNL     1     -16.845 -15.259  25.250  1.00  0.00     0.000 C 
BRANCH  21  22
ATOM     22  C   UNL     1     -16.049 -16.393  24.583  1.00  0.00     0.000 C 
BRANCH  22  23
ATOM     23  C   UNL     1     -15.064 -15.879  23.521  1.00  0.00     0.000 C 
BRANCH  23  24
ATOM     24  C   UNL     1     -15.130 -16.692  22.217  1.00  0.00    -0.000 C 
BRANCH  24  25
ATOM     25  C   UNL     1     -13.889 -16.492  21.332  1.00  0.00    -0.000 C 
BRANCH  25  26
ATOM     26  C   UNL     1     -14.128 -17.040  19.917  1.00  0.00    -0.000 C 
BRANCH  26  27
ATOM     27  C   UNL     1     -13.723 -16.048  18.809  1.00  0.00    -0.000 C 
BRANCH  27  28
ATOM     28  C   UNL     1     -12.259 -16.149  18.340  1.00  0.00    -0.000 C 
BRANCH  28  29
ATOM     29  C   UNL     1     -12.062 -15.691  16.885  1.00  0.00    -0.000 C 
BRANCH  29  30
ATOM     30  C   UNL     1     -12.009 -16.870  15.900  1.00  0.00    -0.000 C 
BRANCH  30  31
ATOM     31  C   UNL     1     -12.137 -18.231  16.600  1.00  0.00    -0.003 C 
ATOM     32  C   UNL     1     -13.486 -18.879  16.298  1.00  0.00     0.004 C 
ENDBRANCH  30  31
ENDBRANCH  29  30
ENDBRANCH  28  29
ENDBRANCH  27  28
ENDBRANCH  26  27
ENDBRANCH  25  26
ENDBRANCH  24  25
ENDBRANCH  23  24
ENDBRANCH  22  23
ENDBRANCH  21  22
ENDBRANCH  20  21
ENDBRANCH  19  20
ENDBRANCH  18  19
ENDBRANCH   1  18
TORSDOF 28
ENDMDL
MODEL 7
REMARK VINA RESULT:    -4.727      4.271     11.840
REMARK INTER + INTRA:         -14.884
REMARK INTER:                 -12.658
REMARK INTRA:                  -2.226
REMARK UNBOUND:                -2.419
REMARK SMILES CCCCCCCCCCCCCCCCCCCCCCCCCCCCCC(=O)[O-]
REMARK SMILES IDX 16 1 17 2 18 3 19 4 20 5 21 6 22 7 23 8 24 9 25 10 26 11
REMARK SMILES IDX 27 12 28 13 29 14 30 15 31 16 32 17 15 18 14 19 13 20 12 21
REMARK SMILES IDX 11 22 10 23 9 24 8 25 7 26 6 27 5 28 4 29 3 30 2 31 1 32
REMARK H PARENT
REMARK Flexibility Score: inf
ROOT
ATOM      1  C   UNL     1     -21.599 -18.619  28.420  1.00  0.00     0.000 C 
ENDROOT
BRANCH   1   2
ATOM      2  C   UNL     1     -21.273 -20.081  28.783  1.00  0.00     0.000 C 
BRANCH   2   3
ATOM      3  C   UNL     1     -22.518 -20.985  28.898  1.00  0.00     0.000 C 
BRANCH   3   4
ATOM      4  C   UNL     1     -22.285 -22.386  28.304  1.00  0.00     0.000 C 
BRANCH   4   5
ATOM      5  C   UNL     1     -22.776 -23.506  29.236  1.00  0.00     0.000 C 
BRANCH   5   6
ATOM      6  C   UNL     1     -22.742 -24.888  28.565  1.00  0.00     0.000 C 
BRANCH   6   7
ATOM      7  C   UNL     1     -23.902 -25.763  29.054  1.00  0.00     0.000 C 
BRANCH   7   8
ATOM      8  C   UNL     1     -23.912 -25.860  30.587  1.00  0.00     0.000 C 
BRANCH   8   9
ATOM      9  C   UNL     1     -25.306 -25.627  31.195  1.00  0.00     0.000 C 
BRANCH   9  10
ATOM     10  C   UNL     1     -26.127 -26.921  31.386  1.00  0.00     0.000 C 
BRANCH  10  11
ATOM     11  C   UNL     1     -25.541 -28.098  30.588  1.00  0.00     0.000 C 
BRANCH  11  12
ATOM     12  C   UNL     1     -26.617 -29.057  30.046  1.00  0.00     0.000 C 
BRANCH  12  13
ATOM     13  C   UNL     1     -27.237 -28.645  28.697  1.00  0.00     0.006 C 
BRANCH  13  14
ATOM     14  C   UNL     1     -26.182 -28.289  27.639  1.00  0.00     0.053 C 
BRANCH  14  15
ATOM     15  C   UNL     1     -26.683 -28.587  26.260  1.00  0.00     0.041 C 
ATOM     16  O   UNL     1     -27.920 -28.661  26.033  1.00  0.00    -0.550 OA
ATOM     17  O   UNL     1     -25.782 -28.774  25.218  1.00  0.00    -0.550 OA
ENDBRANCH  14  15
ENDBRANCH  13  14
ENDBRANCH  12  13
ENDBRANCH  11  12
ENDBRANCH  10  11
ENDBRANCH   9  10
ENDBRANCH   8   9
ENDBRANCH   7   8
ENDBRANCH   6   7
ENDBRANCH   5   6
ENDBRANCH   4   5
ENDBRANCH   3   4
ENDBRANCH   2   3
ENDBRANCH   1   2
BRANCH   1  18
ATOM     18  C   UNL     1     -20.459 -17.618  28.684  1.00  0.00     0.000 C 
BRANCH  18  19
ATOM     19  C   UNL     1     -19.082 -18.294  28.730  1.00  0.00     0.000 C 
BRANCH  19  20
ATOM     20  C   UNL     1     -18.028 -17.464  27.988  1.00  0.00     0.000 C 
BRANCH  20  21
ATOM     21  C   UNL     1     -18.333 -15.963  28.109  1.00  0.00     0.000 C 
BRANCH  21  22
ATOM     22  C   UNL     1     -17.291 -15.201  28.944  1.00  0.00     0.000 C 
BRANCH  22  23
ATOM     23  C   UNL     1     -17.862 -14.685  30.275  1.00  0.00     0.000 C 
BRANCH  23  24
ATOM     24  C   UNL     1     -18.716 -15.743  30.996  1.00  0.00    -0.000 C 
BRANCH  24  25
ATOM     25  C   UNL     1     -17.866 -16.853  31.636  1.00  0.00    -0.000 C 
BRANCH  25  26
ATOM     26  C   UNL     1     -18.748 -18.019  32.108  1.00  0.00    -0.000 C 
BRANCH  26  27
ATOM     27  C   UNL     1     -20.252 -17.765  31.891  1.00  0.00    -0.000 C 
BRANCH  27  28
ATOM     28  C   UNL     1     -21.155 -19.004  32.036  1.00  0.00    -0.000 C 
BRANCH  28  29
ATOM     29  C   UNL     1     -20.388 -20.328  31.876  1.00  0.00    -0.000 C 
BRANCH  29  30
ATOM     30  C   UNL     1     -20.974 -21.454  32.743  1.00  0.00    -0.000 C 
BRANCH  30  31
ATOM     31  C   UNL     1     -21.865 -22.414  31.942  1.00  0.00    -0.003 C 
ATOM     32  C   UNL     1     -23.289 -22.429  32.491  1.00  0.00     0.004 C 
ENDBRANCH  30  31
ENDBRANCH  29  30
ENDBRANCH  28  29
ENDBRANCH  27  28
ENDBRANCH  26  27
ENDBRANCH  25  26
ENDBRANCH  24  25
ENDBRANCH  23  24
ENDBRANCH  22  23
ENDBRANCH  21  22
ENDBRANCH  20  21
ENDBRANCH  19  20
ENDBRANCH  18  19
ENDBRANCH   1  18
TORSDOF 28
ENDMDL
MODEL 8
REMARK VINA RESULT:    -4.545      5.012     13.734
REMARK INTER + INTRA:         -14.404
REMARK INTER:                 -13.306
REMARK INTRA:                  -1.098
REMARK UNBOUND:                -2.419
REMARK SMILES CCCCCCCCCCCCCCCCCCCCCCCCCCCCCC(=O)[O-]
REMARK SMILES IDX 16 1 17 2 18 3 19 4 20 5 21 6 22 7 23 8 24 9 25 10 26 11
REMARK SMILES IDX 27 12 28 13 29 14 30 15 31 16 32 17 15 18 14 19 13 20 12 21
REMARK SMILES IDX 11 22 10 23 9 24 8 25 7 26 6 27 5 28 4 29 3 30 2 31 1 32
REMARK H PARENT
REMARK Flexibility Score: inf
ROOT
ATOM      1  C   UNL     1     -22.911 -24.101  28.942  1.00  0.00     0.000 C 
ENDROOT
BRANCH   1   2
ATOM      2  C   UNL     1     -23.325 -25.558  29.233  1.00  0.00     0.000 C 
BRANCH   2   3
ATOM      3  C   UNL     1     -24.378 -25.693  30.352  1.00  0.00     0.000 C 
BRANCH   3   4
ATOM      4  C   UNL     1     -25.384 -26.826  30.080  1.00  0.00     0.000 C 
BRANCH   4   5
ATOM      5  C   UNL     1     -25.312 -27.337  28.631  1.00  0.00     0.000 C 
BRANCH   5   6
ATOM      6  C   UNL     1     -26.407 -28.368  28.316  1.00  0.00     0.000 C 
BRANCH   6   7
ATOM      7  C   UNL     1     -27.213 -27.952  27.080  1.00  0.00     0.000 C 
BRANCH   7   8
ATOM      8  C   UNL     1     -26.844 -28.815  25.864  1.00  0.00     0.000 C 
BRANCH   8   9
ATOM      9  C   UNL     1     -28.029 -29.048  24.911  1.00  0.00     0.000 C 
BRANCH   9  10
ATOM     10  C   UNL     1     -28.479 -27.780  24.154  1.00  0.00     0.000 C 
BRANCH  10  11
ATOM     11  C   UNL     1     -29.603 -28.078  23.147  1.00  0.00     0.000 C 
BRANCH  11  12
ATOM     12  C   UNL     1     -29.408 -27.367  21.795  1.00  0.00     0.000 C 
BRANCH  12  13
ATOM     13  C   UNL     1     -30.524 -27.615  20.762  1.00  0.00     0.006 C 
BRANCH  13  14
ATOM     14  C   UNL     1     -30.552 -26.558  19.649  1.00  0.00     0.053 C 
BRANCH  14  15
ATOM     15  C   UNL     1     -30.949 -27.167  18.340  1.00  0.00     0.041 C 
ATOM     16  O   UNL     1     -31.320 -28.369  18.283  1.00  0.00    -0.550 OA
ATOM     17  O   UNL     1     -30.920 -26.402  17.179  1.00  0.00    -0.550 OA
ENDBRANCH  14  15
ENDBRANCH  13  14
ENDBRANCH  12  13
ENDBRANCH  11  12
ENDBRANCH  10  11
ENDBRANCH   9  10
ENDBRANCH   8   9
ENDBRANCH   7   8
ENDBRANCH   6   7
ENDBRANCH   5   6
ENDBRANCH   4   5
ENDBRANCH   3   4
ENDBRANCH   2   3
ENDBRANCH   1   2
BRANCH   1  18
ATOM     18  C   UNL     1     -21.930 -23.493  29.960  1.00  0.00     0.000 C 
BRANCH  18  19
ATOM     19  C   UNL     1     -22.634 -22.609  31.000  1.00  0.00     0.000 C 
BRANCH  19  20
ATOM     20  C   UNL     1     -22.370 -21.122  30.738  1.00  0.00     0.000 C 
BRANCH  20  21
ATOM     21  C   UNL     1     -21.713 -20.919  29.364  1.00  0.00     0.000 C 
BRANCH  21  22
ATOM     22  C   UNL     1     -21.536 -19.438  28.992  1.00  0.00     0.000 C 
BRANCH  22  23
ATOM     23  C   UNL     1     -20.142 -18.900  29.356  1.00  0.00     0.000 C 
BRANCH  23  24
ATOM     24  C   UNL     1     -19.886 -18.913  30.872  1.00  0.00    -0.000 C 
BRANCH  24  25
ATOM     25  C   UNL     1     -18.957 -17.774  31.324  1.00  0.00    -0.000 C 
BRANCH  25  26
ATOM     26  C   UNL     1     -19.118 -16.541  30.423  1.00  0.00    -0.000 C 
BRANCH  26  27
ATOM     27  C   UNL     1     -18.121 -15.414  30.757  1.00  0.00    -0.000 C 
BRANCH  27  28
ATOM     28  C   UNL     1     -17.469 -14.732  29.540  1.00  0.00    -0.000 C 
BRANCH  28  29
ATOM     29  C   UNL     1     -17.272 -15.687  28.351  1.00  0.00    -0.000 C 
BRANCH  29  30
ATOM     30  C   UNL     1     -17.545 -15.006  26.999  1.00  0.00    -0.000 C 
BRANCH  30  31
ATOM     31  C   UNL     1     -17.363 -15.960  25.811  1.00  0.00    -0.003 C 
ATOM     32  C   UNL     1     -16.296 -15.442  24.849  1.00  0.00     0.004 C 
ENDBRANCH  30  31
ENDBRANCH  29  30
ENDBRANCH  28  29
ENDBRANCH  27  28
ENDBRANCH  26  27
ENDBRANCH  25  26
ENDBRANCH  24  25
ENDBRANCH  23  24
ENDBRANCH  22  23
ENDBRANCH  21  22
ENDBRANCH  20  21
ENDBRANCH  19  20
ENDBRANCH  18  19
ENDBRANCH   1  18
TORSDOF 28
ENDMDL
MODEL 9
REMARK VINA RESULT:    -4.524      5.447     13.778
REMARK INTER + INTRA:         -14.349
REMARK INTER:                 -13.162
REMARK INTRA:                  -1.187
REMARK UNBOUND:                -2.419
REMARK SMILES CCCCCCCCCCCCCCCCCCCCCCCCCCCCCC(=O)[O-]
REMARK SMILES IDX 16 1 17 2 18 3 19 4 20 5 21 6 22 7 23 8 24 9 25 10 26 11
REMARK SMILES IDX 27 12 28 13 29 14 30 15 31 16 32 17 15 18 14 19 13 20 12 21
REMARK SMILES IDX 11 22 10 23 9 24 8 25 7 26 6 27 5 28 4 29 3 30 2 31 1 32
REMARK H PARENT
REMARK Flexibility Score: inf
ROOT
ATOM      1  C   UNL     1     -18.831 -18.368  31.647  1.00  0.00     0.000 C 
ENDROOT
BRANCH   1   2
ATOM      2  C   UNL     1     -20.318 -18.768  31.727  1.00  0.00     0.000 C 
BRANCH   2   3
ATOM      3  C   UNL     1     -20.774 -19.697  30.582  1.00  0.00     0.000 C 
BRANCH   3   4
ATOM      4  C   UNL     1     -22.077 -20.445  30.916  1.00  0.00     0.000 C 
BRANCH   4   5
ATOM      5  C   UNL     1     -21.817 -21.776  31.642  1.00  0.00     0.000 C 
BRANCH   5   6
ATOM      6  C   UNL     1     -22.505 -22.966  30.954  1.00  0.00     0.000 C 
BRANCH   6   7
ATOM      7  C   UNL     1     -22.214 -22.971  29.449  1.00  0.00     0.000 C 
BRANCH   7   8
ATOM      8  C   UNL     1     -22.698 -24.275  28.798  1.00  0.00     0.000 C 
BRANCH   8   9
ATOM      9  C   UNL     1     -23.306 -25.263  29.809  1.00  0.00     0.000 C 
BRANCH   9  10
ATOM     10  C   UNL     1     -24.071 -26.433  29.153  1.00  0.00     0.000 C 
BRANCH  10  11
ATOM     11  C   UNL     1     -25.029 -27.121  30.141  1.00  0.00     0.000 C 
BRANCH  11  12
ATOM     12  C   UNL     1     -26.088 -27.996  29.446  1.00  0.00     0.000 C 
BRANCH  12  13
ATOM     13  C   UNL     1     -26.294 -27.704  27.948  1.00  0.00     0.006 C 
BRANCH  13  14
ATOM     14  C   UNL     1     -27.122 -28.786  27.237  1.00  0.00     0.053 C 
BRANCH  14  15
ATOM     15  C   UNL     1     -27.061 -28.617  25.751  1.00  0.00     0.041 C 
ATOM     16  O   UNL     1     -28.002 -28.048  25.135  1.00  0.00    -0.550 OA
ATOM     17  O   UNL     1     -25.959 -29.080  25.042  1.00  0.00    -0.550 OA
ENDBRANCH  14  15
ENDBRANCH  13  14
ENDBRANCH  12  13
ENDBRANCH  11  12
ENDBRANCH  10  11
ENDBRANCH   9  10
ENDBRANCH   8   9
ENDBRANCH   7   8
ENDBRANCH   6   7
ENDBRANCH   5   6
ENDBRANCH   4   5
ENDBRANCH   3   4
ENDBRANCH   2   3
ENDBRANCH   1   2
BRANCH   1  18
ATOM     18  C   UNL     1     -18.578 -16.886  31.317  1.00  0.00     0.000 C 
BRANCH  18  19
ATOM     19  C   UNL     1     -19.260 -16.448  30.013  1.00  0.00     0.000 C 
BRANCH  19  20
ATOM     20  C   UNL     1     -18.435 -16.858  28.788  1.00  0.00     0.000 C 
BRANCH  20  21
ATOM     21  C   UNL     1     -17.990 -15.621  27.993  1.00  0.00     0.000 C 
BRANCH  21  22
ATOM     22  C   UNL     1     -17.649 -15.936  26.527  1.00  0.00     0.000 C 
BRANCH  22  23
ATOM     23  C   UNL     1     -16.441 -15.134  26.016  1.00  0.00     0.000 C 
BRANCH  23  24
ATOM     24  C   UNL     1     -16.352 -15.123  24.480  1.00  0.00    -0.000 C 
BRANCH  24  25
ATOM     25  C   UNL     1     -15.651 -16.372  23.919  1.00  0.00    -0.000 C 
BRANCH  25  26
ATOM     26  C   UNL     1     -14.540 -15.983  22.932  1.00  0.00    -0.000 C 
BRANCH  26  27
ATOM     27  C   UNL     1     -14.741 -16.588  21.529  1.00  0.00    -0.000 C 
BRANCH  27  28
ATOM     28  C   UNL     1     -13.525 -16.484  20.589  1.00  0.00    -0.000 C 
BRANCH  28  29
ATOM     29  C   UNL     1     -13.848 -16.897  19.143  1.00  0.00    -0.000 C 
BRANCH  29  30
ATOM     30  C   UNL     1     -12.764 -16.449  18.148  1.00  0.00    -0.000 C 
BRANCH  30  31
ATOM     31  C   UNL     1     -12.551 -17.460  17.013  1.00  0.00    -0.003 C 
ATOM     32  C   UNL     1     -13.683 -18.484  16.968  1.00  0.00     0.004 C 
ENDBRANCH  30  31
ENDBRANCH  29  30
ENDBRANCH  28  29
ENDBRANCH  27  28
ENDBRANCH  26  27
ENDBRANCH  25  26
ENDBRANCH  24  25
ENDBRANCH  23  24
ENDBRANCH  22  23
ENDBRANCH  21  22
ENDBRANCH  20  21
ENDBRANCH  19  20
ENDBRANCH  18  19
ENDBRANCH   1  18
TORSDOF 28
ENDMDL
