MODEL 1
REMARK VINA RESULT:    -3.248      0.000      0.000
REMARK INTER + INTRA:          -4.052
REMARK INTER:                  -4.008
REMARK INTRA:                  -0.044
REMARK UNBOUND:                -0.044
REMARK SMILES CCCCCC=O
REMARK SMILES IDX 4 1 3 2 2 3 1 4 5 5 6 6 7 7
REMARK H PARENT
REMARK Flexibility Score: inf
ROOT
ATOM      1  C   UNL     1     -26.549 -52.128  53.733  1.00  0.00     0.008 C 
ENDROOT
BRANCH   1   2
ATOM      2  C   UNL     1     -27.336 -52.175  52.415  1.00  0.00     0.000 C 
BRANCH   2   3
ATOM      3  C   UNL     1     -27.693 -50.776  51.889  1.00  0.00    -0.003 C 
ATOM      4  C   UNL     1     -29.018 -50.751  51.128  1.00  0.00     0.004 C 
ENDBRANCH   2   3
ENDBRANCH   1   2
BRANCH   1   5
ATOM      5  C   UNL     1     -26.947 -53.290  54.651  1.00  0.00     0.072 C 
BRANCH   5   6
ATOM      6  C   UNL     1     -26.611 -52.993  56.082  1.00  0.00     0.224 C 
ATOM      7  O   UNL     1     -25.907 -52.034  56.355  1.00  0.00    -0.303 OA
ENDBRANCH   5   6
ENDBRANCH   1   5
TORSDOF 4
ENDMDL
MODEL 2
REMARK VINA RESULT:    -3.132      2.633      4.231
REMARK INTER + INTRA:          -3.909
REMARK INTER:                  -3.825
REMARK INTRA:                  -0.084
REMARK UNBOUND:                -0.044
REMARK SMILES CCCCCC=O
REMARK SMILES IDX 4 1 3 2 2 3 1 4 5 5 6 6 7 7
REMARK H PARENT
REMARK Flexibility Score: inf
ROOT
ATOM      1  C   UNL     1     -26.652 -52.775  53.449  1.00  0.00     0.008 C 
ENDROOT
BRANCH   1   2
ATOM      2  C   UNL     1     -26.030 -51.492  54.018  1.00  0.00     0.000 C 
BRANCH   2   3
ATOM      3  C   UNL     1     -25.899 -51.528  55.549  1.00  0.00    -0.003 C 
ATOM      4  C   UNL     1     -25.275 -50.254  56.119  1.00  0.00     0.004 C 
ENDBRANCH   2   3
ENDBRANCH   1   2
BRANCH   1   5
ATOM      5  C   UNL     1     -27.619 -52.454  52.303  1.00  0.00     0.072 C 
BRANCH   5   6
ATOM      6  C   UNL     1     -27.512 -51.016  51.888  1.00  0.00     0.224 C 
ATOM      7  O   UNL     1     -28.410 -50.501  51.242  1.00  0.00    -0.303 OA
ENDBRANCH   5   6
ENDBRANCH   1   5
TORSDOF 4
ENDMDL
MODEL 3
REMARK VINA RESULT:    -3.065      0.858      1.356
REMARK INTER + INTRA:          -3.826
REMARK INTER:                  -3.683
REMARK INTRA:                  -0.142
REMARK UNBOUND:                -0.044
REMARK SMILES CCCCCC=O
REMARK SMILES IDX 4 1 3 2 2 3 1 4 5 5 6 6 7 7
REMARK H PARENT
REMARK Flexibility Score: inf
ROOT
ATOM      1  C   UNL     1     -26.971 -54.072  54.212  1.00  0.00     0.008 C 
ENDROOT
BRANCH   1   2
ATOM      2  C   UNL     1     -27.551 -53.258  53.045  1.00  0.00     0.000 C 
BRANCH   2   3
ATOM      3  C   UNL     1     -26.834 -51.913  52.849  1.00  0.00    -0.003 C 
ATOM      4  C   UNL     1     -27.657 -50.919  52.028  1.00  0.00     0.004 C 
ENDBRANCH   2   3
ENDBRANCH   1   2
BRANCH   1   5
ATOM      5  C   UNL     1     -27.526 -53.578  55.553  1.00  0.00     0.072 C 
BRANCH   5   6
ATOM      6  C   UNL     1     -26.426 -53.105  56.456  1.00  0.00     0.224 C 
ATOM      7  O   UNL     1     -25.891 -52.027  56.249  1.00  0.00    -0.303 OA
ENDBRANCH   5   6
ENDBRANCH   1   5
TORSDOF 4
ENDMDL
MODEL 4
REMARK VINA RESULT:    -3.036      2.191      4.249
REMARK INTER + INTRA:          -3.790
REMARK INTER:                  -3.717
REMARK INTRA:                  -0.073
REMARK UNBOUND:                -0.044
REMARK SMILES CCCCCC=O
REMARK SMILES IDX 4 1 3 2 2 3 1 4 5 5 6 6 7 7
REMARK H PARENT
REMARK Flexibility Score: inf
ROOT
ATOM      1  C   UNL     1     -26.963 -53.082  54.153  1.00  0.00     0.008 C 
ENDROOT
BRANCH   1   2
ATOM      2  C   UNL     1     -26.569 -52.871  55.623  1.00  0.00     0.000 C 
BRANCH   2   3
ATOM      3  C   UNL     1     -27.440 -53.687  56.591  1.00  0.00    -0.003 C 
ATOM      4  C   UNL     1     -28.655 -54.315  55.907  1.00  0.00     0.004 C 
ENDBRANCH   2   3
ENDBRANCH   1   2
BRANCH   1   5
ATOM      5  C   UNL     1     -26.483 -51.913  53.284  1.00  0.00     0.072 C 
BRANCH   5   6
ATOM      6  C   UNL     1     -27.422 -51.664  52.141  1.00  0.00     0.224 C 
ATOM      7  O   UNL     1     -27.848 -50.539  51.939  1.00  0.00    -0.303 OA
ENDBRANCH   5   6
ENDBRANCH   1   5
TORSDOF 4
ENDMDL
MODEL 5
REMARK VINA RESULT:    -2.943      1.705      2.586
REMARK INTER + INTRA:          -3.676
REMARK INTER:                  -3.554
REMARK INTRA:                  -0.122
REMARK UNBOUND:                -0.044
REMARK SMILES CCCCCC=O
REMARK SMILES IDX 4 1 3 2 2 3 1 4 5 5 6 6 7 7
REMARK H PARENT
REMARK Flexibility Score: inf
ROOT
ATOM      1  C   UNL     1     -27.906 -52.508  51.324  1.00  0.00     0.008 C 
ENDROOT
BRANCH   1   2
ATOM      2  C   UNL     1     -29.334 -52.044  50.999  1.00  0.00     0.000 C 
BRANCH   2   3
ATOM      3  C   UNL     1     -29.444 -50.516  50.875  1.00  0.00    -0.003 C 
ATOM      4  C   UNL     1     -30.867 -50.005  51.104  1.00  0.00     0.004 C 
ENDBRANCH   2   3
ENDBRANCH   1   2
BRANCH   1   5
ATOM      5  C   UNL     1     -27.197 -51.502  52.238  1.00  0.00     0.072 C 
BRANCH   5   6
ATOM      6  C   UNL     1     -26.620 -52.178  53.447  1.00  0.00     0.224 C 
ATOM      7  O   UNL     1     -27.277 -53.013  54.048  1.00  0.00    -0.303 OA
ENDBRANCH   5   6
ENDBRANCH   1   5
TORSDOF 4
ENDMDL
MODEL 6
REMARK VINA RESULT:    -2.864     17.829     18.519
REMARK INTER + INTRA:          -3.577
REMARK INTER:                  -3.425
REMARK INTRA:                  -0.152
REMARK UNBOUND:                -0.044
REMARK SMILES CCCCCC=O
REMARK SMILES IDX 4 1 3 2 2 3 1 4 5 5 6 6 7 7
REMARK H PARENT
REMARK Flexibility Score: inf
ROOT
ATOM      1  C   UNL     1     -21.050 -68.926  58.190  1.00  0.00     0.008 C 
ENDROOT
BRANCH   1   2
ATOM      2  C   UNL     1     -20.905 -69.125  59.706  1.00  0.00     0.000 C 
BRANCH   2   3
ATOM      3  C   UNL     1     -19.811 -68.235  60.316  1.00  0.00    -0.003 C 
ATOM      4  C   UNL     1     -19.616 -66.927  59.549  1.00  0.00     0.004 C 
ENDBRANCH   2   3
ENDBRANCH   1   2
BRANCH   1   5
ATOM      5  C   UNL     1     -22.528 -68.873  57.784  1.00  0.00     0.072 C 
BRANCH   5   6
ATOM      6  C   UNL     1     -23.425 -69.097  58.965  1.00  0.00     0.224 C 
ATOM      7  O   UNL     1     -24.418 -68.403  59.115  1.00  0.00    -0.303 OA
ENDBRANCH   5   6
ENDBRANCH   1   5
TORSDOF 4
ENDMDL
MODEL 7
REMARK VINA RESULT:    -2.757     17.078     18.288
REMARK INTER + INTRA:          -3.445
REMARK INTER:                  -3.407
REMARK INTRA:                  -0.038
REMARK UNBOUND:                -0.044
REMARK SMILES CCCCCC=O
REMARK SMILES IDX 4 1 3 2 2 3 1 4 5 5 6 6 7 7
REMARK H PARENT
REMARK Flexibility Score: inf
ROOT
ATOM      1  C   UNL     1     -21.163 -69.100  58.825  1.00  0.00     0.008 C 
ENDROOT
BRANCH   1   2
ATOM      2  C   UNL     1     -22.698 -69.122  58.771  1.00  0.00     0.000 C 
BRANCH   2   3
ATOM      3  C   UNL     1     -23.282 -67.891  58.059  1.00  0.00    -0.003 C 
ATOM      4  C   UNL     1     -24.781 -68.021  57.787  1.00  0.00     0.004 C 
ENDBRANCH   2   3
ENDBRANCH   1   2
BRANCH   1   5
ATOM      5  C   UNL     1     -20.666 -69.125  60.275  1.00  0.00     0.072 C 
BRANCH   5   6
ATOM      6  C   UNL     1     -19.567 -68.127  60.491  1.00  0.00     0.224 C 
ATOM      7  O   UNL     1     -19.306 -67.744  61.620  1.00  0.00    -0.303 OA
ENDBRANCH   5   6
ENDBRANCH   1   5
TORSDOF 4
ENDMDL
MODEL 8
REMARK VINA RESULT:    -2.621     14.188     15.149
REMARK INTER + INTRA:          -3.277
REMARK INTER:                  -3.166
REMARK INTRA:                  -0.111
REMARK UNBOUND:                -0.044
REMARK SMILES CCCCCC=O
REMARK SMILES IDX 4 1 3 2 2 3 1 4 5 5 6 6 7 7
REMARK H PARENT
REMARK Flexibility Score: inf
ROOT
ATOM      1  C   UNL     1     -31.139 -52.618  68.295  1.00  0.00     0.008 C 
ENDROOT
BRANCH   1   2
ATOM      2  C   UNL     1     -32.356 -51.701  68.490  1.00  0.00     0.000 C 
BRANCH   2   3
ATOM      3  C   UNL     1     -31.968 -50.307  69.010  1.00  0.00    -0.003 C 
ATOM      4  C   UNL     1     -31.519 -49.364  67.893  1.00  0.00     0.004 C 
ENDBRANCH   2   3
ENDBRANCH   1   2
BRANCH   1   5
ATOM      5  C   UNL     1     -31.161 -53.270  66.908  1.00  0.00     0.072 C 
BRANCH   5   6
ATOM      6  C   UNL     1     -31.130 -54.767  67.010  1.00  0.00     0.224 C 
ATOM      7  O   UNL     1     -31.859 -55.337  67.806  1.00  0.00    -0.303 OA
ENDBRANCH   5   6
ENDBRANCH   1   5
TORSDOF 4
ENDMDL
