MODEL 1
REMARK VINA RESULT:    -4.659      0.000      0.000
REMARK INTER + INTRA:          -7.269
REMARK INTER:                  -5.748
REMARK INTRA:                  -1.520
REMARK UNBOUND:                -1.520
REMARK SMILES CC(C)=CCC[C@@H](C)[C@@H]1C=CC(C)=CC1
REMARK SMILES IDX 6 1 7 2 8 3 9 4 13 5 12 6 14 7 11 8 15 9 10 10 5 11 4 12
REMARK SMILES IDX 2 13 1 14 3 15
REMARK H PARENT
REMARK Flexibility Score: inf
ROOT
ATOM      1  C   UNL     1     140.608 139.054 130.428  1.00  0.00     0.008 C 
ENDROOT
BRANCH   1   2
ATOM      2  C   UNL     1     139.209 138.990 129.762  1.00  0.00    -0.007 C 
ATOM      3  C   UNL     1     138.979 137.627 129.075  1.00  0.00     0.008 C 
BRANCH   2   4
ATOM      4  C   UNL     1     138.093 139.343 130.794  1.00  0.00     0.018 C 
ATOM      5  C   UNL     1     135.761 139.688 134.445  1.00  0.00     0.044 C 
ATOM      6  C   UNL     1     136.656 139.438 133.267  1.00  0.00    -0.055 C 
ATOM      7  C   UNL     1     136.377 138.448 132.403  1.00  0.00    -0.023 C 
ATOM      8  C   UNL     1     137.884 140.245 133.091  1.00  0.00    -0.001 C 
ATOM      9  C   UNL     1     137.345 138.088 131.306  1.00  0.00     0.035 C 
ATOM     10  C   UNL     1     138.593 140.174 131.959  1.00  0.00    -0.023 C 
ENDBRANCH   2   4
ENDBRANCH   1   2
BRANCH   1  11
ATOM     11  C   UNL     1     141.144 137.672 130.833  1.00  0.00     0.027 C 
BRANCH  11  12
ATOM     12  C   UNL     1     140.884 137.392 132.295  1.00  0.00    -0.028 C 
ATOM     13  C   UNL     1     140.311 136.249 132.732  1.00  0.00    -0.080 C 
ATOM     14  C   UNL     1     140.080 136.036 134.206  1.00  0.00     0.039 C 
ATOM     15  C   UNL     1     139.887 135.160 131.779  1.00  0.00     0.039 C 
ENDBRANCH  11  12
ENDBRANCH   1  11
TORSDOF 4
ENDMDL
MODEL 2
REMARK VINA RESULT:    -4.651      2.842      4.577
REMARK INTER + INTRA:          -7.259
REMARK INTER:                  -5.734
REMARK INTRA:                  -1.525
REMARK UNBOUND:                -1.520
REMARK SMILES CC(C)=CCC[C@@H](C)[C@@H]1C=CC(C)=CC1
REMARK SMILES IDX 6 1 7 2 8 3 9 4 13 5 12 6 14 7 11 8 15 9 10 10 5 11 4 12
REMARK SMILES IDX 2 13 1 14 3 15
REMARK H PARENT
REMARK Flexibility Score: inf
ROOT
ATOM      1  C   UNL     1     134.711 140.591 130.443  1.00  0.00     0.008 C 
ENDROOT
BRANCH   1   2
ATOM      2  C   UNL     1     134.799 139.195 129.773  1.00  0.00    -0.007 C 
ATOM      3  C   UNL     1     136.166 138.990 129.087  1.00  0.00     0.008 C 
BRANCH   2   4
ATOM      4  C   UNL     1     134.461 138.070 130.799  1.00  0.00     0.018 C 
ATOM      5  C   UNL     1     134.135 135.727 134.446  1.00  0.00     0.044 C 
ATOM      6  C   UNL     1     134.376 136.629 133.271  1.00  0.00    -0.055 C 
ATOM      7  C   UNL     1     135.381 136.375 132.418  1.00  0.00    -0.023 C 
ATOM      8  C   UNL     1     133.541 137.838 133.087  1.00  0.00    -0.001 C 
ATOM      9  C   UNL     1     135.728 137.352 131.325  1.00  0.00     0.035 C 
ATOM     10  C   UNL     1     133.607 138.549 131.956  1.00  0.00    -0.023 C 
ENDBRANCH   2   4
ENDBRANCH   1   2
BRANCH   1  11
ATOM     11  C   UNL     1     136.083 141.146 130.855  1.00  0.00     0.027 C 
BRANCH  11  12
ATOM     12  C   UNL     1     136.362 140.885 132.316  1.00  0.00    -0.028 C 
ATOM     13  C   UNL     1     137.511 140.324 132.755  1.00  0.00    -0.080 C 
ATOM     14  C   UNL     1     137.722 140.091 134.229  1.00  0.00     0.039 C 
ATOM     15  C   UNL     1     138.608 139.916 131.804  1.00  0.00     0.039 C 
ENDBRANCH  11  12
ENDBRANCH   1  11
TORSDOF 4
ENDMDL
MODEL 3
REMARK VINA RESULT:    -4.650      3.876      6.509
REMARK INTER + INTRA:          -7.257
REMARK INTER:                  -5.707
REMARK INTRA:                  -1.550
REMARK UNBOUND:                -1.520
REMARK SMILES CC(C)=CCC[C@@H](C)[C@@H]1C=CC(C)=CC1
REMARK SMILES IDX 6 1 7 2 8 3 9 4 13 5 12 6 14 7 11 8 15 9 10 10 5 11 4 12
REMARK SMILES IDX 2 13 1 14 3 15
REMARK H PARENT
REMARK Flexibility Score: inf
ROOT
ATOM      1  C   UNL     1     133.033 134.775 130.494  1.00  0.00     0.008 C 
ENDROOT
BRANCH   1   2
ATOM      2  C   UNL     1     134.422 134.830 129.804  1.00  0.00    -0.007 C 
ATOM      3  C   UNL     1     134.647 136.189 129.109  1.00  0.00     0.008 C 
BRANCH   2   4
ATOM      4  C   UNL     1     135.553 134.473 130.817  1.00  0.00     0.018 C 
ATOM      5  C   UNL     1     137.941 134.118 134.431  1.00  0.00     0.044 C 
ATOM      6  C   UNL     1     137.029 134.371 133.268  1.00  0.00    -0.055 C 
ATOM      7  C   UNL     1     137.295 135.363 132.402  1.00  0.00    -0.023 C 
ATOM      8  C   UNL     1     135.796 133.566 133.109  1.00  0.00    -0.001 C 
ATOM      9  C   UNL     1     136.311 135.725 131.321  1.00  0.00     0.035 C 
ATOM     10  C   UNL     1     135.070 133.640 131.989  1.00  0.00    -0.023 C 
ENDBRANCH   2   4
ENDBRANCH   1   2
BRANCH   1  11
ATOM     11  C   UNL     1     132.510 136.162 130.899  1.00  0.00     0.027 C 
BRANCH  11  12
ATOM     12  C   UNL     1     132.768 136.439 132.361  1.00  0.00    -0.028 C 
ATOM     13  C   UNL     1     133.394 137.554 132.798  1.00  0.00    -0.080 C 
ATOM     14  C   UNL     1     133.620 137.765 134.273  1.00  0.00     0.039 C 
ATOM     15  C   UNL     1     133.883 138.614 131.843  1.00  0.00     0.039 C 
ENDBRANCH  11  12
ENDBRANCH   1  11
TORSDOF 4
ENDMDL
MODEL 4
REMARK VINA RESULT:    -4.602      2.889      4.616
REMARK INTER + INTRA:          -7.199
REMARK INTER:                  -5.669
REMARK INTRA:                  -1.530
REMARK UNBOUND:                -1.520
REMARK SMILES CC(C)=CCC[C@@H](C)[C@@H]1C=CC(C)=CC1
REMARK SMILES IDX 6 1 7 2 8 3 9 4 13 5 12 6 14 7 11 8 15 9 10 10 5 11 4 12
REMARK SMILES IDX 2 13 1 14 3 15
REMARK H PARENT
REMARK Flexibility Score: inf
ROOT
ATOM      1  C   UNL     1     138.968 133.086 130.459  1.00  0.00     0.008 C 
ENDROOT
BRANCH   1   2
ATOM      2  C   UNL     1     138.884 134.468 129.760  1.00  0.00    -0.007 C 
ATOM      3  C   UNL     1     137.510 134.671 129.086  1.00  0.00     0.008 C 
BRANCH   2   4
ATOM      4  C   UNL     1     139.243 135.613 130.758  1.00  0.00     0.018 C 
ATOM      5  C   UNL     1     139.641 138.026 134.351  1.00  0.00     0.044 C 
ATOM      6  C   UNL     1     139.376 137.102 133.199  1.00  0.00    -0.055 C 
ATOM      7  C   UNL     1     138.357 137.343 132.358  1.00  0.00    -0.023 C 
ATOM      8  C   UNL     1     140.204 135.886 133.025  1.00  0.00    -0.001 C 
ATOM      9  C   UNL     1     137.987 136.346 131.291  1.00  0.00     0.035 C 
ATOM     10  C   UNL     1     140.116 135.153 131.909  1.00  0.00    -0.023 C 
ENDBRANCH   2   4
ENDBRANCH   1   2
BRANCH   1  11
ATOM     11  C   UNL     1     137.597 132.553 130.902  1.00  0.00     0.027 C 
BRANCH  11  12
ATOM     12  C   UNL     1     137.340 132.847 132.361  1.00  0.00    -0.028 C 
ATOM     13  C   UNL     1     136.205 133.432 132.803  1.00  0.00    -0.080 C 
ATOM     14  C   UNL     1     136.016 133.697 134.275  1.00  0.00     0.039 C 
ATOM     15  C   UNL     1     135.101 133.836 131.858  1.00  0.00     0.039 C 
ENDBRANCH  11  12
ENDBRANCH   1  11
TORSDOF 4
ENDMDL
MODEL 5
REMARK VINA RESULT:    -4.528      2.792      4.793
REMARK INTER + INTRA:          -7.107
REMARK INTER:                  -6.125
REMARK INTRA:                  -0.982
REMARK UNBOUND:                -1.520
REMARK SMILES CC(C)=CCC[C@@H](C)[C@@H]1C=CC(C)=CC1
REMARK SMILES IDX 6 1 7 2 8 3 9 4 13 5 12 6 14 7 11 8 15 9 10 10 5 11 4 12
REMARK SMILES IDX 2 13 1 14 3 15
REMARK H PARENT
REMARK Flexibility Score: inf
ROOT
ATOM      1  C   UNL     1     136.331 140.028 132.735  1.00  0.00     0.008 C 
ENDROOT
BRANCH   1   2
ATOM      2  C   UNL     1     135.056 139.873 131.866  1.00  0.00    -0.007 C 
ATOM      3  C   UNL     1     135.159 140.703 130.569  1.00  0.00     0.008 C 
BRANCH   2   4
ATOM      4  C   UNL     1     134.753 138.366 131.598  1.00  0.00     0.018 C 
ATOM      5  C   UNL     1     132.956 134.673 130.177  1.00  0.00     0.044 C 
ATOM      6  C   UNL     1     133.423 136.028 130.621  1.00  0.00    -0.055 C 
ATOM      7  C   UNL     1     133.083 136.498 131.832  1.00  0.00    -0.023 C 
ATOM      8  C   UNL     1     134.209 136.875 129.696  1.00  0.00    -0.001 C 
ATOM      9  C   UNL     1     133.415 137.912 132.230  1.00  0.00     0.035 C 
ATOM     10  C   UNL     1     134.796 137.997 130.128  1.00  0.00    -0.023 C 
ENDBRANCH   2   4
ENDBRANCH   1   2
BRANCH   1  11
ATOM     11  C   UNL     1     137.471 140.755 132.004  1.00  0.00     0.027 C 
BRANCH  11  12
ATOM     12  C   UNL     1     138.734 139.927 131.999  1.00  0.00    -0.028 C 
ATOM     13  C   UNL     1     139.134 139.205 130.929  1.00  0.00    -0.080 C 
ATOM     14  C   UNL     1     140.406 138.400 130.994  1.00  0.00     0.039 C 
ATOM     15  C   UNL     1     138.337 139.177 129.649  1.00  0.00     0.039 C 
ENDBRANCH  11  12
ENDBRANCH   1  11
TORSDOF 4
ENDMDL
MODEL 6
REMARK VINA RESULT:    -4.500      1.744      2.820
REMARK INTER + INTRA:          -7.072
REMARK INTER:                  -6.074
REMARK INTRA:                  -0.998
REMARK UNBOUND:                -1.520
REMARK SMILES CC(C)=CCC[C@@H](C)[C@@H]1C=CC(C)=CC1
REMARK SMILES IDX 6 1 7 2 8 3 9 4 13 5 12 6 14 7 11 8 15 9 10 10 5 11 4 12
REMARK SMILES IDX 2 13 1 14 3 15
REMARK H PARENT
REMARK Flexibility Score: inf
ROOT
ATOM      1  C   UNL     1     139.978 137.725 132.661  1.00  0.00     0.008 C 
ENDROOT
BRANCH   1   2
ATOM      2  C   UNL     1     139.751 138.961 131.752  1.00  0.00    -0.007 C 
ATOM      3  C   UNL     1     140.627 138.890 130.484  1.00  0.00     0.008 C 
BRANCH   2   4
ATOM      4  C   UNL     1     138.235 139.137 131.432  1.00  0.00     0.018 C 
ATOM      5  C   UNL     1     134.445 140.681 129.969  1.00  0.00     0.044 C 
ATOM      6  C   UNL     1     135.819 140.312 130.444  1.00  0.00    -0.055 C 
ATOM      7  C   UNL     1     136.200 140.594 131.700  1.00  0.00    -0.023 C 
ATOM      8  C   UNL     1     136.780 139.690 129.505  1.00  0.00    -0.001 C 
ATOM      9  C   UNL     1     137.621 140.368 132.143  1.00  0.00     0.035 C 
ATOM     10  C   UNL     1     137.936 139.181 129.947  1.00  0.00    -0.023 C 
ENDBRANCH   2   4
ENDBRANCH   1   2
BRANCH   1  11
ATOM     11  C   UNL     1     140.756 136.600 131.961  1.00  0.00     0.027 C 
BRANCH  11  12
ATOM     12  C   UNL     1     139.987 135.300 131.994  1.00  0.00    -0.028 C 
ATOM     13  C   UNL     1     139.260 134.850 130.948  1.00  0.00    -0.080 C 
ATOM     14  C   UNL     1     138.517 133.543 131.052  1.00  0.00     0.039 C 
ATOM     15  C   UNL     1     139.167 135.623 129.657  1.00  0.00     0.039 C 
ENDBRANCH  11  12
ENDBRANCH   1  11
TORSDOF 4
ENDMDL
MODEL 7
REMARK VINA RESULT:    -4.473      4.221      6.258
REMARK INTER + INTRA:          -7.039
REMARK INTER:                  -5.546
REMARK INTRA:                  -1.493
REMARK UNBOUND:                -1.520
REMARK SMILES CC(C)=CCC[C@@H](C)[C@@H]1C=CC(C)=CC1
REMARK SMILES IDX 6 1 7 2 8 3 9 4 13 5 12 6 14 7 11 8 15 9 10 10 5 11 4 12
REMARK SMILES IDX 2 13 1 14 3 15
REMARK H PARENT
REMARK Flexibility Score: inf
ROOT
ATOM      1  C   UNL     1     133.565 136.117 128.182  1.00  0.00     0.008 C 
ENDROOT
BRANCH   1   2
ATOM      2  C   UNL     1     133.943 134.771 128.855  1.00  0.00    -0.007 C 
ATOM      3  C   UNL     1     135.388 134.359 128.506  1.00  0.00     0.008 C 
BRANCH   2   4
ATOM      4  C   UNL     1     133.686 134.835 130.393  1.00  0.00     0.018 C 
ATOM      5  C   UNL     1     133.564 136.129 134.540  1.00  0.00     0.044 C 
ATOM      6  C   UNL     1     133.731 135.808 133.084  1.00  0.00    -0.055 C 
ATOM      7  C   UNL     1     134.726 135.002 132.678  1.00  0.00    -0.023 C 
ATOM      8  C   UNL     1     132.834 136.431 132.084  1.00  0.00    -0.001 C 
ATOM      9  C   UNL     1     134.999 134.793 131.212  1.00  0.00     0.035 C 
ATOM     10  C   UNL     1     132.838 136.019 130.812  1.00  0.00    -0.023 C 
ENDBRANCH   2   4
ENDBRANCH   1   2
BRANCH   1  11
ATOM     11  C   UNL     1     134.760 137.072 128.038  1.00  0.00     0.027 C 
BRANCH  11  12
ATOM     12  C   UNL     1     134.396 138.472 128.471  1.00  0.00    -0.028 C 
ATOM     13  C   UNL     1     134.861 139.033 129.610  1.00  0.00    -0.080 C 
ATOM     14  C   UNL     1     134.455 140.436 129.981  1.00  0.00     0.039 C 
ATOM     15  C   UNL     1     135.789 138.289 130.537  1.00  0.00     0.039 C 
ENDBRANCH  11  12
ENDBRANCH   1  11
TORSDOF 4
ENDMDL
MODEL 8
REMARK VINA RESULT:    -4.453      1.223      4.463
REMARK INTER + INTRA:          -7.014
REMARK INTER:                  -5.487
REMARK INTRA:                  -1.527
REMARK UNBOUND:                -1.520
REMARK SMILES CC(C)=CCC[C@@H](C)[C@@H]1C=CC(C)=CC1
REMARK SMILES IDX 6 1 7 2 8 3 9 4 13 5 12 6 14 7 11 8 15 9 10 10 5 11 4 12
REMARK SMILES IDX 2 13 1 14 3 15
REMARK H PARENT
REMARK Flexibility Score: inf
ROOT
ATOM      1  C   UNL     1     140.379 136.933 133.689  1.00  0.00     0.008 C 
ENDROOT
BRANCH   1   2
ATOM      2  C   UNL     1     140.249 135.928 132.515  1.00  0.00    -0.007 C 
ATOM      3  C   UNL     1     138.951 135.101 132.628  1.00  0.00     0.008 C 
BRANCH   2   4
ATOM      4  C   UNL     1     140.381 136.662 131.145  1.00  0.00     0.018 C 
ATOM      5  C   UNL     1     139.980 139.539 127.912  1.00  0.00     0.044 C 
ATOM      6  C   UNL     1     139.975 138.625 129.101  1.00  0.00    -0.055 C 
ATOM      7  C   UNL     1     139.167 137.552 129.127  1.00  0.00    -0.023 C 
ATOM      8  C   UNL     1     140.817 138.941 130.277  1.00  0.00    -0.001 C 
ATOM      9  C   UNL     1     139.040 136.713 130.371  1.00  0.00     0.035 C 
ATOM     10  C   UNL     1     140.976 138.051 131.263  1.00  0.00    -0.023 C 
ENDBRANCH   2   4
ENDBRANCH   1   2
BRANCH   1  11
ATOM     11  C   UNL     1     139.025 137.497 134.148  1.00  0.00     0.027 C 
BRANCH  11  12
ATOM     12  C   UNL     1     138.855 138.933 133.713  1.00  0.00    -0.028 C 
ATOM     13  C   UNL     1     137.857 139.340 132.898  1.00  0.00    -0.080 C 
ATOM     14  C   UNL     1     137.748 140.790 132.503  1.00  0.00     0.039 C 
ATOM     15  C   UNL     1     136.829 138.376 132.361  1.00  0.00     0.039 C 
ENDBRANCH  11  12
ENDBRANCH   1  11
TORSDOF 4
ENDMDL
MODEL 9
REMARK VINA RESULT:    -4.418      1.750      3.317
REMARK INTER + INTRA:          -6.971
REMARK INTER:                  -5.489
REMARK INTRA:                  -1.483
REMARK UNBOUND:                -1.520
REMARK SMILES CC(C)=CCC[C@@H](C)[C@@H]1C=CC(C)=CC1
REMARK SMILES IDX 6 1 7 2 8 3 9 4 13 5 12 6 14 7 11 8 15 9 10 10 5 11 4 12
REMARK SMILES IDX 2 13 1 14 3 15
REMARK H PARENT
REMARK Flexibility Score: inf
ROOT
ATOM      1  C   UNL     1     140.078 137.603 128.418  1.00  0.00     0.008 C 
ENDROOT
BRANCH   1   2
ATOM      2  C   UNL     1     139.640 138.936 129.079  1.00  0.00    -0.007 C 
ATOM      3  C   UNL     1     138.169 139.267 128.748  1.00  0.00     0.008 C 
BRANCH   2   4
ATOM      4  C   UNL     1     139.925 138.911 130.612  1.00  0.00     0.018 C 
ATOM      5  C   UNL     1     140.129 137.715 134.786  1.00  0.00     0.044 C 
ATOM      6  C   UNL     1     139.933 138.001 133.326  1.00  0.00    -0.055 C 
ATOM      7  C   UNL     1     138.927 138.792 132.920  1.00  0.00    -0.023 C 
ATOM      8  C   UNL     1     140.815 137.358 132.325  1.00  0.00    -0.001 C 
ATOM      9  C   UNL     1     138.627 138.965 131.454  1.00  0.00     0.035 C 
ATOM     10  C   UNL     1     140.786 137.740 131.043  1.00  0.00    -0.023 C 
ENDBRANCH   2   4
ENDBRANCH   1   2
BRANCH   1  11
ATOM     11  C   UNL     1     138.910 136.627 128.207  1.00  0.00     0.027 C 
BRANCH  11  12
ATOM     12  C   UNL     1     139.284 135.226 128.629  1.00  0.00    -0.028 C 
ATOM     13  C   UNL     1     138.858 134.669 129.785  1.00  0.00    -0.080 C 
ATOM     14  C   UNL     1     139.272 133.265 130.144  1.00  0.00     0.039 C 
ATOM     15  C   UNL     1     137.966 135.418 130.744  1.00  0.00     0.039 C 
ENDBRANCH  11  12
ENDBRANCH   1  11
TORSDOF 4
ENDMDL
