MODEL 1
REMARK VINA RESULT:    -3.280      0.000      0.000
REMARK INTER + INTRA:          -3.992
REMARK INTER:                  -3.856
REMARK INTRA:                  -0.136
REMARK UNBOUND:                -0.136
REMARK SMILES CCCCC(=O)[O-]
REMARK SMILES IDX 4 1 5 2 6 3 7 4 3 5 2 6 1 7
REMARK H PARENT
REMARK Flexibility Score: inf
ROOT
ATOM      1  C   UNL     1      60.425  29.871   9.968  1.00  0.00     0.053 C 
ENDROOT
BRANCH   1   2
ATOM      2  C   UNL     1      61.438  28.820   9.638  1.00  0.00     0.041 C 
ATOM      3  O   UNL     1      61.116  27.830   8.929  1.00  0.00    -0.550 OA
ATOM      4  O   UNL     1      62.750  28.958  10.072  1.00  0.00    -0.550 OA
ENDBRANCH   1   2
BRANCH   1   5
ATOM      5  C   UNL     1      60.429  30.166  11.471  1.00  0.00     0.006 C 
BRANCH   5   6
ATOM      6  C   UNL     1      59.994  28.934  12.273  1.00  0.00    -0.003 C 
ATOM      7  C   UNL     1      61.018  28.590  13.351  1.00  0.00     0.004 C 
ENDBRANCH   5   6
ENDBRANCH   1   5
TORSDOF 3
ENDMDL
MODEL 2
REMARK VINA RESULT:    -3.275      0.645      1.528
REMARK INTER + INTRA:          -3.985
REMARK INTER:                  -3.871
REMARK INTRA:                  -0.114
REMARK UNBOUND:                -0.136
REMARK SMILES CCCCC(=O)[O-]
REMARK SMILES IDX 4 1 5 2 6 3 7 4 3 5 2 6 1 7
REMARK H PARENT
REMARK Flexibility Score: inf
ROOT
ATOM      1  C   UNL     1      60.981  29.832  10.960  1.00  0.00     0.053 C 
ENDROOT
BRANCH   1   2
ATOM      2  C   UNL     1      61.766  28.946  10.045  1.00  0.00     0.041 C 
ATOM      3  O   UNL     1      63.023  29.018  10.017  1.00  0.00    -0.550 OA
ATOM      4  O   UNL     1      61.112  28.007   9.258  1.00  0.00    -0.550 OA
ENDBRANCH   1   2
BRANCH   1   5
ATOM      5  C   UNL     1      60.023  29.002  11.819  1.00  0.00     0.006 C 
BRANCH   5   6
ATOM      6  C   UNL     1      60.752  28.394  13.023  1.00  0.00    -0.003 C 
ATOM      7  C   UNL     1      61.602  29.441  13.739  1.00  0.00     0.004 C 
ENDBRANCH   5   6
ENDBRANCH   1   5
TORSDOF 3
ENDMDL
MODEL 3
REMARK VINA RESULT:    -3.227     15.167     16.658
REMARK INTER + INTRA:          -3.929
REMARK INTER:                  -3.827
REMARK INTRA:                  -0.102
REMARK UNBOUND:                -0.136
REMARK SMILES CCCCC(=O)[O-]
REMARK SMILES IDX 4 1 5 2 6 3 7 4 3 5 2 6 1 7
REMARK H PARENT
REMARK Flexibility Score: inf
ROOT
ATOM      1  C   UNL     1      62.378  27.841  27.355  1.00  0.00     0.053 C 
ENDROOT
BRANCH   1   2
ATOM      2  C   UNL     1      61.980  28.986  28.233  1.00  0.00     0.041 C 
ATOM      3  O   UNL     1      62.591  30.085  28.156  1.00  0.00    -0.550 OA
ATOM      4  O   UNL     1      60.904  28.856  29.101  1.00  0.00    -0.550 OA
ENDBRANCH   1   2
BRANCH   1   5
ATOM      5  C   UNL     1      61.143  27.206  26.710  1.00  0.00     0.006 C 
BRANCH   5   6
ATOM      6  C   UNL     1      60.747  27.952  25.430  1.00  0.00    -0.003 C 
ATOM      7  C   UNL     1      61.975  28.307  24.597  1.00  0.00     0.004 C 
ENDBRANCH   5   6
ENDBRANCH   1   5
TORSDOF 3
ENDMDL
MODEL 4
REMARK VINA RESULT:    -3.195     15.300     16.363
REMARK INTER + INTRA:          -3.892
REMARK INTER:                  -3.805
REMARK INTRA:                  -0.087
REMARK UNBOUND:                -0.136
REMARK SMILES CCCCC(=O)[O-]
REMARK SMILES IDX 4 1 5 2 6 3 7 4 3 5 2 6 1 7
REMARK H PARENT
REMARK Flexibility Score: inf
ROOT
ATOM      1  C   UNL     1      62.959  28.752  26.834  1.00  0.00     0.053 C 
ENDROOT
BRANCH   1   2
ATOM      2  C   UNL     1      62.391  29.432  28.040  1.00  0.00     0.041 C 
ATOM      3  O   UNL     1      62.915  30.492  28.476  1.00  0.00    -0.550 OA
ATOM      4  O   UNL     1      61.253  28.924  28.653  1.00  0.00    -0.550 OA
ENDBRANCH   1   2
BRANCH   1   5
ATOM      5  C   UNL     1      62.431  29.402  25.553  1.00  0.00     0.006 C 
BRANCH   5   6
ATOM      6  C   UNL     1      61.780  28.359  24.636  1.00  0.00    -0.003 C 
ATOM      7  C   UNL     1      60.521  27.776  25.272  1.00  0.00     0.004 C 
ENDBRANCH   5   6
ENDBRANCH   1   5
TORSDOF 3
ENDMDL
MODEL 5
REMARK VINA RESULT:    -3.133      2.222      3.413
REMARK INTER + INTRA:          -3.819
REMARK INTER:                  -3.696
REMARK INTRA:                  -0.123
REMARK UNBOUND:                -0.136
REMARK SMILES CCCCC(=O)[O-]
REMARK SMILES IDX 4 1 5 2 6 3 7 4 3 5 2 6 1 7
REMARK H PARENT
REMARK Flexibility Score: inf
ROOT
ATOM      1  C   UNL     1      60.414  30.051  11.675  1.00  0.00     0.053 C 
ENDROOT
BRANCH   1   2
ATOM      2  C   UNL     1      60.233  28.905  12.620  1.00  0.00     0.041 C 
ATOM      3  O   UNL     1      61.148  28.601  13.430  1.00  0.00    -0.550 OA
ATOM      4  O   UNL     1      59.035  28.203  12.640  1.00  0.00    -0.550 OA
ENDBRANCH   1   2
BRANCH   1   5
ATOM      5  C   UNL     1      60.270  29.579  10.225  1.00  0.00     0.006 C 
BRANCH   5   6
ATOM      6  C   UNL     1      61.364  28.566   9.867  1.00  0.00    -0.003 C 
ATOM      7  C   UNL     1      62.716  29.253   9.696  1.00  0.00     0.004 C 
ENDBRANCH   5   6
ENDBRANCH   1   5
TORSDOF 3
ENDMDL
MODEL 6
REMARK VINA RESULT:    -3.083     14.850     16.104
REMARK INTER + INTRA:          -3.760
REMARK INTER:                  -3.744
REMARK INTRA:                  -0.016
REMARK UNBOUND:                -0.136
REMARK SMILES CCCCC(=O)[O-]
REMARK SMILES IDX 4 1 5 2 6 3 7 4 3 5 2 6 1 7
REMARK H PARENT
REMARK Flexibility Score: inf
ROOT
ATOM      1  C   UNL     1      63.327  27.419  26.530  1.00  0.00     0.053 C 
ENDROOT
BRANCH   1   2
ATOM      2  C   UNL     1      62.007  27.118  27.167  1.00  0.00     0.041 C 
ATOM      3  O   UNL     1      60.965  27.048  26.463  1.00  0.00    -0.550 OA
ATOM      4  O   UNL     1      61.934  26.868  28.531  1.00  0.00    -0.550 OA
ENDBRANCH   1   2
BRANCH   1   5
ATOM      5  C   UNL     1      63.731  26.291  25.576  1.00  0.00     0.006 C 
BRANCH   5   6
ATOM      6  C   UNL     1      65.221  26.377  25.224  1.00  0.00    -0.003 C 
ATOM      7  C   UNL     1      65.475  25.921  23.790  1.00  0.00     0.004 C 
ENDBRANCH   5   6
ENDBRANCH   1   5
TORSDOF 3
ENDMDL
MODEL 7
REMARK VINA RESULT:    -3.055     14.521     15.416
REMARK INTER + INTRA:          -3.726
REMARK INTER:                  -3.648
REMARK INTRA:                  -0.078
REMARK UNBOUND:                -0.136
REMARK SMILES CCCCC(=O)[O-]
REMARK SMILES IDX 4 1 5 2 6 3 7 4 3 5 2 6 1 7
REMARK H PARENT
REMARK Flexibility Score: inf
ROOT
ATOM      1  C   UNL     1      62.253  27.866  25.251  1.00  0.00     0.053 C 
ENDROOT
BRANCH   1   2
ATOM      2  C   UNL     1      61.031  27.337  25.934  1.00  0.00     0.041 C 
ATOM      3  O   UNL     1      59.974  27.138  25.278  1.00  0.00    -0.550 OA
ATOM      4  O   UNL     1      61.073  27.017  27.284  1.00  0.00    -0.550 OA
ENDBRANCH   1   2
BRANCH   1   5
ATOM      5  C   UNL     1      62.144  29.381  25.057  1.00  0.00     0.006 C 
BRANCH   5   6
ATOM      6  C   UNL     1      63.295  30.109  25.761  1.00  0.00    -0.003 C 
ATOM      7  C   UNL     1      63.143  30.041  27.278  1.00  0.00     0.004 C 
ENDBRANCH   5   6
ENDBRANCH   1   5
TORSDOF 3
ENDMDL
MODEL 8
REMARK VINA RESULT:    -3.022      1.799      2.230
REMARK INTER + INTRA:          -3.689
REMARK INTER:                  -3.661
REMARK INTRA:                  -0.028
REMARK UNBOUND:                -0.136
REMARK SMILES CCCCC(=O)[O-]
REMARK SMILES IDX 4 1 5 2 6 3 7 4 3 5 2 6 1 7
REMARK H PARENT
REMARK Flexibility Score: inf
ROOT
ATOM      1  C   UNL     1      62.223  29.288  11.201  1.00  0.00     0.053 C 
ENDROOT
BRANCH   1   2
ATOM      2  C   UNL     1      63.432  29.542  10.357  1.00  0.00     0.041 C 
ATOM      3  O   UNL     1      63.574  28.946   9.256  1.00  0.00    -0.550 OA
ATOM      4  O   UNL     1      64.379  30.473  10.762  1.00  0.00    -0.550 OA
ENDBRANCH   1   2
BRANCH   1   5
ATOM      5  C   UNL     1      62.623  29.089  12.665  1.00  0.00     0.006 C 
BRANCH   5   6
ATOM      6  C   UNL     1      61.388  29.067  13.573  1.00  0.00    -0.003 C 
ATOM      7  C   UNL     1      60.274  28.217  12.968  1.00  0.00     0.004 C 
ENDBRANCH   5   6
ENDBRANCH   1   5
TORSDOF 3
ENDMDL
MODEL 9
REMARK VINA RESULT:    -2.983      2.737      3.609
REMARK INTER + INTRA:          -3.643
REMARK INTER:                  -3.533
REMARK INTRA:                  -0.110
REMARK UNBOUND:                -0.136
REMARK SMILES CCCCC(=O)[O-]
REMARK SMILES IDX 4 1 5 2 6 3 7 4 3 5 2 6 1 7
REMARK H PARENT
REMARK Flexibility Score: inf
ROOT
ATOM      1  C   UNL     1      61.648  29.147  13.346  1.00  0.00     0.053 C 
ENDROOT
BRANCH   1   2
ATOM      2  C   UNL     1      60.375  28.786  12.648  1.00  0.00     0.041 C 
ATOM      3  O   UNL     1      59.638  27.872  13.105  1.00  0.00    -0.550 OA
ATOM      4  O   UNL     1      59.977  29.491  11.520  1.00  0.00    -0.550 OA
ENDBRANCH   1   2
BRANCH   1   5
ATOM      5  C   UNL     1      61.477  30.448  14.135  1.00  0.00     0.006 C 
BRANCH   5   6
ATOM      6  C   UNL     1      62.111  31.629  13.390  1.00  0.00    -0.003 C 
ATOM      7  C   UNL     1      61.055  32.648  12.972  1.00  0.00     0.004 C 
ENDBRANCH   5   6
ENDBRANCH   1   5
TORSDOF 3
ENDMDL
