MODEL 1
REMARK VINA RESULT:    -3.872      0.000      0.000
REMARK INTER + INTRA:          -8.286
REMARK INTER:                  -7.267
REMARK INTRA:                  -1.018
REMARK UNBOUND:                -1.018
REMARK SMILES O=C([O-])CCCCCCCCCCCCCCC(=O)[O-]
REMARK SMILES IDX 10 1 9 2 8 3 7 4 6 5 5 6 4 7 2 8 1 9 3 10 11 11 12 12 13 13
REMARK SMILES IDX 14 14 15 15 16 16 17 17 18 18 19 19 20 20
REMARK H PARENT
REMARK Flexibility Score: inf
ROOT
ATOM      1  C   UNL     1     -16.389  -4.221  -2.253  1.00  0.00     0.000 C 
ENDROOT
BRANCH   1   2
ATOM      2  C   UNL     1     -15.161  -5.119  -2.461  1.00  0.00     0.000 C 
BRANCH   2   3
ATOM      3  C   UNL     1     -13.837  -4.348  -2.328  1.00  0.00     0.000 C 
BRANCH   3   4
ATOM      4  C   UNL     1     -13.374  -3.816  -3.690  1.00  0.00     0.000 C 
BRANCH   4   5
ATOM      5  C   UNL     1     -13.003  -4.970  -4.633  1.00  0.00     0.000 C 
BRANCH   5   6
ATOM      6  C   UNL     1     -13.679  -4.855  -6.012  1.00  0.00     0.006 C 
BRANCH   6   7
ATOM      7  C   UNL     1     -14.993  -4.057  -6.007  1.00  0.00     0.053 C 
BRANCH   7   8
ATOM      8  C   UNL     1     -15.733  -4.187  -7.304  1.00  0.00     0.041 C 
ATOM      9  O   UNL     1     -15.146  -4.628  -8.326  1.00  0.00    -0.550 OA
ATOM     10  O   UNL     1     -17.062  -3.790  -7.388  1.00  0.00    -0.550 OA
ENDBRANCH   7   8
ENDBRANCH   6   7
ENDBRANCH   5   6
ENDBRANCH   4   5
ENDBRANCH   3   4
ENDBRANCH   2   3
ENDBRANCH   1   2
BRANCH   1  11
ATOM     11  C   UNL     1     -16.047  -2.723  -2.334  1.00  0.00     0.000 C 
BRANCH  11  12
ATOM     12  C   UNL     1     -16.850  -1.988  -3.419  1.00  0.00     0.000 C 
BRANCH  12  13
ATOM     13  C   UNL     1     -17.125  -0.518  -3.056  1.00  0.00     0.000 C 
BRANCH  13  14
ATOM     14  C   UNL     1     -17.124  -0.276  -1.537  1.00  0.00     0.000 C 
BRANCH  14  15
ATOM     15  C   UNL     1     -15.894   0.521  -1.068  1.00  0.00     0.000 C 
BRANCH  15  16
ATOM     16  C   UNL     1     -15.985   0.940   0.411  1.00  0.00     0.006 C 
BRANCH  16  17
ATOM     17  C   UNL     1     -16.732  -0.059   1.309  1.00  0.00     0.053 C 
BRANCH  17  18
ATOM     18  C   UNL     1     -15.903  -0.489   2.480  1.00  0.00     0.041 C 
ATOM     19  O   UNL     1     -16.449  -0.749   3.584  1.00  0.00    -0.550 OA
ATOM     20  O   UNL     1     -14.522  -0.572   2.360  1.00  0.00    -0.550 OA
ENDBRANCH  17  18
ENDBRANCH  16  17
ENDBRANCH  15  16
ENDBRANCH  14  15
ENDBRANCH  13  14
ENDBRANCH  12  13
ENDBRANCH  11  12
ENDBRANCH   1  11
TORSDOF 15
ENDMDL
MODEL 2
REMARK VINA RESULT:    -2.035      1.173      8.499
REMARK INTER + INTRA:          -4.837
REMARK INTER:                  -4.894
REMARK INTRA:                   0.057
REMARK UNBOUND:                -1.018
REMARK SMILES O=C([O-])CCCCCCCCCCCCCCC(=O)[O-]
REMARK SMILES IDX 10 1 9 2 8 3 7 4 6 5 5 6 4 7 2 8 1 9 3 10 11 11 12 12 13 13
REMARK SMILES IDX 14 14 15 15 16 16 17 17 18 18 19 19 20 20
REMARK H PARENT
REMARK Flexibility Score: inf
ROOT
ATOM      1  C   UNL     1     -17.100  -2.293  -1.790  1.00  0.00     0.000 C 
ENDROOT
BRANCH   1   2
ATOM      2  C   UNL     1     -17.125  -1.018  -2.646  1.00  0.00     0.000 C 
BRANCH   2   3
ATOM      3  C   UNL     1     -16.000  -0.038  -2.277  1.00  0.00     0.000 C 
BRANCH   3   4
ATOM      4  C   UNL     1     -16.549   1.158  -1.491  1.00  0.00     0.000 C 
BRANCH   4   5
ATOM      5  C   UNL     1     -16.274   1.000   0.012  1.00  0.00     0.000 C 
BRANCH   5   6
ATOM      6  C   UNL     1     -16.787  -0.338   0.576  1.00  0.00     0.006 C 
BRANCH   6   7
ATOM      7  C   UNL     1     -15.938  -0.907   1.724  1.00  0.00     0.053 C 
BRANCH   7   8
ATOM      8  C   UNL     1     -16.570  -0.665   3.061  1.00  0.00     0.041 C 
ATOM      9  O   UNL     1     -17.125  -1.611   3.680  1.00  0.00    -0.550 OA
ATOM     10  O   UNL     1     -16.574   0.612   3.608  1.00  0.00    -0.550 OA
ENDBRANCH   7   8
ENDBRANCH   6   7
ENDBRANCH   5   6
ENDBRANCH   4   5
ENDBRANCH   3   4
ENDBRANCH   2   3
ENDBRANCH   1   2
BRANCH   1  11
ATOM     11  C   UNL     1     -16.615  -3.524  -2.577  1.00  0.00     0.000 C 
BRANCH  11  12
ATOM     12  C   UNL     1     -15.609  -4.375  -1.786  1.00  0.00     0.000 C 
BRANCH  12  13
ATOM     13  C   UNL     1     -14.160  -4.175  -2.266  1.00  0.00     0.000 C 
BRANCH  13  14
ATOM     14  C   UNL     1     -14.066  -3.988  -3.790  1.00  0.00     0.000 C 
BRANCH  14  15
ATOM     15  C   UNL     1     -15.023  -4.916  -4.558  1.00  0.00     0.000 C 
BRANCH  15  16
ATOM     16  C   UNL     1     -14.842  -4.827  -6.084  1.00  0.00     0.006 C 
BRANCH  16  17
ATOM     17  C   UNL     1     -16.146  -4.608  -6.868  1.00  0.00     0.053 C 
BRANCH  17  18
ATOM     18  C   UNL     1     -15.903  -4.491  -8.341  1.00  0.00     0.041 C 
ATOM     19  O   UNL     1     -14.741  -4.629  -8.805  1.00  0.00    -0.550 OA
ATOM     20  O   UNL     1     -16.955  -4.196  -9.197  1.00  0.00    -0.550 OA
ENDBRANCH  17  18
ENDBRANCH  16  17
ENDBRANCH  15  16
ENDBRANCH  14  15
ENDBRANCH  13  14
ENDBRANCH  12  13
ENDBRANCH  11  12
ENDBRANCH   1  11
TORSDOF 15
ENDMDL
MODEL 3
REMARK VINA RESULT:    -1.769      1.444      9.015
REMARK INTER + INTRA:          -4.339
REMARK INTER:                  -4.873
REMARK INTRA:                   0.535
REMARK UNBOUND:                -1.018
REMARK SMILES O=C([O-])CCCCCCCCCCCCCCC(=O)[O-]
REMARK SMILES IDX 10 1 9 2 8 3 7 4 6 5 5 6 4 7 2 8 1 9 3 10 11 11 12 12 13 13
REMARK SMILES IDX 14 14 15 15 16 16 17 17 18 18 19 19 20 20
REMARK H PARENT
REMARK Flexibility Score: inf
ROOT
ATOM      1  C   UNL     1     -16.375  -1.388  -3.070  1.00  0.00     0.000 C 
ENDROOT
BRANCH   1   2
ATOM      2  C   UNL     1     -17.124  -0.894  -1.823  1.00  0.00     0.000 C 
BRANCH   2   3
ATOM      3  C   UNL     1     -16.358   0.204  -1.070  1.00  0.00     0.000 C 
BRANCH   3   4
ATOM      4  C   UNL     1     -16.600   0.106   0.440  1.00  0.00     0.000 C 
BRANCH   4   5
ATOM      5  C   UNL     1     -15.375  -0.482   1.156  1.00  0.00     0.000 C 
BRANCH   5   6
ATOM      6  C   UNL     1     -15.665  -0.867   2.619  1.00  0.00     0.006 C 
BRANCH   6   7
ATOM      7  C   UNL     1     -17.076  -0.496   3.102  1.00  0.00     0.053 C 
BRANCH   7   8
ATOM      8  C   UNL     1     -17.054   0.633   4.086  1.00  0.00     0.041 C 
ATOM      9  O   UNL     1     -16.945   1.821   3.684  1.00  0.00    -0.550 OA
ATOM     10  O   UNL     1     -17.119   0.369   5.449  1.00  0.00    -0.550 OA
ENDBRANCH   7   8
ENDBRANCH   6   7
ENDBRANCH   5   6
ENDBRANCH   4   5
ENDBRANCH   3   4
ENDBRANCH   2   3
ENDBRANCH   1   2
BRANCH   1  11
ATOM     11  C   UNL     1     -16.980  -2.679  -3.650  1.00  0.00     0.000 C 
BRANCH  11  12
ATOM     12  C   UNL     1     -15.912  -3.646  -4.187  1.00  0.00     0.000 C 
BRANCH  12  13
ATOM     13  C   UNL     1     -14.648  -3.673  -3.310  1.00  0.00     0.000 C 
BRANCH  13  14
ATOM     14  C   UNL     1     -13.436  -4.276  -4.041  1.00  0.00     0.000 C 
BRANCH  14  15
ATOM     15  C   UNL     1     -13.820  -4.914  -5.388  1.00  0.00     0.000 C 
BRANCH  15  16
ATOM     16  C   UNL     1     -14.654  -3.974  -6.276  1.00  0.00     0.006 C 
BRANCH  16  17
ATOM     17  C   UNL     1     -14.447  -4.175  -7.786  1.00  0.00     0.053 C 
BRANCH  17  18
ATOM     18  C   UNL     1     -15.693  -4.655  -8.464  1.00  0.00     0.041 C 
ATOM     19  O   UNL     1     -15.641  -5.118  -9.634  1.00  0.00    -0.550 OA
ATOM     20  O   UNL     1     -16.917  -4.562  -7.815  1.00  0.00    -0.550 OA
ENDBRANCH  17  18
ENDBRANCH  16  17
ENDBRANCH  15  16
ENDBRANCH  14  15
ENDBRANCH  13  14
ENDBRANCH  12  13
ENDBRANCH  11  12
ENDBRANCH   1  11
TORSDOF 15
ENDMDL
