MODEL 1
REMARK VINA RESULT:    -4.616      0.000      0.000
REMARK INTER + INTRA:          -7.089
REMARK INTER:                  -6.505
REMARK INTRA:                  -0.585
REMARK UNBOUND:                -0.585
REMARK SMILES CCCCCCCCC(=O)[O-]
REMARK SMILES IDX 6 1 7 2 8 3 9 4 10 5 11 6 5 7 4 8 3 9 2 10 1 11
REMARK H PARENT
REMARK Flexibility Score: inf
ROOT
ATOM      1  C   UNL     1      21.385   1.551 -15.428  1.00  0.00     0.000 C 
ENDROOT
BRANCH   1   2
ATOM      2  C   UNL     1      20.073   1.746 -14.654  1.00  0.00     0.006 C 
BRANCH   2   3
ATOM      3  C   UNL     1      19.030   2.526 -15.464  1.00  0.00     0.053 C 
BRANCH   3   4
ATOM      4  C   UNL     1      17.815   1.698 -15.751  1.00  0.00     0.041 C 
ATOM      5  O   UNL     1      17.457   0.799 -14.946  1.00  0.00    -0.550 OA
ATOM      6  O   UNL     1      17.097   1.898 -16.923  1.00  0.00    -0.550 OA
ENDBRANCH   3   4
ENDBRANCH   2   3
ENDBRANCH   1   2
BRANCH   1   7
ATOM      7  C   UNL     1      21.713   0.062 -15.589  1.00  0.00     0.000 C 
BRANCH   7   8
ATOM      8  C   UNL     1      20.592  -0.814 -15.015  1.00  0.00    -0.000 C 
BRANCH   8   9
ATOM      9  C   UNL     1      19.990  -1.717 -16.098  1.00  0.00    -0.000 C 
BRANCH   9  10
ATOM     10  C   UNL     1      20.484  -1.310 -17.490  1.00  0.00    -0.003 C 
ATOM     11  C   UNL     1      19.987  -2.281 -18.557  1.00  0.00     0.004 C 
ENDBRANCH   9  10
ENDBRANCH   8   9
ENDBRANCH   7   8
ENDBRANCH   1   7
TORSDOF 7
ENDMDL
MODEL 2
REMARK VINA RESULT:    -4.506      1.312      1.819
REMARK INTER + INTRA:          -6.934
REMARK INTER:                  -6.318
REMARK INTRA:                  -0.616
REMARK UNBOUND:                -0.585
REMARK SMILES CCCCCCCCC(=O)[O-]
REMARK SMILES IDX 6 1 7 2 8 3 9 4 10 5 11 6 5 7 4 8 3 9 2 10 1 11
REMARK H PARENT
REMARK Flexibility Score: inf
ROOT
ATOM      1  C   UNL     1      20.518   0.268 -14.885  1.00  0.00     0.000 C 
ENDROOT
BRANCH   1   2
ATOM      2  C   UNL     1      19.493   1.408 -14.966  1.00  0.00     0.006 C 
BRANCH   2   3
ATOM      3  C   UNL     1      18.232   1.002 -15.739  1.00  0.00     0.053 C 
BRANCH   3   4
ATOM      4  C   UNL     1      17.892   1.995 -16.808  1.00  0.00     0.041 C 
ATOM      5  O   UNL     1      16.802   1.907 -17.431  1.00  0.00    -0.550 OA
ATOM      6  O   UNL     1      18.795   2.997 -17.140  1.00  0.00    -0.550 OA
ENDBRANCH   3   4
ENDBRANCH   2   3
ENDBRANCH   1   2
BRANCH   1   7
ATOM      7  C   UNL     1      19.881  -1.073 -15.270  1.00  0.00     0.000 C 
BRANCH   7   8
ATOM      8  C   UNL     1      20.674  -1.758 -16.390  1.00  0.00    -0.000 C 
BRANCH   8   9
ATOM      9  C   UNL     1      19.747  -2.201 -17.528  1.00  0.00    -0.000 C 
BRANCH   9  10
ATOM     10  C   UNL     1      20.152  -1.546 -18.853  1.00  0.00    -0.003 C 
ATOM     11  C   UNL     1      20.876  -0.224 -18.617  1.00  0.00     0.004 C 
ENDBRANCH   9  10
ENDBRANCH   8   9
ENDBRANCH   7   8
ENDBRANCH   1   7
TORSDOF 7
ENDMDL
MODEL 3
REMARK VINA RESULT:    -4.313      1.427      2.361
REMARK INTER + INTRA:          -6.663
REMARK INTER:                  -5.939
REMARK INTRA:                  -0.724
REMARK UNBOUND:                -0.585
REMARK SMILES CCCCCCCCC(=O)[O-]
REMARK SMILES IDX 6 1 7 2 8 3 9 4 10 5 11 6 5 7 4 8 3 9 2 10 1 11
REMARK H PARENT
REMARK Flexibility Score: inf
ROOT
ATOM      1  C   UNL     1      21.017   1.226 -18.001  1.00  0.00     0.000 C 
ENDROOT
BRANCH   1   2
ATOM      2  C   UNL     1      19.607   1.784 -17.761  1.00  0.00     0.006 C 
BRANCH   2   3
ATOM      3  C   UNL     1      19.281   1.919 -16.269  1.00  0.00     0.053 C 
BRANCH   3   4
ATOM      4  C   UNL     1      17.857   1.559 -15.976  1.00  0.00     0.041 C 
ATOM      5  O   UNL     1      17.576   0.838 -14.983  1.00  0.00    -0.550 OA
ATOM      6  O   UNL     1      16.841   1.992 -16.820  1.00  0.00    -0.550 OA
ENDBRANCH   3   4
ENDBRANCH   2   3
ENDBRANCH   1   2
BRANCH   1   7
ATOM      7  C   UNL     1      20.958  -0.140 -18.696  1.00  0.00     0.000 C 
BRANCH   7   8
ATOM      8  C   UNL     1      21.483  -1.249 -17.775  1.00  0.00    -0.000 C 
BRANCH   8   9
ATOM      9  C   UNL     1      22.238  -0.658 -16.578  1.00  0.00    -0.000 C 
BRANCH   9  10
ATOM     10  C   UNL     1      21.744  -1.267 -15.262  1.00  0.00    -0.003 C 
ATOM     11  C   UNL     1      20.231  -1.465 -15.279  1.00  0.00     0.004 C 
ENDBRANCH   9  10
ENDBRANCH   8   9
ENDBRANCH   7   8
ENDBRANCH   1   7
TORSDOF 7
ENDMDL
MODEL 4
REMARK VINA RESULT:    -4.307      8.261     10.093
REMARK INTER + INTRA:          -6.654
REMARK INTER:                  -6.086
REMARK INTRA:                  -0.568
REMARK UNBOUND:                -0.585
REMARK SMILES CCCCCCCCC(=O)[O-]
REMARK SMILES IDX 6 1 7 2 8 3 9 4 10 5 11 6 5 7 4 8 3 9 2 10 1 11
REMARK H PARENT
REMARK Flexibility Score: inf
ROOT
ATOM      1  C   UNL     1      17.132   1.666 -24.040  1.00  0.00     0.000 C 
ENDROOT
BRANCH   1   2
ATOM      2  C   UNL     1      16.707   0.525 -23.105  1.00  0.00     0.006 C 
BRANCH   2   3
ATOM      3  C   UNL     1      17.856  -0.450 -22.819  1.00  0.00     0.053 C 
BRANCH   3   4
ATOM      4  C   UNL     1      18.011  -1.462 -23.912  1.00  0.00     0.041 C 
ATOM      5  O   UNL     1      17.060  -2.235 -24.200  1.00  0.00    -0.550 OA
ATOM      6  O   UNL     1      19.218  -1.575 -24.591  1.00  0.00    -0.550 OA
ENDBRANCH   3   4
ENDBRANCH   2   3
ENDBRANCH   1   2
BRANCH   1   7
ATOM      7  C   UNL     1      16.106   1.869 -25.162  1.00  0.00     0.000 C 
BRANCH   7   8
ATOM      8  C   UNL     1      16.242   0.781 -26.235  1.00  0.00    -0.000 C 
BRANCH   8   9
ATOM      9  C   UNL     1      17.484   1.016 -27.102  1.00  0.00    -0.000 C 
BRANCH   9  10
ATOM     10  C   UNL     1      18.076  -0.313 -27.586  1.00  0.00    -0.003 C 
ATOM     11  C   UNL     1      18.618  -0.190 -29.007  1.00  0.00     0.004 C 
ENDBRANCH   9  10
ENDBRANCH   8   9
ENDBRANCH   7   8
ENDBRANCH   1   7
TORSDOF 7
ENDMDL
MODEL 5
REMARK VINA RESULT:    -4.235      1.917      3.361
REMARK INTER + INTRA:          -6.553
REMARK INTER:                  -6.259
REMARK INTRA:                  -0.295
REMARK UNBOUND:                -0.585
REMARK SMILES CCCCCCCCC(=O)[O-]
REMARK SMILES IDX 6 1 7 2 8 3 9 4 10 5 11 6 5 7 4 8 3 9 2 10 1 11
REMARK H PARENT
REMARK Flexibility Score: inf
ROOT
ATOM      1  C   UNL     1      19.784  -0.826 -15.729  1.00  0.00     0.000 C 
ENDROOT
BRANCH   1   2
ATOM      2  C   UNL     1      19.563   0.625 -15.278  1.00  0.00     0.006 C 
BRANCH   2   3
ATOM      3  C   UNL     1      18.140   1.116 -15.575  1.00  0.00     0.053 C 
BRANCH   3   4
ATOM      4  C   UNL     1      18.033   1.715 -16.944  1.00  0.00     0.041 C 
ATOM      5  O   UNL     1      16.909   1.838 -17.495  1.00  0.00    -0.550 OA
ATOM      6  O   UNL     1      19.180   2.107 -17.624  1.00  0.00    -0.550 OA
ENDBRANCH   3   4
ENDBRANCH   2   3
ENDBRANCH   1   2
BRANCH   1   7
ATOM      7  C   UNL     1      21.164  -1.333 -15.294  1.00  0.00     0.000 C 
BRANCH   7   8
ATOM      8  C   UNL     1      22.272  -0.737 -16.173  1.00  0.00    -0.000 C 
BRANCH   8   9
ATOM      9  C   UNL     1      23.413  -0.177 -15.316  1.00  0.00    -0.000 C 
BRANCH   9  10
ATOM     10  C   UNL     1      24.112  -1.294 -14.533  1.00  0.00    -0.003 C 
ATOM     11  C   UNL     1      25.197  -0.732 -13.620  1.00  0.00     0.004 C 
ENDBRANCH   9  10
ENDBRANCH   8   9
ENDBRANCH   7   8
ENDBRANCH   1   7
TORSDOF 7
ENDMDL
MODEL 6
REMARK VINA RESULT:    -4.164      8.484      9.683
REMARK INTER + INTRA:          -6.453
REMARK INTER:                  -5.542
REMARK INTRA:                  -0.911
REMARK UNBOUND:                -0.585
REMARK SMILES CCCCCCCCC(=O)[O-]
REMARK SMILES IDX 6 1 7 2 8 3 9 4 10 5 11 6 5 7 4 8 3 9 2 10 1 11
REMARK H PARENT
REMARK Flexibility Score: inf
ROOT
ATOM      1  C   UNL     1      16.970   1.785 -23.801  1.00  0.00     0.000 C 
ENDROOT
BRANCH   1   2
ATOM      2  C   UNL     1      16.120   1.942 -25.071  1.00  0.00     0.006 C 
BRANCH   2   3
ATOM      3  C   UNL     1      16.970   1.916 -26.347  1.00  0.00     0.053 C 
BRANCH   3   4
ATOM      4  C   UNL     1      17.163   0.521 -26.858  1.00  0.00     0.041 C 
ATOM      5  O   UNL     1      16.367  -0.393 -26.521  1.00  0.00    -0.550 OA
ATOM      6  O   UNL     1      18.243   0.224 -27.681  1.00  0.00    -0.550 OA
ENDBRANCH   3   4
ENDBRANCH   2   3
ENDBRANCH   1   2
BRANCH   1   7
ATOM      7  C   UNL     1      16.654   0.465 -23.087  1.00  0.00     0.000 C 
BRANCH   7   8
ATOM      8  C   UNL     1      17.830  -0.513 -23.194  1.00  0.00    -0.000 C 
BRANCH   8   9
ATOM      9  C   UNL     1      19.086   0.191 -23.722  1.00  0.00    -0.000 C 
BRANCH   9  10
ATOM     10  C   UNL     1      19.896  -0.738 -24.631  1.00  0.00    -0.003 C 
ATOM     11  C   UNL     1      19.110  -2.000 -24.972  1.00  0.00     0.004 C 
ENDBRANCH   9  10
ENDBRANCH   8   9
ENDBRANCH   7   8
ENDBRANCH   1   7
TORSDOF 7
ENDMDL
MODEL 7
REMARK VINA RESULT:    -4.139      8.363      9.550
REMARK INTER + INTRA:          -6.418
REMARK INTER:                  -5.522
REMARK INTRA:                  -0.896
REMARK UNBOUND:                -0.585
REMARK SMILES CCCCCCCCC(=O)[O-]
REMARK SMILES IDX 6 1 7 2 8 3 9 4 10 5 11 6 5 7 4 8 3 9 2 10 1 11
REMARK H PARENT
REMARK Flexibility Score: inf
ROOT
ATOM      1  C   UNL     1      17.124   2.417 -26.028  1.00  0.00     0.000 C 
ENDROOT
BRANCH   1   2
ATOM      2  C   UNL     1      15.977   1.727 -25.276  1.00  0.00     0.006 C 
BRANCH   2   3
ATOM      3  C   UNL     1      15.964   0.209 -25.500  1.00  0.00     0.053 C 
BRANCH   3   4
ATOM      4  C   UNL     1      16.386  -0.538 -24.273  1.00  0.00     0.041 C 
ATOM      5  O   UNL     1      16.402   0.039 -23.154  1.00  0.00    -0.550 OA
ATOM      6  O   UNL     1      16.793  -1.863 -24.370  1.00  0.00    -0.550 OA
ENDBRANCH   3   4
ENDBRANCH   2   3
ENDBRANCH   1   2
BRANCH   1   7
ATOM      7  C   UNL     1      18.305   2.698 -25.091  1.00  0.00     0.000 C 
BRANCH   7   8
ATOM      8  C   UNL     1      19.482   1.762 -25.393  1.00  0.00    -0.000 C 
BRANCH   8   9
ATOM      9  C   UNL     1      19.764   0.833 -24.205  1.00  0.00    -0.000 C 
BRANCH   9  10
ATOM     10  C   UNL     1      20.093  -0.585 -24.682  1.00  0.00    -0.003 C 
ATOM     11  C   UNL     1      19.608  -0.813 -26.111  1.00  0.00     0.004 C 
ENDBRANCH   9  10
ENDBRANCH   8   9
ENDBRANCH   7   8
ENDBRANCH   1   7
TORSDOF 7
ENDMDL
MODEL 8
REMARK VINA RESULT:    -4.137      8.044      9.743
REMARK INTER + INTRA:          -6.415
REMARK INTER:                  -5.562
REMARK INTRA:                  -0.853
REMARK UNBOUND:                -0.585
REMARK SMILES CCCCCCCCC(=O)[O-]
REMARK SMILES IDX 6 1 7 2 8 3 9 4 10 5 11 6 5 7 4 8 3 9 2 10 1 11
REMARK H PARENT
REMARK Flexibility Score: inf
ROOT
ATOM      1  C   UNL     1      19.258   0.531 -23.286  1.00  0.00     0.000 C 
ENDROOT
BRANCH   1   2
ATOM      2  C   UNL     1      20.092  -0.308 -24.266  1.00  0.00     0.006 C 
BRANCH   2   3
ATOM      3  C   UNL     1      19.656  -0.104 -25.722  1.00  0.00     0.053 C 
BRANCH   3   4
ATOM      4  C   UNL     1      19.005  -1.330 -26.285  1.00  0.00     0.041 C 
ATOM      5  O   UNL     1      18.546  -1.323 -27.456  1.00  0.00    -0.550 OA
ATOM      6  O   UNL     1      18.877  -2.471 -25.503  1.00  0.00    -0.550 OA
ENDBRANCH   3   4
ENDBRANCH   2   3
ENDBRANCH   1   2
BRANCH   1   7
ATOM      7  C   UNL     1      18.097  -0.290 -22.710  1.00  0.00     0.000 C 
BRANCH   7   8
ATOM      8  C   UNL     1      16.749   0.232 -23.222  1.00  0.00    -0.000 C 
BRANCH   8   9
ATOM      9  C   UNL     1      16.866   1.684 -23.702  1.00  0.00    -0.000 C 
BRANCH   9  10
ATOM     10  C   UNL     1      16.253   1.853 -25.096  1.00  0.00    -0.003 C 
ATOM     11  C   UNL     1      15.745   0.522 -25.641  1.00  0.00     0.004 C 
ENDBRANCH   9  10
ENDBRANCH   8   9
ENDBRANCH   7   8
ENDBRANCH   1   7
TORSDOF 7
ENDMDL
MODEL 9
REMARK VINA RESULT:    -4.133      8.847     10.867
REMARK INTER + INTRA:          -6.409
REMARK INTER:                  -5.735
REMARK INTRA:                  -0.674
REMARK UNBOUND:                -0.585
REMARK SMILES CCCCCCCCC(=O)[O-]
REMARK SMILES IDX 6 1 7 2 8 3 9 4 10 5 11 6 5 7 4 8 3 9 2 10 1 11
REMARK H PARENT
REMARK Flexibility Score: inf
ROOT
ATOM      1  C   UNL     1      16.827   1.674 -26.484  1.00  0.00     0.000 C 
ENDROOT
BRANCH   1   2
ATOM      2  C   UNL     1      17.244   0.249 -26.877  1.00  0.00     0.006 C 
BRANCH   2   3
ATOM      3  C   UNL     1      18.755   0.128 -27.107  1.00  0.00     0.053 C 
BRANCH   3   4
ATOM      4  C   UNL     1      19.101  -1.095 -27.899  1.00  0.00     0.041 C 
ATOM      5  O   UNL     1      19.374  -1.000 -29.124  1.00  0.00    -0.550 OA
ATOM      6  O   UNL     1      19.090  -2.344 -27.292  1.00  0.00    -0.550 OA
ENDBRANCH   3   4
ENDBRANCH   2   3
ENDBRANCH   1   2
BRANCH   1   7
ATOM      7  C   UNL     1      16.023   1.671 -25.177  1.00  0.00     0.000 C 
BRANCH   7   8
ATOM      8  C   UNL     1      16.955   1.671 -23.959  1.00  0.00    -0.000 C 
BRANCH   8   9
ATOM      9  C   UNL     1      16.751   0.410 -23.110  1.00  0.00    -0.000 C 
BRANCH   9  10
ATOM     10  C   UNL     1      18.047  -0.401 -23.010  1.00  0.00    -0.003 C 
ATOM     11  C   UNL     1      17.986  -1.649 -23.885  1.00  0.00     0.004 C 
ENDBRANCH   9  10
ENDBRANCH   8   9
ENDBRANCH   7   8
ENDBRANCH   1   7
TORSDOF 7
ENDMDL
