MODEL 1
REMARK VINA RESULT:    -4.439      0.000      0.000
REMARK INTER + INTRA:          -9.200
REMARK INTER:                  -7.813
REMARK INTRA:                  -1.387
REMARK UNBOUND:                -1.387
REMARK SMILES CCCCCCCCCCCCCCC(=O)[O-]
REMARK SMILES IDX 9 1 10 2 11 3 12 4 13 5 14 6 15 7 16 8 17 9 8 10 7 11 6 12
REMARK SMILES IDX 5 13 4 14 3 15 2 16 1 17
REMARK H PARENT
REMARK Flexibility Score: inf
ROOT
ATOM      1  C   UNL     1      45.970   7.735  19.513  1.00  0.00     0.000 C 
ENDROOT
BRANCH   1   2
ATOM      2  C   UNL     1      46.775   7.349  18.264  1.00  0.00     0.000 C 
BRANCH   2   3
ATOM      3  C   UNL     1      46.151   7.879  16.959  1.00  0.00     0.000 C 
BRANCH   3   4
ATOM      4  C   UNL     1      44.927   7.091  16.458  1.00  0.00     0.000 C 
BRANCH   4   5
ATOM      5  C   UNL     1      44.999   6.759  14.958  1.00  0.00     0.006 C 
BRANCH   5   6
ATOM      6  C   UNL     1      46.444   6.705  14.446  1.00  0.00     0.053 C 
BRANCH   6   7
ATOM      7  C   UNL     1      46.984   5.308  14.454  1.00  0.00     0.041 C 
ATOM      8  O   UNL     1      48.177   5.092  14.795  1.00  0.00    -0.550 OA
ATOM      9  O   UNL     1      46.181   4.249  14.050  1.00  0.00    -0.550 OA
ENDBRANCH   6   7
ENDBRANCH   5   6
ENDBRANCH   4   5
ENDBRANCH   3   4
ENDBRANCH   2   3
ENDBRANCH   1   2
BRANCH   1  10
ATOM     10  C   UNL     1      45.645   9.233  19.517  1.00  0.00     0.000 C 
BRANCH  10  11
ATOM     11  C   UNL     1      44.511   9.548  20.505  1.00  0.00    -0.000 C 
BRANCH  11  12
ATOM     12  C   UNL     1      44.335   8.461  21.578  1.00  0.00    -0.000 C 
BRANCH  12  13
ATOM     13  C   UNL     1      44.592   8.923  23.028  1.00  0.00    -0.000 C 
BRANCH  13  14
ATOM     14  C   UNL     1      45.922   8.449  23.642  1.00  0.00    -0.000 C 
BRANCH  14  15
ATOM     15  C   UNL     1      47.137   9.226  23.106  1.00  0.00    -0.000 C 
BRANCH  15  16
ATOM     16  C   UNL     1      48.345   8.315  22.835  1.00  0.00    -0.003 C 
ATOM     17  C   UNL     1      47.940   6.900  22.422  1.00  0.00     0.004 C 
ENDBRANCH  15  16
ENDBRANCH  14  15
ENDBRANCH  13  14
ENDBRANCH  12  13
ENDBRANCH  11  12
ENDBRANCH  10  11
ENDBRANCH   1  10
TORSDOF 13
ENDMDL
MODEL 2
REMARK VINA RESULT:    -4.275      3.962      7.567
REMARK INTER + INTRA:          -8.911
REMARK INTER:                  -7.724
REMARK INTRA:                  -1.187
REMARK UNBOUND:                -1.387
REMARK SMILES CCCCCCCCCCCCCCC(=O)[O-]
REMARK SMILES IDX 9 1 10 2 11 3 12 4 13 5 14 6 15 7 16 8 17 9 8 10 7 11 6 12
REMARK SMILES IDX 5 13 4 14 3 15 2 16 1 17
REMARK H PARENT
REMARK Flexibility Score: inf
ROOT
ATOM      1  C   UNL     1      46.756   7.000  19.166  1.00  0.00     0.000 C 
ENDROOT
BRANCH   1   2
ATOM      2  C   UNL     1      46.432   7.386  20.617  1.00  0.00     0.000 C 
BRANCH   2   3
ATOM      3  C   UNL     1      47.546   6.993  21.607  1.00  0.00     0.000 C 
BRANCH   3   4
ATOM      4  C   UNL     1      47.877   8.058  22.667  1.00  0.00     0.000 C 
BRANCH   4   5
ATOM      5  C   UNL     1      46.702   9.010  22.948  1.00  0.00     0.006 C 
BRANCH   5   6
ATOM      6  C   UNL     1      45.742   8.450  24.005  1.00  0.00     0.053 C 
BRANCH   6   7
ATOM      7  C   UNL     1      44.414   9.141  23.970  1.00  0.00     0.041 C 
ATOM      8  O   UNL     1      43.837   9.348  22.870  1.00  0.00    -0.550 OA
ATOM      9  O   UNL     1      43.831   9.590  25.149  1.00  0.00    -0.550 OA
ENDBRANCH   6   7
ENDBRANCH   5   6
ENDBRANCH   4   5
ENDBRANCH   3   4
ENDBRANCH   2   3
ENDBRANCH   1   2
BRANCH   1  10
ATOM     10  C   UNL     1      46.306   8.096  18.192  1.00  0.00     0.000 C 
BRANCH  10  11
ATOM     11  C   UNL     1      44.828   8.451  18.409  1.00  0.00    -0.000 C 
BRANCH  11  12
ATOM     12  C   UNL     1      44.110   8.844  17.106  1.00  0.00    -0.000 C 
BRANCH  12  13
ATOM     13  C   UNL     1      44.757   8.304  15.814  1.00  0.00    -0.000 C 
BRANCH  13  14
ATOM     14  C   UNL     1      44.087   7.051  15.219  1.00  0.00    -0.000 C 
BRANCH  14  15
ATOM     15  C   UNL     1      45.084   5.910  14.955  1.00  0.00    -0.000 C 
BRANCH  15  16
ATOM     16  C   UNL     1      46.542   6.396  14.927  1.00  0.00    -0.003 C 
ATOM     17  C   UNL     1      47.478   5.510  15.748  1.00  0.00     0.004 C 
ENDBRANCH  15  16
ENDBRANCH  14  15
ENDBRANCH  13  14
ENDBRANCH  12  13
ENDBRANCH  11  12
ENDBRANCH  10  11
ENDBRANCH   1  10
TORSDOF 13
ENDMDL
MODEL 3
REMARK VINA RESULT:    -4.253      3.241      6.784
REMARK INTER + INTRA:          -8.873
REMARK INTER:                  -7.108
REMARK INTRA:                  -1.765
REMARK UNBOUND:                -1.387
REMARK SMILES CCCCCCCCCCCCCCC(=O)[O-]
REMARK SMILES IDX 9 1 10 2 11 3 12 4 13 5 14 6 15 7 16 8 17 9 8 10 7 11 6 12
REMARK SMILES IDX 5 13 4 14 3 15 2 16 1 17
REMARK H PARENT
REMARK Flexibility Score: inf
ROOT
ATOM      1  C   UNL     1      44.603   9.559  16.969  1.00  0.00     0.000 C 
ENDROOT
BRANCH   1   2
ATOM      2  C   UNL     1      43.949   9.277  18.330  1.00  0.00     0.000 C 
BRANCH   2   3
ATOM      3  C   UNL     1      44.973   9.144  19.473  1.00  0.00     0.000 C 
BRANCH   3   4
ATOM      4  C   UNL     1      44.362   8.922  20.869  1.00  0.00     0.000 C 
BRANCH   4   5
ATOM      5  C   UNL     1      45.387   8.421  21.899  1.00  0.00     0.006 C 
BRANCH   5   6
ATOM      6  C   UNL     1      46.617   7.789  21.234  1.00  0.00     0.053 C 
BRANCH   6   7
ATOM      7  C   UNL     1      47.701   7.506  22.228  1.00  0.00     0.041 C 
ATOM      8  O   UNL     1      48.208   8.445  22.897  1.00  0.00    -0.550 OA
ATOM      9  O   UNL     1      48.177   6.211  22.388  1.00  0.00    -0.550 OA
ENDBRANCH   6   7
ENDBRANCH   5   6
ENDBRANCH   4   5
ENDBRANCH   3   4
ENDBRANCH   2   3
ENDBRANCH   1   2
BRANCH   1  10
ATOM     10  C   UNL     1      46.079   9.938  17.137  1.00  0.00     0.000 C 
BRANCH  10  11
ATOM     11  C   UNL     1      46.776  10.055  15.773  1.00  0.00    -0.000 C 
BRANCH  11  12
ATOM     12  C   UNL     1      45.908   9.536  14.612  1.00  0.00    -0.000 C 
BRANCH  12  13
ATOM     13  C   UNL     1      46.345   8.178  14.024  1.00  0.00    -0.000 C 
BRANCH  13  14
ATOM     14  C   UNL     1      45.311   7.044  14.155  1.00  0.00    -0.000 C 
BRANCH  14  15
ATOM     15  C   UNL     1      45.340   6.367  15.535  1.00  0.00    -0.000 C 
BRANCH  15  16
ATOM     16  C   UNL     1      46.759   6.277  16.117  1.00  0.00    -0.003 C 
ATOM     17  C   UNL     1      46.786   6.409  17.640  1.00  0.00     0.004 C 
ENDBRANCH  15  16
ENDBRANCH  14  15
ENDBRANCH  13  14
ENDBRANCH  12  13
ENDBRANCH  11  12
ENDBRANCH  10  11
ENDBRANCH   1  10
TORSDOF 13
ENDMDL
MODEL 4
REMARK VINA RESULT:    -4.250      4.632      8.246
REMARK INTER + INTRA:          -8.866
REMARK INTER:                  -7.861
REMARK INTRA:                  -1.006
REMARK UNBOUND:                -1.387
REMARK SMILES CCCCCCCCCCCCCCC(=O)[O-]
REMARK SMILES IDX 9 1 10 2 11 3 12 4 13 5 14 6 15 7 16 8 17 9 8 10 7 11 6 12
REMARK SMILES IDX 5 13 4 14 3 15 2 16 1 17
REMARK H PARENT
REMARK Flexibility Score: inf
ROOT
ATOM      1  C   UNL     1      46.695   7.115  20.519  1.00  0.00     0.000 C 
ENDROOT
BRANCH   1   2
ATOM      2  C   UNL     1      47.137   7.593  21.909  1.00  0.00     0.000 C 
BRANCH   2   3
ATOM      3  C   UNL     1      46.756   9.059  22.191  1.00  0.00     0.000 C 
BRANCH   3   4
ATOM      4  C   UNL     1      45.923   9.278  23.467  1.00  0.00     0.000 C 
BRANCH   4   5
ATOM      5  C   UNL     1      44.458   8.839  23.310  1.00  0.00     0.006 C 
BRANCH   5   6
ATOM      6  C   UNL     1      43.475   9.926  23.764  1.00  0.00     0.053 C 
BRANCH   6   7
ATOM      7  C   UNL     1      42.811   9.568  25.059  1.00  0.00     0.041 C 
ATOM      8  O   UNL     1      43.502   9.179  26.037  1.00  0.00    -0.550 OA
ATOM      9  O   UNL     1      41.428   9.628  25.172  1.00  0.00    -0.550 OA
ENDBRANCH   6   7
ENDBRANCH   5   6
ENDBRANCH   4   5
ENDBRANCH   3   4
ENDBRANCH   2   3
ENDBRANCH   1   2
BRANCH   1  10
ATOM     10  C   UNL     1      45.870   8.192  19.804  1.00  0.00     0.000 C 
BRANCH  10  11
ATOM     11  C   UNL     1      45.522   7.759  18.372  1.00  0.00    -0.000 C 
BRANCH  11  12
ATOM     12  C   UNL     1      46.755   7.679  17.456  1.00  0.00    -0.000 C 
BRANCH  12  13
ATOM     13  C   UNL     1      47.075   6.272  16.909  1.00  0.00    -0.000 C 
BRANCH  13  14
ATOM     14  C   UNL     1      46.412   5.925  15.563  1.00  0.00    -0.000 C 
BRANCH  14  15
ATOM     15  C   UNL     1      46.141   7.164  14.694  1.00  0.00    -0.000 C 
BRANCH  15  16
ATOM     16  C   UNL     1      44.642   7.473  14.560  1.00  0.00    -0.003 C 
ATOM     17  C   UNL     1      43.755   6.305  14.993  1.00  0.00     0.004 C 
ENDBRANCH  15  16
ENDBRANCH  14  15
ENDBRANCH  13  14
ENDBRANCH  12  13
ENDBRANCH  11  12
ENDBRANCH  10  11
ENDBRANCH   1  10
TORSDOF 13
ENDMDL
MODEL 5
REMARK VINA RESULT:    -4.221      3.207      6.772
REMARK INTER + INTRA:          -8.817
REMARK INTER:                  -7.128
REMARK INTRA:                  -1.689
REMARK UNBOUND:                -1.387
REMARK SMILES CCCCCCCCCCCCCCC(=O)[O-]
REMARK SMILES IDX 9 1 10 2 11 3 12 4 13 5 14 6 15 7 16 8 17 9 8 10 7 11 6 12
REMARK SMILES IDX 5 13 4 14 3 15 2 16 1 17
REMARK H PARENT
REMARK Flexibility Score: inf
ROOT
ATOM      1  C   UNL     1      43.423   9.859  17.919  1.00  0.00     0.000 C 
ENDROOT
BRANCH   1   2
ATOM      2  C   UNL     1      44.365  10.435  18.986  1.00  0.00     0.000 C 
BRANCH   2   3
ATOM      3  C   UNL     1      43.968  10.034  20.419  1.00  0.00     0.000 C 
BRANCH   3   4
ATOM      4  C   UNL     1      44.661   8.768  20.954  1.00  0.00     0.000 C 
BRANCH   4   5
ATOM      5  C   UNL     1      46.139   8.673  20.541  1.00  0.00     0.006 C 
BRANCH   5   6
ATOM      6  C   UNL     1      46.755   7.315  20.900  1.00  0.00     0.053 C 
BRANCH   6   7
ATOM      7  C   UNL     1      47.601   7.398  22.134  1.00  0.00     0.041 C 
ATOM      8  O   UNL     1      47.742   8.497  22.732  1.00  0.00    -0.550 OA
ATOM      9  O   UNL     1      48.264   6.270  22.601  1.00  0.00    -0.550 OA
ENDBRANCH   6   7
ENDBRANCH   5   6
ENDBRANCH   4   5
ENDBRANCH   3   4
ENDBRANCH   2   3
ENDBRANCH   1   2
BRANCH   1  10
ATOM     10  C   UNL     1      44.197   9.007  16.905  1.00  0.00     0.000 C 
BRANCH  10  11
ATOM     11  C   UNL     1      45.411   9.771  16.356  1.00  0.00    -0.000 C 
BRANCH  11  12
ATOM     12  C   UNL     1      46.665   8.890  16.231  1.00  0.00    -0.000 C 
BRANCH  12  13
ATOM     13  C   UNL     1      46.683   7.642  17.138  1.00  0.00    -0.000 C 
BRANCH  13  14
ATOM     14  C   UNL     1      46.652   6.292  16.398  1.00  0.00    -0.000 C 
BRANCH  14  15
ATOM     15  C   UNL     1      46.321   6.438  14.903  1.00  0.00    -0.000 C 
BRANCH  15  16
ATOM     16  C   UNL     1      45.021   5.717  14.516  1.00  0.00    -0.003 C 
ATOM     17  C   UNL     1      43.896   6.681  14.140  1.00  0.00     0.004 C 
ENDBRANCH  15  16
ENDBRANCH  14  15
ENDBRANCH  13  14
ENDBRANCH  12  13
ENDBRANCH  11  12
ENDBRANCH  10  11
ENDBRANCH   1  10
TORSDOF 13
ENDMDL
MODEL 6
REMARK VINA RESULT:    -4.221      1.960      3.642
REMARK INTER + INTRA:          -8.817
REMARK INTER:                  -8.092
REMARK INTRA:                  -0.724
REMARK UNBOUND:                -1.387
REMARK SMILES CCCCCCCCCCCCCCC(=O)[O-]
REMARK SMILES IDX 9 1 10 2 11 3 12 4 13 5 14 6 15 7 16 8 17 9 8 10 7 11 6 12
REMARK SMILES IDX 5 13 4 14 3 15 2 16 1 17
REMARK H PARENT
REMARK Flexibility Score: inf
ROOT
ATOM      1  C   UNL     1      47.039   6.954  20.939  1.00  0.00     0.000 C 
ENDROOT
BRANCH   1   2
ATOM      2  C   UNL     1      46.214   8.071  20.282  1.00  0.00     0.000 C 
BRANCH   2   3
ATOM      3  C   UNL     1      45.859   7.772  18.813  1.00  0.00     0.000 C 
BRANCH   3   4
ATOM      4  C   UNL     1      46.732   6.698  18.140  1.00  0.00     0.000 C 
BRANCH   4   5
ATOM      5  C   UNL     1      46.460   6.561  16.633  1.00  0.00     0.006 C 
BRANCH   5   6
ATOM      6  C   UNL     1      45.043   7.016  16.256  1.00  0.00     0.053 C 
BRANCH   6   7
ATOM      7  C   UNL     1      44.593   6.413  14.961  1.00  0.00     0.041 C 
ATOM      8  O   UNL     1      45.420   5.825  14.215  1.00  0.00    -0.550 OA
ATOM      9  O   UNL     1      43.269   6.533  14.560  1.00  0.00    -0.550 OA
ENDBRANCH   6   7
ENDBRANCH   5   6
ENDBRANCH   4   5
ENDBRANCH   3   4
ENDBRANCH   2   3
ENDBRANCH   1   2
BRANCH   1  10
ATOM     10  C   UNL     1      47.586   7.402  22.299  1.00  0.00     0.000 C 
BRANCH  10  11
ATOM     11  C   UNL     1      46.926   8.712  22.754  1.00  0.00    -0.000 C 
BRANCH  11  12
ATOM     12  C   UNL     1      45.972   8.519  23.945  1.00  0.00    -0.000 C 
BRANCH  12  13
ATOM     13  C   UNL     1      45.428   9.822  24.567  1.00  0.00    -0.000 C 
BRANCH  13  14
ATOM     14  C   UNL     1      44.537  10.669  23.640  1.00  0.00    -0.000 C 
BRANCH  14  15
ATOM     15  C   UNL     1      43.159  10.975  24.253  1.00  0.00    -0.000 C 
BRANCH  15  16
ATOM     16  C   UNL     1      42.664   9.852  25.177  1.00  0.00    -0.003 C 
ATOM     17  C   UNL     1      41.145   9.683  25.144  1.00  0.00     0.004 C 
ENDBRANCH  15  16
ENDBRANCH  14  15
ENDBRANCH  13  14
ENDBRANCH  12  13
ENDBRANCH  11  12
ENDBRANCH  10  11
ENDBRANCH   1  10
TORSDOF 13
ENDMDL
MODEL 7
REMARK VINA RESULT:    -4.183      4.643      7.830
REMARK INTER + INTRA:          -8.750
REMARK INTER:                  -7.183
REMARK INTRA:                  -1.567
REMARK UNBOUND:                -1.387
REMARK SMILES CCCCCCCCCCCCCCC(=O)[O-]
REMARK SMILES IDX 9 1 10 2 11 3 12 4 13 5 14 6 15 7 16 8 17 9 8 10 7 11 6 12
REMARK SMILES IDX 5 13 4 14 3 15 2 16 1 17
REMARK H PARENT
REMARK Flexibility Score: inf
ROOT
ATOM      1  C   UNL     1      46.785   7.040  21.074  1.00  0.00     0.000 C 
ENDROOT
BRANCH   1   2
ATOM      2  C   UNL     1      47.064   8.337  21.849  1.00  0.00     0.000 C 
BRANCH   2   3
ATOM      3  C   UNL     1      46.115   8.538  23.046  1.00  0.00     0.000 C 
BRANCH   3   4
ATOM      4  C   UNL     1      44.616   8.497  22.700  1.00  0.00     0.000 C 
BRANCH   4   5
ATOM      5  C   UNL     1      43.919   9.854  22.893  1.00  0.00     0.006 C 
BRANCH   5   6
ATOM      6  C   UNL     1      44.136  10.422  24.301  1.00  0.00     0.053 C 
BRANCH   6   7
ATOM      7  C   UNL     1      43.414   9.621  25.340  1.00  0.00     0.041 C 
ATOM      8  O   UNL     1      42.155   9.639  25.392  1.00  0.00    -0.550 OA
ATOM      9  O   UNL     1      44.131   8.885  26.275  1.00  0.00    -0.550 OA
ENDBRANCH   6   7
ENDBRANCH   5   6
ENDBRANCH   4   5
ENDBRANCH   3   4
ENDBRANCH   2   3
ENDBRANCH   1   2
BRANCH   1  10
ATOM     10  C   UNL     1      46.634   7.318  19.573  1.00  0.00     0.000 C 
BRANCH  10  11
ATOM     11  C   UNL     1      45.986   8.689  19.330  1.00  0.00    -0.000 C 
BRANCH  11  12
ATOM     12  C   UNL     1      44.500   8.589  18.947  1.00  0.00    -0.000 C 
BRANCH  12  13
ATOM     13  C   UNL     1      44.072   9.456  17.746  1.00  0.00    -0.000 C 
BRANCH  13  14
ATOM     14  C   UNL     1      44.468   8.904  16.364  1.00  0.00    -0.000 C 
BRANCH  14  15
ATOM     15  C   UNL     1      44.265   7.384  16.248  1.00  0.00    -0.000 C 
BRANCH  15  16
ATOM     16  C   UNL     1      45.589   6.626  16.065  1.00  0.00    -0.003 C 
ATOM     17  C   UNL     1      46.748   7.543  15.674  1.00  0.00     0.004 C 
ENDBRANCH  15  16
ENDBRANCH  14  15
ENDBRANCH  13  14
ENDBRANCH  12  13
ENDBRANCH  11  12
ENDBRANCH  10  11
ENDBRANCH   1  10
TORSDOF 13
ENDMDL
MODEL 8
REMARK VINA RESULT:    -4.180      2.379      2.805
REMARK INTER + INTRA:          -8.744
REMARK INTER:                  -7.228
REMARK INTRA:                  -1.516
REMARK UNBOUND:                -1.387
REMARK SMILES CCCCCCCCCCCCCCC(=O)[O-]
REMARK SMILES IDX 9 1 10 2 11 3 12 4 13 5 14 6 15 7 16 8 17 9 8 10 7 11 6 12
REMARK SMILES IDX 5 13 4 14 3 15 2 16 1 17
REMARK H PARENT
REMARK Flexibility Score: inf
ROOT
ATOM      1  C   UNL     1      46.486   6.996  18.641  1.00  0.00     0.000 C 
ENDROOT
BRANCH   1   2
ATOM      2  C   UNL     1      47.064   6.662  17.258  1.00  0.00     0.000 C 
BRANCH   2   3
ATOM      3  C   UNL     1      45.977   6.380  16.203  1.00  0.00     0.000 C 
BRANCH   3   4
ATOM      4  C   UNL     1      46.316   6.856  14.779  1.00  0.00     0.000 C 
BRANCH   4   5
ATOM      5  C   UNL     1      45.367   7.955  14.273  1.00  0.00     0.006 C 
BRANCH   5   6
ATOM      6  C   UNL     1      46.095   9.284  14.032  1.00  0.00     0.053 C 
BRANCH   6   7
ATOM      7  C   UNL     1      46.222  10.082  15.293  1.00  0.00     0.041 C 
ATOM      8  O   UNL     1      47.355  10.278  15.807  1.00  0.00    -0.550 OA
ATOM      9  O   UNL     1      45.086  10.579  15.921  1.00  0.00    -0.550 OA
ENDBRANCH   6   7
ENDBRANCH   5   6
ENDBRANCH   4   5
ENDBRANCH   3   4
ENDBRANCH   2   3
ENDBRANCH   1   2
BRANCH   1  10
ATOM     10  C   UNL     1      46.115   8.481  18.737  1.00  0.00     0.000 C 
BRANCH  10  11
ATOM     11  C   UNL     1      44.595   8.660  18.872  1.00  0.00    -0.000 C 
BRANCH  11  12
ATOM     12  C   UNL     1      44.197   9.466  20.121  1.00  0.00    -0.000 C 
BRANCH  12  13
ATOM     13  C   UNL     1      45.270   9.532  21.227  1.00  0.00    -0.000 C 
BRANCH  13  14
ATOM     14  C   UNL     1      45.100   8.510  22.367  1.00  0.00    -0.000 C 
BRANCH  14  15
ATOM     15  C   UNL     1      46.351   8.392  23.254  1.00  0.00    -0.000 C 
BRANCH  15  16
ATOM     16  C   UNL     1      47.636   8.193  22.435  1.00  0.00    -0.003 C 
ATOM     17  C   UNL     1      47.923   6.723  22.129  1.00  0.00     0.004 C 
ENDBRANCH  15  16
ENDBRANCH  14  15
ENDBRANCH  13  14
ENDBRANCH  12  13
ENDBRANCH  11  12
ENDBRANCH  10  11
ENDBRANCH   1  10
TORSDOF 13
ENDMDL
MODEL 9
REMARK VINA RESULT:    -4.116      4.566      8.109
REMARK INTER + INTRA:          -8.632
REMARK INTER:                  -7.492
REMARK INTRA:                  -1.140
REMARK UNBOUND:                -1.387
REMARK SMILES CCCCCCCCCCCCCCC(=O)[O-]
REMARK SMILES IDX 9 1 10 2 11 3 12 4 13 5 14 6 15 7 16 8 17 9 8 10 7 11 6 12
REMARK SMILES IDX 5 13 4 14 3 15 2 16 1 17
REMARK H PARENT
REMARK Flexibility Score: inf
ROOT
ATOM      1  C   UNL     1      46.400   7.185  18.795  1.00  0.00     0.000 C 
ENDROOT
BRANCH   1   2
ATOM      2  C   UNL     1      46.843   6.988  20.252  1.00  0.00     0.000 C 
BRANCH   2   3
ATOM      3  C   UNL     1      46.408   8.143  21.174  1.00  0.00     0.000 C 
BRANCH   3   4
ATOM      4  C   UNL     1      47.174   8.231  22.507  1.00  0.00     0.000 C 
BRANCH   4   5
ATOM      5  C   UNL     1      46.501   9.168  23.524  1.00  0.00     0.006 C 
BRANCH   5   6
ATOM      6  C   UNL     1      45.372   8.472  24.295  1.00  0.00     0.053 C 
BRANCH   6   7
ATOM      7  C   UNL     1      44.902   9.296  25.455  1.00  0.00     0.041 C 
ATOM      8  O   UNL     1      44.809   8.781  26.600  1.00  0.00    -0.550 OA
ATOM      9  O   UNL     1      44.532  10.621  25.263  1.00  0.00    -0.550 OA
ENDBRANCH   6   7
ENDBRANCH   5   6
ENDBRANCH   4   5
ENDBRANCH   3   4
ENDBRANCH   2   3
ENDBRANCH   1   2
BRANCH   1  10
ATOM     10  C   UNL     1      45.682   8.528  18.616  1.00  0.00     0.000 C 
BRANCH  10  11
ATOM     11  C   UNL     1      44.389   8.357  17.805  1.00  0.00    -0.000 C 
BRANCH  11  12
ATOM     12  C   UNL     1      44.301   9.322  16.609  1.00  0.00    -0.000 C 
BRANCH  12  13
ATOM     13  C   UNL     1      45.576   9.414  15.746  1.00  0.00    -0.000 C 
BRANCH  13  14
ATOM     14  C   UNL     1      45.667   8.390  14.599  1.00  0.00    -0.000 C 
BRANCH  14  15
ATOM     15  C   UNL     1      46.399   7.100  15.007  1.00  0.00    -0.000 C 
BRANCH  15  16
ATOM     16  C   UNL     1      45.593   5.835  14.672  1.00  0.00    -0.003 C 
ATOM     17  C   UNL     1      44.093   6.008  14.907  1.00  0.00     0.004 C 
ENDBRANCH  15  16
ENDBRANCH  14  15
ENDBRANCH  13  14
ENDBRANCH  12  13
ENDBRANCH  11  12
ENDBRANCH  10  11
ENDBRANCH   1  10
TORSDOF 13
ENDMDL
