MODEL 1
REMARK VINA RESULT:    -3.913      0.000      0.000
REMARK INTER + INTRA:          -6.371
REMARK INTER:                  -5.742
REMARK INTRA:                  -0.628
REMARK UNBOUND:                -0.628
REMARK SMILES O=C([O-])CCCCCCCC(=O)[O-]
REMARK SMILES IDX 7 1 6 2 5 3 4 4 2 5 1 6 3 7 8 8 9 9 10 10 11 11 12 12 13 13
REMARK H PARENT
REMARK Flexibility Score: inf
ROOT
ATOM      1  C   UNL     1     -42.935  27.835  -0.375  1.00  0.00     0.000 C 
ENDROOT
BRANCH   1   2
ATOM      2  C   UNL     1     -44.208  28.682  -0.551  1.00  0.00     0.000 C 
BRANCH   2   3
ATOM      3  C   UNL     1     -45.428  27.839  -0.952  1.00  0.00     0.006 C 
BRANCH   3   4
ATOM      4  C   UNL     1     -45.056  26.389  -1.291  1.00  0.00     0.053 C 
BRANCH   4   5
ATOM      5  C   UNL     1     -46.033  25.814  -2.267  1.00  0.00     0.041 C 
ATOM      6  O   UNL     1     -46.880  24.963  -1.888  1.00  0.00    -0.550 OA
ATOM      7  O   UNL     1     -46.042  26.254  -3.584  1.00  0.00    -0.550 OA
ENDBRANCH   4   5
ENDBRANCH   3   4
ENDBRANCH   2   3
ENDBRANCH   1   2
BRANCH   1   8
ATOM      8  C   UNL     1     -42.483  27.748   1.091  1.00  0.00     0.000 C 
BRANCH   8   9
ATOM      9  C   UNL     1     -43.030  28.902   1.949  1.00  0.00     0.006 C 
BRANCH   9  10
ATOM     10  C   UNL     1     -43.601  28.410   3.286  1.00  0.00     0.053 C 
BRANCH  10  11
ATOM     11  C   UNL     1     -44.582  27.294   3.093  1.00  0.00     0.041 C 
ATOM     12  O   UNL     1     -44.301  26.130   3.482  1.00  0.00    -0.550 OA
ATOM     13  O   UNL     1     -45.820  27.548   2.517  1.00  0.00    -0.550 OA
ENDBRANCH  10  11
ENDBRANCH   9  10
ENDBRANCH   8   9
ENDBRANCH   1   8
TORSDOF 8
ENDMDL
MODEL 2
REMARK VINA RESULT:    -3.803      1.506      2.476
REMARK INTER + INTRA:          -6.210
REMARK INTER:                  -5.555
REMARK INTRA:                  -0.655
REMARK UNBOUND:                -0.628
REMARK SMILES O=C([O-])CCCCCCCC(=O)[O-]
REMARK SMILES IDX 7 1 6 2 5 3 4 4 2 5 1 6 3 7 8 8 9 9 10 10 11 11 12 12 13 13
REMARK H PARENT
REMARK Flexibility Score: inf
ROOT
ATOM      1  C   UNL     1     -42.910  29.632   1.797  1.00  0.00     0.000 C 
ENDROOT
BRANCH   1   2
ATOM      2  C   UNL     1     -42.629  28.205   1.295  1.00  0.00     0.000 C 
BRANCH   2   3
ATOM      3  C   UNL     1     -42.812  28.066  -0.224  1.00  0.00     0.006 C 
BRANCH   3   4
ATOM      4  C   UNL     1     -44.268  28.265  -0.663  1.00  0.00     0.053 C 
BRANCH   4   5
ATOM      5  C   UNL     1     -45.091  27.070  -0.301  1.00  0.00     0.041 C 
ATOM      6  O   UNL     1     -44.956  25.991  -0.937  1.00  0.00    -0.550 OA
ATOM      7  O   UNL     1     -45.972  27.129   0.771  1.00  0.00    -0.550 OA
ENDBRANCH   4   5
ENDBRANCH   3   4
ENDBRANCH   2   3
ENDBRANCH   1   2
BRANCH   1   8
ATOM      8  C   UNL     1     -43.699  29.650   3.115  1.00  0.00     0.000 C 
BRANCH   8   9
ATOM      9  C   UNL     1     -43.013  28.836   4.226  1.00  0.00     0.006 C 
BRANCH   9  10
ATOM     10  C   UNL     1     -44.017  28.016   5.048  1.00  0.00     0.053 C 
BRANCH  10  11
ATOM     11  C   UNL     1     -44.856  27.132   4.177  1.00  0.00     0.041 C 
ATOM     12  O   UNL     1     -44.321  26.207   3.510  1.00  0.00    -0.550 OA
ATOM     13  O   UNL     1     -46.234  27.306   4.130  1.00  0.00    -0.550 OA
ENDBRANCH  10  11
ENDBRANCH   9  10
ENDBRANCH   8   9
ENDBRANCH   1   8
TORSDOF 8
ENDMDL
MODEL 3
REMARK VINA RESULT:    -3.763      0.671      5.100
REMARK INTER + INTRA:          -6.151
REMARK INTER:                  -5.515
REMARK INTRA:                  -0.636
REMARK UNBOUND:                -0.628
REMARK SMILES O=C([O-])CCCCCCCC(=O)[O-]
REMARK SMILES IDX 7 1 6 2 5 3 4 4 2 5 1 6 3 7 8 8 9 9 10 10 11 11 12 12 13 13
REMARK H PARENT
REMARK Flexibility Score: inf
ROOT
ATOM      1  C   UNL     1     -43.373  27.510  -0.279  1.00  0.00     0.000 C 
ENDROOT
BRANCH   1   2
ATOM      2  C   UNL     1     -42.551  27.845   0.978  1.00  0.00     0.000 C 
BRANCH   2   3
ATOM      3  C   UNL     1     -43.240  28.887   1.873  1.00  0.00     0.006 C 
BRANCH   3   4
ATOM      4  C   UNL     1     -43.508  28.363   3.290  1.00  0.00     0.053 C 
BRANCH   4   5
ATOM      5  C   UNL     1     -44.542  27.284   3.261  1.00  0.00     0.041 C 
ATOM      6  O   UNL     1     -44.212  26.084   3.457  1.00  0.00    -0.550 OA
ATOM      7  O   UNL     1     -45.879  27.606   3.067  1.00  0.00    -0.550 OA
ENDBRANCH   4   5
ENDBRANCH   3   4
ENDBRANCH   2   3
ENDBRANCH   1   2
BRANCH   1   8
ATOM      8  C   UNL     1     -44.625  28.390  -0.416  1.00  0.00     0.000 C 
BRANCH   8   9
ATOM      9  C   UNL     1     -45.926  27.569  -0.441  1.00  0.00     0.006 C 
BRANCH   9  10
ATOM     10  C   UNL     1     -46.488  27.416  -1.860  1.00  0.00     0.053 C 
BRANCH  10  11
ATOM     11  C   UNL     1     -46.058  26.127  -2.492  1.00  0.00     0.041 C 
ATOM     12  O   UNL     1     -46.014  26.020  -3.746  1.00  0.00    -0.550 OA
ATOM     13  O   UNL     1     -45.671  25.057  -1.695  1.00  0.00    -0.550 OA
ENDBRANCH  10  11
ENDBRANCH   9  10
ENDBRANCH   8   9
ENDBRANCH   1   8
TORSDOF 8
ENDMDL
MODEL 4
REMARK VINA RESULT:    -3.747      0.746      5.044
REMARK INTER + INTRA:          -6.127
REMARK INTER:                  -5.708
REMARK INTRA:                  -0.420
REMARK UNBOUND:                -0.628
REMARK SMILES O=C([O-])CCCCCCCC(=O)[O-]
REMARK SMILES IDX 7 1 6 2 5 3 4 4 2 5 1 6 3 7 8 8 9 9 10 10 11 11 12 12 13 13
REMARK H PARENT
REMARK Flexibility Score: inf
ROOT
ATOM      1  C   UNL     1     -42.654  27.868   0.885  1.00  0.00     0.000 C 
ENDROOT
BRANCH   1   2
ATOM      2  C   UNL     1     -43.345  28.973   1.705  1.00  0.00     0.000 C 
BRANCH   2   3
ATOM      3  C   UNL     1     -42.988  28.911   3.198  1.00  0.00     0.006 C 
BRANCH   3   4
ATOM      4  C   UNL     1     -44.191  28.544   4.077  1.00  0.00     0.053 C 
BRANCH   4   5
ATOM      5  C   UNL     1     -44.925  27.378   3.496  1.00  0.00     0.041 C 
ATOM      6  O   UNL     1     -44.389  26.238   3.473  1.00  0.00    -0.550 OA
ATOM      7  O   UNL     1     -46.222  27.537   3.025  1.00  0.00    -0.550 OA
ENDBRANCH   4   5
ENDBRANCH   3   4
ENDBRANCH   2   3
ENDBRANCH   1   2
BRANCH   1   8
ATOM      8  C   UNL     1     -43.358  27.602  -0.455  1.00  0.00     0.000 C 
BRANCH   8   9
ATOM      9  C   UNL     1     -44.826  27.178  -0.278  1.00  0.00     0.006 C 
BRANCH   9  10
ATOM     10  C   UNL     1     -45.639  27.351  -1.568  1.00  0.00     0.053 C 
BRANCH  10  11
ATOM     11  C   UNL     1     -45.802  26.053  -2.300  1.00  0.00     0.041 C 
ATOM     12  O   UNL     1     -45.753  24.962  -1.673  1.00  0.00    -0.550 OA
ATOM     13  O   UNL     1     -46.044  26.051  -3.668  1.00  0.00    -0.550 OA
ENDBRANCH  10  11
ENDBRANCH   9  10
ENDBRANCH   8   9
ENDBRANCH   1   8
TORSDOF 8
ENDMDL
MODEL 5
REMARK VINA RESULT:    -3.731      2.612      6.428
REMARK INTER + INTRA:          -6.105
REMARK INTER:                  -5.648
REMARK INTRA:                  -0.457
REMARK UNBOUND:                -0.628
REMARK SMILES O=C([O-])CCCCCCCC(=O)[O-]
REMARK SMILES IDX 7 1 6 2 5 3 4 4 2 5 1 6 3 7 8 8 9 9 10 10 11 11 12 12 13 13
REMARK H PARENT
REMARK Flexibility Score: inf
ROOT
ATOM      1  C   UNL     1     -43.377  28.661   3.502  1.00  0.00     0.000 C 
ENDROOT
BRANCH   1   2
ATOM      2  C   UNL     1     -44.383  27.524   3.754  1.00  0.00     0.000 C 
BRANCH   2   3
ATOM      3  C   UNL     1     -44.834  27.449   5.221  1.00  0.00     0.006 C 
BRANCH   3   4
ATOM      4  C   UNL     1     -43.856  26.657   6.099  1.00  0.00     0.053 C 
BRANCH   4   5
ATOM      5  C   UNL     1     -43.289  27.532   7.170  1.00  0.00     0.041 C 
ATOM      6  O   UNL     1     -43.793  27.528   8.325  1.00  0.00    -0.550 OA
ATOM      7  O   UNL     1     -42.172  28.315   6.910  1.00  0.00    -0.550 OA
ENDBRANCH   4   5
ENDBRANCH   3   4
ENDBRANCH   2   3
ENDBRANCH   1   2
BRANCH   1   8
ATOM      8  C   UNL     1     -43.019  28.812   2.015  1.00  0.00     0.000 C 
BRANCH   8   9
ATOM      9  C   UNL     1     -42.955  27.461   1.281  1.00  0.00     0.006 C 
BRANCH   9  10
ATOM     10  C   UNL     1     -43.552  27.540  -0.130  1.00  0.00     0.053 C 
BRANCH  10  11
ATOM     11  C   UNL     1     -44.856  26.808  -0.224  1.00  0.00     0.041 C 
ATOM     12  O   UNL     1     -45.781  27.055   0.593  1.00  0.00    -0.550 OA
ATOM     13  O   UNL     1     -45.061  25.879  -1.236  1.00  0.00    -0.550 OA
ENDBRANCH  10  11
ENDBRANCH   9  10
ENDBRANCH   8   9
ENDBRANCH   1   8
TORSDOF 8
ENDMDL
MODEL 6
REMARK VINA RESULT:    -3.719      2.744      6.990
REMARK INTER + INTRA:          -6.087
REMARK INTER:                  -5.754
REMARK INTRA:                  -0.333
REMARK UNBOUND:                -0.628
REMARK SMILES O=C([O-])CCCCCCCC(=O)[O-]
REMARK SMILES IDX 7 1 6 2 5 3 4 4 2 5 1 6 3 7 8 8 9 9 10 10 11 11 12 12 13 13
REMARK H PARENT
REMARK Flexibility Score: inf
ROOT
ATOM      1  C   UNL     1     -45.593  26.006  -2.868  1.00  0.00     0.000 C 
ENDROOT
BRANCH   1   2
ATOM      2  C   UNL     1     -45.239  25.896  -1.374  1.00  0.00     0.000 C 
BRANCH   2   3
ATOM      3  C   UNL     1     -44.957  27.262  -0.732  1.00  0.00     0.006 C 
BRANCH   3   4
ATOM      4  C   UNL     1     -43.580  27.325  -0.058  1.00  0.00     0.053 C 
BRANCH   4   5
ATOM      5  C   UNL     1     -43.728  27.528   1.416  1.00  0.00     0.041 C 
ATOM      6  O   UNL     1     -44.525  26.811   2.078  1.00  0.00    -0.550 OA
ATOM      7  O   UNL     1     -42.950  28.475   2.070  1.00  0.00    -0.550 OA
ENDBRANCH   4   5
ENDBRANCH   3   4
ENDBRANCH   2   3
ENDBRANCH   1   2
BRANCH   1   8
ATOM      8  C   UNL     1     -46.406  27.270  -3.189  1.00  0.00     0.000 C 
BRANCH   8   9
ATOM      9  C   UNL     1     -46.427  27.595  -4.692  1.00  0.00     0.006 C 
BRANCH   9  10
ATOM     10  C   UNL     1     -46.115  26.365  -5.555  1.00  0.00     0.053 C 
BRANCH  10  11
ATOM     11  C   UNL     1     -45.761  26.748  -6.961  1.00  0.00     0.041 C 
ATOM     12  O   UNL     1     -45.989  25.952  -7.909  1.00  0.00    -0.550 OA
ATOM     13  O   UNL     1     -45.213  27.997  -7.224  1.00  0.00    -0.550 OA
ENDBRANCH  10  11
ENDBRANCH   9  10
ENDBRANCH   8   9
ENDBRANCH   1   8
TORSDOF 8
ENDMDL
MODEL 7
REMARK VINA RESULT:    -3.671      2.359      3.367
REMARK INTER + INTRA:          -6.017
REMARK INTER:                  -5.519
REMARK INTRA:                  -0.497
REMARK UNBOUND:                -0.628
REMARK SMILES O=C([O-])CCCCCCCC(=O)[O-]
REMARK SMILES IDX 7 1 6 2 5 3 4 4 2 5 1 6 3 7 8 8 9 9 10 10 11 11 12 12 13 13
REMARK H PARENT
REMARK Flexibility Score: inf
ROOT
ATOM      1  C   UNL     1     -43.252  28.223   2.707  1.00  0.00     0.000 C 
ENDROOT
BRANCH   1   2
ATOM      2  C   UNL     1     -42.986  27.236   1.555  1.00  0.00     0.000 C 
BRANCH   2   3
ATOM      3  C   UNL     1     -42.949  27.927   0.183  1.00  0.00     0.006 C 
BRANCH   3   4
ATOM      4  C   UNL     1     -44.350  28.262  -0.346  1.00  0.00     0.053 C 
BRANCH   4   5
ATOM      5  C   UNL     1     -45.225  27.051  -0.311  1.00  0.00     0.041 C 
ATOM      6  O   UNL     1     -46.250  27.029   0.422  1.00  0.00    -0.550 OA
ATOM      7  O   UNL     1     -44.940  25.962  -1.124  1.00  0.00    -0.550 OA
ENDBRANCH   4   5
ENDBRANCH   3   4
ENDBRANCH   2   3
ENDBRANCH   1   2
BRANCH   1   8
ATOM      8  C   UNL     1     -44.586  27.952   3.418  1.00  0.00     0.000 C 
BRANCH   8   9
ATOM      9  C   UNL     1     -44.627  28.537   4.841  1.00  0.00     0.006 C 
BRANCH   9  10
ATOM     10  C   UNL     1     -43.223  28.798   5.401  1.00  0.00     0.053 C 
BRANCH  10  11
ATOM     11  C   UNL     1     -42.945  27.963   6.614  1.00  0.00     0.041 C 
ATOM     12  O   UNL     1     -43.599  26.907   6.819  1.00  0.00    -0.550 OA
ATOM     13  O   UNL     1     -41.938  28.333   7.497  1.00  0.00    -0.550 OA
ENDBRANCH  10  11
ENDBRANCH   9  10
ENDBRANCH   8   9
ENDBRANCH   1   8
TORSDOF 8
ENDMDL
MODEL 8
REMARK VINA RESULT:    -3.639      1.461      2.258
REMARK INTER + INTRA:          -5.969
REMARK INTER:                  -5.684
REMARK INTRA:                  -0.285
REMARK UNBOUND:                -0.628
REMARK SMILES O=C([O-])CCCCCCCC(=O)[O-]
REMARK SMILES IDX 7 1 6 2 5 3 4 4 2 5 1 6 3 7 8 8 9 9 10 10 11 11 12 12 13 13
REMARK H PARENT
REMARK Flexibility Score: inf
ROOT
ATOM      1  C   UNL     1     -44.134  26.771  -0.640  1.00  0.00     0.000 C 
ENDROOT
BRANCH   1   2
ATOM      2  C   UNL     1     -45.417  27.082  -1.432  1.00  0.00     0.000 C 
BRANCH   2   3
ATOM      3  C   UNL     1     -45.729  26.016  -2.494  1.00  0.00     0.006 C 
BRANCH   3   4
ATOM      4  C   UNL     1     -46.868  26.435  -3.432  1.00  0.00     0.053 C 
BRANCH   4   5
ATOM      5  C   UNL     1     -46.319  27.037  -4.685  1.00  0.00     0.041 C 
ATOM      6  O   UNL     1     -46.134  26.321  -5.705  1.00  0.00    -0.550 OA
ATOM      7  O   UNL     1     -46.056  28.400  -4.745  1.00  0.00    -0.550 OA
ENDBRANCH   4   5
ENDBRANCH   3   4
ENDBRANCH   2   3
ENDBRANCH   1   2
BRANCH   1   8
ATOM      8  C   UNL     1     -43.523  28.022   0.008  1.00  0.00     0.000 C 
BRANCH   8   9
ATOM      9  C   UNL     1     -42.831  27.717   1.348  1.00  0.00     0.006 C 
BRANCH   9  10
ATOM     10  C   UNL     1     -43.602  28.291   2.543  1.00  0.00     0.053 C 
BRANCH  10  11
ATOM     11  C   UNL     1     -44.528  27.277   3.145  1.00  0.00     0.041 C 
ATOM     12  O   UNL     1     -45.689  27.611   3.498  1.00  0.00    -0.550 OA
ATOM     13  O   UNL     1     -44.119  25.956   3.281  1.00  0.00    -0.550 OA
ENDBRANCH  10  11
ENDBRANCH   9  10
ENDBRANCH   8   9
ENDBRANCH   1   8
TORSDOF 8
ENDMDL
MODEL 9
REMARK VINA RESULT:    -3.576      1.971      5.935
REMARK INTER + INTRA:          -5.877
REMARK INTER:                  -5.430
REMARK INTRA:                  -0.447
REMARK UNBOUND:                -0.628
REMARK SMILES O=C([O-])CCCCCCCC(=O)[O-]
REMARK SMILES IDX 7 1 6 2 5 3 4 4 2 5 1 6 3 7 8 8 9 9 10 10 11 11 12 12 13 13
REMARK H PARENT
REMARK Flexibility Score: inf
ROOT
ATOM      1  C   UNL     1     -43.142  27.065   1.691  1.00  0.00     0.000 C 
ENDROOT
BRANCH   1   2
ATOM      2  C   UNL     1     -44.039  27.842   2.670  1.00  0.00     0.000 C 
BRANCH   2   3
ATOM      3  C   UNL     1     -43.231  28.683   3.671  1.00  0.00     0.006 C 
BRANCH   3   4
ATOM      4  C   UNL     1     -43.914  28.786   5.041  1.00  0.00     0.053 C 
BRANCH   4   5
ATOM      5  C   UNL     1     -43.291  27.830   6.008  1.00  0.00     0.041 C 
ATOM      6  O   UNL     1     -43.746  26.661   6.127  1.00  0.00    -0.550 OA
ATOM      7  O   UNL     1     -42.175  28.211   6.742  1.00  0.00    -0.550 OA
ENDBRANCH   4   5
ENDBRANCH   3   4
ENDBRANCH   2   3
ENDBRANCH   1   2
BRANCH   1   8
ATOM      8  C   UNL     1     -42.830  27.864   0.416  1.00  0.00     0.000 C 
BRANCH   8   9
ATOM      9  C   UNL     1     -44.077  28.097  -0.456  1.00  0.00     0.006 C 
BRANCH   9  10
ATOM     10  C   UNL     1     -44.685  26.782  -0.960  1.00  0.00     0.053 C 
BRANCH  10  11
ATOM     11  C   UNL     1     -46.166  26.732  -0.735  1.00  0.00     0.041 C 
ATOM     12  O   UNL     1     -46.925  26.253  -1.617  1.00  0.00    -0.550 OA
ATOM     13  O   UNL     1     -46.702  27.183   0.465  1.00  0.00    -0.550 OA
ENDBRANCH  10  11
ENDBRANCH   9  10
ENDBRANCH   8   9
ENDBRANCH   1   8
TORSDOF 8
ENDMDL
