MODEL 1
REMARK VINA RESULT:    -4.026      0.000      0.000
REMARK INTER + INTRA:          -8.558
REMARK INTER:                  -7.085
REMARK INTRA:                  -1.473
REMARK UNBOUND:                -1.473
REMARK SMILES CCCCCCC=CCCCCCCCC(=O)[O-]
REMARK SMILES IDX 10 1 11 2 12 3 13 4 14 5 15 6 16 7 17 8 18 9 9 10 8 11 7 12
REMARK SMILES IDX 6 13 5 14 4 15 3 16 2 17 1 18
REMARK H PARENT
REMARK Flexibility Score: inf
ROOT
ATOM      1  C   UNL     1      15.849  16.073  27.500  1.00  0.00     0.004 C 
ENDROOT
BRANCH   1   2
ATOM      2  C   UNL     1      16.898  17.080  27.015  1.00  0.00     0.000 C 
BRANCH   2   3
ATOM      3  C   UNL     1      16.900  17.174  25.482  1.00  0.00     0.000 C 
BRANCH   3   4
ATOM      4  C   UNL     1      15.819  18.125  24.937  1.00  0.00     0.000 C 
BRANCH   4   5
ATOM      5  C   UNL     1      14.552  17.432  24.406  1.00  0.00     0.006 C 
BRANCH   5   6
ATOM      6  C   UNL     1      13.258  18.125  24.854  1.00  0.00     0.053 C 
BRANCH   6   7
ATOM      7  C   UNL     1      12.233  17.111  25.251  1.00  0.00     0.041 C 
ATOM      8  O   UNL     1      12.407  15.893  24.981  1.00  0.00    -0.550 OA
ATOM      9  O   UNL     1      11.062  17.516  25.878  1.00  0.00    -0.550 OA
ENDBRANCH   6   7
ENDBRANCH   5   6
ENDBRANCH   4   5
ENDBRANCH   3   4
ENDBRANCH   2   3
ENDBRANCH   1   2
BRANCH   1  10
ATOM     10  C   UNL     1      14.652  16.790  28.137  1.00  0.00     0.027 C 
BRANCH  10  11
ATOM     11  C   UNL     1      13.521  15.833  28.423  1.00  0.00    -0.031 C 
ATOM     12  C   UNL     1      13.359  15.138  29.565  1.00  0.00    -0.031 C 
BRANCH  12  13
ATOM     13  C   UNL     1      14.299  15.165  30.747  1.00  0.00     0.027 C 
BRANCH  13  14
ATOM     14  C   UNL     1      14.291  13.832  31.509  1.00  0.00     0.004 C 
BRANCH  14  15
ATOM     15  C   UNL     1      15.576  13.019  31.286  1.00  0.00     0.000 C 
BRANCH  15  16
ATOM     16  C   UNL     1      15.316  11.827  30.355  1.00  0.00    -0.000 C 
BRANCH  16  17
ATOM     17  C   UNL     1      15.391  12.210  28.869  1.00  0.00    -0.003 C 
ATOM     18  C   UNL     1      15.793  11.037  27.975  1.00  0.00     0.004 C 
ENDBRANCH  16  17
ENDBRANCH  15  16
ENDBRANCH  14  15
ENDBRANCH  13  14
ENDBRANCH  12  13
ENDBRANCH  10  11
ENDBRANCH   1  10
TORSDOF 13
ENDMDL
MODEL 2
REMARK VINA RESULT:    -3.998      2.564      6.879
REMARK INTER + INTRA:          -8.510
REMARK INTER:                  -7.287
REMARK INTRA:                  -1.222
REMARK UNBOUND:                -1.473
REMARK SMILES CCCCCCC=CCCCCCCCC(=O)[O-]
REMARK SMILES IDX 10 1 11 2 12 3 13 4 14 5 15 6 16 7 17 8 18 9 9 10 8 11 7 12
REMARK SMILES IDX 6 13 5 14 4 15 3 16 2 17 1 18
REMARK H PARENT
REMARK Flexibility Score: inf
ROOT
ATOM      1  C   UNL     1      14.463  15.685  27.240  1.00  0.00     0.004 C 
ENDROOT
BRANCH   1   2
ATOM      2  C   UNL     1      13.782  15.247  28.542  1.00  0.00     0.000 C 
BRANCH   2   3
ATOM      3  C   UNL     1      14.782  15.239  29.707  1.00  0.00     0.000 C 
BRANCH   3   4
ATOM      4  C   UNL     1      14.158  14.756  31.030  1.00  0.00     0.000 C 
BRANCH   4   5
ATOM      5  C   UNL     1      14.753  13.452  31.591  1.00  0.00     0.006 C 
BRANCH   5   6
ATOM      6  C   UNL     1      15.842  12.855  30.689  1.00  0.00     0.053 C 
BRANCH   6   7
ATOM      7  C   UNL     1      15.233  11.956  29.661  1.00  0.00     0.041 C 
ATOM      8  O   UNL     1      14.186  11.307  29.925  1.00  0.00    -0.550 OA
ATOM      9  O   UNL     1      15.846  11.798  28.425  1.00  0.00    -0.550 OA
ENDBRANCH   6   7
ENDBRANCH   5   6
ENDBRANCH   4   5
ENDBRANCH   3   4
ENDBRANCH   2   3
ENDBRANCH   1   2
BRANCH   1  10
ATOM     10  C   UNL     1      15.184  17.026  27.420  1.00  0.00     0.027 C 
BRANCH  10  11
ATOM     11  C   UNL     1      16.133  17.303  26.280  1.00  0.00    -0.031 C 
ATOM     12  C   UNL     1      15.782  17.796  25.077  1.00  0.00    -0.031 C 
BRANCH  12  13
ATOM     13  C   UNL     1      14.373  18.125  24.643  1.00  0.00     0.027 C 
BRANCH  13  14
ATOM     14  C   UNL     1      13.698  16.929  23.956  1.00  0.00     0.004 C 
BRANCH  14  15
ATOM     15  C   UNL     1      12.241  17.220  23.564  1.00  0.00     0.000 C 
BRANCH  15  16
ATOM     16  C   UNL     1      11.286  16.892  24.721  1.00  0.00    -0.000 C 
BRANCH  16  17
ATOM     17  C   UNL     1      10.974  18.117  25.594  1.00  0.00    -0.003 C 
ATOM     18  C   UNL     1      11.564  18.008  27.000  1.00  0.00     0.004 C 
ENDBRANCH  16  17
ENDBRANCH  15  16
ENDBRANCH  14  15
ENDBRANCH  13  14
ENDBRANCH  12  13
ENDBRANCH  10  11
ENDBRANCH   1  10
TORSDOF 13
ENDMDL
MODEL 3
REMARK VINA RESULT:    -3.958      1.199      2.274
REMARK INTER + INTRA:          -8.438
REMARK INTER:                  -7.596
REMARK INTRA:                  -0.842
REMARK UNBOUND:                -1.473
REMARK SMILES CCCCCCC=CCCCCCCCC(=O)[O-]
REMARK SMILES IDX 10 1 11 2 12 3 13 4 14 5 15 6 16 7 17 8 18 9 9 10 8 11 7 12
REMARK SMILES IDX 6 13 5 14 4 15 3 16 2 17 1 18
REMARK H PARENT
REMARK Flexibility Score: inf
ROOT
ATOM      1  C   UNL     1      14.624  16.800  25.578  1.00  0.00     0.004 C 
ENDROOT
BRANCH   1   2
ATOM      2  C   UNL     1      15.060  17.924  24.631  1.00  0.00     0.000 C 
BRANCH   2   3
ATOM      3  C   UNL     1      14.068  18.077  23.469  1.00  0.00     0.000 C 
BRANCH   3   4
ATOM      4  C   UNL     1      12.782  17.254  23.665  1.00  0.00     0.000 C 
BRANCH   4   5
ATOM      5  C   UNL     1      11.495  18.084  23.815  1.00  0.00     0.006 C 
BRANCH   5   6
ATOM      6  C   UNL     1      10.545  17.526  24.883  1.00  0.00     0.053 C 
BRANCH   6   7
ATOM      7  C   UNL     1      11.298  17.198  26.133  1.00  0.00     0.041 C 
ATOM      8  O   UNL     1      11.741  18.120  26.867  1.00  0.00    -0.550 OA
ATOM      9  O   UNL     1      11.551  15.873  26.465  1.00  0.00    -0.550 OA
ENDBRANCH   6   7
ENDBRANCH   5   6
ENDBRANCH   4   5
ENDBRANCH   3   4
ENDBRANCH   2   3
ENDBRANCH   1   2
BRANCH   1  10
ATOM     10  C   UNL     1      14.809  17.214  27.044  1.00  0.00     0.027 C 
BRANCH  10  11
ATOM     11  C   UNL     1      15.687  16.239  27.788  1.00  0.00    -0.031 C 
ATOM     12  C   UNL     1      15.309  15.507  28.854  1.00  0.00    -0.031 C 
BRANCH  12  13
ATOM     13  C   UNL     1      13.951  15.560  29.515  1.00  0.00     0.027 C 
BRANCH  13  14
ATOM     14  C   UNL     1      13.708  14.333  30.406  1.00  0.00     0.004 C 
BRANCH  14  15
ATOM     15  C   UNL     1      14.833  14.118  31.431  1.00  0.00     0.000 C 
BRANCH  15  16
ATOM     16  C   UNL     1      15.618  12.835  31.121  1.00  0.00    -0.000 C 
BRANCH  16  17
ATOM     17  C   UNL     1      14.916  11.949  30.080  1.00  0.00    -0.003 C 
ATOM     18  C   UNL     1      15.621  11.958  28.724  1.00  0.00     0.004 C 
ENDBRANCH  16  17
ENDBRANCH  15  16
ENDBRANCH  14  15
ENDBRANCH  13  14
ENDBRANCH  12  13
ENDBRANCH  10  11
ENDBRANCH   1  10
TORSDOF 13
ENDMDL
MODEL 4
REMARK VINA RESULT:    -3.908      3.044      4.473
REMARK INTER + INTRA:          -8.350
REMARK INTER:                  -7.710
REMARK INTRA:                  -0.641
REMARK UNBOUND:                -1.473
REMARK SMILES CCCCCCC=CCCCCCCCC(=O)[O-]
REMARK SMILES IDX 10 1 11 2 12 3 13 4 14 5 15 6 16 7 17 8 18 9 9 10 8 11 7 12
REMARK SMILES IDX 6 13 5 14 4 15 3 16 2 17 1 18
REMARK H PARENT
REMARK Flexibility Score: inf
ROOT
ATOM      1  C   UNL     1      13.381  16.443  24.753  1.00  0.00     0.004 C 
ENDROOT
BRANCH   1   2
ATOM      2  C   UNL     1      13.598  17.755  23.991  1.00  0.00     0.000 C 
BRANCH   2   3
ATOM      3  C   UNL     1      15.091  18.108  23.920  1.00  0.00     0.000 C 
BRANCH   3   4
ATOM      4  C   UNL     1      15.772  18.117  25.300  1.00  0.00     0.000 C 
BRANCH   4   5
ATOM      5  C   UNL     1      17.301  17.937  25.272  1.00  0.00     0.006 C 
BRANCH   5   6
ATOM      6  C   UNL     1      17.794  16.863  26.251  1.00  0.00     0.053 C 
BRANCH   6   7
ATOM      7  C   UNL     1      19.237  17.080  26.580  1.00  0.00     0.041 C 
ATOM      8  O   UNL     1      19.644  16.946  27.765  1.00  0.00    -0.550 OA
ATOM      9  O   UNL     1      20.125  17.475  25.589  1.00  0.00    -0.550 OA
ENDBRANCH   6   7
ENDBRANCH   5   6
ENDBRANCH   4   5
ENDBRANCH   3   4
ENDBRANCH   2   3
ENDBRANCH   1   2
BRANCH   1  10
ATOM     10  C   UNL     1      11.931  16.320  25.237  1.00  0.00     0.027 C 
BRANCH  10  11
ATOM     11  C   UNL     1      11.832  15.476  26.483  1.00  0.00    -0.031 C 
ATOM     12  C   UNL     1      12.654  15.557  27.546  1.00  0.00    -0.031 C 
BRANCH  12  13
ATOM     13  C   UNL     1      13.843  16.482  27.665  1.00  0.00     0.027 C 
BRANCH  13  14
ATOM     14  C   UNL     1      14.982  15.841  28.470  1.00  0.00     0.004 C 
BRANCH  14  15
ATOM     15  C   UNL     1      14.554  14.534  29.156  1.00  0.00     0.000 C 
BRANCH  15  16
ATOM     16  C   UNL     1      14.137  14.790  30.612  1.00  0.00    -0.000 C 
BRANCH  16  17
ATOM     17  C   UNL     1      14.669  13.719  31.576  1.00  0.00    -0.003 C 
ATOM     18  C   UNL     1      15.575  12.699  30.887  1.00  0.00     0.004 C 
ENDBRANCH  16  17
ENDBRANCH  15  16
ENDBRANCH  14  15
ENDBRANCH  13  14
ENDBRANCH  12  13
ENDBRANCH  10  11
ENDBRANCH   1  10
TORSDOF 13
ENDMDL
MODEL 5
REMARK VINA RESULT:    -3.839      2.446      3.614
REMARK INTER + INTRA:          -8.229
REMARK INTER:                  -7.428
REMARK INTRA:                  -0.801
REMARK UNBOUND:                -1.473
REMARK SMILES CCCCCCC=CCCCCCCCC(=O)[O-]
REMARK SMILES IDX 10 1 11 2 12 3 13 4 14 5 15 6 16 7 17 8 18 9 9 10 8 11 7 12
REMARK SMILES IDX 6 13 5 14 4 15 3 16 2 17 1 18
REMARK H PARENT
REMARK Flexibility Score: inf
ROOT
ATOM      1  C   UNL     1      11.412  15.831  25.471  1.00  0.00     0.004 C 
ENDROOT
BRANCH   1   2
ATOM      2  C   UNL     1      11.656  17.159  24.746  1.00  0.00     0.000 C 
BRANCH   2   3
ATOM      3  C   UNL     1      13.027  17.163  24.055  1.00  0.00     0.000 C 
BRANCH   3   4
ATOM      4  C   UNL     1      14.032  18.122  24.720  1.00  0.00     0.000 C 
BRANCH   4   5
ATOM      5  C   UNL     1      15.513  17.760  24.509  1.00  0.00     0.006 C 
BRANCH   5   6
ATOM      6  C   UNL     1      16.267  17.536  25.827  1.00  0.00     0.053 C 
BRANCH   6   7
ATOM      7  C   UNL     1      17.714  17.265  25.562  1.00  0.00     0.041 C 
ATOM      8  O   UNL     1      18.343  16.434  26.269  1.00  0.00    -0.550 OA
ATOM      9  O   UNL     1      18.380  17.962  24.563  1.00  0.00    -0.550 OA
ENDBRANCH   6   7
ENDBRANCH   5   6
ENDBRANCH   4   5
ENDBRANCH   3   4
ENDBRANCH   2   3
ENDBRANCH   1   2
BRANCH   1  10
ATOM     10  C   UNL     1      12.600  15.469  26.372  1.00  0.00     0.027 C 
BRANCH  10  11
ATOM     11  C   UNL     1      12.771  16.465  27.491  1.00  0.00    -0.031 C 
ATOM     12  C   UNL     1      13.346  16.208  28.682  1.00  0.00    -0.031 C 
BRANCH  12  13
ATOM     13  C   UNL     1      13.889  14.868  29.120  1.00  0.00     0.027 C 
BRANCH  13  14
ATOM     14  C   UNL     1      14.922  15.017  30.246  1.00  0.00     0.004 C 
BRANCH  14  15
ATOM     15  C   UNL     1      14.800  13.912  31.307  1.00  0.00     0.000 C 
BRANCH  15  16
ATOM     16  C   UNL     1      15.662  12.697  30.934  1.00  0.00    -0.000 C 
BRANCH  16  17
ATOM     17  C   UNL     1      14.967  11.765  29.930  1.00  0.00    -0.003 C 
ATOM     18  C   UNL     1      15.634  11.774  28.555  1.00  0.00     0.004 C 
ENDBRANCH  16  17
ENDBRANCH  15  16
ENDBRANCH  14  15
ENDBRANCH  13  14
ENDBRANCH  12  13
ENDBRANCH  10  11
ENDBRANCH   1  10
TORSDOF 13
ENDMDL
MODEL 6
REMARK VINA RESULT:    -3.781      2.331      6.487
REMARK INTER + INTRA:          -8.127
REMARK INTER:                  -6.752
REMARK INTRA:                  -1.376
REMARK UNBOUND:                -1.473
REMARK SMILES CCCCCCC=CCCCCCCCC(=O)[O-]
REMARK SMILES IDX 10 1 11 2 12 3 13 4 14 5 15 6 16 7 17 8 18 9 9 10 8 11 7 12
REMARK SMILES IDX 6 13 5 14 4 15 3 16 2 17 1 18
REMARK H PARENT
REMARK Flexibility Score: inf
ROOT
ATOM      1  C   UNL     1      14.390  15.585  28.259  1.00  0.00     0.004 C 
ENDROOT
BRANCH   1   2
ATOM      2  C   UNL     1      15.108  15.323  29.588  1.00  0.00     0.000 C 
BRANCH   2   3
ATOM      3  C   UNL     1      14.140  14.745  30.630  1.00  0.00     0.000 C 
BRANCH   3   4
ATOM      4  C   UNL     1      14.782  13.652  31.504  1.00  0.00     0.000 C 
BRANCH   4   5
ATOM      5  C   UNL     1      15.670  12.650  30.745  1.00  0.00     0.006 C 
BRANCH   5   6
ATOM      6  C   UNL     1      14.876  11.752  29.787  1.00  0.00     0.053 C 
BRANCH   6   7
ATOM      7  C   UNL     1      15.606  11.594  28.492  1.00  0.00     0.041 C 
ATOM      8  O   UNL     1      16.002  10.457  28.121  1.00  0.00    -0.550 OA
ATOM      9  O   UNL     1      15.890  12.708  27.714  1.00  0.00    -0.550 OA
ENDBRANCH   6   7
ENDBRANCH   5   6
ENDBRANCH   4   5
ENDBRANCH   3   4
ENDBRANCH   2   3
ENDBRANCH   1   2
BRANCH   1  10
ATOM     10  C   UNL     1      12.950  16.059  28.497  1.00  0.00     0.027 C 
BRANCH  10  11
ATOM     11  C   UNL     1      12.693  17.396  27.849  1.00  0.00    -0.031 C 
ATOM     12  C   UNL     1      12.406  17.589  26.547  1.00  0.00    -0.031 C 
BRANCH  12  13
ATOM     13  C   UNL     1      12.328  16.503  25.498  1.00  0.00     0.027 C 
BRANCH  13  14
ATOM     14  C   UNL     1      13.341  16.733  24.368  1.00  0.00     0.004 C 
BRANCH  14  15
ATOM     15  C   UNL     1      13.991  18.124  24.435  1.00  0.00     0.000 C 
BRANCH  15  16
ATOM     16  C   UNL     1      15.522  18.013  24.466  1.00  0.00    -0.000 C 
BRANCH  16  17
ATOM     17  C   UNL     1      16.052  17.532  25.826  1.00  0.00    -0.003 C 
ATOM     18  C   UNL     1      17.573  17.389  25.852  1.00  0.00     0.004 C 
ENDBRANCH  16  17
ENDBRANCH  15  16
ENDBRANCH  14  15
ENDBRANCH  13  14
ENDBRANCH  12  13
ENDBRANCH  10  11
ENDBRANCH   1  10
TORSDOF 13
ENDMDL
MODEL 7
REMARK VINA RESULT:    -3.756      1.434      3.484
REMARK INTER + INTRA:          -8.084
REMARK INTER:                  -8.302
REMARK INTRA:                   0.217
REMARK UNBOUND:                -1.473
REMARK SMILES CCCCCCC=CCCCCCCCC(=O)[O-]
REMARK SMILES IDX 10 1 11 2 12 3 13 4 14 5 15 6 16 7 17 8 18 9 9 10 8 11 7 12
REMARK SMILES IDX 6 13 5 14 4 15 3 16 2 17 1 18
REMARK H PARENT
REMARK Flexibility Score: inf
ROOT
ATOM      1  C   UNL     1      15.584  17.730  25.242  1.00  0.00     0.004 C 
ENDROOT
BRANCH   1   2
ATOM      2  C   UNL     1      14.923  17.776  23.860  1.00  0.00     0.000 C 
BRANCH   2   3
ATOM      3  C   UNL     1      13.432  18.125  23.977  1.00  0.00     0.000 C 
BRANCH   3   4
ATOM      4  C   UNL     1      12.515  17.058  23.352  1.00  0.00     0.000 C 
BRANCH   4   5
ATOM      5  C   UNL     1      11.349  16.598  24.246  1.00  0.00     0.006 C 
BRANCH   5   6
ATOM      6  C   UNL     1      11.275  17.364  25.573  1.00  0.00     0.053 C 
BRANCH   6   7
ATOM      7  C   UNL     1      12.114  16.691  26.612  1.00  0.00     0.041 C 
ATOM      8  O   UNL     1      12.428  15.478  26.486  1.00  0.00    -0.550 OA
ATOM      9  O   UNL     1      12.512  17.390  27.744  1.00  0.00    -0.550 OA
ENDBRANCH   6   7
ENDBRANCH   5   6
ENDBRANCH   4   5
ENDBRANCH   3   4
ENDBRANCH   2   3
ENDBRANCH   1   2
BRANCH   1  10
ATOM     10  C   UNL     1      17.092  17.996  25.139  1.00  0.00     0.027 C 
BRANCH  10  11
ATOM     11  C   UNL     1      17.863  17.218  26.176  1.00  0.00    -0.031 C 
ATOM     12  C   UNL     1      17.322  16.563  27.221  1.00  0.00    -0.031 C 
BRANCH  12  13
ATOM     13  C   UNL     1      15.850  16.521  27.561  1.00  0.00     0.027 C 
BRANCH  13  14
ATOM     14  C   UNL     1      15.600  15.830  28.908  1.00  0.00     0.004 C 
BRANCH  14  15
ATOM     15  C   UNL     1      14.481  14.779  28.832  1.00  0.00     0.000 C 
BRANCH  15  16
ATOM     16  C   UNL     1      14.895  13.484  29.546  1.00  0.00    -0.000 C 
BRANCH  16  17
ATOM     17  C   UNL     1      15.354  13.728  30.992  1.00  0.00    -0.003 C 
ATOM     18  C   UNL     1      14.194  14.048  31.935  1.00  0.00     0.004 C 
ENDBRANCH  16  17
ENDBRANCH  15  16
ENDBRANCH  14  15
ENDBRANCH  13  14
ENDBRANCH  12  13
ENDBRANCH  10  11
ENDBRANCH   1  10
TORSDOF 13
ENDMDL
