MODEL 1
REMARK VINA RESULT:    -3.058      0.000      0.000
REMARK INTER + INTRA:          -3.818
REMARK INTER:                  -3.773
REMARK INTRA:                  -0.045
REMARK UNBOUND:                -0.045
REMARK SMILES CCCCCC(=O)[O-]
REMARK SMILES IDX 4 1 5 2 6 3 7 4 8 5 3 6 2 7 1 8
REMARK H PARENT
REMARK Flexibility Score: inf
ROOT
ATOM      1  C   UNL     1      13.848   3.953  -1.258  1.00  0.00     0.006 C 
ENDROOT
BRANCH   1   2
ATOM      2  C   UNL     1      14.232   3.007  -2.403  1.00  0.00     0.053 C 
BRANCH   2   3
ATOM      3  C   UNL     1      15.438   2.203  -2.032  1.00  0.00     0.041 C 
ATOM      4  O   UNL     1      16.346   2.712  -1.323  1.00  0.00    -0.550 OA
ATOM      5  O   UNL     1      15.582   0.906  -2.508  1.00  0.00    -0.550 OA
ENDBRANCH   2   3
ENDBRANCH   1   2
BRANCH   1   6
ATOM      6  C   UNL     1      12.591   4.780  -1.572  1.00  0.00     0.000 C 
BRANCH   6   7
ATOM      7  C   UNL     1      11.777   5.118  -0.315  1.00  0.00    -0.003 C 
ATOM      8  C   UNL     1      10.821   6.279  -0.576  1.00  0.00     0.004 C 
ENDBRANCH   6   7
ENDBRANCH   1   6
TORSDOF 4
ENDMDL
MODEL 2
REMARK VINA RESULT:    -2.884      0.903      1.267
REMARK INTER + INTRA:          -3.603
REMARK INTER:                  -3.505
REMARK INTRA:                  -0.098
REMARK UNBOUND:                -0.045
REMARK SMILES CCCCCC(=O)[O-]
REMARK SMILES IDX 4 1 5 2 6 3 7 4 8 5 3 6 2 7 1 8
REMARK H PARENT
REMARK Flexibility Score: inf
ROOT
ATOM      1  C   UNL     1      14.253   3.254  -2.859  1.00  0.00     0.006 C 
ENDROOT
BRANCH   1   2
ATOM      2  C   UNL     1      15.079   2.819  -1.641  1.00  0.00     0.053 C 
BRANCH   2   3
ATOM      3  C   UNL     1      16.113   1.816  -2.045  1.00  0.00     0.041 C 
ATOM      4  O   UNL     1      17.333   2.043  -1.830  1.00  0.00    -0.550 OA
ATOM      5  O   UNL     1      15.734   0.653  -2.702  1.00  0.00    -0.550 OA
ENDBRANCH   2   3
ENDBRANCH   1   2
BRANCH   1   6
ATOM      6  C   UNL     1      13.119   4.222  -2.489  1.00  0.00     0.000 C 
BRANCH   6   7
ATOM      7  C   UNL     1      13.001   4.443  -0.974  1.00  0.00    -0.003 C 
ATOM      8  C   UNL     1      11.687   5.135  -0.620  1.00  0.00     0.004 C 
ENDBRANCH   6   7
ENDBRANCH   1   6
TORSDOF 4
ENDMDL
MODEL 3
REMARK VINA RESULT:    -2.842      4.063      5.385
REMARK INTER + INTRA:          -3.552
REMARK INTER:                  -3.476
REMARK INTRA:                  -0.076
REMARK UNBOUND:                -0.045
REMARK SMILES CCCCCC(=O)[O-]
REMARK SMILES IDX 4 1 5 2 6 3 7 4 8 5 3 6 2 7 1 8
REMARK H PARENT
REMARK Flexibility Score: inf
ROOT
ATOM      1  C   UNL     1      17.894   1.526  -2.617  1.00  0.00     0.006 C 
ENDROOT
BRANCH   1   2
ATOM      2  C   UNL     1      19.106   0.683  -3.032  1.00  0.00     0.053 C 
BRANCH   2   3
ATOM      3  C   UNL     1      20.318   1.095  -2.257  1.00  0.00     0.041 C 
ATOM      4  O   UNL     1      20.757   2.271  -2.345  1.00  0.00    -0.550 OA
ATOM      5  O   UNL     1      20.989   0.166  -1.473  1.00  0.00    -0.550 OA
ENDBRANCH   2   3
ENDBRANCH   1   2
BRANCH   1   6
ATOM      6  C   UNL     1      16.566   0.767  -2.768  1.00  0.00     0.000 C 
BRANCH   6   7
ATOM      7  C   UNL     1      15.501   1.234  -1.766  1.00  0.00    -0.003 C 
ATOM      8  C   UNL     1      15.701   2.701  -1.395  1.00  0.00     0.004 C 
ENDBRANCH   6   7
ENDBRANCH   1   6
TORSDOF 4
ENDMDL
MODEL 4
REMARK VINA RESULT:    -2.825      2.866      4.917
REMARK INTER + INTRA:          -3.530
REMARK INTER:                  -3.462
REMARK INTRA:                  -0.068
REMARK UNBOUND:                -0.045
REMARK SMILES CCCCCC(=O)[O-]
REMARK SMILES IDX 4 1 5 2 6 3 7 4 8 5 3 6 2 7 1 8
REMARK H PARENT
REMARK Flexibility Score: inf
ROOT
ATOM      1  C   UNL     1      14.715   3.410  -0.970  1.00  0.00     0.006 C 
ENDROOT
BRANCH   1   2
ATOM      2  C   UNL     1      13.621   3.842  -1.954  1.00  0.00     0.053 C 
BRANCH   2   3
ATOM      3  C   UNL     1      12.824   4.973  -1.385  1.00  0.00     0.041 C 
ATOM      4  O   UNL     1      12.161   4.812  -0.327  1.00  0.00    -0.550 OA
ATOM      5  O   UNL     1      12.777   6.193  -2.048  1.00  0.00    -0.550 OA
ENDBRANCH   2   3
ENDBRANCH   1   2
BRANCH   1   6
ATOM      6  C   UNL     1      15.843   2.619  -1.650  1.00  0.00     0.000 C 
BRANCH   6   7
ATOM      7  C   UNL     1      15.401   1.215  -2.087  1.00  0.00    -0.003 C 
ATOM      8  C   UNL     1      16.467   0.549  -2.953  1.00  0.00     0.004 C 
ENDBRANCH   6   7
ENDBRANCH   1   6
TORSDOF 4
ENDMDL
MODEL 5
REMARK VINA RESULT:    -2.794      1.460      1.973
REMARK INTER + INTRA:          -3.492
REMARK INTER:                  -3.389
REMARK INTRA:                  -0.103
REMARK UNBOUND:                -0.045
REMARK SMILES CCCCCC(=O)[O-]
REMARK SMILES IDX 4 1 5 2 6 3 7 4 8 5 3 6 2 7 1 8
REMARK H PARENT
REMARK Flexibility Score: inf
ROOT
ATOM      1  C   UNL     1      12.974   4.925  -1.498  1.00  0.00     0.006 C 
ENDROOT
BRANCH   1   2
ATOM      2  C   UNL     1      14.015   3.812  -1.316  1.00  0.00     0.053 C 
BRANCH   2   3
ATOM      3  C   UNL     1      14.123   2.990  -2.561  1.00  0.00     0.041 C 
ATOM      4  O   UNL     1      13.092   2.483  -3.077  1.00  0.00    -0.550 OA
ATOM      5  O   UNL     1      15.368   2.744  -3.125  1.00  0.00    -0.550 OA
ENDBRANCH   2   3
ENDBRANCH   1   2
BRANCH   1   6
ATOM      6  C   UNL     1      11.988   5.010  -0.323  1.00  0.00     0.000 C 
BRANCH   6   7
ATOM      7  C   UNL     1      10.710   5.784  -0.678  1.00  0.00    -0.003 C 
ATOM      8  C   UNL     1       9.976   5.126  -1.843  1.00  0.00     0.004 C 
ENDBRANCH   6   7
ENDBRANCH   1   6
TORSDOF 4
ENDMDL
MODEL 6
REMARK VINA RESULT:    -2.779      3.373      4.887
REMARK INTER + INTRA:          -3.473
REMARK INTER:                  -3.384
REMARK INTRA:                  -0.089
REMARK UNBOUND:                -0.045
REMARK SMILES CCCCCC(=O)[O-]
REMARK SMILES IDX 4 1 5 2 6 3 7 4 8 5 3 6 2 7 1 8
REMARK H PARENT
REMARK Flexibility Score: inf
ROOT
ATOM      1  C   UNL     1      13.048   4.337  -2.348  1.00  0.00     0.006 C 
ENDROOT
BRANCH   1   2
ATOM      2  C   UNL     1      12.586   4.715  -0.934  1.00  0.00     0.053 C 
BRANCH   2   3
ATOM      3  C   UNL     1      11.215   5.312  -0.976  1.00  0.00     0.041 C 
ATOM      4  O   UNL     1      10.952   6.345  -0.308  1.00  0.00    -0.550 OA
ATOM      5  O   UNL     1      10.213   4.697  -1.717  1.00  0.00    -0.550 OA
ENDBRANCH   2   3
ENDBRANCH   1   2
BRANCH   1   6
ATOM      6  C   UNL     1      14.041   3.165  -2.351  1.00  0.00     0.000 C 
BRANCH   6   7
ATOM      7  C   UNL     1      14.996   3.195  -1.149  1.00  0.00    -0.003 C 
ATOM      8  C   UNL     1      16.270   2.406  -1.438  1.00  0.00     0.004 C 
ENDBRANCH   6   7
ENDBRANCH   1   6
TORSDOF 4
ENDMDL
MODEL 7
REMARK VINA RESULT:    -2.697      3.730      5.069
REMARK INTER + INTRA:          -3.372
REMARK INTER:                  -3.235
REMARK INTRA:                  -0.137
REMARK UNBOUND:                -0.045
REMARK SMILES CCCCCC(=O)[O-]
REMARK SMILES IDX 4 1 5 2 6 3 7 4 8 5 3 6 2 7 1 8
REMARK H PARENT
REMARK Flexibility Score: inf
ROOT
ATOM      1  C   UNL     1      12.977   4.941  -1.212  1.00  0.00     0.006 C 
ENDROOT
BRANCH   1   2
ATOM      2  C   UNL     1      11.683   5.150  -0.414  1.00  0.00     0.053 C 
BRANCH   2   3
ATOM      3  C   UNL     1      10.745   6.040  -1.166  1.00  0.00     0.041 C 
ATOM      4  O   UNL     1      10.925   7.286  -1.177  1.00  0.00    -0.550 OA
ATOM      5  O   UNL     1       9.644   5.497  -1.816  1.00  0.00    -0.550 OA
ENDBRANCH   2   3
ENDBRANCH   1   2
BRANCH   1   6
ATOM      6  C   UNL     1      12.850   3.825  -2.261  1.00  0.00     0.000 C 
BRANCH   6   7
ATOM      7  C   UNL     1      14.160   3.050  -2.460  1.00  0.00    -0.003 C 
ATOM      8  C   UNL     1      15.045   3.137  -1.219  1.00  0.00     0.004 C 
ENDBRANCH   6   7
ENDBRANCH   1   6
TORSDOF 4
ENDMDL
MODEL 8
REMARK VINA RESULT:    -2.603      4.175      6.903
REMARK INTER + INTRA:          -3.257
REMARK INTER:                  -3.197
REMARK INTRA:                  -0.060
REMARK UNBOUND:                -0.045
REMARK SMILES CCCCCC(=O)[O-]
REMARK SMILES IDX 4 1 5 2 6 3 7 4 8 5 3 6 2 7 1 8
REMARK H PARENT
REMARK Flexibility Score: inf
ROOT
ATOM      1  C   UNL     1      18.828   0.831  -2.428  1.00  0.00     0.006 C 
ENDROOT
BRANCH   1   2
ATOM      2  C   UNL     1      17.733   1.657  -3.116  1.00  0.00     0.053 C 
BRANCH   2   3
ATOM      3  C   UNL     1      16.532   1.770  -2.230  1.00  0.00     0.041 C 
ATOM      4  O   UNL     1      16.466   2.683  -1.365  1.00  0.00    -0.550 OA
ATOM      5  O   UNL     1      15.507   0.838  -2.328  1.00  0.00    -0.550 OA
ENDBRANCH   2   3
ENDBRANCH   1   2
BRANCH   1   6
ATOM      6  C   UNL     1      20.191   0.961  -3.125  1.00  0.00     0.000 C 
BRANCH   6   7
ATOM      7  C   UNL     1      21.242   1.653  -2.245  1.00  0.00    -0.003 C 
ATOM      8  C   UNL     1      21.694   0.740  -1.108  1.00  0.00     0.004 C 
ENDBRANCH   6   7
ENDBRANCH   1   6
TORSDOF 4
ENDMDL
MODEL 9
REMARK VINA RESULT:    -2.508      3.979      5.262
REMARK INTER + INTRA:          -3.139
REMARK INTER:                  -2.871
REMARK INTRA:                  -0.268
REMARK UNBOUND:                -0.045
REMARK SMILES CCCCCC(=O)[O-]
REMARK SMILES IDX 4 1 5 2 6 3 7 4 8 5 3 6 2 7 1 8
REMARK H PARENT
REMARK Flexibility Score: inf
ROOT
ATOM      1  C   UNL     1      11.431   4.988  -0.667  1.00  0.00     0.006 C 
ENDROOT
BRANCH   1   2
ATOM      2  C   UNL     1      10.960   6.441  -0.513  1.00  0.00     0.053 C 
BRANCH   2   3
ATOM      3  C   UNL     1      10.996   7.142  -1.834  1.00  0.00     0.041 C 
ATOM      4  O   UNL     1      10.273   6.742  -2.784  1.00  0.00    -0.550 OA
ATOM      5  O   UNL     1      11.863   8.209  -2.031  1.00  0.00    -0.550 OA
ENDBRANCH   2   3
ENDBRANCH   1   2
BRANCH   1   6
ATOM      6  C   UNL     1      12.854   4.885  -1.237  1.00  0.00     0.000 C 
BRANCH   6   7
ATOM      7  C   UNL     1      12.969   3.837  -2.353  1.00  0.00    -0.003 C 
ATOM      8  C   UNL     1      11.592   3.426  -2.866  1.00  0.00     0.004 C 
ENDBRANCH   6   7
ENDBRANCH   1   6
TORSDOF 4
ENDMDL
