MODEL 1
REMARK VINA RESULT:    -0.174      0.000      0.000
REMARK INTER + INTRA:          -0.514
REMARK INTER:                  -0.210
REMARK INTRA:                  -0.305
REMARK UNBOUND:                -0.305
REMARK SMILES Oc1cc(O)c2c(c1)O[C@@H](c1ccc(O)c(O)c1)[C@@H](O)C2
REMARK SMILES IDX 21 1 19 2 10 3 9 4 7 5 8 6 2 7 3 8 4 9 6 10 20 11 11 13
REMARK SMILES IDX 18 14 12 15 16 16 13 17 14 18 17 19 15 21 5 23 1 25
REMARK H PARENT 20 12 17 20 15 22 5 24 1 26
REMARK Flexibility Score: inf
ROOT
ATOM      1  C   UNL     1      21.010   5.780   6.973  1.00  0.00     0.079 C 
ATOM      2  C   UNL     1      20.194   7.032   6.631  1.00  0.00     0.164 C 
ATOM      3  C   UNL     1      20.949   8.319   7.140  1.00  0.00     0.232 C 
ATOM      4  O   UNL     1      22.314   8.293   6.708  1.00  0.00    -0.482 OA
ATOM      5  C   UNL     1      23.016   7.134   6.372  1.00  0.00     0.131 A 
ATOM      6  C   UNL     1      24.341   7.242   5.937  1.00  0.00     0.093 A 
ATOM      7  C   UNL     1      24.993   6.144   5.351  1.00  0.00     0.122 A 
ATOM      8  C   UNL     1      24.306   4.929   5.218  1.00  0.00     0.092 A 
ATOM      9  C   UNL     1      23.019   4.780   5.746  1.00  0.00     0.126 A 
ATOM     10  C   UNL     1      22.369   5.883   6.340  1.00  0.00     0.039 A 
ENDROOT
BRANCH   2  11
ATOM     11  O   UNL     1      20.013   7.039   5.230  1.00  0.00    -0.389 OA
ATOM     12  H   UNL     1      20.478   6.261   4.834  1.00  0.00     0.211 HD
ENDBRANCH   2  11
BRANCH   3  13
ATOM     13  C   UNL     1      20.273   9.613   6.705  1.00  0.00    -0.001 A 
ATOM     14  C   UNL     1      18.869   9.743   6.740  1.00  0.00     0.057 A 
ATOM     15  C   UNL     1      21.033  10.668   6.155  1.00  0.00     0.012 A 
ATOM     16  C   UNL     1      18.264  10.937   6.353  1.00  0.00     0.157 A 
ATOM     17  C   UNL     1      20.426  11.852   5.746  1.00  0.00     0.050 A 
ATOM     18  C   UNL     1      19.044  12.003   5.877  1.00  0.00     0.157 A 
BRANCH  16  19
ATOM     19  O   UNL     1      16.875  11.049   6.394  1.00  0.00    -0.504 OA
ATOM     20  H   UNL     1      16.397  11.781   5.891  1.00  0.00     0.293 HD
ENDBRANCH  16  19
BRANCH  18  21
ATOM     21  O   UNL     1      18.461  13.257   5.694  1.00  0.00    -0.504 OA
ATOM     22  H   UNL     1      18.948  13.957   5.165  1.00  0.00     0.293 HD
ENDBRANCH  18  21
ENDBRANCH   3  13
BRANCH   9  23
ATOM     23  O   UNL     1      22.367   3.544   5.654  1.00  0.00    -0.507 OA
ATOM     24  H   UNL     1      22.448   2.984   4.814  1.00  0.00     0.293 HD
ENDBRANCH   9  23
BRANCH   7  25
ATOM     25  O   UNL     1      26.297   6.258   4.875  1.00  0.00    -0.508 OA
ATOM     26  H   UNL     1      26.509   6.111   3.899  1.00  0.00     0.293 HD
ENDBRANCH   7  25
TORSDOF 6
ENDMDL
