MODEL 1
REMARK VINA RESULT:    -5.903      0.000      0.000
REMARK INTER + INTRA:          -9.424
REMARK INTER:                  -7.974
REMARK INTRA:                  -1.450
REMARK UNBOUND:                -1.450
REMARK SMILES C=CC(C)=CCC=C(C)CCC=C(C)C
REMARK SMILES IDX 8 1 7 2 9 3 10 4 11 5 12 6 14 7 13 8 15 9 6 10 5 11 3 12
REMARK SMILES IDX 4 13 2 14 1 15
REMARK H PARENT
REMARK Flexibility Score: inf
ROOT
ATOM      1  C   UNL     1       3.172  13.446   4.493  1.00  0.00    -0.077 C 
ATOM      2  C   UNL     1       2.927  13.703   5.799  1.00  0.00    -0.024 C 
ATOM      3  C   UNL     1       4.385  14.068   3.854  1.00  0.00     0.039 C 
ENDROOT
BRANCH   1   4
ATOM      4  C   UNL     1       2.246  12.611   3.632  1.00  0.00     0.034 C 
BRANCH   4   5
ATOM      5  C   UNL     1       1.828  13.385   2.377  1.00  0.00     0.032 C 
BRANCH   5   6
ATOM      6  C   UNL     1       0.572  14.179   2.634  1.00  0.00    -0.028 C 
ATOM      7  C   UNL     1      -0.344  13.779   0.337  1.00  0.00     0.039 C 
ATOM      8  C   UNL     1      -0.425  14.344   1.736  1.00  0.00    -0.080 C 
ATOM      9  C   UNL     1      -1.640  15.132   2.150  1.00  0.00     0.039 C 
ENDBRANCH   5   6
ENDBRANCH   4   5
ENDBRANCH   1   4
BRANCH   2  10
ATOM     10  C   UNL     1       1.752  13.159   6.572  1.00  0.00     0.055 C 
BRANCH  10  11
ATOM     11  C   UNL     1       0.494  13.932   6.267  1.00  0.00    -0.020 C 
ATOM     12  C   UNL     1      -0.687  13.354   5.974  1.00  0.00    -0.055 C 
ATOM     13  C   UNL     1      -0.843  11.851   5.912  1.00  0.00     0.044 C 
BRANCH  12  14
ATOM     14  C   UNL     1      -1.832  14.242   5.641  1.00  0.00    -0.005 C 
ATOM     15  C   UNL     1      -2.329  15.151   6.480  1.00  0.00     0.009 C 
ENDBRANCH  12  14
ENDBRANCH  10  11
ENDBRANCH   2  10
TORSDOF 6
ENDMDL
MODEL 2
REMARK VINA RESULT:    -5.733      2.188      5.340
REMARK INTER + INTRA:          -9.195
REMARK INTER:                  -7.914
REMARK INTRA:                  -1.280
REMARK UNBOUND:                -1.450
REMARK SMILES C=CC(C)=CCC=C(C)CCC=C(C)C
REMARK SMILES IDX 8 1 7 2 9 3 10 4 11 5 12 6 14 7 13 8 15 9 6 10 5 11 3 12
REMARK SMILES IDX 4 13 2 14 1 15
REMARK H PARENT
REMARK Flexibility Score: inf
ROOT
ATOM      1  C   UNL     1       2.801  12.890   3.734  1.00  0.00    -0.077 C 
ATOM      2  C   UNL     1       2.109  13.354   2.668  1.00  0.00    -0.024 C 
ATOM      3  C   UNL     1       3.331  11.481   3.687  1.00  0.00     0.039 C 
ENDROOT
BRANCH   1   4
ATOM      4  C   UNL     1       3.013  13.704   4.995  1.00  0.00     0.034 C 
BRANCH   4   5
ATOM      5  C   UNL     1       2.110  13.198   6.124  1.00  0.00     0.032 C 
BRANCH   5   6
ATOM      6  C   UNL     1       0.792  13.930   6.121  1.00  0.00    -0.028 C 
ATOM      7  C   UNL     1      -0.538  11.867   5.623  1.00  0.00     0.039 C 
ATOM      8  C   UNL     1      -0.409  13.342   5.922  1.00  0.00    -0.080 C 
ATOM      9  C   UNL     1      -1.647  14.198   5.987  1.00  0.00     0.039 C 
ENDBRANCH   5   6
ENDBRANCH   4   5
ENDBRANCH   1   4
BRANCH   2  10
ATOM     10  C   UNL     1       1.514  14.737   2.570  1.00  0.00     0.055 C 
BRANCH  10  11
ATOM     11  C   UNL     1       1.800  15.359   1.227  1.00  0.00    -0.020 C 
ATOM     12  C   UNL     1       2.861  16.152   0.980  1.00  0.00    -0.055 C 
ATOM     13  C   UNL     1       3.861  16.501   2.059  1.00  0.00     0.044 C 
BRANCH  12  14
ATOM     14  C   UNL     1       2.987  16.741  -0.379  1.00  0.00    -0.005 C 
ATOM     15  C   UNL     1       3.245  16.023  -1.473  1.00  0.00     0.009 C 
ENDBRANCH  12  14
ENDBRANCH  10  11
ENDBRANCH   2  10
TORSDOF 6
ENDMDL
MODEL 3
REMARK VINA RESULT:    -5.725      1.418      5.266
REMARK INTER + INTRA:          -9.183
REMARK INTER:                  -7.438
REMARK INTRA:                  -1.746
REMARK UNBOUND:                -1.450
REMARK SMILES C=CC(C)=CCC=C(C)CCC=C(C)C
REMARK SMILES IDX 8 1 7 2 9 3 10 4 11 5 12 6 14 7 13 8 15 9 6 10 5 11 3 12
REMARK SMILES IDX 4 13 2 14 1 15
REMARK H PARENT
REMARK Flexibility Score: inf
ROOT
ATOM      1  C   UNL     1      -0.158  13.002   5.526  1.00  0.00    -0.077 C 
ATOM      2  C   UNL     1      -0.413  13.244   4.219  1.00  0.00    -0.024 C 
ATOM      3  C   UNL     1      -0.892  11.877   6.205  1.00  0.00     0.039 C 
ENDROOT
BRANCH   1   4
ATOM      4  C   UNL     1       0.788  13.853   6.350  1.00  0.00     0.034 C 
BRANCH   4   5
ATOM      5  C   UNL     1       2.153  13.170   6.483  1.00  0.00     0.032 C 
BRANCH   5   6
ATOM      6  C   UNL     1       3.149  13.779   5.529  1.00  0.00    -0.028 C 
ATOM      7  C   UNL     1       3.046  11.851   3.934  1.00  0.00     0.039 C 
ATOM      8  C   UNL     1       3.542  13.211   4.367  1.00  0.00    -0.080 C 
ATOM      9  C   UNL     1       4.517  13.959   3.495  1.00  0.00     0.039 C 
ENDBRANCH   5   6
ENDBRANCH   4   5
ENDBRANCH   1   4
BRANCH   2  10
ATOM     10  C   UNL     1       0.238  14.336   3.408  1.00  0.00     0.055 C 
BRANCH  10  11
ATOM     11  C   UNL     1       0.518  13.875   2.000  1.00  0.00    -0.020 C 
ATOM     12  C   UNL     1       1.371  14.499   1.164  1.00  0.00    -0.055 C 
ATOM     13  C   UNL     1       2.119  15.746   1.577  1.00  0.00     0.044 C 
BRANCH  12  14
ATOM     14  C   UNL     1       1.508  13.964  -0.216  1.00  0.00    -0.005 C 
ATOM     15  C   UNL     1       0.878  12.871  -0.649  1.00  0.00     0.009 C 
ENDBRANCH  12  14
ENDBRANCH  10  11
ENDBRANCH   2  10
TORSDOF 6
ENDMDL
MODEL 4
REMARK VINA RESULT:    -5.654      1.991      2.776
REMARK INTER + INTRA:          -9.087
REMARK INTER:                  -8.509
REMARK INTRA:                  -0.578
REMARK UNBOUND:                -1.450
REMARK SMILES C=CC(C)=CCC=C(C)CCC=C(C)C
REMARK SMILES IDX 8 1 7 2 9 3 10 4 11 5 12 6 14 7 13 8 15 9 6 10 5 11 3 12
REMARK SMILES IDX 4 13 2 14 1 15
REMARK H PARENT
REMARK Flexibility Score: inf
ROOT
ATOM      1  C   UNL     1       2.790  13.049   4.138  1.00  0.00    -0.077 C 
ATOM      2  C   UNL     1       2.787  13.234   5.479  1.00  0.00    -0.024 C 
ATOM      3  C   UNL     1       4.052  12.551   3.485  1.00  0.00     0.039 C 
ENDROOT
BRANCH   1   4
ATOM      4  C   UNL     1       1.599  13.378   3.260  1.00  0.00     0.034 C 
BRANCH   4   5
ATOM      5  C   UNL     1       2.045  14.133   2.004  1.00  0.00     0.032 C 
BRANCH   5   6
ATOM      6  C   UNL     1       2.960  15.276   2.365  1.00  0.00    -0.028 C 
ATOM      7  C   UNL     1       2.925  16.247   0.056  1.00  0.00     0.039 C 
ATOM      8  C   UNL     1       3.344  16.248   1.507  1.00  0.00    -0.080 C 
ATOM      9  C   UNL     1       4.231  17.351   2.024  1.00  0.00     0.039 C 
ENDBRANCH   5   6
ENDBRANCH   4   5
ENDBRANCH   1   4
BRANCH   2  10
ATOM     10  C   UNL     1       1.605  13.732   6.271  1.00  0.00     0.055 C 
BRANCH  10  11
ATOM     11  C   UNL     1       0.634  12.615   6.561  1.00  0.00    -0.020 C 
ATOM     12  C   UNL     1      -0.676  12.662   6.251  1.00  0.00    -0.055 C 
ATOM     13  C   UNL     1      -1.292  13.874   5.588  1.00  0.00     0.044 C 
BRANCH  12  14
ATOM     14  C   UNL     1      -1.526  11.509   6.646  1.00  0.00    -0.005 C 
ATOM     15  C   UNL     1      -2.608  11.620   7.417  1.00  0.00     0.009 C 
ENDBRANCH  12  14
ENDBRANCH  10  11
ENDBRANCH   2  10
TORSDOF 6
ENDMDL
MODEL 5
REMARK VINA RESULT:    -5.605      1.739      3.156
REMARK INTER + INTRA:          -9.021
REMARK INTER:                  -8.145
REMARK INTRA:                  -0.876
REMARK UNBOUND:                -1.450
REMARK SMILES C=CC(C)=CCC=C(C)CCC=C(C)C
REMARK SMILES IDX 8 1 7 2 9 3 10 4 11 5 12 6 14 7 13 8 15 9 6 10 5 11 3 12
REMARK SMILES IDX 4 13 2 14 1 15
REMARK H PARENT
REMARK Flexibility Score: inf
ROOT
ATOM      1  C   UNL     1       1.451  13.151   5.851  1.00  0.00    -0.077 C 
ATOM      2  C   UNL     1       0.341  13.604   6.479  1.00  0.00    -0.024 C 
ATOM      3  C   UNL     1       2.797  13.558   6.388  1.00  0.00     0.039 C 
ENDROOT
BRANCH   1   4
ATOM      4  C   UNL     1       1.397  12.302   4.596  1.00  0.00     0.034 C 
BRANCH   4   5
ATOM      5  C   UNL     1       2.613  12.575   3.705  1.00  0.00     0.032 C 
BRANCH   5   6
ATOM      6  C   UNL     1       2.360  13.757   2.804  1.00  0.00    -0.028 C 
ATOM      7  C   UNL     1       4.548  14.848   3.350  1.00  0.00     0.039 C 
ATOM      8  C   UNL     1       3.230  14.774   2.615  1.00  0.00    -0.080 C 
ATOM      9  C   UNL     1       2.854  15.870   1.651  1.00  0.00     0.039 C 
ENDBRANCH   5   6
ENDBRANCH   4   5
ENDBRANCH   1   4
BRANCH   2  10
ATOM     10  C   UNL     1      -1.071  13.287   6.056  1.00  0.00     0.055 C 
BRANCH  10  11
ATOM     11  C   UNL     1      -1.733  14.486   5.425  1.00  0.00    -0.020 C 
ATOM     12  C   UNL     1      -3.014  14.838   5.649  1.00  0.00    -0.055 C 
ATOM     13  C   UNL     1      -3.913  14.030   6.558  1.00  0.00     0.044 C 
BRANCH  12  14
ATOM     14  C   UNL     1      -3.550  16.015   4.916  1.00  0.00    -0.005 C 
ATOM     15  C   UNL     1      -3.873  17.166   5.506  1.00  0.00     0.009 C 
ENDBRANCH  12  14
ENDBRANCH  10  11
ENDBRANCH   2  10
TORSDOF 6
ENDMDL
MODEL 6
REMARK VINA RESULT:    -5.574      0.927      4.006
REMARK INTER + INTRA:          -8.980
REMARK INTER:                  -7.504
REMARK INTRA:                  -1.475
REMARK UNBOUND:                -1.450
REMARK SMILES C=CC(C)=CCC=C(C)CCC=C(C)C
REMARK SMILES IDX 8 1 7 2 9 3 10 4 11 5 12 6 14 7 13 8 15 9 6 10 5 11 3 12
REMARK SMILES IDX 4 13 2 14 1 15
REMARK H PARENT
REMARK Flexibility Score: inf
ROOT
ATOM      1  C   UNL     1       2.927  12.865   3.750  1.00  0.00    -0.077 C 
ATOM      2  C   UNL     1       2.316  13.278   2.616  1.00  0.00    -0.024 C 
ATOM      3  C   UNL     1       3.570  11.504   3.764  1.00  0.00     0.039 C 
ENDROOT
BRANCH   1   4
ATOM      4  C   UNL     1       2.941  13.687   5.024  1.00  0.00     0.034 C 
BRANCH   4   5
ATOM      5  C   UNL     1       1.965  13.107   6.053  1.00  0.00     0.032 C 
BRANCH   5   6
ATOM      6  C   UNL     1       0.668  13.876   6.051  1.00  0.00    -0.028 C 
ATOM      7  C   UNL     1      -0.741  11.819   5.815  1.00  0.00     0.039 C 
ATOM      8  C   UNL     1      -0.557  13.311   5.970  1.00  0.00    -0.080 C 
ATOM      9  C   UNL     1      -1.767  14.208   6.020  1.00  0.00     0.039 C 
ENDBRANCH   5   6
ENDBRANCH   4   5
ENDBRANCH   1   4
BRANCH   2  10
ATOM     10  C   UNL     1       1.626  14.609   2.452  1.00  0.00     0.055 C 
BRANCH  10  11
ATOM     11  C   UNL     1       0.136  14.478   2.647  1.00  0.00    -0.020 C 
ATOM     12  C   UNL     1      -0.777  14.928   1.765  1.00  0.00    -0.055 C 
ATOM     13  C   UNL     1      -0.371  15.631   0.489  1.00  0.00     0.044 C 
BRANCH  12  14
ATOM     14  C   UNL     1      -2.214  14.779   2.114  1.00  0.00    -0.005 C 
ATOM     15  C   UNL     1      -2.912  15.703   2.774  1.00  0.00     0.009 C 
ENDBRANCH  12  14
ENDBRANCH  10  11
ENDBRANCH   2  10
TORSDOF 6
ENDMDL
MODEL 7
REMARK VINA RESULT:    -5.561      1.699      4.831
REMARK INTER + INTRA:          -8.962
REMARK INTER:                  -8.080
REMARK INTRA:                  -0.882
REMARK UNBOUND:                -1.450
REMARK SMILES C=CC(C)=CCC=C(C)CCC=C(C)C
REMARK SMILES IDX 8 1 7 2 9 3 10 4 11 5 12 6 14 7 13 8 15 9 6 10 5 11 3 12
REMARK SMILES IDX 4 13 2 14 1 15
REMARK H PARENT
REMARK Flexibility Score: inf
ROOT
ATOM      1  C   UNL     1       1.710  13.124   5.644  1.00  0.00    -0.077 C 
ATOM      2  C   UNL     1       2.854  13.258   4.932  1.00  0.00    -0.024 C 
ATOM      3  C   UNL     1       1.767  13.318   7.136  1.00  0.00     0.039 C 
ENDROOT
BRANCH   1   4
ATOM      4  C   UNL     1       0.390  12.730   5.012  1.00  0.00     0.034 C 
BRANCH   4   5
ATOM      5  C   UNL     1      -0.767  12.959   5.990  1.00  0.00     0.032 C 
BRANCH   5   6
ATOM      6  C   UNL     1      -1.379  14.321   5.782  1.00  0.00    -0.028 C 
ATOM      7  C   UNL     1      -3.645  13.602   6.571  1.00  0.00     0.039 C 
ATOM      8  C   UNL     1      -2.665  14.632   6.062  1.00  0.00    -0.080 C 
ATOM      9  C   UNL     1      -3.125  16.050   5.839  1.00  0.00     0.039 C 
ENDBRANCH   5   6
ENDBRANCH   4   5
ENDBRANCH   1   4
BRANCH   2  10
ATOM     10  C   UNL     1       2.956  13.088   3.438  1.00  0.00     0.055 C 
BRANCH  10  11
ATOM     11  C   UNL     1       3.345  14.382   2.768  1.00  0.00    -0.020 C 
ATOM     12  C   UNL     1       2.478  15.174   2.107  1.00  0.00    -0.055 C 
ATOM     13  C   UNL     1       1.017  14.810   1.967  1.00  0.00     0.044 C 
BRANCH  12  14
ATOM     14  C   UNL     1       3.014  16.394   1.449  1.00  0.00    -0.005 C 
ATOM     15  C   UNL     1       3.996  17.137   1.960  1.00  0.00     0.009 C 
ENDBRANCH  12  14
ENDBRANCH  10  11
ENDBRANCH   2  10
TORSDOF 6
ENDMDL
MODEL 8
REMARK VINA RESULT:    -5.464      1.395      4.120
REMARK INTER + INTRA:          -8.830
REMARK INTER:                  -7.425
REMARK INTRA:                  -1.405
REMARK UNBOUND:                -1.450
REMARK SMILES C=CC(C)=CCC=C(C)CCC=C(C)C
REMARK SMILES IDX 8 1 7 2 9 3 10 4 11 5 12 6 14 7 13 8 15 9 6 10 5 11 3 12
REMARK SMILES IDX 4 13 2 14 1 15
REMARK H PARENT
REMARK Flexibility Score: inf
ROOT
ATOM      1  C   UNL     1       3.217  13.981   2.855  1.00  0.00    -0.077 C 
ATOM      2  C   UNL     1       2.373  14.835   2.230  1.00  0.00    -0.024 C 
ATOM      3  C   UNL     1       4.409  14.550   3.577  1.00  0.00     0.039 C 
ENDROOT
BRANCH   1   4
ATOM      4  C   UNL     1       3.047  12.476   2.807  1.00  0.00     0.034 C 
BRANCH   4   5
ATOM      5  C   UNL     1       2.753  11.920   4.205  1.00  0.00     0.032 C 
BRANCH   5   6
ATOM      6  C   UNL     1       1.436  12.443   4.720  1.00  0.00    -0.028 C 
ATOM      7  C   UNL     1       2.477  13.593   6.687  1.00  0.00     0.039 C 
ATOM      8  C   UNL     1       1.298  13.217   5.820  1.00  0.00    -0.080 C 
ATOM      9  C   UNL     1      -0.081  13.698   6.191  1.00  0.00     0.039 C 
ENDBRANCH   5   6
ENDBRANCH   4   5
ENDBRANCH   1   4
BRANCH   2  10
ATOM     10  C   UNL     1       1.144  14.416   1.463  1.00  0.00     0.055 C 
BRANCH  10  11
ATOM     11  C   UNL     1      -0.089  14.487   2.329  1.00  0.00    -0.020 C 
ATOM     12  C   UNL     1      -1.209  15.150   1.983  1.00  0.00    -0.055 C 
ATOM     13  C   UNL     1      -1.315  15.905   0.677  1.00  0.00     0.044 C 
BRANCH  12  14
ATOM     14  C   UNL     1      -2.329  15.180   2.960  1.00  0.00    -0.005 C 
ATOM     15  C   UNL     1      -3.412  15.945   2.817  1.00  0.00     0.009 C 
ENDBRANCH  12  14
ENDBRANCH  10  11
ENDBRANCH   2  10
TORSDOF 6
ENDMDL
MODEL 9
REMARK VINA RESULT:    -5.396      2.120      2.606
REMARK INTER + INTRA:          -8.739
REMARK INTER:                  -7.830
REMARK INTRA:                  -0.910
REMARK UNBOUND:                -1.450
REMARK SMILES C=CC(C)=CCC=C(C)CCC=C(C)C
REMARK SMILES IDX 8 1 7 2 9 3 10 4 11 5 12 6 14 7 13 8 15 9 6 10 5 11 3 12
REMARK SMILES IDX 4 13 2 14 1 15
REMARK H PARENT
REMARK Flexibility Score: inf
ROOT
ATOM      1  C   UNL     1       3.067  13.528   3.644  1.00  0.00    -0.077 C 
ATOM      2  C   UNL     1       2.563  13.061   4.809  1.00  0.00    -0.024 C 
ATOM      3  C   UNL     1       4.460  14.099   3.642  1.00  0.00     0.039 C 
ENDROOT
BRANCH   1   4
ATOM      4  C   UNL     1       2.270  13.556   2.355  1.00  0.00     0.034 C 
BRANCH   4   5
ATOM      5  C   UNL     1       1.615  14.927   2.153  1.00  0.00     0.032 C 
BRANCH   5   6
ATOM      6  C   UNL     1       1.946  15.480   0.790  1.00  0.00    -0.028 C 
ATOM      7  C   UNL     1       3.711  17.025   1.666  1.00  0.00     0.039 C 
ATOM      8  C   UNL     1       2.902  16.405   0.551  1.00  0.00    -0.080 C 
ATOM      9  C   UNL     1       3.146  16.834  -0.872  1.00  0.00     0.039 C 
ENDBRANCH   5   6
ENDBRANCH   4   5
ENDBRANCH   1   4
BRANCH   2  10
ATOM     10  C   UNL     1       1.186  12.467   4.968  1.00  0.00     0.055 C 
BRANCH  10  11
ATOM     11  C   UNL     1       0.172  13.528   5.317  1.00  0.00    -0.020 C 
ATOM     12  C   UNL     1      -0.982  13.276   5.965  1.00  0.00    -0.055 C 
ATOM     13  C   UNL     1      -1.367  11.877   6.389  1.00  0.00     0.044 C 
BRANCH  12  14
ATOM     14  C   UNL     1      -1.913  14.412   6.194  1.00  0.00    -0.005 C 
ATOM     15  C   UNL     1      -2.703  14.920   5.247  1.00  0.00     0.009 C 
ENDBRANCH  12  14
ENDBRANCH  10  11
ENDBRANCH   2  10
TORSDOF 6
ENDMDL
