MODEL 1
REMARK VINA RESULT:    -2.948      0.000      0.000
REMARK INTER + INTRA:          -3.493
REMARK INTER:                  -3.465
REMARK INTRA:                  -0.028
REMARK UNBOUND:                -0.028
REMARK SMILES O=C([O-])CCC(=O)[O-]
REMARK SMILES IDX 4 1 2 2 1 3 3 4 5 5 6 6 7 7 8 8
REMARK H PARENT
REMARK Flexibility Score: inf
ROOT
ATOM      1  C   UNL     1      19.360 -12.097 187.436  1.00  0.00     0.059 C 
ENDROOT
BRANCH   1   2
ATOM      2  C   UNL     1      19.341 -10.605 187.538  1.00  0.00     0.042 C 
ATOM      3  O   UNL     1      19.472  -9.898 186.505  1.00  0.00    -0.550 OA
ATOM      4  O   UNL     1      19.228  -9.995 188.781  1.00  0.00    -0.550 OA
ENDBRANCH   1   2
BRANCH   1   5
ATOM      5  C   UNL     1      18.148 -12.595 186.645  1.00  0.00     0.059 C 
BRANCH   5   6
ATOM      6  C   UNL     1      17.928 -14.054 186.887  1.00  0.00     0.042 C 
ATOM      7  O   UNL     1      16.780 -14.481 187.182  1.00  0.00    -0.550 OA
ATOM      8  O   UNL     1      18.999 -14.937 186.836  1.00  0.00    -0.550 OA
ENDBRANCH   5   6
ENDBRANCH   1   5
TORSDOF 3
ENDMDL
MODEL 2
REMARK VINA RESULT:    -2.924      0.587      4.278
REMARK INTER + INTRA:          -3.465
REMARK INTER:                  -3.435
REMARK INTRA:                  -0.030
REMARK UNBOUND:                -0.028
REMARK SMILES O=C([O-])CCC(=O)[O-]
REMARK SMILES IDX 4 1 2 2 1 3 3 4 5 5 6 6 7 7 8 8
REMARK H PARENT
REMARK Flexibility Score: inf
ROOT
ATOM      1  C   UNL     1      18.322 -12.110 186.608  1.00  0.00     0.059 C 
ENDROOT
BRANCH   1   2
ATOM      2  C   UNL     1      17.937 -13.518 186.932  1.00  0.00     0.042 C 
ATOM      3  O   UNL     1      18.783 -14.445 186.834  1.00  0.00    -0.550 OA
ATOM      4  O   UNL     1      16.630 -13.815 187.297  1.00  0.00    -0.550 OA
ENDBRANCH   1   2
BRANCH   1   5
ATOM      5  C   UNL     1      19.485 -11.656 187.492  1.00  0.00     0.059 C 
BRANCH   5   6
ATOM      6  C   UNL     1      19.661 -10.172 187.407  1.00  0.00     0.042 C 
ATOM      7  O   UNL     1      19.713  -9.604 186.284  1.00  0.00    -0.550 OA
ATOM      8  O   UNL     1      19.819  -9.424 188.566  1.00  0.00    -0.550 OA
ENDBRANCH   5   6
ENDBRANCH   1   5
TORSDOF 3
ENDMDL
MODEL 3
REMARK VINA RESULT:    -2.915      0.281      4.258
REMARK INTER + INTRA:          -3.453
REMARK INTER:                  -3.427
REMARK INTRA:                  -0.027
REMARK UNBOUND:                -0.028
REMARK SMILES O=C([O-])CCC(=O)[O-]
REMARK SMILES IDX 4 1 2 2 1 3 3 4 5 5 6 6 7 7 8 8
REMARK H PARENT
REMARK Flexibility Score: inf
ROOT
ATOM      1  C   UNL     1      18.299 -12.383 186.579  1.00  0.00     0.059 C 
ENDROOT
BRANCH   1   2
ATOM      2  C   UNL     1      17.942 -13.802 186.886  1.00  0.00     0.042 C 
ATOM      3  O   UNL     1      16.774 -14.096 187.254  1.00  0.00    -0.550 OA
ATOM      4  O   UNL     1      18.911 -14.795 186.812  1.00  0.00    -0.550 OA
ENDBRANCH   1   2
BRANCH   1   5
ATOM      5  C   UNL     1      19.454 -11.918 187.467  1.00  0.00     0.059 C 
BRANCH   5   6
ATOM      6  C   UNL     1      19.518 -10.424 187.505  1.00  0.00     0.042 C 
ATOM      7  O   UNL     1      19.465  -9.815 188.607  1.00  0.00    -0.550 OA
ATOM      8  O   UNL     1      19.585  -9.700 186.321  1.00  0.00    -0.550 OA
ENDBRANCH   5   6
ENDBRANCH   1   5
TORSDOF 3
ENDMDL
MODEL 4
REMARK VINA RESULT:    -2.847      1.371      4.046
REMARK INTER + INTRA:          -3.374
REMARK INTER:                  -3.256
REMARK INTRA:                  -0.118
REMARK UNBOUND:                -0.028
REMARK SMILES O=C([O-])CCC(=O)[O-]
REMARK SMILES IDX 4 1 2 2 1 3 3 4 5 5 6 6 7 7 8 8
REMARK H PARENT
REMARK Flexibility Score: inf
ROOT
ATOM      1  C   UNL     1      19.414 -12.012 187.562  1.00  0.00     0.059 C 
ENDROOT
BRANCH   1   2
ATOM      2  C   UNL     1      18.420 -12.731 186.705  1.00  0.00     0.042 C 
ATOM      3  O   UNL     1      17.594 -12.081 186.012  1.00  0.00    -0.550 OA
ATOM      4  O   UNL     1      18.374 -14.119 186.710  1.00  0.00    -0.550 OA
ENDBRANCH   1   2
BRANCH   1   5
ATOM      5  C   UNL     1      19.418 -10.518 187.237  1.00  0.00     0.059 C 
BRANCH   5   6
ATOM      6  C   UNL     1      18.819  -9.735 188.362  1.00  0.00     0.042 C 
ATOM      7  O   UNL     1      17.570  -9.591 188.440  1.00  0.00    -0.550 OA
ATOM      8  O   UNL     1      19.643  -9.120 189.297  1.00  0.00    -0.550 OA
ENDBRANCH   5   6
ENDBRANCH   1   5
TORSDOF 3
ENDMDL
MODEL 5
REMARK VINA RESULT:    -2.840      1.479      2.242
REMARK INTER + INTRA:          -3.365
REMARK INTER:                  -3.286
REMARK INTRA:                  -0.079
REMARK UNBOUND:                -0.028
REMARK SMILES O=C([O-])CCC(=O)[O-]
REMARK SMILES IDX 4 1 2 2 1 3 3 4 5 5 6 6 7 7 8 8
REMARK H PARENT
REMARK Flexibility Score: inf
ROOT
ATOM      1  C   UNL     1      19.645 -10.335 187.018  1.00  0.00     0.059 C 
ENDROOT
BRANCH   1   2
ATOM      2  C   UNL     1      19.434  -9.326 188.101  1.00  0.00     0.042 C 
ATOM      3  O   UNL     1      19.313  -9.697 189.298  1.00  0.00    -0.550 OA
ATOM      4  O   UNL     1      19.324  -7.978 187.784  1.00  0.00    -0.550 OA
ENDBRANCH   1   2
BRANCH   1   5
ATOM      5  C   UNL     1      19.477 -11.753 187.567  1.00  0.00     0.059 C 
BRANCH   5   6
ATOM      6  C   UNL     1      18.425 -12.491 186.801  1.00  0.00     0.042 C 
ATOM      7  O   UNL     1      18.376 -13.749 186.842  1.00  0.00    -0.550 OA
ATOM      8  O   UNL     1      17.530 -11.793 186.000  1.00  0.00    -0.550 OA
ENDBRANCH   5   6
ENDBRANCH   1   5
TORSDOF 3
ENDMDL
MODEL 6
REMARK VINA RESULT:    -2.779      1.967      4.227
REMARK INTER + INTRA:          -3.294
REMARK INTER:                  -3.219
REMARK INTRA:                  -0.075
REMARK UNBOUND:                -0.028
REMARK SMILES O=C([O-])CCC(=O)[O-]
REMARK SMILES IDX 4 1 2 2 1 3 3 4 5 5 6 6 7 7 8 8
REMARK H PARENT
REMARK Flexibility Score: inf
ROOT
ATOM      1  C   UNL     1      18.515 -13.607 186.943  1.00  0.00     0.059 C 
ENDROOT
BRANCH   1   2
ATOM      2  C   UNL     1      18.377 -15.090 186.801  1.00  0.00     0.042 C 
ATOM      3  O   UNL     1      19.337 -15.847 187.100  1.00  0.00    -0.550 OA
ATOM      4  O   UNL     1      17.204 -15.633 186.292  1.00  0.00    -0.550 OA
ENDBRANCH   1   2
BRANCH   1   5
ATOM      5  C   UNL     1      17.141 -12.936 186.907  1.00  0.00     0.059 C 
BRANCH   5   6
ATOM      6  C   UNL     1      17.115 -11.850 185.878  1.00  0.00     0.042 C 
ATOM      7  O   UNL     1      16.590 -12.056 184.752  1.00  0.00    -0.550 OA
ATOM      8  O   UNL     1      17.716 -10.626 186.143  1.00  0.00    -0.550 OA
ENDBRANCH   5   6
ENDBRANCH   1   5
TORSDOF 3
ENDMDL
MODEL 7
REMARK VINA RESULT:    -2.778      1.502      1.927
REMARK INTER + INTRA:          -3.293
REMARK INTER:                  -3.253
REMARK INTRA:                  -0.040
REMARK UNBOUND:                -0.028
REMARK SMILES O=C([O-])CCC(=O)[O-]
REMARK SMILES IDX 4 1 2 2 1 3 3 4 5 5 6 6 7 7 8 8
REMARK H PARENT
REMARK Flexibility Score: inf
ROOT
ATOM      1  C   UNL     1      17.819 -12.758 186.404  1.00  0.00     0.059 C 
ENDROOT
BRANCH   1   2
ATOM      2  C   UNL     1      18.710 -11.643 186.851  1.00  0.00     0.042 C 
ATOM      3  O   UNL     1      19.673 -11.874 187.629  1.00  0.00    -0.550 OA
ATOM      4  O   UNL     1      18.449 -10.339 186.448  1.00  0.00    -0.550 OA
ENDBRANCH   1   2
BRANCH   1   5
ATOM      5  C   UNL     1      18.379 -14.106 186.860  1.00  0.00     0.059 C 
BRANCH   5   6
ATOM      6  C   UNL     1      17.275 -15.100 187.036  1.00  0.00     0.042 C 
ATOM      7  O   UNL     1      16.888 -15.419 188.191  1.00  0.00    -0.550 OA
ATOM      8  O   UNL     1      16.710 -15.714 185.926  1.00  0.00    -0.550 OA
ENDBRANCH   5   6
ENDBRANCH   1   5
TORSDOF 3
ENDMDL
MODEL 8
REMARK VINA RESULT:    -2.669     15.979     16.507
REMARK INTER + INTRA:          -3.165
REMARK INTER:                  -3.048
REMARK INTRA:                  -0.118
REMARK UNBOUND:                -0.028
REMARK SMILES O=C([O-])CCC(=O)[O-]
REMARK SMILES IDX 4 1 2 2 1 3 3 4 5 5 6 6 7 7 8 8
REMARK H PARENT
REMARK Flexibility Score: inf
ROOT
ATOM      1  C   UNL     1      16.303 -11.765 203.895  1.00  0.00     0.059 C 
ENDROOT
BRANCH   1   2
ATOM      2  C   UNL     1      16.027 -10.314 203.654  1.00  0.00     0.042 C 
ATOM      3  O   UNL     1      14.860  -9.927 203.385  1.00  0.00    -0.550 OA
ATOM      4  O   UNL     1      17.069  -9.396 203.679  1.00  0.00    -0.550 OA
ENDBRANCH   1   2
BRANCH   1   5
ATOM      5  C   UNL     1      17.186 -12.334 202.783  1.00  0.00     0.059 C 
BRANCH   5   6
ATOM      6  C   UNL     1      18.547 -12.660 203.310  1.00  0.00     0.042 C 
ATOM      7  O   UNL     1      18.756 -13.760 203.888  1.00  0.00    -0.550 OA
ATOM      8  O   UNL     1      19.573 -11.729 203.209  1.00  0.00    -0.550 OA
ENDBRANCH   5   6
ENDBRANCH   1   5
TORSDOF 3
ENDMDL
MODEL 9
REMARK VINA RESULT:    -2.621     14.927     15.766
REMARK INTER + INTRA:          -3.108
REMARK INTER:                  -2.988
REMARK INTRA:                  -0.120
REMARK UNBOUND:                -0.028
REMARK SMILES O=C([O-])CCC(=O)[O-]
REMARK SMILES IDX 4 1 2 2 1 3 3 4 5 5 6 6 7 7 8 8
REMARK H PARENT
REMARK Flexibility Score: inf
ROOT
ATOM      1  C   UNL     1      16.349 -12.565 201.766  1.00  0.00     0.059 C 
ENDROOT
BRANCH   1   2
ATOM      2  C   UNL     1      15.505 -11.334 201.861  1.00  0.00     0.042 C 
ATOM      3  O   UNL     1      15.868 -10.371 202.586  1.00  0.00    -0.550 OA
ATOM      4  O   UNL     1      14.292 -11.269 201.187  1.00  0.00    -0.550 OA
ENDBRANCH   1   2
BRANCH   1   5
ATOM      5  C   UNL     1      16.675 -13.099 203.162  1.00  0.00     0.059 C 
BRANCH   5   6
ATOM      6  C   UNL     1      18.155 -13.142 203.374  1.00  0.00     0.042 C 
ATOM      7  O   UNL     1      18.686 -14.137 203.935  1.00  0.00    -0.550 OA
ATOM      8  O   UNL     1      18.943 -12.061 203.000  1.00  0.00    -0.550 OA
ENDBRANCH   5   6
ENDBRANCH   1   5
TORSDOF 3
ENDMDL
