MODEL 1
REMARK VINA RESULT:    -5.674      0.000      0.000
REMARK INTER + INTRA:          -7.377
REMARK INTER:                  -7.001
REMARK INTRA:                  -0.376
REMARK UNBOUND:                -0.376
REMARK SMILES Oc1cc(O)c2cc(O)c(-c3cc(O)c(O)c(O)c3)[o+]c2c1
REMARK SMILES IDX 10 1 20 2 21 3 22 4 2 5 3 6 4 7 6 8 7 9 8 10 11 11 12 12
REMARK SMILES IDX 13 13 19 14 15 15 17 16 14 17 16 19 18 21 9 23 1 25 5 27
REMARK H PARENT 14 18 16 20 18 22 9 24 1 26 5 28
REMARK Flexibility Score: inf
ROOT
ATOM      1  C   UNL     1      -7.601  23.578  -9.590  1.00  0.00     0.402 A 
ATOM      2  O   UNL     1      -6.444  23.648  -8.936  1.00  0.00    -0.202 OA
ATOM      3  C   UNL     1      -5.681  22.590  -8.684  1.00  0.00     0.368 A 
ATOM      4  C   UNL     1      -4.484  22.765  -7.987  1.00  0.00     0.162 A 
ATOM      5  C   UNL     1      -3.664  21.668  -7.706  1.00  0.00     0.128 A 
ATOM      6  C   UNL     1      -4.045  20.391  -8.124  1.00  0.00     0.093 A 
ATOM      7  C   UNL     1      -5.240  20.189  -8.823  1.00  0.00     0.136 A 
ATOM      8  C   UNL     1      -6.075  21.299  -9.114  1.00  0.00     0.125 A 
ATOM      9  C   UNL     1      -7.283  21.194  -9.821  1.00  0.00     0.078 A 
ATOM     10  C   UNL     1      -8.050  22.335 -10.073  1.00  0.00     0.223 A 
ENDROOT
BRANCH   1  11
ATOM     11  C   UNL     1      -8.365  24.828  -9.799  1.00  0.00     0.091 A 
ATOM     12  C   UNL     1      -8.159  25.575 -10.970  1.00  0.00     0.068 A 
ATOM     13  C   UNL     1      -8.855  26.774 -11.184  1.00  0.00     0.162 A 
ATOM     14  C   UNL     1      -9.253  25.315  -8.826  1.00  0.00     0.068 A 
ATOM     15  C   UNL     1      -9.756  27.241 -10.214  1.00  0.00     0.200 A 
ATOM     16  C   UNL     1      -9.951  26.512  -9.033  1.00  0.00     0.162 A 
BRANCH  13  17
ATOM     17  O   UNL     1      -8.651  27.499 -12.357  1.00  0.00    -0.504 OA
ATOM     18  H   UNL     1      -8.092  28.345 -12.369  1.00  0.00     0.293 HD
ENDBRANCH  13  17
BRANCH  15  19
ATOM     19  O   UNL     1     -10.462  28.429 -10.405  1.00  0.00    -0.502 OA
ATOM     20  H   UNL     1     -10.823  28.702 -11.312  1.00  0.00     0.293 HD
ENDBRANCH  15  19
BRANCH  16  21
ATOM     21  O   UNL     1     -10.836  26.989  -8.068  1.00  0.00    -0.504 OA
ATOM     22  H   UNL     1     -10.573  27.049  -7.091  1.00  0.00     0.293 HD
ENDBRANCH  16  21
ENDBRANCH   1  11
BRANCH  10  23
ATOM     23  O   UNL     1      -9.225  22.237 -10.818  1.00  0.00    -0.500 OA
ATOM     24  H   UNL     1      -9.811  21.411 -10.784  1.00  0.00     0.294 HD
ENDBRANCH  10  23
BRANCH   5  25
ATOM     25  O   UNL     1      -2.468  21.836  -7.011  1.00  0.00    -0.507 OA
ATOM     26  H   UNL     1      -2.192  21.204  -6.269  1.00  0.00     0.293 HD
ENDBRANCH   5  25
BRANCH   7  27
ATOM     27  O   UNL     1      -5.550  18.880  -9.203  1.00  0.00    -0.507 OA
ATOM     28  H   UNL     1      -5.800  18.143  -8.559  1.00  0.00     0.293 HD
ENDBRANCH   7  27
TORSDOF 7
ENDMDL
MODEL 2
REMARK VINA RESULT:    -5.626      0.063      1.789
REMARK INTER + INTRA:          -7.317
REMARK INTER:                  -6.944
REMARK INTRA:                  -0.374
REMARK UNBOUND:                -0.376
REMARK SMILES Oc1cc(O)c2cc(O)c(-c3cc(O)c(O)c(O)c3)[o+]c2c1
REMARK SMILES IDX 10 1 20 2 21 3 22 4 2 5 3 6 4 7 6 8 7 9 8 10 11 11 12 12
REMARK SMILES IDX 13 13 19 14 15 15 17 16 14 17 16 19 18 21 9 23 1 25 5 27
REMARK H PARENT 14 18 16 20 18 22 9 24 1 26 5 28
REMARK Flexibility Score: inf
ROOT
ATOM      1  C   UNL     1      -7.556  23.614  -9.621  1.00  0.00     0.402 A 
ATOM      2  O   UNL     1      -6.405  23.673  -8.955  1.00  0.00    -0.202 OA
ATOM      3  C   UNL     1      -5.652  22.607  -8.703  1.00  0.00     0.368 A 
ATOM      4  C   UNL     1      -4.460  22.770  -7.993  1.00  0.00     0.162 A 
ATOM      5  C   UNL     1      -3.650  21.665  -7.711  1.00  0.00     0.128 A 
ATOM      6  C   UNL     1      -4.036  20.393  -8.140  1.00  0.00     0.093 A 
ATOM      7  C   UNL     1      -5.226  20.204  -8.852  1.00  0.00     0.136 A 
ATOM      8  C   UNL     1      -6.050  21.322  -9.144  1.00  0.00     0.125 A 
ATOM      9  C   UNL     1      -7.253  21.229  -9.863  1.00  0.00     0.078 A 
ATOM     10  C   UNL     1      -8.009  22.377 -10.115  1.00  0.00     0.223 A 
ENDROOT
BRANCH   1  11
ATOM     11  C   UNL     1      -8.309  24.871  -9.830  1.00  0.00     0.091 A 
ATOM     12  C   UNL     1      -9.240  25.287  -8.865  1.00  0.00     0.068 A 
ATOM     13  C   UNL     1      -9.982  26.463  -9.049  1.00  0.00     0.162 A 
ATOM     14  C   UNL     1      -8.155  25.630 -11.002  1.00  0.00     0.068 A 
ATOM     15  C   UNL     1      -9.804  27.226 -10.215  1.00  0.00     0.200 A 
ATOM     16  C   UNL     1      -8.893  26.805 -11.192  1.00  0.00     0.162 A 
BRANCH  13  17
ATOM     17  O   UNL     1     -10.892  26.873  -8.077  1.00  0.00    -0.504 OA
ATOM     18  H   UNL     1     -11.781  27.294  -8.324  1.00  0.00     0.293 HD
ENDBRANCH  13  17
BRANCH  15  19
ATOM     19  O   UNL     1     -10.528  28.401 -10.419  1.00  0.00    -0.502 OA
ATOM     20  H   UNL     1     -10.388  28.986 -11.235  1.00  0.00     0.293 HD
ENDBRANCH  15  19
BRANCH  16  21
ATOM     21  O   UNL     1      -8.733  27.559 -12.354  1.00  0.00    -0.504 OA
ATOM     22  H   UNL     1      -7.815  27.759 -12.733  1.00  0.00     0.293 HD
ENDBRANCH  16  21
ENDBRANCH   1  11
BRANCH  10  23
ATOM     23  O   UNL     1      -9.178  22.292 -10.872  1.00  0.00    -0.500 OA
ATOM     24  H   UNL     1      -9.481  23.051 -11.473  1.00  0.00     0.294 HD
ENDBRANCH  10  23
BRANCH   5  25
ATOM     25  O   UNL     1      -2.460  21.821  -7.004  1.00  0.00    -0.507 OA
ATOM     26  H   UNL     1      -1.732  22.450  -7.322  1.00  0.00     0.293 HD
ENDBRANCH   5  25
BRANCH   7  27
ATOM     27  O   UNL     1      -5.542  18.899  -9.242  1.00  0.00    -0.507 OA
ATOM     28  H   UNL     1      -6.420  18.626  -9.659  1.00  0.00     0.293 HD
ENDBRANCH   7  27
TORSDOF 7
ENDMDL
MODEL 3
REMARK VINA RESULT:    -5.386      1.221      7.098
REMARK INTER + INTRA:          -7.021
REMARK INTER:                  -6.716
REMARK INTRA:                  -0.305
REMARK UNBOUND:                -0.376
REMARK SMILES Oc1cc(O)c2cc(O)c(-c3cc(O)c(O)c(O)c3)[o+]c2c1
REMARK SMILES IDX 10 1 20 2 21 3 22 4 2 5 3 6 4 7 6 8 7 9 8 10 11 11 12 12
REMARK SMILES IDX 13 13 19 14 15 15 17 16 14 17 16 19 18 21 9 23 1 25 5 27
REMARK H PARENT 14 18 16 20 18 22 9 24 1 26 5 28
REMARK Flexibility Score: inf
ROOT
ATOM      1  C   UNL     1      -7.649  23.341  -9.059  1.00  0.00     0.402 A 
ATOM      2  O   UNL     1      -7.373  24.318  -9.920  1.00  0.00    -0.202 OA
ATOM      3  C   UNL     1      -8.129  25.402 -10.061  1.00  0.00     0.368 A 
ATOM      4  C   UNL     1      -7.758  26.372 -10.995  1.00  0.00     0.162 A 
ATOM      5  C   UNL     1      -8.537  27.521 -11.165  1.00  0.00     0.128 A 
ATOM      6  C   UNL     1      -9.691  27.699 -10.400  1.00  0.00     0.093 A 
ATOM      7  C   UNL     1     -10.084  26.741  -9.458  1.00  0.00     0.136 A 
ATOM      8  C   UNL     1      -9.296  25.575  -9.278  1.00  0.00     0.125 A 
ATOM      9  C   UNL     1      -9.605  24.568  -8.348  1.00  0.00     0.078 A 
ATOM     10  C   UNL     1      -8.777  23.449  -8.225  1.00  0.00     0.223 A 
ENDROOT
BRANCH   1  11
ATOM     11  C   UNL     1      -6.735  22.179  -9.002  1.00  0.00     0.091 A 
ATOM     12  C   UNL     1      -7.161  20.939  -9.505  1.00  0.00     0.068 A 
ATOM     13  C   UNL     1      -6.323  19.817  -9.444  1.00  0.00     0.162 A 
ATOM     14  C   UNL     1      -5.467  22.273  -8.404  1.00  0.00     0.068 A 
ATOM     15  C   UNL     1      -5.049  19.927  -8.863  1.00  0.00     0.200 A 
ATOM     16  C   UNL     1      -4.624  21.156  -8.339  1.00  0.00     0.162 A 
BRANCH  13  17
ATOM     17  O   UNL     1      -6.752  18.596  -9.960  1.00  0.00    -0.504 OA
ATOM     18  H   UNL     1      -6.140  18.006 -10.512  1.00  0.00     0.293 HD
ENDBRANCH  13  17
BRANCH  15  19
ATOM     19  O   UNL     1      -4.195  18.826  -8.794  1.00  0.00    -0.502 OA
ATOM     20  H   UNL     1      -4.118  18.254  -7.960  1.00  0.00     0.293 HD
ENDBRANCH  15  19
BRANCH  16  21
ATOM     21  O   UNL     1      -3.365  21.255  -7.751  1.00  0.00    -0.504 OA
ATOM     22  H   UNL     1      -3.120  20.717  -6.928  1.00  0.00     0.293 HD
ENDBRANCH  16  21
ENDBRANCH   1  11
BRANCH  10  23
ATOM     23  O   UNL     1      -9.057  22.474  -7.268  1.00  0.00    -0.500 OA
ATOM     24  H   UNL     1      -8.375  21.771  -7.008  1.00  0.00     0.294 HD
ENDBRANCH  10  23
BRANCH   5  25
ATOM     25  O   UNL     1      -8.172  28.493 -12.095  1.00  0.00    -0.507 OA
ATOM     26  H   UNL     1      -8.332  28.364 -13.088  1.00  0.00     0.293 HD
ENDBRANCH   5  25
BRANCH   7  27
ATOM     27  O   UNL     1     -11.253  26.993  -8.734  1.00  0.00    -0.507 OA
ATOM     28  H   UNL     1     -11.318  27.641  -7.963  1.00  0.00     0.293 HD
ENDBRANCH   7  27
TORSDOF 7
ENDMDL
MODEL 4
REMARK VINA RESULT:    -5.353      1.234      7.095
REMARK INTER + INTRA:          -6.980
REMARK INTER:                  -6.651
REMARK INTRA:                  -0.329
REMARK UNBOUND:                -0.376
REMARK SMILES Oc1cc(O)c2cc(O)c(-c3cc(O)c(O)c(O)c3)[o+]c2c1
REMARK SMILES IDX 10 1 20 2 21 3 22 4 2 5 3 6 4 7 6 8 7 9 8 10 11 11 12 12
REMARK SMILES IDX 13 13 19 14 15 15 17 16 14 17 16 19 18 21 9 23 1 25 5 27
REMARK H PARENT 14 18 16 20 18 22 9 24 1 26 5 28
REMARK Flexibility Score: inf
ROOT
ATOM      1  C   UNL     1      -7.709  23.350  -9.010  1.00  0.00     0.402 A 
ATOM      2  O   UNL     1      -7.416  24.321  -9.872  1.00  0.00    -0.202 OA
ATOM      3  C   UNL     1      -8.154  25.418 -10.016  1.00  0.00     0.368 A 
ATOM      4  C   UNL     1      -7.766  26.380 -10.950  1.00  0.00     0.162 A 
ATOM      5  C   UNL     1      -8.525  27.542 -11.123  1.00  0.00     0.128 A 
ATOM      6  C   UNL     1      -9.678  27.738 -10.359  1.00  0.00     0.093 A 
ATOM      7  C   UNL     1     -10.088  26.788  -9.417  1.00  0.00     0.136 A 
ATOM      8  C   UNL     1      -9.319  25.610  -9.234  1.00  0.00     0.125 A 
ATOM      9  C   UNL     1      -9.646  24.609  -8.304  1.00  0.00     0.078 A 
ATOM     10  C   UNL     1      -8.836  23.477  -8.179  1.00  0.00     0.223 A 
ENDROOT
BRANCH   1  11
ATOM     11  C   UNL     1      -6.813  22.173  -8.951  1.00  0.00     0.091 A 
ATOM     12  C   UNL     1      -5.525  22.312  -8.409  1.00  0.00     0.068 A 
ATOM     13  C   UNL     1      -4.650  21.218  -8.360  1.00  0.00     0.162 A 
ATOM     14  C   UNL     1      -7.202  20.930  -9.476  1.00  0.00     0.068 A 
ATOM     15  C   UNL     1      -5.056  19.974  -8.869  1.00  0.00     0.200 A 
ATOM     16  C   UNL     1      -6.332  19.833  -9.431  1.00  0.00     0.162 A 
BRANCH  13  17
ATOM     17  O   UNL     1      -3.379  21.365  -7.807  1.00  0.00    -0.504 OA
ATOM     18  H   UNL     1      -3.165  22.114  -7.157  1.00  0.00     0.293 HD
ENDBRANCH  13  17
BRANCH  15  19
ATOM     19  O   UNL     1      -4.204  18.870  -8.828  1.00  0.00    -0.502 OA
ATOM     20  H   UNL     1      -3.221  18.955  -8.595  1.00  0.00     0.293 HD
ENDBRANCH  15  19
BRANCH  16  21
ATOM     21  O   UNL     1      -6.724  18.599  -9.947  1.00  0.00    -0.504 OA
ATOM     22  H   UNL     1      -7.420  18.027  -9.483  1.00  0.00     0.293 HD
ENDBRANCH  16  21
ENDBRANCH   1  11
BRANCH  10  23
ATOM     23  O   UNL     1      -9.133  22.508  -7.220  1.00  0.00    -0.500 OA
ATOM     24  H   UNL     1      -9.354  22.755  -6.262  1.00  0.00     0.294 HD
ENDBRANCH  10  23
BRANCH   5  25
ATOM     25  O   UNL     1      -8.144  28.506 -12.053  1.00  0.00    -0.507 OA
ATOM     26  H   UNL     1      -7.880  28.256 -12.999  1.00  0.00     0.293 HD
ENDBRANCH   5  25
BRANCH   7  27
ATOM     27  O   UNL     1     -11.254  27.059  -8.695  1.00  0.00    -0.507 OA
ATOM     28  H   UNL     1     -11.636  26.456  -7.982  1.00  0.00     0.293 HD
ENDBRANCH   7  27
TORSDOF 7
ENDMDL
MODEL 5
REMARK VINA RESULT:    -5.112      3.101      4.642
REMARK INTER + INTRA:          -6.683
REMARK INTER:                  -6.425
REMARK INTRA:                  -0.258
REMARK UNBOUND:                -0.376
REMARK SMILES Oc1cc(O)c2cc(O)c(-c3cc(O)c(O)c(O)c3)[o+]c2c1
REMARK SMILES IDX 10 1 20 2 21 3 22 4 2 5 3 6 4 7 6 8 7 9 8 10 11 11 12 12
REMARK SMILES IDX 13 13 19 14 15 15 17 16 14 17 16 19 18 21 9 23 1 25 5 27
REMARK H PARENT 14 18 16 20 18 22 9 24 1 26 5 28
REMARK Flexibility Score: inf
ROOT
ATOM      1  C   UNL     1      -5.417  22.743  -9.239  1.00  0.00     0.402 A 
ATOM      2  O   UNL     1      -5.006  24.003  -9.353  1.00  0.00    -0.202 OA
ATOM      3  C   UNL     1      -3.738  24.375  -9.205  1.00  0.00     0.368 A 
ATOM      4  C   UNL     1      -3.405  25.724  -9.342  1.00  0.00     0.162 A 
ATOM      5  C   UNL     1      -2.080  26.143  -9.187  1.00  0.00     0.128 A 
ATOM      6  C   UNL     1      -1.085  25.207  -8.894  1.00  0.00     0.093 A 
ATOM      7  C   UNL     1      -1.394  23.849  -8.752  1.00  0.00     0.136 A 
ATOM      8  C   UNL     1      -2.736  23.419  -8.910  1.00  0.00     0.125 A 
ATOM      9  C   UNL     1      -3.136  22.077  -8.799  1.00  0.00     0.078 A 
ATOM     10  C   UNL     1      -4.479  21.729  -8.973  1.00  0.00     0.223 A 
ENDROOT
BRANCH   1  11
ATOM     11  C   UNL     1      -6.858  22.457  -9.417  1.00  0.00     0.091 A 
ATOM     12  C   UNL     1      -7.469  22.733 -10.651  1.00  0.00     0.068 A 
ATOM     13  C   UNL     1      -8.838  22.491 -10.839  1.00  0.00     0.162 A 
ATOM     14  C   UNL     1      -7.643  21.966  -8.360  1.00  0.00     0.068 A 
ATOM     15  C   UNL     1      -9.609  21.980  -9.783  1.00  0.00     0.200 A 
ATOM     16  C   UNL     1      -9.011  21.723  -8.542  1.00  0.00     0.162 A 
BRANCH  13  17
ATOM     17  O   UNL     1      -9.430  22.756 -12.073  1.00  0.00    -0.504 OA
ATOM     18  H   UNL     1     -10.435  22.721 -12.199  1.00  0.00     0.293 HD
ENDBRANCH  13  17
BRANCH  15  19
ATOM     19  O   UNL     1     -10.972  21.728  -9.947  1.00  0.00    -0.502 OA
ATOM     20  H   UNL     1     -11.647  22.473 -10.074  1.00  0.00     0.293 HD
ENDBRANCH  15  19
BRANCH  16  21
ATOM     21  O   UNL     1      -9.785  21.230  -7.493  1.00  0.00    -0.504 OA
ATOM     22  H   UNL     1     -10.196  21.847  -6.802  1.00  0.00     0.293 HD
ENDBRANCH  16  21
ENDBRANCH   1  11
BRANCH  10  23
ATOM     23  O   UNL     1      -4.867  20.390  -8.912  1.00  0.00    -0.500 OA
ATOM     24  H   UNL     1      -5.281  19.918  -9.708  1.00  0.00     0.294 HD
ENDBRANCH  10  23
BRANCH   5  25
ATOM     25  O   UNL     1      -1.741  27.488  -9.323  1.00  0.00    -0.507 OA
ATOM     26  H   UNL     1      -2.321  28.131  -9.848  1.00  0.00     0.293 HD
ENDBRANCH   5  25
BRANCH   7  27
ATOM     27  O   UNL     1      -0.342  22.978  -8.455  1.00  0.00    -0.507 OA
ATOM     28  H   UNL     1       0.409  22.753  -9.092  1.00  0.00     0.293 HD
ENDBRANCH   7  27
TORSDOF 7
ENDMDL
MODEL 6
REMARK VINA RESULT:    -5.104      1.936      7.295
REMARK INTER + INTRA:          -6.673
REMARK INTER:                  -6.354
REMARK INTRA:                  -0.319
REMARK UNBOUND:                -0.376
REMARK SMILES Oc1cc(O)c2cc(O)c(-c3cc(O)c(O)c(O)c3)[o+]c2c1
REMARK SMILES IDX 10 1 20 2 21 3 22 4 2 5 3 6 4 7 6 8 7 9 8 10 11 11 12 12
REMARK SMILES IDX 13 13 19 14 15 15 17 16 14 17 16 19 18 21 9 23 1 25 5 27
REMARK H PARENT 14 18 16 20 18 22 9 24 1 26 5 28
REMARK Flexibility Score: inf
ROOT
ATOM      1  C   UNL     1      -5.833  21.997  -8.055  1.00  0.00     0.402 A 
ATOM      2  O   UNL     1      -6.205  23.274  -8.031  1.00  0.00    -0.202 OA
ATOM      3  C   UNL     1      -7.067  23.801  -8.896  1.00  0.00     0.368 A 
ATOM      4  C   UNL     1      -7.393  25.154  -8.791  1.00  0.00     0.162 A 
ATOM      5  C   UNL     1      -8.295  25.734  -9.689  1.00  0.00     0.128 A 
ATOM      6  C   UNL     1      -8.870  24.956 -10.696  1.00  0.00     0.093 A 
ATOM      7  C   UNL     1      -8.559  23.597 -10.822  1.00  0.00     0.136 A 
ATOM      8  C   UNL     1      -7.647  23.003  -9.911  1.00  0.00     0.125 A 
ATOM      9  C   UNL     1      -7.287  21.646  -9.953  1.00  0.00     0.078 A 
ATOM     10  C   UNL     1      -6.384  21.131  -9.017  1.00  0.00     0.223 A 
ENDROOT
BRANCH   1  11
ATOM     11  C   UNL     1      -4.858  21.532  -7.043  1.00  0.00     0.091 A 
ATOM     12  C   UNL     1      -5.308  20.788  -5.941  1.00  0.00     0.068 A 
ATOM     13  C   UNL     1      -4.408  20.353  -4.957  1.00  0.00     0.162 A 
ATOM     14  C   UNL     1      -3.496  21.867  -7.131  1.00  0.00     0.068 A 
ATOM     15  C   UNL     1      -3.045  20.676  -5.065  1.00  0.00     0.200 A 
ATOM     16  C   UNL     1      -2.592  21.437  -6.151  1.00  0.00     0.162 A 
BRANCH  13  17
ATOM     17  O   UNL     1      -4.865  19.603  -3.875  1.00  0.00    -0.504 OA
ATOM     18  H   UNL     1      -5.769  19.777  -3.452  1.00  0.00     0.293 HD
ENDBRANCH  13  17
BRANCH  15  19
ATOM     19  O   UNL     1      -2.130  20.252  -4.101  1.00  0.00    -0.502 OA
ATOM     20  H   UNL     1      -2.172  20.572  -3.140  1.00  0.00     0.293 HD
ENDBRANCH  15  19
BRANCH  16  21
ATOM     21  O   UNL     1      -1.241  21.766  -6.245  1.00  0.00    -0.504 OA
ATOM     22  H   UNL     1      -0.614  21.262  -6.861  1.00  0.00     0.293 HD
ENDBRANCH  16  21
ENDBRANCH   1  11
BRANCH  10  23
ATOM     23  O   UNL     1      -6.065  19.773  -9.028  1.00  0.00    -0.500 OA
ATOM     24  H   UNL     1      -5.507  19.351  -8.294  1.00  0.00     0.294 HD
ENDBRANCH  10  23
BRANCH   5  25
ATOM     25  O   UNL     1      -8.624  27.084  -9.590  1.00  0.00    -0.507 OA
ATOM     26  H   UNL     1      -8.470  27.607  -8.736  1.00  0.00     0.293 HD
ENDBRANCH   5  25
BRANCH   7  27
ATOM     27  O   UNL     1      -9.175  22.889 -11.858  1.00  0.00    -0.507 OA
ATOM     28  H   UNL     1      -9.226  21.882 -11.909  1.00  0.00     0.293 HD
ENDBRANCH   7  27
TORSDOF 7
ENDMDL
MODEL 7
REMARK VINA RESULT:    -4.998      3.379      7.387
REMARK INTER + INTRA:          -6.542
REMARK INTER:                  -6.224
REMARK INTRA:                  -0.318
REMARK UNBOUND:                -0.376
REMARK SMILES Oc1cc(O)c2cc(O)c(-c3cc(O)c(O)c(O)c3)[o+]c2c1
REMARK SMILES IDX 10 1 20 2 21 3 22 4 2 5 3 6 4 7 6 8 7 9 8 10 11 11 12 12
REMARK SMILES IDX 13 13 19 14 15 15 17 16 14 17 16 19 18 21 9 23 1 25 5 27
REMARK H PARENT 14 18 16 20 18 22 9 24 1 26 5 28
REMARK Flexibility Score: inf
ROOT
ATOM      1  C   UNL     1      -5.802  21.854  -6.536  1.00  0.00     0.402 A 
ATOM      2  O   UNL     1      -6.204  22.073  -7.785  1.00  0.00    -0.202 OA
ATOM      3  C   UNL     1      -7.478  22.023  -8.162  1.00  0.00     0.368 A 
ATOM      4  C   UNL     1      -7.802  22.266  -9.498  1.00  0.00     0.162 A 
ATOM      5  C   UNL     1      -9.134  22.217  -9.922  1.00  0.00     0.128 A 
ATOM      6  C   UNL     1     -10.144  21.922  -9.004  1.00  0.00     0.093 A 
ATOM      7  C   UNL     1      -9.845  21.674  -7.660  1.00  0.00     0.136 A 
ATOM      8  C   UNL     1      -8.496  21.726  -7.224  1.00  0.00     0.125 A 
ATOM      9  C   UNL     1      -8.105  21.505  -5.893  1.00  0.00     0.078 A 
ATOM     10  C   UNL     1      -6.754  21.577  -5.539  1.00  0.00     0.223 A 
ENDROOT
BRANCH   1  11
ATOM     11  C   UNL     1      -4.353  21.929  -6.244  1.00  0.00     0.091 A 
ATOM     12  C   UNL     1      -3.699  23.170  -6.305  1.00  0.00     0.068 A 
ATOM     13  C   UNL     1      -2.323  23.266  -6.053  1.00  0.00     0.162 A 
ATOM     14  C   UNL     1      -3.602  20.775  -5.960  1.00  0.00     0.068 A 
ATOM     15  C   UNL     1      -1.586  22.110  -5.750  1.00  0.00     0.200 A 
ATOM     16  C   UNL     1      -2.227  20.864  -5.708  1.00  0.00     0.162 A 
BRANCH  13  17
ATOM     17  O   UNL     1      -1.689  24.506  -6.103  1.00  0.00    -0.504 OA
ATOM     18  H   UNL     1      -0.981  24.714  -6.798  1.00  0.00     0.293 HD
ENDBRANCH  13  17
BRANCH  15  19
ATOM     19  O   UNL     1      -0.217  22.180  -5.492  1.00  0.00    -0.502 OA
ATOM     20  H   UNL     1       0.264  21.482  -4.935  1.00  0.00     0.293 HD
ENDBRANCH  15  19
BRANCH  16  21
ATOM     21  O   UNL     1      -1.487  19.719  -5.421  1.00  0.00    -0.504 OA
ATOM     22  H   UNL     1      -1.914  18.905  -4.994  1.00  0.00     0.293 HD
ENDBRANCH  16  21
ENDBRANCH   1  11
BRANCH  10  23
ATOM     23  O   UNL     1      -6.371  21.407  -4.208  1.00  0.00    -0.500 OA
ATOM     24  H   UNL     1      -7.004  21.604  -3.441  1.00  0.00     0.294 HD
ENDBRANCH  10  23
BRANCH   5  25
ATOM     25  O   UNL     1      -9.463  22.459 -11.254  1.00  0.00    -0.507 OA
ATOM     26  H   UNL     1      -9.407  21.730 -11.955  1.00  0.00     0.293 HD
ENDBRANCH   5  25
BRANCH   7  27
ATOM     27  O   UNL     1     -10.914  21.383  -6.806  1.00  0.00    -0.507 OA
ATOM     28  H   UNL     1     -10.998  20.534  -6.267  1.00  0.00     0.293 HD
ENDBRANCH   7  27
TORSDOF 7
ENDMDL
MODEL 8
REMARK VINA RESULT:    -4.982      3.010      4.689
REMARK INTER + INTRA:          -6.523
REMARK INTER:                  -6.143
REMARK INTRA:                  -0.380
REMARK UNBOUND:                -0.376
REMARK SMILES Oc1cc(O)c2cc(O)c(-c3cc(O)c(O)c(O)c3)[o+]c2c1
REMARK SMILES IDX 10 1 20 2 21 3 22 4 2 5 3 6 4 7 6 8 7 9 8 10 11 11 12 12
REMARK SMILES IDX 13 13 19 14 15 15 17 16 14 17 16 19 18 21 9 23 1 25 5 27
REMARK H PARENT 14 18 16 20 18 22 9 24 1 26 5 28
REMARK Flexibility Score: inf
ROOT
ATOM      1  C   UNL     1      -6.033  22.224  -7.842  1.00  0.00     0.402 A 
ATOM      2  O   UNL     1      -5.560  23.377  -7.376  1.00  0.00    -0.202 OA
ATOM      3  C   UNL     1      -4.337  23.517  -6.876  1.00  0.00     0.368 A 
ATOM      4  C   UNL     1      -3.933  24.769  -6.408  1.00  0.00     0.162 A 
ATOM      5  C   UNL     1      -2.652  24.943  -5.874  1.00  0.00     0.128 A 
ATOM      6  C   UNL     1      -1.774  23.858  -5.806  1.00  0.00     0.093 A 
ATOM      7  C   UNL     1      -2.156  22.594  -6.268  1.00  0.00     0.136 A 
ATOM      8  C   UNL     1      -3.453  22.412  -6.814  1.00  0.00     0.125 A 
ATOM      9  C   UNL     1      -3.917  21.184  -7.313  1.00  0.00     0.078 A 
ATOM     10  C   UNL     1      -5.208  21.084  -7.840  1.00  0.00     0.223 A 
ENDROOT
BRANCH   1  11
ATOM     11  C   UNL     1      -7.417  22.194  -8.366  1.00  0.00     0.091 A 
ATOM     12  C   UNL     1      -8.472  21.838  -7.510  1.00  0.00     0.068 A 
ATOM     13  C   UNL     1      -9.790  21.782  -7.986  1.00  0.00     0.162 A 
ATOM     14  C   UNL     1      -7.694  22.459  -9.718  1.00  0.00     0.068 A 
ATOM     15  C   UNL     1     -10.058  22.070  -9.334  1.00  0.00     0.200 A 
ATOM     16  C   UNL     1      -9.008  22.404 -10.200  1.00  0.00     0.162 A 
BRANCH  13  17
ATOM     17  O   UNL     1     -10.830  21.442  -7.123  1.00  0.00    -0.504 OA
ATOM     18  H   UNL     1     -11.793  21.411  -7.437  1.00  0.00     0.293 HD
ENDBRANCH  13  17
BRANCH  15  19
ATOM     19  O   UNL     1     -11.362  22.024  -9.830  1.00  0.00    -0.502 OA
ATOM     20  H   UNL     1     -11.760  22.784 -10.370  1.00  0.00     0.293 HD
ENDBRANCH  15  19
BRANCH  16  21
ATOM     21  O   UNL     1      -9.280  22.674 -11.540  1.00  0.00    -0.504 OA
ATOM     22  H   UNL     1      -8.936  23.513 -11.992  1.00  0.00     0.293 HD
ENDBRANCH  16  21
ENDBRANCH   1  11
BRANCH  10  23
ATOM     23  O   UNL     1      -5.651  19.877  -8.381  1.00  0.00    -0.500 OA
ATOM     24  H   UNL     1      -5.222  19.473  -9.206  1.00  0.00     0.294 HD
ENDBRANCH  10  23
BRANCH   5  25
ATOM     25  O   UNL     1      -2.242  26.190  -5.406  1.00  0.00    -0.507 OA
ATOM     26  H   UNL     1      -1.818  26.300  -4.493  1.00  0.00     0.293 HD
ENDBRANCH   5  25
BRANCH   7  27
ATOM     27  O   UNL     1      -1.220  21.561  -6.162  1.00  0.00    -0.507 OA
ATOM     28  H   UNL     1      -0.510  21.506  -5.446  1.00  0.00     0.293 HD
ENDBRANCH   7  27
TORSDOF 7
ENDMDL
MODEL 9
REMARK VINA RESULT:    -4.956      2.999      4.381
REMARK INTER + INTRA:          -6.491
REMARK INTER:                  -6.142
REMARK INTRA:                  -0.348
REMARK UNBOUND:                -0.376
REMARK SMILES Oc1cc(O)c2cc(O)c(-c3cc(O)c(O)c(O)c3)[o+]c2c1
REMARK SMILES IDX 10 1 20 2 21 3 22 4 2 5 3 6 4 7 6 8 7 9 8 10 11 11 12 12
REMARK SMILES IDX 13 13 19 14 15 15 17 16 14 17 16 19 18 21 9 23 1 25 5 27
REMARK H PARENT 14 18 16 20 18 22 9 24 1 26 5 28
REMARK Flexibility Score: inf
ROOT
ATOM      1  C   UNL     1      -5.843  22.533  -8.339  1.00  0.00     0.402 A 
ATOM      2  O   UNL     1      -5.365  23.771  -8.243  1.00  0.00    -0.202 OA
ATOM      3  C   UNL     1      -4.111  24.045  -7.896  1.00  0.00     0.368 A 
ATOM      4  C   UNL     1      -3.703  25.378  -7.820  1.00  0.00     0.162 A 
ATOM      5  C   UNL     1      -2.390  25.694  -7.454  1.00  0.00     0.128 A 
ATOM      6  C   UNL     1      -1.485  24.672  -7.162  1.00  0.00     0.093 A 
ATOM      7  C   UNL     1      -1.871  23.328  -7.230  1.00  0.00     0.136 A 
ATOM      8  C   UNL     1      -3.199  23.001  -7.604  1.00  0.00     0.125 A 
ATOM      9  C   UNL     1      -3.670  21.682  -7.711  1.00  0.00     0.078 A 
ATOM     10  C   UNL     1      -4.994  21.439  -8.090  1.00  0.00     0.223 A 
ENDROOT
BRANCH   1  11
ATOM     11  C   UNL     1      -7.261  22.358  -8.726  1.00  0.00     0.091 A 
ATOM     12  C   UNL     1      -7.647  22.589 -10.056  1.00  0.00     0.068 A 
ATOM     13  C   UNL     1      -8.987  22.450 -10.445  1.00  0.00     0.162 A 
ATOM     14  C   UNL     1      -8.242  22.020  -7.779  1.00  0.00     0.068 A 
ATOM     15  C   UNL     1      -9.957  22.091  -9.495  1.00  0.00     0.200 A 
ATOM     16  C   UNL     1      -9.583  21.881  -8.161  1.00  0.00     0.162 A 
BRANCH  13  17
ATOM     17  O   UNL     1      -9.356  22.668 -11.771  1.00  0.00    -0.504 OA
ATOM     18  H   UNL     1      -9.868  23.497 -12.052  1.00  0.00     0.293 HD
ENDBRANCH  13  17
BRANCH  15  19
ATOM     19  O   UNL     1     -11.296  21.944  -9.858  1.00  0.00    -0.502 OA
ATOM     20  H   UNL     1     -11.696  21.042 -10.089  1.00  0.00     0.293 HD
ENDBRANCH  15  19
BRANCH  16  21
ATOM     21  O   UNL     1     -10.553  21.539  -7.220  1.00  0.00    -0.504 OA
ATOM     22  H   UNL     1     -11.215  20.790  -7.388  1.00  0.00     0.293 HD
ENDBRANCH  16  21
ENDBRANCH   1  11
BRANCH  10  23
ATOM     23  O   UNL     1      -5.447  20.129  -8.245  1.00  0.00    -0.500 OA
ATOM     24  H   UNL     1      -5.021  19.355  -7.748  1.00  0.00     0.294 HD
ENDBRANCH  10  23
BRANCH   5  25
ATOM     25  O   UNL     1      -1.977  27.022  -7.377  1.00  0.00    -0.507 OA
ATOM     26  H   UNL     1      -2.339  27.651  -6.670  1.00  0.00     0.293 HD
ENDBRANCH   5  25
BRANCH   7  27
ATOM     27  O   UNL     1      -0.905  22.365  -6.919  1.00  0.00    -0.507 OA
ATOM     28  H   UNL     1      -1.112  21.452  -6.542  1.00  0.00     0.293 HD
ENDBRANCH   7  27
TORSDOF 7
ENDMDL
