MODEL 1
REMARK VINA RESULT:    -4.348      0.000      0.000
REMARK INTER + INTRA:          -4.824
REMARK INTER:                  -4.729
REMARK INTRA:                  -0.095
REMARK UNBOUND:                -0.095
REMARK SMILES C=C(C)[C@@H]1CC=C(C)[C@@H](O)C1
REMARK SMILES IDX 8 1 7 2 6 3 5 4 4 5 11 6 9 7 10 8 2 10 1 11 3 12
REMARK H PARENT 10 9
REMARK Flexibility Score: inf
ROOT
ATOM      1  C   UNL     1     140.692 140.091 142.836  1.00  0.00     0.042 C 
ATOM      2  C   UNL     1     140.155 140.849 144.019  1.00  0.00    -0.049 C 
ATOM      3  C   UNL     1     141.023 141.307 144.947  1.00  0.00    -0.025 C 
ATOM      4  C   UNL     1     140.603 142.156 146.123  1.00  0.00     0.035 C 
ATOM      5  C   UNL     1     139.111 141.992 146.459  1.00  0.00     0.021 C 
ATOM      6  C   UNL     1     138.270 142.098 145.176  1.00  0.00     0.044 C 
ATOM      7  C   UNL     1     138.649 140.981 144.191  1.00  0.00     0.140 C 
ENDROOT
BRANCH   7   8
ATOM      8  O   UNL     1     138.121 139.763 144.648  1.00  0.00    -0.389 OA
ATOM      9  H   UNL     1     138.840 139.309 145.162  1.00  0.00     0.211 HD
ENDBRANCH   7   8
BRANCH   5  10
ATOM     10  C   UNL     1     138.661 142.997 147.513  1.00  0.00    -0.077 C 
ATOM     11  C   UNL     1     137.426 142.950 148.041  1.00  0.00     0.008 C 
ATOM     12  C   UNL     1     139.608 144.067 147.990  1.00  0.00     0.039 C 
ENDBRANCH   5  10
TORSDOF 2
ENDMDL
MODEL 2
REMARK VINA RESULT:    -4.283      1.353      1.794
REMARK INTER + INTRA:          -4.753
REMARK INTER:                  -4.663
REMARK INTRA:                  -0.090
REMARK UNBOUND:                -0.095
REMARK SMILES C=C(C)[C@@H]1CC=C(C)[C@@H](O)C1
REMARK SMILES IDX 8 1 7 2 6 3 5 4 4 5 11 6 9 7 10 8 2 10 1 11 3 12
REMARK H PARENT 10 9
REMARK Flexibility Score: inf
ROOT
ATOM      1  C   UNL     1     140.717 139.115 143.733  1.00  0.00     0.042 C 
ATOM      2  C   UNL     1     140.243 140.142 144.725  1.00  0.00    -0.049 C 
ATOM      3  C   UNL     1     139.331 139.779 145.653  1.00  0.00    -0.025 C 
ATOM      4  C   UNL     1     138.856 140.701 146.749  1.00  0.00     0.035 C 
ATOM      5  C   UNL     1     139.070 142.184 146.400  1.00  0.00     0.021 C 
ATOM      6  C   UNL     1     140.496 142.397 145.867  1.00  0.00     0.044 C 
ATOM      7  C   UNL     1     140.719 141.580 144.584  1.00  0.00     0.140 C 
ENDROOT
BRANCH   7   8
ATOM      8  O   UNL     1     140.040 142.198 143.522  1.00  0.00    -0.389 OA
ATOM      9  H   UNL     1     139.704 141.473 142.931  1.00  0.00     0.211 HD
ENDBRANCH   7   8
BRANCH   5  10
ATOM     10  C   UNL     1     138.770 143.089 147.589  1.00  0.00    -0.077 C 
ATOM     11  C   UNL     1     137.603 143.011 148.251  1.00  0.00     0.008 C 
ATOM     12  C   UNL     1     139.794 144.093 148.051  1.00  0.00     0.039 C 
ENDBRANCH   5  10
TORSDOF 2
ENDMDL
MODEL 3
REMARK VINA RESULT:    -4.282      1.947      2.329
REMARK INTER + INTRA:          -4.752
REMARK INTER:                  -4.661
REMARK INTRA:                  -0.091
REMARK UNBOUND:                -0.095
REMARK SMILES C=C(C)[C@@H]1CC=C(C)[C@@H](O)C1
REMARK SMILES IDX 8 1 7 2 6 3 5 4 4 5 11 6 9 7 10 8 2 10 1 11 3 12
REMARK H PARENT 10 9
REMARK Flexibility Score: inf
ROOT
ATOM      1  C   UNL     1     139.862 138.124 144.597  1.00  0.00     0.042 C 
ATOM      2  C   UNL     1     139.610 139.363 145.413  1.00  0.00    -0.049 C 
ATOM      3  C   UNL     1     139.031 140.428 144.818  1.00  0.00    -0.025 C 
ATOM      4  C   UNL     1     138.650 141.684 145.563  1.00  0.00     0.035 C 
ATOM      5  C   UNL     1     139.444 141.852 146.871  1.00  0.00     0.021 C 
ATOM      6  C   UNL     1     139.438 140.533 147.661  1.00  0.00     0.044 C 
ATOM      7  C   UNL     1     140.112 139.416 146.848  1.00  0.00     0.140 C 
ENDROOT
BRANCH   7   8
ATOM      8  O   UNL     1     141.502 139.618 146.852  1.00  0.00    -0.389 OA
ATOM      9  H   UNL     1     141.871 139.084 147.603  1.00  0.00     0.211 HD
ENDBRANCH   7   8
BRANCH   5  10
ATOM     10  C   UNL     1     138.912 143.012 147.704  1.00  0.00    -0.077 C 
ATOM     11  C   UNL     1     137.644 143.031 148.147  1.00  0.00     0.008 C 
ATOM     12  C   UNL     1     139.815 144.167 148.054  1.00  0.00     0.039 C 
ENDBRANCH   5  10
TORSDOF 2
ENDMDL
MODEL 4
REMARK VINA RESULT:    -4.273      1.766      2.513
REMARK INTER + INTRA:          -4.742
REMARK INTER:                  -4.650
REMARK INTRA:                  -0.093
REMARK UNBOUND:                -0.095
REMARK SMILES C=C(C)[C@@H]1CC=C(C)[C@@H](O)C1
REMARK SMILES IDX 8 1 7 2 6 3 5 4 4 5 11 6 9 7 10 8 2 10 1 11 3 12
REMARK H PARENT 10 9
REMARK Flexibility Score: inf
ROOT
ATOM      1  C   UNL     1     138.412 142.295 141.908  1.00  0.00     0.042 C 
ATOM      2  C   UNL     1     138.373 142.285 143.412  1.00  0.00    -0.049 C 
ATOM      3  C   UNL     1     137.460 143.053 144.045  1.00  0.00    -0.025 C 
ATOM      4  C   UNL     1     137.273 143.049 145.543  1.00  0.00     0.035 C 
ATOM      5  C   UNL     1     138.521 142.541 146.286  1.00  0.00     0.021 C 
ATOM      6  C   UNL     1     139.028 141.244 145.635  1.00  0.00     0.044 C 
ATOM      7  C   UNL     1     139.430 141.498 144.173  1.00  0.00     0.140 C 
ENDROOT
BRANCH   7   8
ATOM      8  O   UNL     1     140.647 142.198 144.145  1.00  0.00    -0.389 OA
ATOM      9  H   UNL     1     140.786 142.577 145.052  1.00  0.00     0.211 HD
ENDBRANCH   7   8
BRANCH   5  10
ATOM     10  C   UNL     1     138.249 142.356 147.774  1.00  0.00    -0.077 C 
ATOM     11  C   UNL     1     137.266 143.030 148.395  1.00  0.00     0.008 C 
ATOM     12  C   UNL     1     139.086 141.398 148.582  1.00  0.00     0.039 C 
ENDBRANCH   5  10
TORSDOF 2
ENDMDL
MODEL 5
REMARK VINA RESULT:    -4.231      2.252      4.270
REMARK INTER + INTRA:          -4.697
REMARK INTER:                  -4.604
REMARK INTRA:                  -0.093
REMARK UNBOUND:                -0.095
REMARK SMILES C=C(C)[C@@H]1CC=C(C)[C@@H](O)C1
REMARK SMILES IDX 8 1 7 2 6 3 5 4 4 5 11 6 9 7 10 8 2 10 1 11 3 12
REMARK H PARENT 10 9
REMARK Flexibility Score: inf
ROOT
ATOM      1  C   UNL     1     139.991 144.475 148.154  1.00  0.00     0.042 C 
ATOM      2  C   UNL     1     139.703 143.127 147.553  1.00  0.00    -0.049 C 
ATOM      3  C   UNL     1     139.709 142.041 148.357  1.00  0.00    -0.025 C 
ATOM      4  C   UNL     1     139.345 140.657 147.878  1.00  0.00     0.035 C 
ATOM      5  C   UNL     1     139.501 140.505 146.355  1.00  0.00     0.021 C 
ATOM      6  C   UNL     1     138.842 141.695 145.639  1.00  0.00     0.044 C 
ATOM      7  C   UNL     1     139.523 143.011 146.047  1.00  0.00     0.140 C 
ENDROOT
BRANCH   7   8
ATOM      8  O   UNL     1     140.775 143.097 145.417  1.00  0.00    -0.389 OA
ATOM      9  H   UNL     1     140.836 144.001 145.011  1.00  0.00     0.211 HD
ENDBRANCH   7   8
BRANCH   5  10
ATOM     10  C   UNL     1     138.944 139.174 145.866  1.00  0.00    -0.077 C 
ATOM     11  C   UNL     1     138.789 138.131 146.700  1.00  0.00     0.008 C 
ATOM     12  C   UNL     1     138.548 139.005 144.421  1.00  0.00     0.039 C 
ENDBRANCH   5  10
TORSDOF 2
ENDMDL
MODEL 6
REMARK VINA RESULT:    -4.091      1.942      4.515
REMARK INTER + INTRA:          -4.544
REMARK INTER:                  -4.458
REMARK INTRA:                  -0.087
REMARK UNBOUND:                -0.095
REMARK SMILES C=C(C)[C@@H]1CC=C(C)[C@@H](O)C1
REMARK SMILES IDX 8 1 7 2 6 3 5 4 4 5 11 6 9 7 10 8 2 10 1 11 3 12
REMARK H PARENT 10 9
REMARK Flexibility Score: inf
ROOT
ATOM      1  C   UNL     1     137.591 143.001 148.037  1.00  0.00     0.042 C 
ATOM      2  C   UNL     1     138.569 142.265 147.161  1.00  0.00    -0.049 C 
ATOM      3  C   UNL     1     139.080 141.093 147.598  1.00  0.00    -0.025 C 
ATOM      4  C   UNL     1     139.995 140.230 146.764  1.00  0.00     0.035 C 
ATOM      5  C   UNL     1     140.701 141.027 145.654  1.00  0.00     0.021 C 
ATOM      6  C   UNL     1     139.680 141.901 144.906  1.00  0.00     0.044 C 
ATOM      7  C   UNL     1     139.034 142.913 145.866  1.00  0.00     0.140 C 
ENDROOT
BRANCH   7   8
ATOM      8  O   UNL     1     139.958 143.929 146.155  1.00  0.00    -0.389 OA
ATOM      9  H   UNL     1     139.761 144.685 145.542  1.00  0.00     0.211 HD
ENDBRANCH   7   8
BRANCH   5  10
ATOM     10  C   UNL     1     141.462 140.111 144.703  1.00  0.00    -0.077 C 
ATOM     11  C   UNL     1     142.679 139.635 145.016  1.00  0.00     0.008 C 
ATOM     12  C   UNL     1     140.851 139.714 143.384  1.00  0.00     0.039 C 
ENDBRANCH   5  10
TORSDOF 2
ENDMDL
MODEL 7
REMARK VINA RESULT:    -4.019      1.694      4.510
REMARK INTER + INTRA:          -4.466
REMARK INTER:                  -4.371
REMARK INTRA:                  -0.095
REMARK UNBOUND:                -0.095
REMARK SMILES C=C(C)[C@@H]1CC=C(C)[C@@H](O)C1
REMARK SMILES IDX 8 1 7 2 6 3 5 4 4 5 11 6 9 7 10 8 2 10 1 11 3 12
REMARK H PARENT 10 9
REMARK Flexibility Score: inf
ROOT
ATOM      1  C   UNL     1     136.990 143.277 148.747  1.00  0.00     0.042 C 
ATOM      2  C   UNL     1     137.906 142.717 147.694  1.00  0.00    -0.049 C 
ATOM      3  C   UNL     1     137.466 142.648 146.418  1.00  0.00    -0.025 C 
ATOM      4  C   UNL     1     138.332 142.190 145.270  1.00  0.00     0.035 C 
ATOM      5  C   UNL     1     139.516 141.326 145.738  1.00  0.00     0.021 C 
ATOM      6  C   UNL     1     140.220 142.001 146.927  1.00  0.00     0.044 C 
ATOM      7  C   UNL     1     139.252 142.146 148.113  1.00  0.00     0.140 C 
ENDROOT
BRANCH   7   8
ATOM      8  O   UNL     1     139.063 140.889 148.710  1.00  0.00    -0.389 OA
ATOM      9  H   UNL     1     138.090 140.790 148.878  1.00  0.00     0.211 HD
ENDBRANCH   7   8
BRANCH   5  10
ATOM     10  C   UNL     1     140.485 141.039 144.598  1.00  0.00    -0.077 C 
ATOM     11  C   UNL     1     140.234 141.455 143.345  1.00  0.00     0.008 C 
ATOM     12  C   UNL     1     141.760 140.279 144.863  1.00  0.00     0.039 C 
ENDBRANCH   5  10
TORSDOF 2
ENDMDL
MODEL 8
REMARK VINA RESULT:    -3.947      1.867      4.270
REMARK INTER + INTRA:          -4.387
REMARK INTER:                  -4.296
REMARK INTRA:                  -0.091
REMARK UNBOUND:                -0.095
REMARK SMILES C=C(C)[C@@H]1CC=C(C)[C@@H](O)C1
REMARK SMILES IDX 8 1 7 2 6 3 5 4 4 5 11 6 9 7 10 8 2 10 1 11 3 12
REMARK H PARENT 10 9
REMARK Flexibility Score: inf
ROOT
ATOM      1  C   UNL     1     140.052 144.535 148.319  1.00  0.00     0.042 C 
ATOM      2  C   UNL     1     139.754 143.310 147.499  1.00  0.00    -0.049 C 
ATOM      3  C   UNL     1     140.401 143.140 146.325  1.00  0.00    -0.025 C 
ATOM      4  C   UNL     1     140.247 141.906 145.469  1.00  0.00     0.035 C 
ATOM      5  C   UNL     1     138.937 141.152 145.760  1.00  0.00     0.021 C 
ATOM      6  C   UNL     1     138.753 140.986 147.277  1.00  0.00     0.044 C 
ATOM      7  C   UNL     1     138.661 142.359 147.961  1.00  0.00     0.140 C 
ENDROOT
BRANCH   7   8
ATOM      8  O   UNL     1     137.403 142.924 147.691  1.00  0.00    -0.389 OA
ATOM      9  H   UNL     1     136.921 142.291 147.097  1.00  0.00     0.211 HD
ENDBRANCH   7   8
BRANCH   5  10
ATOM     10  C   UNL     1     138.890 139.812 145.035  1.00  0.00    -0.077 C 
ATOM     11  C   UNL     1     139.205 138.666 145.663  1.00  0.00     0.008 C 
ATOM     12  C   UNL     1     138.479 139.750 143.587  1.00  0.00     0.039 C 
ENDBRANCH   5  10
TORSDOF 2
ENDMDL
MODEL 9
REMARK VINA RESULT:    -3.795      1.770      3.960
REMARK INTER + INTRA:          -4.223
REMARK INTER:                  -4.128
REMARK INTRA:                  -0.095
REMARK UNBOUND:                -0.095
REMARK SMILES C=C(C)[C@@H]1CC=C(C)[C@@H](O)C1
REMARK SMILES IDX 8 1 7 2 6 3 5 4 4 5 11 6 9 7 10 8 2 10 1 11 3 12
REMARK H PARENT 10 9
REMARK Flexibility Score: inf
ROOT
ATOM      1  C   UNL     1     139.882 141.511 148.790  1.00  0.00     0.042 C 
ATOM      2  C   UNL     1     139.323 141.855 147.436  1.00  0.00    -0.049 C 
ATOM      3  C   UNL     1     138.110 142.446 147.363  1.00  0.00    -0.025 C 
ATOM      4  C   UNL     1     137.497 142.916 146.067  1.00  0.00     0.035 C 
ATOM      5  C   UNL     1     138.094 142.198 144.843  1.00  0.00     0.021 C 
ATOM      6  C   UNL     1     139.629 142.191 144.937  1.00  0.00     0.044 C 
ATOM      7  C   UNL     1     140.088 141.431 146.191  1.00  0.00     0.140 C 
ENDROOT
BRANCH   7   8
ATOM      8  O   UNL     1     139.917 140.053 145.983  1.00  0.00    -0.389 OA
ATOM      9  H   UNL     1     139.010 139.927 145.600  1.00  0.00     0.211 HD
ENDBRANCH   7   8
BRANCH   5  10
ATOM     10  C   UNL     1     137.611 142.820 143.539  1.00  0.00    -0.077 C 
ATOM     11  C   UNL     1     136.883 143.949 143.530  1.00  0.00     0.008 C 
ATOM     12  C   UNL     1     137.952 142.172 142.221  1.00  0.00     0.039 C 
ENDBRANCH   5  10
TORSDOF 2
ENDMDL
