MODEL 1
REMARK VINA RESULT:    -7.363      0.000      0.000
REMARK INTER + INTRA:          -7.693
REMARK INTER:                  -8.009
REMARK INTRA:                   0.316
REMARK UNBOUND:                 0.316
REMARK SMILES CC1(C)CC[C@@]2(C(=O)[O-])CC[C@@]3(C)C(=CC[C@H]4[C@]5(C)CC[C@H](O)C(C)(C)[C@@H]5CC[C@]43C)[C@@H]2C1
REMARK SMILES IDX 6 1 5 2 10 3 32 4 4 5 11 6 14 7 33 8 2 9 12 10 15 11 1 12
REMARK SMILES IDX 3 13 13 14 30 15 16 16 17 17 29 18 31 19 18 20 28 21 27 22
REMARK SMILES IDX 20 23 19 24 24 25 21 26 22 27 25 28 26 29 7 30 8 31 9 32
REMARK SMILES IDX 23 33
REMARK H PARENT 23 34
REMARK Flexibility Score: inf
ROOT
ATOM      1  C   UNL     1     100.735  45.245 136.311  1.00  0.00     0.017 C 
ATOM      2  C   UNL     1      99.260  45.689 136.160  1.00  0.00     0.014 C 
ATOM      3  C   UNL     1     100.823  44.123 137.404  1.00  0.00     0.014 C 
ATOM      4  C   UNL     1     101.213  44.629 134.949  1.00  0.00     0.028 C 
ATOM      5  C   UNL     1      99.058  46.641 134.965  1.00  0.00     0.007 C 
ATOM      6  C   UNL     1     102.207  43.409 137.464  1.00  0.00     0.013 C 
ATOM      7  C   UNL     1     102.610  44.035 135.139  1.00  0.00    -0.064 C 
ATOM      8  C   UNL     1     101.003  45.554 133.723  1.00  0.00     0.015 C 
ATOM      9  C   UNL     1      99.527  46.040 133.607  1.00  0.00    -0.035 C 
ATOM     10  C   UNL     1     102.722  42.827 136.088  1.00  0.00    -0.006 C 
ATOM     11  C   UNL     1     103.662  44.859 135.004  1.00  0.00    -0.027 C 
ATOM     12  C   UNL     1      99.431  47.143 132.516  1.00  0.00     0.011 C 
ATOM     13  C   UNL     1      98.593  44.880 133.170  1.00  0.00     0.011 C 
ATOM     14  C   UNL     1     101.696  41.709 135.685  1.00  0.00     0.017 C 
ATOM     15  C   UNL     1     104.257  42.190 136.125  1.00  0.00    -0.020 C 
ATOM     16  C   UNL     1     104.942  44.611 135.728  1.00  0.00     0.032 C 
ATOM     17  C   UNL     1     105.370  43.149 135.495  1.00  0.00     0.006 C 
ATOM     18  C   UNL     1     104.639  41.878 137.592  1.00  0.00     0.008 C 
ATOM     19  C   UNL     1     104.319  40.842 135.325  1.00  0.00     0.012 C 
ATOM     20  C   UNL     1     106.921  42.829 135.837  1.00  0.00    -0.025 C 
ATOM     21  C   UNL     1     106.038  41.328 137.779  1.00  0.00     0.005 C 
ATOM     22  C   UNL     1     107.142  42.323 137.335  1.00  0.00     0.003 C 
ATOM     23  C   UNL     1     107.495  41.802 134.776  1.00  0.00     0.010 C 
ATOM     24  C   UNL     1     107.766  44.126 135.633  1.00  0.00     0.012 C 
ATOM     25  C   UNL     1     108.630  41.782 137.661  1.00  0.00    -0.006 C 
ATOM     26  C   UNL     1     108.365  40.683 135.357  1.00  0.00     0.033 C 
ATOM     27  C   UNL     1     109.360  41.250 136.373  1.00  0.00     0.120 C 
ATOM     28  C   UNL     1     109.476  42.926 138.279  1.00  0.00     0.014 C 
ATOM     29  C   UNL     1     108.630  40.663 138.751  1.00  0.00     0.014 C 
ENDROOT
BRANCH   1  30
ATOM     30  C   UNL     1     101.552  46.450 136.791  1.00  0.00     0.048 C 
ATOM     31  O   UNL     1     101.896  47.375 136.005  1.00  0.00    -0.550 OA
ATOM     32  O   UNL     1     101.798  46.615 138.150  1.00  0.00    -0.550 OA
ENDBRANCH   1  30
BRANCH  27  33
ATOM     33  O   UNL     1     110.317  40.270 136.689  1.00  0.00    -0.393 OA
ATOM     34  H   UNL     1     110.939  40.205 135.919  1.00  0.00     0.210 HD
ENDBRANCH  27  33
TORSDOF 2
ENDMDL
MODEL 2
REMARK VINA RESULT:    -7.141      1.772      2.248
REMARK INTER + INTRA:          -7.451
REMARK INTER:                  -7.770
REMARK INTRA:                   0.318
REMARK UNBOUND:                 0.316
REMARK SMILES CC1(C)CC[C@@]2(C(=O)[O-])CC[C@@]3(C)C(=CC[C@H]4[C@]5(C)CC[C@H](O)C(C)(C)[C@@H]5CC[C@]43C)[C@@H]2C1
REMARK SMILES IDX 6 1 5 2 10 3 32 4 4 5 11 6 14 7 33 8 2 9 12 10 15 11 1 12
REMARK SMILES IDX 3 13 13 14 30 15 16 16 17 17 29 18 31 19 18 20 28 21 27 22
REMARK SMILES IDX 20 23 19 24 24 25 21 26 22 27 25 28 26 29 7 30 8 31 9 32
REMARK SMILES IDX 23 33
REMARK H PARENT 23 34
REMARK Flexibility Score: inf
ROOT
ATOM      1  C   UNL     1     101.995  46.901 137.209  1.00  0.00     0.017 C 
ATOM      2  C   UNL     1     100.697  47.725 137.039  1.00  0.00     0.014 C 
ATOM      3  C   UNL     1     101.623  45.442 137.650  1.00  0.00     0.014 C 
ATOM      4  C   UNL     1     102.717  46.814 135.818  1.00  0.00     0.028 C 
ATOM      5  C   UNL     1     100.962  49.108 136.412  1.00  0.00     0.007 C 
ATOM      6  C   UNL     1     102.818  44.443 137.599  1.00  0.00     0.013 C 
ATOM      7  C   UNL     1     103.909  45.862 135.938  1.00  0.00    -0.064 C 
ATOM      8  C   UNL     1     102.979  48.187 135.149  1.00  0.00     0.015 C 
ATOM      9  C   UNL     1     101.676  49.034 135.030  1.00  0.00    -0.035 C 
ATOM     10  C   UNL     1     103.583  44.383 136.218  1.00  0.00    -0.006 C 
ATOM     11  C   UNL     1     105.071  46.370 136.381  1.00  0.00    -0.027 C 
ATOM     12  C   UNL     1     102.038  50.478 134.580  1.00  0.00     0.011 C 
ATOM     13  C   UNL     1     100.727  48.444 133.953  1.00  0.00     0.011 C 
ATOM     14  C   UNL     1     102.544  43.838 135.175  1.00  0.00     0.017 C 
ATOM     15  C   UNL     1     104.940  43.423 136.208  1.00  0.00    -0.020 C 
ATOM     16  C   UNL     1     106.063  45.526 137.107  1.00  0.00     0.032 C 
ATOM     17  C   UNL     1     106.311  44.241 136.294  1.00  0.00     0.006 C 
ATOM     18  C   UNL     1     104.871  42.438 137.401  1.00  0.00     0.008 C 
ATOM     19  C   UNL     1     105.008  42.567 134.894  1.00  0.00     0.012 C 
ATOM     20  C   UNL     1     107.651  43.425 136.699  1.00  0.00    -0.025 C 
ATOM     21  C   UNL     1     106.073  41.526 137.539  1.00  0.00     0.005 C 
ATOM     22  C   UNL     1     107.391  42.300 137.802  1.00  0.00     0.003 C 
ATOM     23  C   UNL     1     108.323  42.829 135.394  1.00  0.00     0.010 C 
ATOM     24  C   UNL     1     108.705  44.427 137.268  1.00  0.00     0.012 C 
ATOM     25  C   UNL     1     108.641  41.314 138.081  1.00  0.00    -0.006 C 
ATOM     26  C   UNL     1     108.830  41.389 135.523  1.00  0.00     0.033 C 
ATOM     27  C   UNL     1     109.596  41.205 136.835  1.00  0.00     0.120 C 
ATOM     28  C   UNL     1     109.457  41.838 139.291  1.00  0.00     0.014 C 
ATOM     29  C   UNL     1     108.186  39.881 138.505  1.00  0.00     0.014 C 
ENDROOT
BRANCH   1  30
ATOM     30  C   UNL     1     102.829  47.543 138.323  1.00  0.00     0.048 C 
ATOM     31  O   UNL     1     103.513  48.583 138.126  1.00  0.00    -0.550 OA
ATOM     32  O   UNL     1     102.718  47.065 139.626  1.00  0.00    -0.550 OA
ENDBRANCH   1  30
BRANCH  27  33
ATOM     33  O   UNL     1     110.277  39.976 136.812  1.00  0.00    -0.393 OA
ATOM     34  H   UNL     1     110.702  39.856 137.700  1.00  0.00     0.210 HD
ENDBRANCH  27  33
TORSDOF 2
ENDMDL
MODEL 3
REMARK VINA RESULT:    -6.865      1.636      8.218
REMARK INTER + INTRA:          -7.151
REMARK INTER:                  -7.468
REMARK INTRA:                   0.317
REMARK UNBOUND:                 0.316
REMARK SMILES CC1(C)CC[C@@]2(C(=O)[O-])CC[C@@]3(C)C(=CC[C@H]4[C@]5(C)CC[C@H](O)C(C)(C)[C@@H]5CC[C@]43C)[C@@H]2C1
REMARK SMILES IDX 6 1 5 2 10 3 32 4 4 5 11 6 14 7 33 8 2 9 12 10 15 11 1 12
REMARK SMILES IDX 3 13 13 14 30 15 16 16 17 17 29 18 31 19 18 20 28 21 27 22
REMARK SMILES IDX 20 23 19 24 24 25 21 26 22 27 25 28 26 29 7 30 8 31 9 32
REMARK SMILES IDX 23 33
REMARK H PARENT 23 34
REMARK Flexibility Score: inf
ROOT
ATOM      1  C   UNL     1     107.012  40.696 136.624  1.00  0.00     0.017 C 
ATOM      2  C   UNL     1     107.879  39.501 137.083  1.00  0.00     0.014 C 
ATOM      3  C   UNL     1     105.734  40.152 135.893  1.00  0.00     0.014 C 
ATOM      4  C   UNL     1     106.539  41.488 137.894  1.00  0.00     0.028 C 
ATOM      5  C   UNL     1     109.049  39.942 137.985  1.00  0.00     0.007 C 
ATOM      6  C   UNL     1     104.654  41.241 135.616  1.00  0.00     0.013 C 
ATOM      7  C   UNL     1     105.545  42.567 137.462  1.00  0.00    -0.064 C 
ATOM      8  C   UNL     1     107.690  41.927 138.834  1.00  0.00     0.015 C 
ATOM      9  C   UNL     1     108.592  40.727 139.251  1.00  0.00    -0.035 C 
ATOM     10  C   UNL     1     104.206  42.077 136.880  1.00  0.00    -0.006 C 
ATOM     11  C   UNL     1     106.043  43.746 137.053  1.00  0.00    -0.027 C 
ATOM     12  C   UNL     1     109.853  41.260 139.986  1.00  0.00     0.011 C 
ATOM     13  C   UNL     1     107.848  39.789 140.238  1.00  0.00     0.011 C 
ATOM     14  C   UNL     1     103.521  41.053 137.852  1.00  0.00     0.017 C 
ATOM     15  C   UNL     1     103.159  43.328 136.559  1.00  0.00    -0.020 C 
ATOM     16  C   UNL     1     105.311  44.602 136.075  1.00  0.00     0.032 C 
ATOM     17  C   UNL     1     103.855  44.767 136.550  1.00  0.00     0.006 C 
ATOM     18  C   UNL     1     102.492  43.087 135.183  1.00  0.00     0.008 C 
ATOM     19  C   UNL     1     102.016  43.387 137.632  1.00  0.00     0.012 C 
ATOM     20  C   UNL     1     103.047  45.990 135.860  1.00  0.00    -0.025 C 
ATOM     21  C   UNL     1     101.539  44.180 134.742  1.00  0.00     0.005 C 
ATOM     22  C   UNL     1     102.238  45.552 134.555  1.00  0.00     0.003 C 
ATOM     23  C   UNL     1     102.107  46.676 136.935  1.00  0.00     0.010 C 
ATOM     24  C   UNL     1     104.062  47.104 135.451  1.00  0.00     0.012 C 
ATOM     25  C   UNL     1     101.243  46.676 133.957  1.00  0.00    -0.006 C 
ATOM     26  C   UNL     1     100.699  47.026 136.440  1.00  0.00     0.033 C 
ATOM     27  C   UNL     1     100.765  47.688 135.062  1.00  0.00     0.120 C 
ATOM     28  C   UNL     1     101.966  47.467 132.835  1.00  0.00     0.014 C 
ATOM     29  C   UNL     1      99.994  46.053 133.256  1.00  0.00     0.014 C 
ENDROOT
BRANCH   1  30
ATOM     30  C   UNL     1     107.824  41.522 135.620  1.00  0.00     0.048 C 
ATOM     31  O   UNL     1     108.721  42.326 135.993  1.00  0.00    -0.550 OA
ATOM     32  O   UNL     1     107.684  41.278 134.257  1.00  0.00    -0.550 OA
ENDBRANCH   1  30
BRANCH  27  33
ATOM     33  O   UNL     1      99.511  48.241 134.748  1.00  0.00    -0.393 OA
ATOM     34  H   UNL     1      99.206  48.754 135.542  1.00  0.00     0.210 HD
ENDBRANCH  27  33
TORSDOF 2
ENDMDL
MODEL 4
REMARK VINA RESULT:    -6.693      3.066      9.011
REMARK INTER + INTRA:          -6.965
REMARK INTER:                  -7.283
REMARK INTRA:                   0.318
REMARK UNBOUND:                 0.316
REMARK SMILES CC1(C)CC[C@@]2(C(=O)[O-])CC[C@@]3(C)C(=CC[C@H]4[C@]5(C)CC[C@H](O)C(C)(C)[C@@H]5CC[C@]43C)[C@@H]2C1
REMARK SMILES IDX 6 1 5 2 10 3 32 4 4 5 11 6 14 7 33 8 2 9 12 10 15 11 1 12
REMARK SMILES IDX 3 13 13 14 30 15 16 16 17 17 29 18 31 19 18 20 28 21 27 22
REMARK SMILES IDX 20 23 19 24 24 25 21 26 22 27 25 28 26 29 7 30 8 31 9 32
REMARK SMILES IDX 23 33
REMARK H PARENT 23 34
REMARK Flexibility Score: inf
ROOT
ATOM      1  C   UNL     1     104.052  44.661 137.484  1.00  0.00     0.017 C 
ATOM      2  C   UNL     1     104.935  43.766 138.385  1.00  0.00     0.014 C 
ATOM      3  C   UNL     1     103.055  45.470 138.385  1.00  0.00     0.014 C 
ATOM      4  C   UNL     1     104.975  45.690 136.742  1.00  0.00     0.028 C 
ATOM      5  C   UNL     1     106.076  43.092 137.598  1.00  0.00     0.007 C 
ATOM      6  C   UNL     1     102.292  46.598 137.627  1.00  0.00     0.013 C 
ATOM      7  C   UNL     1     104.096  46.685 135.983  1.00  0.00    -0.064 C 
ATOM      8  C   UNL     1     106.146  45.046 135.958  1.00  0.00     0.015 C 
ATOM      9  C   UNL     1     107.001  44.104 136.858  1.00  0.00    -0.035 C 
ATOM     10  C   UNL     1     103.210  47.613 136.836  1.00  0.00    -0.006 C 
ATOM     11  C   UNL     1     103.684  46.340 134.751  1.00  0.00    -0.027 C 
ATOM     12  C   UNL     1     107.999  43.309 135.971  1.00  0.00     0.011 C 
ATOM     13  C   UNL     1     107.842  44.922 137.875  1.00  0.00     0.011 C 
ATOM     14  C   UNL     1     104.068  48.352 137.922  1.00  0.00     0.017 C 
ATOM     15  C   UNL     1     102.391  48.729 135.916  1.00  0.00    -0.020 C 
ATOM     16  C   UNL     1     102.407  46.862 134.183  1.00  0.00     0.032 C 
ATOM     17  C   UNL     1     102.376  48.393 134.353  1.00  0.00     0.006 C 
ATOM     18  C   UNL     1     100.931  48.826 136.420  1.00  0.00     0.008 C 
ATOM     19  C   UNL     1     103.036  50.153 136.064  1.00  0.00     0.012 C 
ATOM     20  C   UNL     1     101.290  49.161 133.428  1.00  0.00    -0.025 C 
ATOM     21  C   UNL     1     100.053  49.783 135.638  1.00  0.00     0.005 C 
ATOM     22  C   UNL     1      99.883  49.369 134.153  1.00  0.00     0.003 C 
ATOM     23  C   UNL     1     101.902  50.531 132.920  1.00  0.00     0.010 C 
ATOM     24  C   UNL     1     101.048  48.328 132.129  1.00  0.00     0.012 C 
ATOM     25  C   UNL     1      98.840  50.318 133.363  1.00  0.00    -0.006 C 
ATOM     26  C   UNL     1     100.948  51.729 132.973  1.00  0.00     0.033 C 
ATOM     27  C   UNL     1      99.573  51.344 132.422  1.00  0.00     0.120 C 
ATOM     28  C   UNL     1      97.889  49.444 132.504  1.00  0.00     0.014 C 
ATOM     29  C   UNL     1      97.892  51.095 134.331  1.00  0.00     0.014 C 
ENDROOT
BRANCH   1  30
ATOM     30  C   UNL     1     103.234  43.752 136.560  1.00  0.00     0.048 C 
ATOM     31  O   UNL     1     103.737  43.226 135.530  1.00  0.00    -0.550 OA
ATOM     32  O   UNL     1     101.950  43.367 136.934  1.00  0.00    -0.550 OA
ENDBRANCH   1  30
BRANCH  27  33
ATOM     33  O   UNL     1      98.805  52.505 132.227  1.00  0.00    -0.393 OA
ATOM     34  H   UNL     1      99.436  53.262 132.113  1.00  0.00     0.210 HD
ENDBRANCH  27  33
TORSDOF 2
ENDMDL
MODEL 5
REMARK VINA RESULT:    -6.409      1.747      8.281
REMARK INTER + INTRA:          -6.655
REMARK INTER:                  -7.066
REMARK INTRA:                   0.411
REMARK UNBOUND:                 0.316
REMARK SMILES CC1(C)CC[C@@]2(C(=O)[O-])CC[C@@]3(C)C(=CC[C@H]4[C@]5(C)CC[C@H](O)C(C)(C)[C@@H]5CC[C@]43C)[C@@H]2C1
REMARK SMILES IDX 6 1 5 2 10 3 32 4 4 5 11 6 14 7 33 8 2 9 12 10 15 11 1 12
REMARK SMILES IDX 3 13 13 14 30 15 16 16 17 17 29 18 31 19 18 20 28 21 27 22
REMARK SMILES IDX 20 23 19 24 24 25 21 26 22 27 25 28 26 29 7 30 8 31 9 32
REMARK SMILES IDX 23 33
REMARK H PARENT 23 34
REMARK Flexibility Score: inf
ROOT
ATOM      1  C   UNL     1     107.713  42.105 136.331  1.00  0.00     0.017 C 
ATOM      2  C   UNL     1     108.953  41.184 136.245  1.00  0.00     0.014 C 
ATOM      3  C   UNL     1     106.912  42.013 134.984  1.00  0.00     0.014 C 
ATOM      4  C   UNL     1     106.782  41.584 137.482  1.00  0.00     0.028 C 
ATOM      5  C   UNL     1     109.681  41.060 137.597  1.00  0.00     0.007 C 
ATOM      6  C   UNL     1     105.507  42.686 135.039  1.00  0.00     0.013 C 
ATOM      7  C   UNL     1     105.477  42.382 137.462  1.00  0.00    -0.064 C 
ATOM      8  C   UNL     1     107.489  41.427 138.851  1.00  0.00     0.015 C 
ATOM      9  C   UNL     1     108.768  40.542 138.748  1.00  0.00    -0.035 C 
ATOM     10  C   UNL     1     104.578  42.204 136.223  1.00  0.00    -0.006 C 
ATOM     11  C   UNL     1     105.451  43.551 138.125  1.00  0.00    -0.027 C 
ATOM     12  C   UNL     1     109.559  40.619 140.084  1.00  0.00     0.011 C 
ATOM     13  C   UNL     1     108.395  39.052 138.522  1.00  0.00     0.011 C 
ATOM     14  C   UNL     1     104.298  40.682 135.958  1.00  0.00     0.017 C 
ATOM     15  C   UNL     1     103.138  43.021 136.363  1.00  0.00    -0.020 C 
ATOM     16  C   UNL     1     104.548  44.662 137.707  1.00  0.00     0.032 C 
ATOM     17  C   UNL     1     103.121  44.107 137.536  1.00  0.00     0.006 C 
ATOM     18  C   UNL     1     102.827  43.730 135.023  1.00  0.00     0.008 C 
ATOM     19  C   UNL     1     101.959  42.026 136.655  1.00  0.00     0.012 C 
ATOM     20  C   UNL     1     101.951  45.227 137.509  1.00  0.00    -0.025 C 
ATOM     21  C   UNL     1     101.554  44.552 135.022  1.00  0.00     0.005 C 
ATOM     22  C   UNL     1     101.593  45.726 136.036  1.00  0.00     0.003 C 
ATOM     23  C   UNL     1     100.677  44.680 138.274  1.00  0.00     0.010 C 
ATOM     24  C   UNL     1     102.413  46.466 138.342  1.00  0.00     0.012 C 
ATOM     25  C   UNL     1     100.290  46.675 135.933  1.00  0.00    -0.006 C 
ATOM     26  C   UNL     1      99.335  44.964 137.590  1.00  0.00     0.033 C 
ATOM     27  C   UNL     1      99.277  46.416 137.108  1.00  0.00     0.120 C 
ATOM     28  C   UNL     1     100.725  48.163 135.968  1.00  0.00     0.014 C 
ATOM     29  C   UNL     1      99.544  46.517 134.569  1.00  0.00     0.014 C 
ENDROOT
BRANCH   1  30
ATOM     30  C   UNL     1     108.198  43.548 136.504  1.00  0.00     0.048 C 
ATOM     31  O   UNL     1     108.937  43.890 137.467  1.00  0.00    -0.550 OA
ATOM     32  O   UNL     1     107.950  44.482 135.501  1.00  0.00    -0.550 OA
ENDBRANCH   1  30
BRANCH  27  33
ATOM     33  O   UNL     1      97.959  46.732 136.734  1.00  0.00    -0.393 OA
ATOM     34  H   UNL     1      97.914  46.691 135.744  1.00  0.00     0.210 HD
ENDBRANCH  27  33
TORSDOF 2
ENDMDL
MODEL 6
REMARK VINA RESULT:    -6.349      6.663      9.678
REMARK INTER + INTRA:          -6.590
REMARK INTER:                  -6.909
REMARK INTRA:                   0.319
REMARK UNBOUND:                 0.316
REMARK SMILES CC1(C)CC[C@@]2(C(=O)[O-])CC[C@@]3(C)C(=CC[C@H]4[C@]5(C)CC[C@H](O)C(C)(C)[C@@H]5CC[C@]43C)[C@@H]2C1
REMARK SMILES IDX 6 1 5 2 10 3 32 4 4 5 11 6 14 7 33 8 2 9 12 10 15 11 1 12
REMARK SMILES IDX 3 13 13 14 30 15 16 16 17 17 29 18 31 19 18 20 28 21 27 22
REMARK SMILES IDX 20 23 19 24 24 25 21 26 22 27 25 28 26 29 7 30 8 31 9 32
REMARK SMILES IDX 23 33
REMARK H PARENT 23 34
REMARK Flexibility Score: inf
ROOT
ATOM      1  C   UNL     1     103.403  51.007 139.077  1.00  0.00     0.017 C 
ATOM      2  C   UNL     1     103.920  51.623 140.398  1.00  0.00     0.014 C 
ATOM      3  C   UNL     1     102.515  49.756 139.408  1.00  0.00     0.014 C 
ATOM      4  C   UNL     1     102.495  52.064 138.354  1.00  0.00     0.028 C 
ATOM      5  C   UNL     1     104.631  52.972 140.173  1.00  0.00     0.007 C 
ATOM      6  C   UNL     1     101.721  49.205 138.185  1.00  0.00     0.013 C 
ATOM      7  C   UNL     1     101.844  51.406 137.136  1.00  0.00    -0.064 C 
ATOM      8  C   UNL     1     103.174  53.439 138.132  1.00  0.00     0.015 C 
ATOM      9  C   UNL     1     103.740  54.030 139.458  1.00  0.00    -0.035 C 
ATOM     10  C   UNL     1     100.842  50.271 137.420  1.00  0.00    -0.006 C 
ATOM     11  C   UNL     1     102.542  51.389 135.989  1.00  0.00    -0.027 C 
ATOM     12  C   UNL     1     104.611  55.277 139.137  1.00  0.00     0.011 C 
ATOM     13  C   UNL     1     102.592  54.500 140.391  1.00  0.00     0.011 C 
ATOM     14  C   UNL     1      99.749  50.741 138.444  1.00  0.00     0.017 C 
ATOM     15  C   UNL     1     100.108  49.714 136.036  1.00  0.00    -0.020 C 
ATOM     16  C   UNL     1     102.343  50.316 134.973  1.00  0.00     0.032 C 
ATOM     17  C   UNL     1     100.836  50.173 134.689  1.00  0.00     0.006 C 
ATOM     18  C   UNL     1     100.062  48.167 136.077  1.00  0.00     0.008 C 
ATOM     19  C   UNL     1      98.628  50.227 135.946  1.00  0.00     0.012 C 
ATOM     20  C   UNL     1     100.470  49.376 133.326  1.00  0.00    -0.025 C 
ATOM     21  C   UNL     1      99.453  47.519 134.850  1.00  0.00     0.005 C 
ATOM     22  C   UNL     1     100.254  47.811 133.553  1.00  0.00     0.003 C 
ATOM     23  C   UNL     1      99.213  50.053 132.639  1.00  0.00     0.010 C 
ATOM     24  C   UNL     1     101.633  49.562 132.300  1.00  0.00     0.012 C 
ATOM     25  C   UNL     1      99.675  47.008 132.276  1.00  0.00    -0.006 C 
ATOM     26  C   UNL     1      98.167  49.077 132.091  1.00  0.00     0.033 C 
ATOM     27  C   UNL     1      98.845  47.942 131.319  1.00  0.00     0.120 C 
ATOM     28  C   UNL     1     100.849  46.389 131.474  1.00  0.00     0.014 C 
ATOM     29  C   UNL     1      98.795  45.785 132.690  1.00  0.00     0.014 C 
ENDROOT
BRANCH   1  30
ATOM     30  C   UNL     1     104.611  50.536 138.261  1.00  0.00     0.048 C 
ATOM     31  O   UNL     1     105.359  51.348 137.651  1.00  0.00    -0.550 OA
ATOM     32  O   UNL     1     104.993  49.199 138.309  1.00  0.00    -0.550 OA
ENDBRANCH   1  30
BRANCH  27  33
ATOM     33  O   UNL     1      97.875  47.218 130.604  1.00  0.00    -0.393 OA
ATOM     34  H   UNL     1      97.070  47.792 130.532  1.00  0.00     0.210 HD
ENDBRANCH  27  33
TORSDOF 2
ENDMDL
MODEL 7
REMARK VINA RESULT:    -6.333      1.832      3.663
REMARK INTER + INTRA:          -6.573
REMARK INTER:                  -6.888
REMARK INTRA:                   0.316
REMARK UNBOUND:                 0.316
REMARK SMILES CC1(C)CC[C@@]2(C(=O)[O-])CC[C@@]3(C)C(=CC[C@H]4[C@]5(C)CC[C@H](O)C(C)(C)[C@@H]5CC[C@]43C)[C@@H]2C1
REMARK SMILES IDX 6 1 5 2 10 3 32 4 4 5 11 6 14 7 33 8 2 9 12 10 15 11 1 12
REMARK SMILES IDX 3 13 13 14 30 15 16 16 17 17 29 18 31 19 18 20 28 21 27 22
REMARK SMILES IDX 20 23 19 24 24 25 21 26 22 27 25 28 26 29 7 30 8 31 9 32
REMARK SMILES IDX 23 33
REMARK H PARENT 23 34
REMARK Flexibility Score: inf
ROOT
ATOM      1  C   UNL     1     100.806  45.673 136.390  1.00  0.00     0.017 C 
ATOM      2  C   UNL     1      99.628  46.667 136.259  1.00  0.00     0.014 C 
ATOM      3  C   UNL     1     101.445  45.447 134.975  1.00  0.00     0.014 C 
ATOM      4  C   UNL     1     101.899  46.313 137.316  1.00  0.00     0.028 C 
ATOM      5  C   UNL     1      99.075  47.100 137.631  1.00  0.00     0.007 C 
ATOM      6  C   UNL     1     102.799  44.676 135.011  1.00  0.00     0.013 C 
ATOM      7  C   UNL     1     103.137  45.414 137.314  1.00  0.00    -0.064 C 
ATOM      8  C   UNL     1     101.372  46.780 138.696  1.00  0.00     0.015 C 
ATOM      9  C   UNL     1     100.151  47.739 138.559  1.00  0.00    -0.035 C 
ATOM     10  C   UNL     1     103.891  45.284 135.977  1.00  0.00    -0.006 C 
ATOM     11  C   UNL     1     103.165  44.389 138.182  1.00  0.00    -0.027 C 
ATOM     12  C   UNL     1      99.521  47.977 139.960  1.00  0.00     0.011 C 
ATOM     13  C   UNL     1     100.592  49.124 138.013  1.00  0.00     0.011 C 
ATOM     14  C   UNL     1     104.238  46.701 135.396  1.00  0.00     0.017 C 
ATOM     15  C   UNL     1     105.282  44.384 136.120  1.00  0.00    -0.020 C 
ATOM     16  C   UNL     1     103.936  43.146 137.893  1.00  0.00     0.032 C 
ATOM     17  C   UNL     1     105.366  43.534 137.471  1.00  0.00     0.006 C 
ATOM     18  C   UNL     1     105.384  43.417 134.915  1.00  0.00     0.008 C 
ATOM     19  C   UNL     1     106.549  45.309 136.090  1.00  0.00     0.012 C 
ATOM     20  C   UNL     1     106.448  42.330 137.537  1.00  0.00    -0.025 C 
ATOM     21  C   UNL     1     106.590  42.500 134.939  1.00  0.00     0.005 C 
ATOM     22  C   UNL     1     106.594  41.541 136.158  1.00  0.00     0.003 C 
ATOM     23  C   UNL     1     107.838  42.895 138.045  1.00  0.00     0.010 C 
ATOM     24  C   UNL     1     106.008  41.310 138.635  1.00  0.00     0.012 C 
ATOM     25  C   UNL     1     107.811  40.478 136.103  1.00  0.00    -0.006 C 
ATOM     26  C   UNL     1     109.067  42.374 137.293  1.00  0.00     0.033 C 
ATOM     27  C   UNL     1     108.972  40.859 137.094  1.00  0.00     0.120 C 
ATOM     28  C   UNL     1     107.285  39.066 136.468  1.00  0.00     0.014 C 
ATOM     29  C   UNL     1     108.397  40.318 134.664  1.00  0.00     0.014 C 
ENDROOT
BRANCH   1  30
ATOM     30  C   UNL     1     100.251  44.334 136.886  1.00  0.00     0.048 C 
ATOM     31  O   UNL     1      99.942  44.150 138.095  1.00  0.00    -0.550 OA
ATOM     32  O   UNL     1      99.933  43.339 135.967  1.00  0.00    -0.550 OA
ENDBRANCH   1  30
BRANCH  27  33
ATOM     33  O   UNL     1     110.211  40.366 136.653  1.00  0.00    -0.393 OA
ATOM     34  H   UNL     1     110.633  41.075 136.101  1.00  0.00     0.210 HD
ENDBRANCH  27  33
TORSDOF 2
ENDMDL
MODEL 8
REMARK VINA RESULT:    -6.299      2.313      8.410
REMARK INTER + INTRA:          -6.536
REMARK INTER:                  -6.880
REMARK INTRA:                   0.344
REMARK UNBOUND:                 0.316
REMARK SMILES CC1(C)CC[C@@]2(C(=O)[O-])CC[C@@]3(C)C(=CC[C@H]4[C@]5(C)CC[C@H](O)C(C)(C)[C@@H]5CC[C@]43C)[C@@H]2C1
REMARK SMILES IDX 6 1 5 2 10 3 32 4 4 5 11 6 14 7 33 8 2 9 12 10 15 11 1 12
REMARK SMILES IDX 3 13 13 14 30 15 16 16 17 17 29 18 31 19 18 20 28 21 27 22
REMARK SMILES IDX 20 23 19 24 24 25 21 26 22 27 25 28 26 29 7 30 8 31 9 32
REMARK SMILES IDX 23 33
REMARK H PARENT 23 34
REMARK Flexibility Score: inf
ROOT
ATOM      1  C   UNL     1     108.379  42.692 137.363  1.00  0.00     0.017 C 
ATOM      2  C   UNL     1     109.430  41.558 137.303  1.00  0.00     0.014 C 
ATOM      3  C   UNL     1     108.214  43.314 135.932  1.00  0.00     0.014 C 
ATOM      4  C   UNL     1     106.999  42.073 137.782  1.00  0.00     0.028 C 
ATOM      5  C   UNL     1     109.504  40.762 138.621  1.00  0.00     0.007 C 
ATOM      6  C   UNL     1     107.000  44.283 135.802  1.00  0.00     0.013 C 
ATOM      7  C   UNL     1     105.921  43.153 137.678  1.00  0.00    -0.064 C 
ATOM      8  C   UNL     1     107.043  41.247 139.092  1.00  0.00     0.015 C 
ATOM      9  C   UNL     1     108.140  40.140 139.046  1.00  0.00    -0.035 C 
ATOM     10  C   UNL     1     105.613  43.686 136.266  1.00  0.00    -0.006 C 
ATOM     11  C   UNL     1     105.748  43.964 138.735  1.00  0.00    -0.027 C 
ATOM     12  C   UNL     1     108.299  39.512 140.459  1.00  0.00     0.011 C 
ATOM     13  C   UNL     1     107.734  38.996 138.079  1.00  0.00     0.011 C 
ATOM     14  C   UNL     1     105.304  42.501 135.283  1.00  0.00     0.017 C 
ATOM     15  C   UNL     1     104.347  44.763 136.258  1.00  0.00    -0.020 C 
ATOM     16  C   UNL     1     105.234  45.355 138.572  1.00  0.00     0.032 C 
ATOM     17  C   UNL     1     103.959  45.316 137.707  1.00  0.00     0.006 C 
ATOM     18  C   UNL     1     104.709  45.961 135.347  1.00  0.00     0.008 C 
ATOM     19  C   UNL     1     103.053  44.097 135.669  1.00  0.00     0.012 C 
ATOM     20  C   UNL     1     103.041  46.648 137.784  1.00  0.00    -0.025 C 
ATOM     21  C   UNL     1     103.654  47.047 135.281  1.00  0.00     0.005 C 
ATOM     22  C   UNL     1     103.393  47.720 136.654  1.00  0.00     0.003 C 
ATOM     23  C   UNL     1     101.511  46.239 137.753  1.00  0.00     0.010 C 
ATOM     24  C   UNL     1     103.243  47.327 139.176  1.00  0.00     0.012 C 
ATOM     25  C   UNL     1     102.367  48.964 136.547  1.00  0.00    -0.006 C 
ATOM     26  C   UNL     1     100.622  47.109 136.859  1.00  0.00     0.033 C 
ATOM     27  C   UNL     1     100.932  48.592 137.074  1.00  0.00     0.120 C 
ATOM     28  C   UNL     1     102.910  50.158 137.376  1.00  0.00     0.014 C 
ATOM     29  C   UNL     1     102.252  49.518 135.091  1.00  0.00     0.014 C 
ENDROOT
BRANCH   1  30
ATOM     30  C   UNL     1     108.903  43.783 138.304  1.00  0.00     0.048 C 
ATOM     31  O   UNL     1     109.025  43.589 139.544  1.00  0.00    -0.550 OA
ATOM     32  O   UNL     1     109.402  44.968 137.771  1.00  0.00    -0.550 OA
ENDBRANCH   1  30
BRANCH  27  33
ATOM     33  O   UNL     1      99.938  49.373 136.459  1.00  0.00    -0.393 OA
ATOM     34  H   UNL     1     100.023  49.243 135.479  1.00  0.00     0.210 HD
ENDBRANCH  27  33
TORSDOF 2
ENDMDL
MODEL 9
REMARK VINA RESULT:    -6.291      1.936      8.197
REMARK INTER + INTRA:          -6.527
REMARK INTER:                  -6.849
REMARK INTRA:                   0.322
REMARK UNBOUND:                 0.316
REMARK SMILES CC1(C)CC[C@@]2(C(=O)[O-])CC[C@@]3(C)C(=CC[C@H]4[C@]5(C)CC[C@H](O)C(C)(C)[C@@H]5CC[C@]43C)[C@@H]2C1
REMARK SMILES IDX 6 1 5 2 10 3 32 4 4 5 11 6 14 7 33 8 2 9 12 10 15 11 1 12
REMARK SMILES IDX 3 13 13 14 30 15 16 16 17 17 29 18 31 19 18 20 28 21 27 22
REMARK SMILES IDX 20 23 19 24 24 25 21 26 22 27 25 28 26 29 7 30 8 31 9 32
REMARK SMILES IDX 23 33
REMARK H PARENT 23 34
REMARK Flexibility Score: inf
ROOT
ATOM      1  C   UNL     1     106.442  42.113 137.441  1.00  0.00     0.017 C 
ATOM      2  C   UNL     1     107.824  41.516 137.798  1.00  0.00     0.014 C 
ATOM      3  C   UNL     1     106.152  43.333 138.385  1.00  0.00     0.014 C 
ATOM      4  C   UNL     1     106.493  42.646 135.966  1.00  0.00     0.028 C 
ATOM      5  C   UNL     1     108.274  40.443 136.786  1.00  0.00     0.007 C 
ATOM      6  C   UNL     1     104.917  44.181 137.957  1.00  0.00     0.013 C 
ATOM      7  C   UNL     1     105.191  43.389 135.664  1.00  0.00    -0.064 C 
ATOM      8  C   UNL     1     106.963  41.599 134.926  1.00  0.00     0.015 C 
ATOM      9  C   UNL     1     108.331  40.962 135.319  1.00  0.00    -0.035 C 
ATOM     10  C   UNL     1     104.935  44.683 136.459  1.00  0.00    -0.006 C 
ATOM     11  C   UNL     1     104.142  42.663 135.244  1.00  0.00    -0.027 C 
ATOM     12  C   UNL     1     108.629  39.760 134.378  1.00  0.00     0.011 C 
ATOM     13  C   UNL     1     109.488  41.981 135.142  1.00  0.00     0.011 C 
ATOM     14  C   UNL     1     106.163  45.655 136.346  1.00  0.00     0.017 C 
ATOM     15  C   UNL     1     103.555  45.468 135.965  1.00  0.00    -0.020 C 
ATOM     16  C   UNL     1     102.740  43.099 135.502  1.00  0.00     0.032 C 
ATOM     17  C   UNL     1     102.587  44.569 135.064  1.00  0.00     0.006 C 
ATOM     18  C   UNL     1     102.773  45.948 137.212  1.00  0.00     0.008 C 
ATOM     19  C   UNL     1     103.911  46.738 135.115  1.00  0.00     0.012 C 
ATOM     20  C   UNL     1     101.059  45.069 134.871  1.00  0.00    -0.025 C 
ATOM     21  C   UNL     1     101.463  46.647 136.908  1.00  0.00     0.005 C 
ATOM     22  C   UNL     1     100.442  45.728 136.187  1.00  0.00     0.003 C 
ATOM     23  C   UNL     1     100.975  46.046 133.627  1.00  0.00     0.010 C 
ATOM     24  C   UNL     1     100.169  43.847 134.477  1.00  0.00     0.012 C 
ATOM     25  C   UNL     1      99.005  46.439 135.988  1.00  0.00    -0.006 C 
ATOM     26  C   UNL     1     100.110  47.293 133.835  1.00  0.00     0.033 C 
ATOM     27  C   UNL     1      98.785  46.920 134.506  1.00  0.00     0.120 C 
ATOM     28  C   UNL     1      97.875  45.444 136.362  1.00  0.00     0.014 C 
ATOM     29  C   UNL     1      98.799  47.647 136.956  1.00  0.00     0.014 C 
ENDROOT
BRANCH   1  30
ATOM     30  C   UNL     1     105.376  41.043 137.698  1.00  0.00     0.048 C 
ATOM     31  O   UNL     1     105.223  40.058 136.925  1.00  0.00    -0.550 OA
ATOM     32  O   UNL     1     104.654  41.063 138.888  1.00  0.00    -0.550 OA
ENDBRANCH   1  30
BRANCH  27  33
ATOM     33  O   UNL     1      97.904  48.014 134.443  1.00  0.00    -0.393 OA
ATOM     34  H   UNL     1      98.393  48.808 134.782  1.00  0.00     0.210 HD
ENDBRANCH  27  33
TORSDOF 2
ENDMDL
