MODEL 1
REMARK VINA RESULT:    -4.191      0.000      0.000
REMARK INTER + INTRA:          -8.774
REMARK INTER:                  -7.743
REMARK INTRA:                  -1.030
REMARK UNBOUND:                -1.030
REMARK SMILES CCCCCCCCCCCCCCCCO
REMARK SMILES IDX 9 1 8 2 7 3 6 4 5 5 4 6 3 7 2 8 1 9 10 10 11 11 12 12 13 13
REMARK SMILES IDX 14 14 15 15 16 16 17 17
REMARK H PARENT 17 18
REMARK Flexibility Score: inf
ROOT
ATOM      1  C   UNL     1     210.762 200.403 209.303  1.00  0.00     0.000 C 
ENDROOT
BRANCH   1   2
ATOM      2  C   UNL     1     211.864 200.386 208.230  1.00  0.00    -0.000 C 
BRANCH   2   3
ATOM      3  C   UNL     1     211.615 201.412 207.112  1.00  0.00    -0.000 C 
BRANCH   3   4
ATOM      4  C   UNL     1     210.849 202.653 207.605  1.00  0.00    -0.000 C 
BRANCH   4   5
ATOM      5  C   UNL     1     210.133 203.395 206.466  1.00  0.00    -0.000 C 
BRANCH   5   6
ATOM      6  C   UNL     1     208.627 203.560 206.723  1.00  0.00    -0.000 C 
BRANCH   6   7
ATOM      7  C   UNL     1     208.317 203.510 208.223  1.00  0.00    -0.000 C 
BRANCH   7   8
ATOM      8  C   UNL     1     207.105 202.616 208.506  1.00  0.00    -0.003 C 
ATOM      9  C   UNL     1     207.370 201.683 209.683  1.00  0.00     0.004 C 
ENDBRANCH   7   8
ENDBRANCH   6   7
ENDBRANCH   5   6
ENDBRANCH   4   5
ENDBRANCH   3   4
ENDBRANCH   2   3
ENDBRANCH   1   2
BRANCH   1  10
ATOM     10  C   UNL     1     210.606 199.052 210.019  1.00  0.00     0.000 C 
BRANCH  10  11
ATOM     11  C   UNL     1     211.819 198.113 209.843  1.00  0.00     0.000 C 
BRANCH  11  12
ATOM     12  C   UNL     1     211.985 197.152 211.033  1.00  0.00     0.000 C 
BRANCH  12  13
ATOM     13  C   UNL     1     212.211 197.887 212.365  1.00  0.00     0.000 C 
BRANCH  13  14
ATOM     14  C   UNL     1     212.705 196.950 213.481  1.00  0.00     0.002 C 
BRANCH  14  15
ATOM     15  C   UNL     1     213.459 197.701 214.592  1.00  0.00     0.028 C 
BRANCH  15  16
ATOM     16  C   UNL     1     213.087 197.241 216.009  1.00  0.00     0.156 C 
BRANCH  16  17
ATOM     17  O   UNL     1     213.108 195.843 216.108  1.00  0.00    -0.396 OA
ATOM     18  H   UNL     1     212.188 195.561 216.353  1.00  0.00     0.210 HD
ENDBRANCH  16  17
ENDBRANCH  15  16
ENDBRANCH  14  15
ENDBRANCH  13  14
ENDBRANCH  12  13
ENDBRANCH  11  12
ENDBRANCH  10  11
ENDBRANCH   1  10
TORSDOF 15
ENDMDL
MODEL 2
REMARK VINA RESULT:    -3.938      1.416      2.369
REMARK INTER + INTRA:          -8.307
REMARK INTER:                  -7.659
REMARK INTRA:                  -0.647
REMARK UNBOUND:                -1.030
REMARK SMILES CCCCCCCCCCCCCCCCO
REMARK SMILES IDX 9 1 8 2 7 3 6 4 5 5 4 6 3 7 2 8 1 9 10 10 11 11 12 12 13 13
REMARK SMILES IDX 14 14 15 15 16 16 17 17
REMARK H PARENT 17 18
REMARK Flexibility Score: inf
ROOT
ATOM      1  C   UNL     1     209.884 198.873 210.325  1.00  0.00     0.000 C 
ENDROOT
BRANCH   1   2
ATOM      2  C   UNL     1     210.920 199.732 209.580  1.00  0.00    -0.000 C 
BRANCH   2   3
ATOM      3  C   UNL     1     210.314 201.025 209.010  1.00  0.00    -0.000 C 
BRANCH   3   4
ATOM      4  C   UNL     1     211.153 201.618 207.864  1.00  0.00    -0.000 C 
BRANCH   4   5
ATOM      5  C   UNL     1     210.633 202.989 207.402  1.00  0.00    -0.000 C 
BRANCH   5   6
ATOM      6  C   UNL     1     209.192 203.260 207.860  1.00  0.00    -0.000 C 
BRANCH   6   7
ATOM      7  C   UNL     1     208.904 204.765 207.903  1.00  0.00    -0.000 C 
BRANCH   7   8
ATOM      8  C   UNL     1     210.203 205.576 207.841  1.00  0.00    -0.003 C 
ATOM      9  C   UNL     1     209.983 206.917 207.147  1.00  0.00     0.004 C 
ENDBRANCH   7   8
ENDBRANCH   6   7
ENDBRANCH   5   6
ENDBRANCH   4   5
ENDBRANCH   3   4
ENDBRANCH   2   3
ENDBRANCH   1   2
BRANCH   1  10
ATOM     10  C   UNL     1     210.448 197.516 210.778  1.00  0.00     0.000 C 
BRANCH  10  11
ATOM     11  C   UNL     1     211.964 197.542 211.068  1.00  0.00     0.000 C 
BRANCH  11  12
ATOM     12  C   UNL     1     212.266 197.865 212.542  1.00  0.00     0.000 C 
BRANCH  12  13
ATOM     13  C   UNL     1     213.381 196.984 213.129  1.00  0.00     0.000 C 
BRANCH  13  14
ATOM     14  C   UNL     1     212.996 196.367 214.485  1.00  0.00     0.002 C 
BRANCH  14  15
ATOM     15  C   UNL     1     213.457 197.224 215.677  1.00  0.00     0.028 C 
BRANCH  15  16
ATOM     16  C   UNL     1     212.516 197.154 216.888  1.00  0.00     0.156 C 
BRANCH  16  17
ATOM     17  O   UNL     1     211.689 196.024 216.820  1.00  0.00    -0.396 OA
ATOM     18  H   UNL     1     211.033 196.106 217.561  1.00  0.00     0.210 HD
ENDBRANCH  16  17
ENDBRANCH  15  16
ENDBRANCH  14  15
ENDBRANCH  13  14
ENDBRANCH  12  13
ENDBRANCH  11  12
ENDBRANCH  10  11
ENDBRANCH   1  10
TORSDOF 15
ENDMDL
MODEL 3
REMARK VINA RESULT:    -3.859      1.609      2.656
REMARK INTER + INTRA:          -8.160
REMARK INTER:                  -7.373
REMARK INTRA:                  -0.787
REMARK UNBOUND:                -1.030
REMARK SMILES CCCCCCCCCCCCCCCCO
REMARK SMILES IDX 9 1 8 2 7 3 6 4 5 5 4 6 3 7 2 8 1 9 10 10 11 11 12 12 13 13
REMARK SMILES IDX 14 14 15 15 16 16 17 17
REMARK H PARENT 17 18
REMARK Flexibility Score: inf
ROOT
ATOM      1  C   UNL     1     211.786 200.488 208.327  1.00  0.00     0.000 C 
ENDROOT
BRANCH   1   2
ATOM      2  C   UNL     1     211.889 201.392 207.087  1.00  0.00    -0.000 C 
BRANCH   2   3
ATOM      3  C   UNL     1     210.939 202.598 207.156  1.00  0.00    -0.000 C 
BRANCH   3   4
ATOM      4  C   UNL     1     209.815 202.410 208.189  1.00  0.00    -0.000 C 
BRANCH   4   5
ATOM      5  C   UNL     1     208.740 203.505 208.098  1.00  0.00    -0.000 C 
BRANCH   5   6
ATOM      6  C   UNL     1     209.331 204.888 207.786  1.00  0.00    -0.000 C 
BRANCH   6   7
ATOM      7  C   UNL     1     208.478 205.629 206.750  1.00  0.00    -0.000 C 
BRANCH   7   8
ATOM      8  C   UNL     1     209.308 206.679 206.003  1.00  0.00    -0.003 C 
ATOM      9  C   UNL     1     210.323 207.341 206.929  1.00  0.00     0.004 C 
ENDBRANCH   7   8
ENDBRANCH   6   7
ENDBRANCH   5   6
ENDBRANCH   4   5
ENDBRANCH   3   4
ENDBRANCH   2   3
ENDBRANCH   1   2
BRANCH   1  10
ATOM     10  C   UNL     1     212.426 199.106 208.113  1.00  0.00     0.000 C 
BRANCH  10  11
ATOM     11  C   UNL     1     212.256 198.152 209.314  1.00  0.00     0.000 C 
BRANCH  11  12
ATOM     12  C   UNL     1     211.020 198.503 210.162  1.00  0.00     0.000 C 
BRANCH  12  13
ATOM     13  C   UNL     1     211.345 198.643 211.659  1.00  0.00     0.000 C 
BRANCH  13  14
ATOM     14  C   UNL     1     212.210 197.484 212.186  1.00  0.00     0.002 C 
BRANCH  14  15
ATOM     15  C   UNL     1     212.843 197.794 213.554  1.00  0.00     0.028 C 
BRANCH  15  16
ATOM     16  C   UNL     1     213.636 196.621 214.147  1.00  0.00     0.156 C 
BRANCH  16  17
ATOM     17  O   UNL     1     212.891 195.954 215.130  1.00  0.00    -0.396 OA
ATOM     18  H   UNL     1     213.044 194.982 214.992  1.00  0.00     0.210 HD
ENDBRANCH  16  17
ENDBRANCH  15  16
ENDBRANCH  14  15
ENDBRANCH  13  14
ENDBRANCH  12  13
ENDBRANCH  11  12
ENDBRANCH  10  11
ENDBRANCH   1  10
TORSDOF 15
ENDMDL
MODEL 4
REMARK VINA RESULT:    -3.779     10.676     13.912
REMARK INTER + INTRA:          -8.014
REMARK INTER:                  -5.902
REMARK INTRA:                  -2.112
REMARK UNBOUND:                -1.030
REMARK SMILES CCCCCCCCCCCCCCCCO
REMARK SMILES IDX 9 1 8 2 7 3 6 4 5 5 4 6 3 7 2 8 1 9 10 10 11 11 12 12 13 13
REMARK SMILES IDX 14 14 15 15 16 16 17 17
REMARK H PARENT 17 18
REMARK Flexibility Score: inf
ROOT
ATOM      1  C   UNL     1     197.133 204.938 206.525  1.00  0.00     0.000 C 
ENDROOT
BRANCH   1   2
ATOM      2  C   UNL     1     197.612 204.486 207.915  1.00  0.00    -0.000 C 
BRANCH   2   3
ATOM      3  C   UNL     1     198.303 205.615 208.696  1.00  0.00    -0.000 C 
BRANCH   3   4
ATOM      4  C   UNL     1     199.725 205.239 209.149  1.00  0.00    -0.000 C 
BRANCH   4   5
ATOM      5  C   UNL     1     200.309 204.066 208.347  1.00  0.00    -0.000 C 
BRANCH   5   6
ATOM      6  C   UNL     1     201.607 204.438 207.615  1.00  0.00    -0.000 C 
BRANCH   6   7
ATOM      7  C   UNL     1     201.364 204.597 206.110  1.00  0.00    -0.000 C 
BRANCH   7   8
ATOM      8  C   UNL     1     201.897 203.387 205.335  1.00  0.00    -0.003 C 
ATOM      9  C   UNL     1     202.892 202.590 206.174  1.00  0.00     0.004 C 
ENDBRANCH   7   8
ENDBRANCH   6   7
ENDBRANCH   5   6
ENDBRANCH   4   5
ENDBRANCH   3   4
ENDBRANCH   2   3
ENDBRANCH   1   2
BRANCH   1  10
ATOM     10  C   UNL     1     196.949 203.765 205.547  1.00  0.00     0.000 C 
BRANCH  10  11
ATOM     11  C   UNL     1     198.260 203.310 204.871  1.00  0.00     0.000 C 
BRANCH  11  12
ATOM     12  C   UNL     1     198.456 201.786 204.954  1.00  0.00     0.000 C 
BRANCH  12  13
ATOM     13  C   UNL     1     198.916 201.320 206.346  1.00  0.00     0.000 C 
BRANCH  13  14
ATOM     14  C   UNL     1     197.757 200.775 207.198  1.00  0.00     0.002 C 
BRANCH  14  15
ATOM     15  C   UNL     1     196.823 199.846 206.402  1.00  0.00     0.028 C 
BRANCH  15  16
ATOM     16  C   UNL     1     197.270 198.377 206.400  1.00  0.00     0.156 C 
BRANCH  16  17
ATOM     17  O   UNL     1     198.048 198.088 205.270  1.00  0.00    -0.396 OA
ATOM     18  H   UNL     1     198.288 197.126 205.328  1.00  0.00     0.210 HD
ENDBRANCH  16  17
ENDBRANCH  15  16
ENDBRANCH  14  15
ENDBRANCH  13  14
ENDBRANCH  12  13
ENDBRANCH  11  12
ENDBRANCH  10  11
ENDBRANCH   1  10
TORSDOF 15
ENDMDL
MODEL 5
REMARK VINA RESULT:    -3.767      3.534      5.671
REMARK INTER + INTRA:          -7.990
REMARK INTER:                  -6.035
REMARK INTRA:                  -1.955
REMARK UNBOUND:                -1.030
REMARK SMILES CCCCCCCCCCCCCCCCO
REMARK SMILES IDX 9 1 8 2 7 3 6 4 5 5 4 6 3 7 2 8 1 9 10 10 11 11 12 12 13 13
REMARK SMILES IDX 14 14 15 15 16 16 17 17
REMARK H PARENT 17 18
REMARK Flexibility Score: inf
ROOT
ATOM      1  C   UNL     1     212.775 204.429 205.236  1.00  0.00     0.000 C 
ENDROOT
BRANCH   1   2
ATOM      2  C   UNL     1     212.825 205.848 205.827  1.00  0.00    -0.000 C 
BRANCH   2   3
ATOM      3  C   UNL     1     211.454 206.542 205.812  1.00  0.00    -0.000 C 
BRANCH   3   4
ATOM      4  C   UNL     1     211.014 207.019 207.208  1.00  0.00    -0.000 C 
BRANCH   4   5
ATOM      5  C   UNL     1     210.206 205.955 207.967  1.00  0.00    -0.000 C 
BRANCH   5   6
ATOM      6  C   UNL     1     208.903 205.577 207.246  1.00  0.00    -0.000 C 
BRANCH   6   7
ATOM      7  C   UNL     1     208.252 204.350 207.896  1.00  0.00    -0.000 C 
BRANCH   7   8
ATOM      8  C   UNL     1     207.507 203.506 206.855  1.00  0.00    -0.003 C 
ATOM      9  C   UNL     1     206.506 204.352 206.073  1.00  0.00     0.004 C 
ENDBRANCH   7   8
ENDBRANCH   6   7
ENDBRANCH   5   6
ENDBRANCH   4   5
ENDBRANCH   3   4
ENDBRANCH   2   3
ENDBRANCH   1   2
BRANCH   1  10
ATOM     10  C   UNL     1     211.350 203.991 204.856  1.00  0.00     0.000 C 
BRANCH  10  11
ATOM     11  C   UNL     1     210.910 202.670 205.522  1.00  0.00     0.000 C 
BRANCH  11  12
ATOM     12  C   UNL     1     212.110 201.841 206.013  1.00  0.00     0.000 C 
BRANCH  12  13
ATOM     13  C   UNL     1     211.962 201.386 207.474  1.00  0.00     0.000 C 
BRANCH  13  14
ATOM     14  C   UNL     1     210.748 202.024 208.171  1.00  0.00     0.002 C 
BRANCH  14  15
ATOM     15  C   UNL     1     210.003 201.036 209.085  1.00  0.00     0.028 C 
BRANCH  15  16
ATOM     16  C   UNL     1     210.875 199.871 209.575  1.00  0.00     0.156 C 
BRANCH  16  17
ATOM     17  O   UNL     1     211.172 200.001 210.939  1.00  0.00    -0.396 OA
ATOM     18  H   UNL     1     211.892 199.347 211.137  1.00  0.00     0.210 HD
ENDBRANCH  16  17
ENDBRANCH  15  16
ENDBRANCH  14  15
ENDBRANCH  13  14
ENDBRANCH  12  13
ENDBRANCH  11  12
ENDBRANCH  10  11
ENDBRANCH   1  10
TORSDOF 15
ENDMDL
MODEL 6
REMARK VINA RESULT:    -3.711      6.091      8.981
REMARK INTER + INTRA:          -7.886
REMARK INTER:                  -5.908
REMARK INTRA:                  -1.978
REMARK UNBOUND:                -1.030
REMARK SMILES CCCCCCCCCCCCCCCCO
REMARK SMILES IDX 9 1 8 2 7 3 6 4 5 5 4 6 3 7 2 8 1 9 10 10 11 11 12 12 13 13
REMARK SMILES IDX 14 14 15 15 16 16 17 17
REMARK H PARENT 17 18
REMARK Flexibility Score: inf
ROOT
ATOM      1  C   UNL     1     206.119 203.271 206.711  1.00  0.00     0.000 C 
ENDROOT
BRANCH   1   2
ATOM      2  C   UNL     1     206.657 202.399 207.859  1.00  0.00    -0.000 C 
BRANCH   2   3
ATOM      3  C   UNL     1     207.822 203.065 208.609  1.00  0.00    -0.000 C 
BRANCH   3   4
ATOM      4  C   UNL     1     209.069 202.166 208.686  1.00  0.00    -0.000 C 
BRANCH   4   5
ATOM      5  C   UNL     1     210.336 202.871 208.177  1.00  0.00    -0.000 C 
BRANCH   5   6
ATOM      6  C   UNL     1     211.336 201.897 207.535  1.00  0.00    -0.000 C 
BRANCH   6   7
ATOM      7  C   UNL     1     211.504 202.190 206.039  1.00  0.00    -0.000 C 
BRANCH   7   8
ATOM      8  C   UNL     1     212.813 202.940 205.769  1.00  0.00    -0.003 C 
ATOM      9  C   UNL     1     212.571 204.181 204.913  1.00  0.00     0.004 C 
ENDBRANCH   7   8
ENDBRANCH   6   7
ENDBRANCH   5   6
ENDBRANCH   4   5
ENDBRANCH   3   4
ENDBRANCH   2   3
ENDBRANCH   1   2
BRANCH   1  10
ATOM     10  C   UNL     1     206.887 204.594 206.556  1.00  0.00     0.000 C 
BRANCH  10  11
ATOM     11  C   UNL     1     207.866 204.606 205.363  1.00  0.00     0.000 C 
BRANCH  11  12
ATOM     12  C   UNL     1     209.204 205.278 205.718  1.00  0.00     0.000 C 
BRANCH  12  13
ATOM     13  C   UNL     1     209.120 206.136 206.991  1.00  0.00     0.000 C 
BRANCH  13  14
ATOM     14  C   UNL     1     210.503 206.597 207.485  1.00  0.00     0.002 C 
BRANCH  14  15
ATOM     15  C   UNL     1     211.266 207.415 206.428  1.00  0.00     0.028 C 
BRANCH  15  16
ATOM     16  C   UNL     1     210.598 208.753 206.082  1.00  0.00     0.156 C 
BRANCH  16  17
ATOM     17  O   UNL     1     210.333 209.499 207.240  1.00  0.00    -0.396 OA
ATOM     18  H   UNL     1     209.828 210.303 206.951  1.00  0.00     0.210 HD
ENDBRANCH  16  17
ENDBRANCH  15  16
ENDBRANCH  14  15
ENDBRANCH  13  14
ENDBRANCH  12  13
ENDBRANCH  11  12
ENDBRANCH  10  11
ENDBRANCH   1  10
TORSDOF 15
ENDMDL
MODEL 7
REMARK VINA RESULT:    -3.679      5.612      7.626
REMARK INTER + INTRA:          -7.828
REMARK INTER:                  -5.679
REMARK INTRA:                  -2.149
REMARK UNBOUND:                -1.030
REMARK SMILES CCCCCCCCCCCCCCCCO
REMARK SMILES IDX 9 1 8 2 7 3 6 4 5 5 4 6 3 7 2 8 1 9 10 10 11 11 12 12 13 13
REMARK SMILES IDX 14 14 15 15 16 16 17 17
REMARK H PARENT 17 18
REMARK Flexibility Score: inf
ROOT
ATOM      1  C   UNL     1     211.105 202.227 207.106  1.00  0.00     0.000 C 
ENDROOT
BRANCH   1   2
ATOM      2  C   UNL     1     211.014 203.168 205.893  1.00  0.00    -0.000 C 
BRANCH   2   3
ATOM      3  C   UNL     1     212.377 203.766 205.508  1.00  0.00    -0.000 C 
BRANCH   3   4
ATOM      4  C   UNL     1     212.271 205.227 205.035  1.00  0.00    -0.000 C 
BRANCH   4   5
ATOM      5  C   UNL     1     212.637 206.232 206.138  1.00  0.00    -0.000 C 
BRANCH   5   6
ATOM      6  C   UNL     1     211.422 207.026 206.641  1.00  0.00    -0.000 C 
BRANCH   6   7
ATOM      7  C   UNL     1     210.785 206.343 207.857  1.00  0.00    -0.000 C 
BRANCH   7   8
ATOM      8  C   UNL     1     209.304 206.038 207.603  1.00  0.00    -0.003 C 
ATOM      9  C   UNL     1     208.924 206.319 206.152  1.00  0.00     0.004 C 
ENDBRANCH   7   8
ENDBRANCH   6   7
ENDBRANCH   5   6
ENDBRANCH   4   5
ENDBRANCH   3   4
ENDBRANCH   2   3
ENDBRANCH   1   2
BRANCH   1  10
ATOM     10  C   UNL     1     210.181 202.650 208.260  1.00  0.00     0.000 C 
BRANCH  10  11
ATOM     11  C   UNL     1     209.556 201.462 209.021  1.00  0.00     0.000 C 
BRANCH  11  12
ATOM     12  C   UNL     1     208.056 201.673 209.296  1.00  0.00     0.000 C 
BRANCH  12  13
ATOM     13  C   UNL     1     207.510 202.960 208.656  1.00  0.00     0.000 C 
BRANCH  13  14
ATOM     14  C   UNL     1     206.492 202.677 207.537  1.00  0.00     0.002 C 
BRANCH  14  15
ATOM     15  C   UNL     1     206.936 203.244 206.177  1.00  0.00     0.028 C 
BRANCH  15  16
ATOM     16  C   UNL     1     205.838 204.031 205.448  1.00  0.00     0.156 C 
BRANCH  16  17
ATOM     17  O   UNL     1     205.584 205.253 206.088  1.00  0.00    -0.396 OA
ATOM     18  H   UNL     1     206.269 205.349 206.800  1.00  0.00     0.210 HD
ENDBRANCH  16  17
ENDBRANCH  15  16
ENDBRANCH  14  15
ENDBRANCH  13  14
ENDBRANCH  12  13
ENDBRANCH  11  12
ENDBRANCH  10  11
ENDBRANCH   1  10
TORSDOF 15
ENDMDL
MODEL 8
REMARK VINA RESULT:    -3.651     12.193     14.748
REMARK INTER + INTRA:          -7.775
REMARK INTER:                  -5.331
REMARK INTRA:                  -2.445
REMARK UNBOUND:                -1.030
REMARK SMILES CCCCCCCCCCCCCCCCO
REMARK SMILES IDX 9 1 8 2 7 3 6 4 5 5 4 6 3 7 2 8 1 9 10 10 11 11 12 12 13 13
REMARK SMILES IDX 14 14 15 15 16 16 17 17
REMARK H PARENT 17 18
REMARK Flexibility Score: inf
ROOT
ATOM      1  C   UNL     1     197.155 204.800 205.576  1.00  0.00     0.000 C 
ENDROOT
BRANCH   1   2
ATOM      2  C   UNL     1     196.933 204.999 207.085  1.00  0.00    -0.000 C 
BRANCH   2   3
ATOM      3  C   UNL     1     197.585 203.891 207.927  1.00  0.00    -0.000 C 
BRANCH   3   4
ATOM      4  C   UNL     1     199.102 203.782 207.691  1.00  0.00    -0.000 C 
BRANCH   4   5
ATOM      5  C   UNL     1     199.527 202.380 207.227  1.00  0.00    -0.000 C 
BRANCH   5   6
ATOM      6  C   UNL     1     200.702 202.415 206.239  1.00  0.00    -0.000 C 
BRANCH   6   7
ATOM      7  C   UNL     1     200.255 202.948 204.872  1.00  0.00    -0.000 C 
BRANCH   7   8
ATOM      8  C   UNL     1     200.858 202.118 203.733  1.00  0.00    -0.003 C 
ATOM      9  C   UNL     1     200.176 200.758 203.622  1.00  0.00     0.004 C 
ENDBRANCH   7   8
ENDBRANCH   6   7
ENDBRANCH   5   6
ENDBRANCH   4   5
ENDBRANCH   3   4
ENDBRANCH   2   3
ENDBRANCH   1   2
BRANCH   1  10
ATOM     10  C   UNL     1     196.105 203.876 204.935  1.00  0.00     0.000 C 
BRANCH  10  11
ATOM     11  C   UNL     1     196.705 202.839 203.961  1.00  0.00     0.000 C 
BRANCH  11  12
ATOM     12  C   UNL     1     196.563 201.400 204.488  1.00  0.00     0.000 C 
BRANCH  12  13
ATOM     13  C   UNL     1     195.915 201.338 205.881  1.00  0.00     0.000 C 
BRANCH  13  14
ATOM     14  C   UNL     1     196.634 200.356 206.823  1.00  0.00     0.002 C 
BRANCH  14  15
ATOM     15  C   UNL     1     197.685 199.500 206.095  1.00  0.00     0.028 C 
BRANCH  15  16
ATOM     16  C   UNL     1     197.262 198.038 205.897  1.00  0.00     0.156 C 
BRANCH  16  17
ATOM     17  O   UNL     1     197.420 197.302 207.080  1.00  0.00    -0.396 OA
ATOM     18  H   UNL     1     197.995 196.524 206.857  1.00  0.00     0.210 HD
ENDBRANCH  16  17
ENDBRANCH  15  16
ENDBRANCH  14  15
ENDBRANCH  13  14
ENDBRANCH  12  13
ENDBRANCH  11  12
ENDBRANCH  10  11
ENDBRANCH   1  10
TORSDOF 15
ENDMDL
MODEL 9
REMARK VINA RESULT:    -3.643     13.404     15.582
REMARK INTER + INTRA:          -7.762
REMARK INTER:                  -5.093
REMARK INTRA:                  -2.669
REMARK UNBOUND:                -1.030
REMARK SMILES CCCCCCCCCCCCCCCCO
REMARK SMILES IDX 9 1 8 2 7 3 6 4 5 5 4 6 3 7 2 8 1 9 10 10 11 11 12 12 13 13
REMARK SMILES IDX 14 14 15 15 16 16 17 17
REMARK H PARENT 17 18
REMARK Flexibility Score: inf
ROOT
ATOM      1  C   UNL     1     196.263 199.562 205.633  1.00  0.00     0.000 C 
ENDROOT
BRANCH   1   2
ATOM      2  C   UNL     1     195.197 200.619 205.966  1.00  0.00    -0.000 C 
BRANCH   2   3
ATOM      3  C   UNL     1     194.721 201.389 204.724  1.00  0.00    -0.000 C 
BRANCH   3   4
ATOM      4  C   UNL     1     194.776 202.915 204.914  1.00  0.00    -0.000 C 
BRANCH   4   5
ATOM      5  C   UNL     1     195.725 203.600 203.918  1.00  0.00    -0.000 C 
BRANCH   5   6
ATOM      6  C   UNL     1     196.776 202.637 203.345  1.00  0.00    -0.000 C 
BRANCH   6   7
ATOM      7  C   UNL     1     198.165 202.933 203.923  1.00  0.00    -0.000 C 
BRANCH   7   8
ATOM      8  C   UNL     1     199.174 201.856 203.509  1.00  0.00    -0.003 C 
ATOM      9  C   UNL     1     198.473 200.655 202.881  1.00  0.00     0.004 C 
ENDBRANCH   7   8
ENDBRANCH   6   7
ENDBRANCH   5   6
ENDBRANCH   4   5
ENDBRANCH   3   4
ENDBRANCH   2   3
ENDBRANCH   1   2
BRANCH   1  10
ATOM     10  C   UNL     1     197.576 199.774 206.406  1.00  0.00     0.000 C 
BRANCH  10  11
ATOM     11  C   UNL     1     197.615 201.090 207.211  1.00  0.00     0.000 C 
BRANCH  11  12
ATOM     12  C   UNL     1     199.025 201.706 207.246  1.00  0.00     0.000 C 
BRANCH  12  13
ATOM     13  C   UNL     1     199.014 203.199 207.615  1.00  0.00     0.000 C 
BRANCH  13  14
ATOM     14  C   UNL     1     197.595 203.733 207.875  1.00  0.00     0.002 C 
BRANCH  14  15
ATOM     15  C   UNL     1     197.231 204.915 206.961  1.00  0.00     0.028 C 
BRANCH  15  16
ATOM     16  C   UNL     1     196.357 205.978 207.643  1.00  0.00     0.156 C 
BRANCH  16  17
ATOM     17  O   UNL     1     196.817 206.253 208.939  1.00  0.00    -0.396 OA
ATOM     18  H   UNL     1     197.553 205.611 209.122  1.00  0.00     0.210 HD
ENDBRANCH  16  17
ENDBRANCH  15  16
ENDBRANCH  14  15
ENDBRANCH  13  14
ENDBRANCH  12  13
ENDBRANCH  11  12
ENDBRANCH  10  11
ENDBRANCH   1  10
TORSDOF 15
ENDMDL
