MODEL 1
REMARK VINA RESULT:    -7.094      0.000      0.000
REMARK INTER + INTRA:         -14.149
REMARK INTER:                 -11.656
REMARK INTRA:                  -2.494
REMARK UNBOUND:                -2.494
REMARK SMILES COc1ccc([C@@H]2CC(=O)c3c(O)cc(O[C@@H]4O[C@@H](CO[C@@H]5O[C@H](C)[C@@H](O)[C@H](O)[C@@H]5O)[C@H](O)[C@@H](O)[C@H]4O)cc3O2)cc1O
REMARK SMILES IDX 19 1 32 2 34 3 36 4 17 5 18 6 20 7 21 8 22 9 25 10 24 11
REMARK SMILES IDX 26 12 23 13 28 14 30 15 27 16 29 18 31 20 33 22 35 24 16 26
REMARK SMILES IDX 15 27 14 28 38 29 12 30 39 31 11 32 40 33 9 34 7 35 10 36
REMARK SMILES IDX 8 37 13 38 6 40 41 41 5 42 42 43 4 44 3 45 43 46 2 48 1 49
REMARK SMILES IDX 37 50
REMARK H PARENT 27 17 29 19 31 21 33 23 35 25 13 39 43 47 37 51
REMARK Flexibility Score: inf
ROOT
ATOM      1  C   UNL     1      67.035  48.257   8.022  1.00  0.00     0.180 C 
ATOM      2  C   UNL     1      67.810  48.867   9.218  1.00  0.00     0.177 C 
ATOM      3  C   UNL     1      69.247  49.091   8.761  1.00  0.00     0.180 C 
ATOM      4  C   UNL     1      69.891  47.716   8.424  1.00  0.00     0.214 C 
ATOM      5  C   UNL     1      68.832  46.683   7.865  1.00  0.00     0.339 C 
ATOM      6  O   UNL     1      67.719  47.293   7.214  1.00  0.00    -0.332 OA
ENDROOT
BRANCH   1   7
ATOM      7  C   UNL     1      65.588  47.769   8.406  1.00  0.00     0.198 C 
BRANCH   7   8
ATOM      8  O   UNL     1      65.341  46.345   8.404  1.00  0.00    -0.347 OA
BRANCH   8   9
ATOM      9  C   UNL     1      64.260  45.885   9.180  1.00  0.00     0.281 C 
ATOM     10  C   UNL     1      66.275  43.467   8.844  1.00  0.00     0.041 C 
ATOM     11  C   UNL     1      64.918  43.643   9.573  1.00  0.00     0.150 C 
ATOM     12  C   UNL     1      63.674  43.010   8.811  1.00  0.00     0.174 C 
ATOM     13  O   UNL     1      64.693  44.940  10.125  1.00  0.00    -0.344 OA
ATOM     14  C   UNL     1      63.089  44.003   7.800  1.00  0.00     0.179 C 
ATOM     15  C   UNL     1      62.987  45.440   8.394  1.00  0.00     0.202 C 
BRANCH  12  16
ATOM     16  O   UNL     1      62.663  42.549   9.710  1.00  0.00    -0.388 OA
ATOM     17  H   UNL     1      61.896  43.219   9.651  1.00  0.00     0.211 HD
ENDBRANCH  12  16
BRANCH  14  18
ATOM     18  O   UNL     1      63.788  43.958   6.548  1.00  0.00    -0.387 OA
ATOM     19  H   UNL     1      64.714  44.156   6.708  1.00  0.00     0.211 HD
ENDBRANCH  14  18
BRANCH  15  20
ATOM     20  O   UNL     1      62.662  46.389   7.434  1.00  0.00    -0.385 OA
ATOM     21  H   UNL     1      63.302  46.351   6.670  1.00  0.00     0.211 HD
ENDBRANCH  15  20
ENDBRANCH   8   9
ENDBRANCH   7   8
ENDBRANCH   1   7
BRANCH   2  22
ATOM     22  O   UNL     1      67.168  50.045   9.680  1.00  0.00    -0.387 OA
ATOM     23  H   UNL     1      67.014  50.051  10.666  1.00  0.00     0.211 HD
ENDBRANCH   2  22
BRANCH   3  24
ATOM     24  O   UNL     1      69.995  49.783   9.739  1.00  0.00    -0.387 OA
ATOM     25  H   UNL     1      69.763  50.730   9.638  1.00  0.00     0.211 HD
ENDBRANCH   3  24
BRANCH   5  26
ATOM     26  O   UNL     1      69.352  45.646   7.047  1.00  0.00    -0.462 OA
BRANCH  26  27
ATOM     27  C   UNL     1      69.857  44.348   7.331  1.00  0.00     0.130 A 
ATOM     28  C   UNL     1      69.117  43.270   6.845  1.00  0.00     0.093 A 
ATOM     29  C   UNL     1      71.131  44.048   7.890  1.00  0.00     0.094 A 
ATOM     30  C   UNL     1      69.657  41.971   6.669  1.00  0.00     0.133 A 
ATOM     31  C   UNL     1      71.656  42.722   7.847  1.00  0.00     0.138 A 
ATOM     32  C   UNL     1      70.914  41.688   7.203  1.00  0.00     0.102 A 
ATOM     33  O   UNL     1      73.045  42.505   8.121  1.00  0.00    -0.484 OA
ATOM     34  C   UNL     1      71.727  40.530   6.816  1.00  0.00     0.174 C 
ATOM     35  C   UNL     1      73.795  42.063   7.038  1.00  0.00     0.211 C 
ATOM     36  O   UNL     1      71.576  39.339   7.279  1.00  0.00    -0.294 OA
ATOM     37  C   UNL     1      73.157  40.833   6.347  1.00  0.00     0.131 C 
BRANCH  30  38
ATOM     38  O   UNL     1      69.019  41.025   5.840  1.00  0.00    -0.507 OA
ATOM     39  H   UNL     1      69.223  41.039   4.812  1.00  0.00     0.293 HD
ENDBRANCH  30  38
BRANCH  35  40
ATOM     40  C   UNL     1      73.951  43.268   6.074  1.00  0.00    -0.003 A 
ATOM     41  C   UNL     1      73.428  43.046   4.807  1.00  0.00     0.057 A 
ATOM     42  C   UNL     1      74.698  44.445   6.231  1.00  0.00     0.011 A 
ATOM     43  C   UNL     1      72.617  44.104   4.375  1.00  0.00     0.158 A 
ATOM     44  C   UNL     1      74.323  45.553   5.407  1.00  0.00     0.051 A 
ATOM     45  C   UNL     1      73.174  45.425   4.556  1.00  0.00     0.160 A 
BRANCH  43  46
ATOM     46  O   UNL     1      71.314  43.932   4.051  1.00  0.00    -0.504 OA
ATOM     47  H   UNL     1      70.955  44.294   3.132  1.00  0.00     0.293 HD
ENDBRANCH  43  46
BRANCH  45  48
ATOM     48  O   UNL     1      72.540  46.537   3.971  1.00  0.00    -0.493 OA
ATOM     49  C   UNL     1      72.093  47.664   4.706  1.00  0.00     0.278 C 
ENDBRANCH  45  48
ENDBRANCH  35  40
ENDBRANCH  26  27
ENDBRANCH   5  26
BRANCH   4  50
ATOM     50  O   UNL     1      70.550  47.187   9.567  1.00  0.00    -0.384 OA
ATOM     51  H   UNL     1      70.445  47.914  10.249  1.00  0.00     0.211 HD
ENDBRANCH   4  50
TORSDOF 15
ENDMDL
MODEL 2
REMARK VINA RESULT:    -6.877      2.168      3.830
REMARK INTER + INTRA:         -13.794
REMARK INTER:                  -9.873
REMARK INTRA:                  -3.921
REMARK UNBOUND:                -2.494
REMARK SMILES COc1ccc([C@@H]2CC(=O)c3c(O)cc(O[C@@H]4O[C@@H](CO[C@@H]5O[C@H](C)[C@@H](O)[C@H](O)[C@@H]5O)[C@H](O)[C@@H](O)[C@H]4O)cc3O2)cc1O
REMARK SMILES IDX 19 1 32 2 34 3 36 4 17 5 18 6 20 7 21 8 22 9 25 10 24 11
REMARK SMILES IDX 26 12 23 13 28 14 30 15 27 16 29 18 31 20 33 22 35 24 16 26
REMARK SMILES IDX 15 27 14 28 38 29 12 30 39 31 11 32 40 33 9 34 7 35 10 36
REMARK SMILES IDX 8 37 13 38 6 40 41 41 5 42 42 43 4 44 3 45 43 46 2 48 1 49
REMARK SMILES IDX 37 50
REMARK H PARENT 27 17 29 19 31 21 33 23 35 25 13 39 43 47 37 51
REMARK Flexibility Score: inf
ROOT
ATOM      1  C   UNL     1      71.325  47.365   8.107  1.00  0.00     0.180 C 
ATOM      2  C   UNL     1      72.373  48.444   8.479  1.00  0.00     0.177 C 
ATOM      3  C   UNL     1      73.742  47.904   8.076  1.00  0.00     0.180 C 
ATOM      4  C   UNL     1      74.049  46.629   8.912  1.00  0.00     0.214 C 
ATOM      5  C   UNL     1      72.738  45.818   9.265  1.00  0.00     0.339 C 
ATOM      6  O   UNL     1      71.679  45.996   8.326  1.00  0.00    -0.332 OA
ENDROOT
BRANCH   1   7
ATOM      7  C   UNL     1      69.885  47.685   8.659  1.00  0.00     0.198 C 
BRANCH   7   8
ATOM      8  O   UNL     1      68.876  46.657   8.534  1.00  0.00    -0.347 OA
BRANCH   8   9
ATOM      9  C   UNL     1      67.970  46.782   7.465  1.00  0.00     0.281 C 
ATOM     10  C   UNL     1      66.613  48.086  10.011  1.00  0.00     0.041 C 
ATOM     11  C   UNL     1      66.174  47.897   8.536  1.00  0.00     0.150 C 
ATOM     12  C   UNL     1      65.134  46.717   8.303  1.00  0.00     0.174 C 
ATOM     13  O   UNL     1      67.229  47.971   7.578  1.00  0.00    -0.344 OA
ATOM     14  C   UNL     1      65.859  45.382   8.100  1.00  0.00     0.179 C 
ATOM     15  C   UNL     1      67.091  45.531   7.156  1.00  0.00     0.202 C 
BRANCH  12  16
ATOM     16  O   UNL     1      64.247  46.981   7.214  1.00  0.00    -0.388 OA
ATOM     17  H   UNL     1      63.725  47.822   7.462  1.00  0.00     0.211 HD
ENDBRANCH  12  16
BRANCH  14  18
ATOM     18  O   UNL     1      66.178  44.757   9.351  1.00  0.00    -0.387 OA
ATOM     19  H   UNL     1      66.491  43.866   9.177  1.00  0.00     0.211 HD
ENDBRANCH  14  18
BRANCH  15  20
ATOM     20  O   UNL     1      67.878  44.388   7.129  1.00  0.00    -0.385 OA
ATOM     21  H   UNL     1      68.455  44.376   6.315  1.00  0.00     0.211 HD
ENDBRANCH  15  20
ENDBRANCH   8   9
ENDBRANCH   7   8
ENDBRANCH   1   7
BRANCH   2  22
ATOM     22  O   UNL     1      72.049  49.685   7.873  1.00  0.00    -0.387 OA
ATOM     23  H   UNL     1      72.849  50.203   7.580  1.00  0.00     0.211 HD
ENDBRANCH   2  22
BRANCH   3  24
ATOM     24  O   UNL     1      74.748  48.881   8.241  1.00  0.00    -0.387 OA
ATOM     25  H   UNL     1      74.989  49.177   7.337  1.00  0.00     0.211 HD
ENDBRANCH   3  24
BRANCH   5  26
ATOM     26  O   UNL     1      72.918  44.434   9.524  1.00  0.00    -0.462 OA
BRANCH  26  27
ATOM     27  C   UNL     1      72.048  43.313   9.446  1.00  0.00     0.130 A 
ATOM     28  C   UNL     1      70.733  43.513   9.867  1.00  0.00     0.093 A 
ATOM     29  C   UNL     1      72.332  42.074   8.808  1.00  0.00     0.094 A 
ATOM     30  C   UNL     1      69.657  42.671   9.486  1.00  0.00     0.133 A 
ATOM     31  C   UNL     1      71.292  41.141   8.521  1.00  0.00     0.138 A 
ATOM     32  C   UNL     1      69.941  41.466   8.844  1.00  0.00     0.102 A 
ATOM     33  O   UNL     1      71.541  40.063   7.611  1.00  0.00    -0.484 OA
ATOM     34  C   UNL     1      68.949  40.679   8.104  1.00  0.00     0.174 C 
ATOM     35  C   UNL     1      70.829  40.124   6.420  1.00  0.00     0.211 C 
ATOM     36  O   UNL     1      68.108  39.867   8.640  1.00  0.00    -0.294 OA
ATOM     37  C   UNL     1      69.311  40.324   6.655  1.00  0.00     0.131 C 
BRANCH  30  38
ATOM     38  O   UNL     1      68.320  43.104   9.605  1.00  0.00    -0.507 OA
ATOM     39  H   UNL     1      68.122  43.990  10.130  1.00  0.00     0.293 HD
ENDBRANCH  30  38
BRANCH  35  40
ATOM     40  C   UNL     1      71.452  41.268   5.578  1.00  0.00    -0.003 A 
ATOM     41  C   UNL     1      70.556  42.275   5.247  1.00  0.00     0.057 A 
ATOM     42  C   UNL     1      72.707  41.333   4.952  1.00  0.00     0.011 A 
ATOM     43  C   UNL     1      71.075  43.551   5.505  1.00  0.00     0.158 A 
ATOM     44  C   UNL     1      73.188  42.639   4.623  1.00  0.00     0.051 A 
ATOM     45  C   UNL     1      72.419  43.782   5.027  1.00  0.00     0.160 A 
BRANCH  43  46
ATOM     46  O   UNL     1      70.475  44.418   6.355  1.00  0.00    -0.504 OA
ATOM     47  H   UNL     1      71.041  44.881   7.109  1.00  0.00     0.293 HD
ENDBRANCH  43  46
BRANCH  45  48
ATOM     48  O   UNL     1      72.955  45.083   5.047  1.00  0.00    -0.493 OA
ATOM     49  C   UNL     1      72.869  45.986   3.958  1.00  0.00     0.278 C 
ENDBRANCH  45  48
ENDBRANCH  35  40
ENDBRANCH  26  27
ENDBRANCH   5  26
BRANCH   4  50
ATOM     50  O   UNL     1      74.756  46.974  10.095  1.00  0.00    -0.384 OA
ATOM     51  H   UNL     1      75.278  46.143  10.300  1.00  0.00     0.211 HD
ENDBRANCH   4  50
TORSDOF 15
ENDMDL
MODEL 3
REMARK VINA RESULT:    -6.603      2.377      5.661
REMARK INTER + INTRA:         -13.343
REMARK INTER:                 -10.384
REMARK INTRA:                  -2.960
REMARK UNBOUND:                -2.494
REMARK SMILES COc1ccc([C@@H]2CC(=O)c3c(O)cc(O[C@@H]4O[C@@H](CO[C@@H]5O[C@H](C)[C@@H](O)[C@H](O)[C@@H]5O)[C@H](O)[C@@H](O)[C@H]4O)cc3O2)cc1O
REMARK SMILES IDX 19 1 32 2 34 3 36 4 17 5 18 6 20 7 21 8 22 9 25 10 24 11
REMARK SMILES IDX 26 12 23 13 28 14 30 15 27 16 29 18 31 20 33 22 35 24 16 26
REMARK SMILES IDX 15 27 14 28 38 29 12 30 39 31 11 32 40 33 9 34 7 35 10 36
REMARK SMILES IDX 8 37 13 38 6 40 41 41 5 42 42 43 4 44 3 45 43 46 2 48 1 49
REMARK SMILES IDX 37 50
REMARK H PARENT 27 17 29 19 31 21 33 23 35 25 13 39 43 47 37 51
REMARK Flexibility Score: inf
ROOT
ATOM      1  C   UNL     1      68.824  48.111   9.701  1.00  0.00     0.180 C 
ATOM      2  C   UNL     1      67.735  49.010   9.063  1.00  0.00     0.177 C 
ATOM      3  C   UNL     1      66.534  48.120   8.759  1.00  0.00     0.180 C 
ATOM      4  C   UNL     1      66.949  47.052   7.708  1.00  0.00     0.214 C 
ATOM      5  C   UNL     1      68.468  46.637   7.848  1.00  0.00     0.339 C 
ATOM      6  O   UNL     1      68.990  46.793   9.167  1.00  0.00    -0.332 OA
ENDROOT
BRANCH   1   7
ATOM      7  C   UNL     1      70.208  48.843   9.873  1.00  0.00     0.198 C 
BRANCH   7   8
ATOM      8  O   UNL     1      71.354  48.274   9.201  1.00  0.00    -0.347 OA
BRANCH   8   9
ATOM      9  C   UNL     1      71.784  48.913   8.023  1.00  0.00     0.281 C 
ATOM     10  C   UNL     1      72.025  45.792   7.547  1.00  0.00     0.041 C 
ATOM     11  C   UNL     1      72.319  47.039   6.673  1.00  0.00     0.150 C 
ATOM     12  C   UNL     1      73.861  47.409   6.549  1.00  0.00     0.174 C 
ATOM     13  O   UNL     1      71.447  48.148   6.893  1.00  0.00    -0.344 OA
ATOM     14  C   UNL     1      74.304  48.305   7.712  1.00  0.00     0.179 C 
ATOM     15  C   UNL     1      73.259  49.421   8.012  1.00  0.00     0.202 C 
BRANCH  12  16
ATOM     16  O   UNL     1      74.174  48.017   5.294  1.00  0.00    -0.388 OA
ATOM     17  H   UNL     1      75.183  47.931   5.174  1.00  0.00     0.211 HD
ENDBRANCH  12  16
BRANCH  14  18
ATOM     18  O   UNL     1      74.656  47.534   8.869  1.00  0.00    -0.387 OA
ATOM     19  H   UNL     1      75.535  47.171   8.739  1.00  0.00     0.211 HD
ENDBRANCH  14  18
BRANCH  15  20
ATOM     20  O   UNL     1      73.537  50.105   9.187  1.00  0.00    -0.385 OA
ATOM     21  H   UNL     1      72.889  50.851   9.323  1.00  0.00     0.211 HD
ENDBRANCH  15  20
ENDBRANCH   8   9
ENDBRANCH   7   8
ENDBRANCH   1   7
BRANCH   2  22
ATOM     22  O   UNL     1      67.432  50.106   9.912  1.00  0.00    -0.387 OA
ATOM     23  H   UNL     1      66.454  50.234  10.059  1.00  0.00     0.211 HD
ENDBRANCH   2  22
BRANCH   3  24
ATOM     24  O   UNL     1      65.431  48.881   8.312  1.00  0.00    -0.387 OA
ATOM     25  H   UNL     1      65.364  48.720   7.347  1.00  0.00     0.211 HD
ENDBRANCH   3  24
BRANCH   5  26
ATOM     26  O   UNL     1      68.806  45.350   7.352  1.00  0.00    -0.462 OA
BRANCH  26  27
ATOM     27  C   UNL     1      68.835  44.060   7.945  1.00  0.00     0.130 A 
ATOM     28  C   UNL     1      67.738  43.234   7.697  1.00  0.00     0.093 A 
ATOM     29  C   UNL     1      69.947  43.462   8.600  1.00  0.00     0.094 A 
ATOM     30  C   UNL     1      67.775  41.824   7.845  1.00  0.00     0.133 A 
ATOM     31  C   UNL     1      69.969  42.064   8.883  1.00  0.00     0.138 A 
ATOM     32  C   UNL     1      68.877  41.243   8.471  1.00  0.00     0.102 A 
ATOM     33  O   UNL     1      71.204  41.436   9.246  1.00  0.00    -0.484 OA
ATOM     34  C   UNL     1      69.208  39.816   8.390  1.00  0.00     0.174 C 
ATOM     35  C   UNL     1      71.692  40.523   8.320  1.00  0.00     0.211 C 
ATOM     36  O   UNL     1      68.671  38.896   9.111  1.00  0.00    -0.294 OA
ATOM     37  C   UNL     1      70.626  39.476   7.911  1.00  0.00     0.131 C 
BRANCH  30  38
ATOM     38  O   UNL     1      66.802  41.004   7.237  1.00  0.00    -0.507 OA
ATOM     39  H   UNL     1      66.929  39.964   7.268  1.00  0.00     0.293 HD
ENDBRANCH  30  38
BRANCH  35  40
ATOM     40  C   UNL     1      72.213  41.340   7.109  1.00  0.00    -0.003 A 
ATOM     41  C   UNL     1      71.602  41.013   5.906  1.00  0.00     0.057 A 
ATOM     42  C   UNL     1      73.319  42.199   7.022  1.00  0.00     0.011 A 
ATOM     43  C   UNL     1      71.182  42.148   5.199  1.00  0.00     0.158 A 
ATOM     44  C   UNL     1      73.313  43.139   5.944  1.00  0.00     0.051 A 
ATOM     45  C   UNL     1      72.159  43.207   5.092  1.00  0.00     0.160 A 
BRANCH  43  46
ATOM     46  O   UNL     1      69.887  42.353   4.862  1.00  0.00    -0.504 OA
ATOM     47  H   UNL     1      69.165  42.466   5.617  1.00  0.00     0.293 HD
ENDBRANCH  43  46
BRANCH  45  48
ATOM     48  O   UNL     1      71.919  44.296   4.233  1.00  0.00    -0.493 OA
ATOM     49  C   UNL     1      72.945  45.092   3.665  1.00  0.00     0.278 C 
ENDBRANCH  45  48
ENDBRANCH  35  40
ENDBRANCH  26  27
ENDBRANCH   5  26
BRANCH   4  50
ATOM     50  O   UNL     1      66.679  47.522   6.394  1.00  0.00    -0.384 OA
ATOM     51  H   UNL     1      67.582  47.518   5.960  1.00  0.00     0.211 HD
ENDBRANCH   4  50
TORSDOF 15
ENDMDL
MODEL 4
REMARK VINA RESULT:    -6.588      2.137      5.721
REMARK INTER + INTRA:         -13.319
REMARK INTER:                 -10.713
REMARK INTRA:                  -2.606
REMARK UNBOUND:                -2.494
REMARK SMILES COc1ccc([C@@H]2CC(=O)c3c(O)cc(O[C@@H]4O[C@@H](CO[C@@H]5O[C@H](C)[C@@H](O)[C@H](O)[C@@H]5O)[C@H](O)[C@@H](O)[C@H]4O)cc3O2)cc1O
REMARK SMILES IDX 19 1 32 2 34 3 36 4 17 5 18 6 20 7 21 8 22 9 25 10 24 11
REMARK SMILES IDX 26 12 23 13 28 14 30 15 27 16 29 18 31 20 33 22 35 24 16 26
REMARK SMILES IDX 15 27 14 28 38 29 12 30 39 31 11 32 40 33 9 34 7 35 10 36
REMARK SMILES IDX 8 37 13 38 6 40 41 41 5 42 42 43 4 44 3 45 43 46 2 48 1 49
REMARK SMILES IDX 37 50
REMARK H PARENT 27 17 29 19 31 21 33 23 35 25 13 39 43 47 37 51
REMARK Flexibility Score: inf
ROOT
ATOM      1  C   UNL     1      68.221  43.231   9.599  1.00  0.00     0.180 C 
ATOM      2  C   UNL     1      67.514  42.006   8.967  1.00  0.00     0.177 C 
ATOM      3  C   UNL     1      68.596  41.123   8.355  1.00  0.00     0.180 C 
ATOM      4  C   UNL     1      69.304  41.907   7.215  1.00  0.00     0.214 C 
ATOM      5  C   UNL     1      69.350  43.462   7.501  1.00  0.00     0.339 C 
ATOM      6  O   UNL     1      69.328  43.795   8.888  1.00  0.00    -0.332 OA
ENDROOT
BRANCH   1   7
ATOM      7  C   UNL     1      67.217  44.344  10.083  1.00  0.00     0.198 C 
BRANCH   7   8
ATOM      8  O   UNL     1      65.967  44.472   9.370  1.00  0.00    -0.347 OA
BRANCH   8   9
ATOM      9  C   UNL     1      64.787  44.313  10.121  1.00  0.00     0.281 C 
ATOM     10  C   UNL     1      64.493  42.540   7.515  1.00  0.00     0.041 C 
ATOM     11  C   UNL     1      63.583  42.809   8.741  1.00  0.00     0.150 C 
ATOM     12  C   UNL     1      62.386  43.818   8.465  1.00  0.00     0.174 C 
ATOM     13  O   UNL     1      64.275  43.013   9.973  1.00  0.00    -0.344 OA
ATOM     14  C   UNL     1      62.837  45.270   8.671  1.00  0.00     0.179 C 
ATOM     15  C   UNL     1      63.708  45.427   9.954  1.00  0.00     0.202 C 
BRANCH  12  16
ATOM     16  O   UNL     1      61.236  43.528   9.262  1.00  0.00    -0.388 OA
ATOM     17  H   UNL     1      60.719  44.402   9.353  1.00  0.00     0.211 HD
ENDBRANCH  12  16
BRANCH  14  18
ATOM     18  O   UNL     1      63.462  45.801   7.495  1.00  0.00    -0.387 OA
ATOM     19  H   UNL     1      64.147  45.191   7.210  1.00  0.00     0.211 HD
ENDBRANCH  14  18
BRANCH  15  20
ATOM     20  O   UNL     1      64.297  46.681  10.043  1.00  0.00    -0.385 OA
ATOM     21  H   UNL     1      65.124  46.643  10.599  1.00  0.00     0.211 HD
ENDBRANCH  15  20
ENDBRANCH   8   9
ENDBRANCH   7   8
ENDBRANCH   1   7
BRANCH   2  22
ATOM     22  O   UNL     1      66.712  41.340   9.931  1.00  0.00    -0.387 OA
ATOM     23  H   UNL     1      65.930  41.879  10.234  1.00  0.00     0.211 HD
ENDBRANCH   2  22
BRANCH   3  24
ATOM     24  O   UNL     1      68.059  39.904   7.884  1.00  0.00    -0.387 OA
ATOM     25  H   UNL     1      67.909  39.349   8.679  1.00  0.00     0.211 HD
ENDBRANCH   3  24
BRANCH   5  26
ATOM     26  O   UNL     1      70.392  44.179   6.855  1.00  0.00    -0.462 OA
BRANCH  26  27
ATOM     27  C   UNL     1      71.435  45.016   7.337  1.00  0.00     0.130 A 
ATOM     28  C   UNL     1      72.438  45.349   6.427  1.00  0.00     0.093 A 
ATOM     29  C   UNL     1      71.455  45.696   8.586  1.00  0.00     0.094 A 
ATOM     30  C   UNL     1      73.298  46.465   6.590  1.00  0.00     0.133 A 
ATOM     31  C   UNL     1      72.392  46.742   8.837  1.00  0.00     0.138 A 
ATOM     32  C   UNL     1      73.299  47.140   7.810  1.00  0.00     0.102 A 
ATOM     33  O   UNL     1      72.194  47.614   9.956  1.00  0.00    -0.484 OA
ATOM     34  C   UNL     1      73.863  48.480   8.006  1.00  0.00     0.174 C 
ATOM     35  C   UNL     1      71.904  48.933   9.628  1.00  0.00     0.211 C 
ATOM     36  O   UNL     1      75.111  48.732   8.188  1.00  0.00    -0.294 OA
ATOM     37  C   UNL     1      72.925  49.525   8.626  1.00  0.00     0.131 C 
BRANCH  30  38
ATOM     38  O   UNL     1      74.023  46.989   5.499  1.00  0.00    -0.507 OA
ATOM     39  H   UNL     1      73.760  46.689   4.530  1.00  0.00     0.293 HD
ENDBRANCH  30  38
BRANCH  35  40
ATOM     40  C   UNL     1      70.454  48.954   9.077  1.00  0.00    -0.003 A 
ATOM     41  C   UNL     1      70.348  49.471   7.793  1.00  0.00     0.057 A 
ATOM     42  C   UNL     1      69.243  48.718   9.745  1.00  0.00     0.011 A 
ATOM     43  C   UNL     1      69.575  48.656   6.956  1.00  0.00     0.158 A 
ATOM     44  C   UNL     1      68.120  48.377   8.927  1.00  0.00     0.051 A 
ATOM     45  C   UNL     1      68.318  48.211   7.515  1.00  0.00     0.160 A 
BRANCH  43  46
ATOM     46  O   UNL     1      70.067  48.113   5.818  1.00  0.00    -0.504 OA
ATOM     47  H   UNL     1      70.609  47.214   5.863  1.00  0.00     0.293 HD
ENDBRANCH  43  46
BRANCH  45  48
ATOM     48  O   UNL     1      67.376  47.566   6.691  1.00  0.00    -0.493 OA
ATOM     49  C   UNL     1      66.967  46.220   6.868  1.00  0.00     0.278 C 
ENDBRANCH  45  48
ENDBRANCH  35  40
ENDBRANCH  26  27
ENDBRANCH   5  26
BRANCH   4  50
ATOM     50  O   UNL     1      68.670  41.647   5.970  1.00  0.00    -0.384 OA
ATOM     51  H   UNL     1      68.718  40.649   5.893  1.00  0.00     0.211 HD
ENDBRANCH   4  50
TORSDOF 15
ENDMDL
MODEL 5
REMARK VINA RESULT:    -6.502      2.192      4.676
REMARK INTER + INTRA:         -13.178
REMARK INTER:                 -10.053
REMARK INTRA:                  -3.124
REMARK UNBOUND:                -2.494
REMARK SMILES COc1ccc([C@@H]2CC(=O)c3c(O)cc(O[C@@H]4O[C@@H](CO[C@@H]5O[C@H](C)[C@@H](O)[C@H](O)[C@@H]5O)[C@H](O)[C@@H](O)[C@H]4O)cc3O2)cc1O
REMARK SMILES IDX 19 1 32 2 34 3 36 4 17 5 18 6 20 7 21 8 22 9 25 10 24 11
REMARK SMILES IDX 26 12 23 13 28 14 30 15 27 16 29 18 31 20 33 22 35 24 16 26
REMARK SMILES IDX 15 27 14 28 38 29 12 30 39 31 11 32 40 33 9 34 7 35 10 36
REMARK SMILES IDX 8 37 13 38 6 40 41 41 5 42 42 43 4 44 3 45 43 46 2 48 1 49
REMARK SMILES IDX 37 50
REMARK H PARENT 27 17 29 19 31 21 33 23 35 25 13 39 43 47 37 51
REMARK Flexibility Score: inf
ROOT
ATOM      1  C   UNL     1      70.758  48.144   6.924  1.00  0.00     0.180 C 
ATOM      2  C   UNL     1      71.459  48.805   8.137  1.00  0.00     0.177 C 
ATOM      3  C   UNL     1      72.830  48.152   8.281  1.00  0.00     0.180 C 
ATOM      4  C   UNL     1      72.639  46.642   8.603  1.00  0.00     0.214 C 
ATOM      5  C   UNL     1      71.334  46.051   7.934  1.00  0.00     0.339 C 
ATOM      6  O   UNL     1      70.933  46.734   6.747  1.00  0.00    -0.332 OA
ENDROOT
BRANCH   1   7
ATOM      7  C   UNL     1      69.246  48.562   6.779  1.00  0.00     0.198 C 
BRANCH   7   8
ATOM      8  O   UNL     1      68.269  47.808   7.532  1.00  0.00    -0.347 OA
BRANCH   8   9
ATOM      9  C   UNL     1      67.276  47.138   6.793  1.00  0.00     0.281 C 
ATOM     10  C   UNL     1      65.905  48.262   9.416  1.00  0.00     0.041 C 
ATOM     11  C   UNL     1      65.392  47.454   8.197  1.00  0.00     0.150 C 
ATOM     12  C   UNL     1      65.180  45.903   8.475  1.00  0.00     0.174 C 
ATOM     13  O   UNL     1      66.029  47.764   6.957  1.00  0.00    -0.344 OA
ATOM     14  C   UNL     1      66.482  45.124   8.253  1.00  0.00     0.179 C 
ATOM     15  C   UNL     1      67.219  45.588   6.961  1.00  0.00     0.202 C 
BRANCH  12  16
ATOM     16  O   UNL     1      64.120  45.350   7.691  1.00  0.00    -0.388 OA
ATOM     17  H   UNL     1      63.314  45.962   7.821  1.00  0.00     0.211 HD
ENDBRANCH  12  16
BRANCH  14  18
ATOM     18  O   UNL     1      67.317  45.146   9.419  1.00  0.00    -0.387 OA
ATOM     19  H   UNL     1      68.176  45.497   9.173  1.00  0.00     0.211 HD
ENDBRANCH  14  18
BRANCH  15  20
ATOM     20  O   UNL     1      68.494  45.049   6.856  1.00  0.00    -0.385 OA
ATOM     21  H   UNL     1      69.085  45.398   7.580  1.00  0.00     0.211 HD
ENDBRANCH  15  20
ENDBRANCH   8   9
ENDBRANCH   7   8
ENDBRANCH   1   7
BRANCH   2  22
ATOM     22  O   UNL     1      71.514  50.214   7.975  1.00  0.00    -0.387 OA
ATOM     23  H   UNL     1      71.156  50.525   7.098  1.00  0.00     0.211 HD
ENDBRANCH   2  22
BRANCH   3  24
ATOM     24  O   UNL     1      73.604  48.795   9.272  1.00  0.00    -0.387 OA
ATOM     25  H   UNL     1      73.407  49.752   9.191  1.00  0.00     0.211 HD
ENDBRANCH   3  24
BRANCH   5  26
ATOM     26  O   UNL     1      71.339  44.651   7.698  1.00  0.00    -0.462 OA
BRANCH  26  27
ATOM     27  C   UNL     1      71.793  43.853   6.614  1.00  0.00     0.130 A 
ATOM     28  C   UNL     1      73.172  43.672   6.506  1.00  0.00     0.093 A 
ATOM     29  C   UNL     1      70.978  43.070   5.750  1.00  0.00     0.094 A 
ATOM     30  C   UNL     1      73.764  42.611   5.774  1.00  0.00     0.133 A 
ATOM     31  C   UNL     1      71.550  42.076   4.902  1.00  0.00     0.138 A 
ATOM     32  C   UNL     1      72.956  41.835   4.943  1.00  0.00     0.102 A 
ATOM     33  O   UNL     1      70.702  41.099   4.287  1.00  0.00    -0.484 OA
ATOM     34  C   UNL     1      73.348  40.527   4.408  1.00  0.00     0.174 C 
ATOM     35  C   UNL     1      70.891  39.796   4.731  1.00  0.00     0.211 C 
ATOM     36  O   UNL     1      74.092  40.351   3.374  1.00  0.00    -0.294 OA
ATOM     37  C   UNL     1      72.378  39.368   4.675  1.00  0.00     0.131 C 
BRANCH  30  38
ATOM     38  O   UNL     1      75.106  42.237   5.994  1.00  0.00    -0.507 OA
ATOM     39  H   UNL     1      75.305  41.292   6.401  1.00  0.00     0.293 HD
ENDBRANCH  30  38
BRANCH  35  40
ATOM     40  C   UNL     1      70.307  39.718   6.166  1.00  0.00    -0.003 A 
ATOM     41  C   UNL     1      71.241  39.378   7.135  1.00  0.00     0.057 A 
ATOM     42  C   UNL     1      68.969  39.747   6.587  1.00  0.00     0.011 A 
ATOM     43  C   UNL     1      71.183  40.227   8.249  1.00  0.00     0.158 A 
ATOM     44  C   UNL     1      68.739  40.094   7.956  1.00  0.00     0.051 A 
ATOM     45  C   UNL     1      69.858  40.473   8.771  1.00  0.00     0.160 A 
BRANCH  43  46
ATOM     46  O   UNL     1      72.243  40.966   8.652  1.00  0.00    -0.504 OA
ATOM     47  H   UNL     1      72.202  41.476   9.570  1.00  0.00     0.293 HD
ENDBRANCH  43  46
BRANCH  45  48
ATOM     48  O   UNL     1      69.704  41.137  10.003  1.00  0.00    -0.493 OA
ATOM     49  C   UNL     1      69.532  42.538  10.125  1.00  0.00     0.278 C 
ENDBRANCH  45  48
ENDBRANCH  35  40
ENDBRANCH  26  27
ENDBRANCH   5  26
BRANCH   4  50
ATOM     50  O   UNL     1      72.616  46.437  10.009  1.00  0.00    -0.384 OA
ATOM     51  H   UNL     1      73.208  45.638  10.132  1.00  0.00     0.211 HD
ENDBRANCH   4  50
TORSDOF 15
ENDMDL
MODEL 6
REMARK VINA RESULT:    -6.490      1.924      2.920
REMARK INTER + INTRA:         -13.157
REMARK INTER:                  -9.721
REMARK INTRA:                  -3.436
REMARK UNBOUND:                -2.494
REMARK SMILES COc1ccc([C@@H]2CC(=O)c3c(O)cc(O[C@@H]4O[C@@H](CO[C@@H]5O[C@H](C)[C@@H](O)[C@H](O)[C@@H]5O)[C@H](O)[C@@H](O)[C@H]4O)cc3O2)cc1O
REMARK SMILES IDX 19 1 32 2 34 3 36 4 17 5 18 6 20 7 21 8 22 9 25 10 24 11
REMARK SMILES IDX 26 12 23 13 28 14 30 15 27 16 29 18 31 20 33 22 35 24 16 26
REMARK SMILES IDX 15 27 14 28 38 29 12 30 39 31 11 32 40 33 9 34 7 35 10 36
REMARK SMILES IDX 8 37 13 38 6 40 41 41 5 42 42 43 4 44 3 45 43 46 2 48 1 49
REMARK SMILES IDX 37 50
REMARK H PARENT 27 17 29 19 31 21 33 23 35 25 13 39 43 47 37 51
REMARK Flexibility Score: inf
ROOT
ATOM      1  C   UNL     1      69.911  47.910   6.769  1.00  0.00     0.180 C 
ATOM      2  C   UNL     1      70.292  49.344   7.215  1.00  0.00     0.177 C 
ATOM      3  C   UNL     1      71.742  49.302   7.688  1.00  0.00     0.180 C 
ATOM      4  C   UNL     1      71.841  48.373   8.930  1.00  0.00     0.214 C 
ATOM      5  C   UNL     1      70.791  47.192   8.877  1.00  0.00     0.339 C 
ATOM      6  O   UNL     1      70.407  46.820   7.554  1.00  0.00    -0.332 OA
ENDROOT
BRANCH   1   7
ATOM      7  C   UNL     1      68.376  47.746   6.457  1.00  0.00     0.198 C 
BRANCH   7   8
ATOM      8  O   UNL     1      67.584  46.972   7.385  1.00  0.00    -0.347 OA
BRANCH   8   9
ATOM      9  C   UNL     1      66.199  47.221   7.401  1.00  0.00     0.281 C 
ATOM     10  C   UNL     1      67.432  48.580   9.981  1.00  0.00     0.041 C 
ATOM     11  C   UNL     1      65.999  48.482   9.398  1.00  0.00     0.150 C 
ATOM     12  C   UNL     1      65.062  47.422  10.125  1.00  0.00     0.174 C 
ATOM     13  O   UNL     1      65.926  48.476   7.972  1.00  0.00    -0.344 OA
ATOM     14  C   UNL     1      65.243  46.026   9.517  1.00  0.00     0.179 C 
ATOM     15  C   UNL     1      65.298  46.076   7.960  1.00  0.00     0.202 C 
BRANCH  12  16
ATOM     16  O   UNL     1      63.686  47.808  10.104  1.00  0.00    -0.388 OA
ATOM     17  H   UNL     1      63.144  46.956  10.244  1.00  0.00     0.211 HD
ENDBRANCH  12  16
BRANCH  14  18
ATOM     18  O   UNL     1      66.356  45.335  10.100  1.00  0.00    -0.387 OA
ATOM     19  H   UNL     1      66.341  45.476  11.050  1.00  0.00     0.211 HD
ENDBRANCH  14  18
BRANCH  15  20
ATOM     20  O   UNL     1      65.671  44.860   7.404  1.00  0.00    -0.385 OA
ATOM     21  H   UNL     1      65.238  44.732   6.514  1.00  0.00     0.211 HD
ENDBRANCH  15  20
ENDBRANCH   8   9
ENDBRANCH   7   8
ENDBRANCH   1   7
BRANCH   2  22
ATOM     22  O   UNL     1      70.062  50.271   6.165  1.00  0.00    -0.387 OA
ATOM     23  H   UNL     1      70.283  51.212   6.413  1.00  0.00     0.211 HD
ENDBRANCH   2  22
BRANCH   3  24
ATOM     24  O   UNL     1      72.226  50.598   7.975  1.00  0.00    -0.387 OA
ATOM     25  H   UNL     1      71.771  51.202   7.351  1.00  0.00     0.211 HD
ENDBRANCH   3  24
BRANCH   5  26
ATOM     26  O   UNL     1      71.129  46.029   9.618  1.00  0.00    -0.462 OA
BRANCH  26  27
ATOM     27  C   UNL     1      70.821  44.652   9.454  1.00  0.00     0.130 A 
ATOM     28  C   UNL     1      69.504  44.343   9.113  1.00  0.00     0.093 A 
ATOM     29  C   UNL     1      71.757  43.582   9.414  1.00  0.00     0.094 A 
ATOM     30  C   UNL     1      69.120  43.114   8.519  1.00  0.00     0.133 A 
ATOM     31  C   UNL     1      71.377  42.291   8.940  1.00  0.00     0.138 A 
ATOM     32  C   UNL     1      70.049  42.075   8.465  1.00  0.00     0.102 A 
ATOM     33  O   UNL     1      72.389  41.333   8.612  1.00  0.00    -0.484 OA
ATOM     34  C   UNL     1      69.915  40.900   7.598  1.00  0.00     0.174 C 
ATOM     35  C   UNL     1      72.474  41.007   7.264  1.00  0.00     0.211 C 
ATOM     36  O   UNL     1      69.198  39.866   7.868  1.00  0.00    -0.294 OA
ATOM     37  C   UNL     1      71.102  40.603   6.671  1.00  0.00     0.131 C 
BRANCH  30  38
ATOM     38  O   UNL     1      67.885  42.984   7.851  1.00  0.00    -0.507 OA
ATOM     39  H   UNL     1      67.880  42.955   6.803  1.00  0.00     0.293 HD
ENDBRANCH  30  38
BRANCH  35  40
ATOM     40  C   UNL     1      73.093  42.233   6.540  1.00  0.00    -0.003 A 
ATOM     41  C   UNL     1      72.285  42.764   5.544  1.00  0.00     0.057 A 
ATOM     42  C   UNL     1      74.397  42.745   6.611  1.00  0.00     0.011 A 
ATOM     43  C   UNL     1      72.170  44.157   5.641  1.00  0.00     0.158 A 
ATOM     44  C   UNL     1      74.571  44.103   6.196  1.00  0.00     0.051 A 
ATOM     45  C   UNL     1      73.413  44.869   5.830  1.00  0.00     0.160 A 
BRANCH  43  46
ATOM     46  O   UNL     1      70.977  44.775   5.805  1.00  0.00    -0.504 OA
ATOM     47  H   UNL     1      70.838  45.745   5.425  1.00  0.00     0.293 HD
ENDBRANCH  43  46
BRANCH  45  48
ATOM     48  O   UNL     1      73.437  46.273   5.732  1.00  0.00    -0.493 OA
ATOM     49  C   UNL     1      73.168  46.982   4.534  1.00  0.00     0.278 C 
ENDBRANCH  45  48
ENDBRANCH  35  40
ENDBRANCH  26  27
ENDBRANCH   5  26
BRANCH   4  50
ATOM     50  O   UNL     1      71.684  49.127  10.125  1.00  0.00    -0.384 OA
ATOM     51  H   UNL     1      71.212  48.489  10.737  1.00  0.00     0.211 HD
ENDBRANCH   4  50
TORSDOF 15
ENDMDL
MODEL 7
REMARK VINA RESULT:    -6.437      2.252      6.433
REMARK INTER + INTRA:         -13.070
REMARK INTER:                 -10.059
REMARK INTRA:                  -3.011
REMARK UNBOUND:                -2.494
REMARK SMILES COc1ccc([C@@H]2CC(=O)c3c(O)cc(O[C@@H]4O[C@@H](CO[C@@H]5O[C@H](C)[C@@H](O)[C@H](O)[C@@H]5O)[C@H](O)[C@@H](O)[C@H]4O)cc3O2)cc1O
REMARK SMILES IDX 19 1 32 2 34 3 36 4 17 5 18 6 20 7 21 8 22 9 25 10 24 11
REMARK SMILES IDX 26 12 23 13 28 14 30 15 27 16 29 18 31 20 33 22 35 24 16 26
REMARK SMILES IDX 15 27 14 28 38 29 12 30 39 31 11 32 40 33 9 34 7 35 10 36
REMARK SMILES IDX 8 37 13 38 6 40 41 41 5 42 42 43 4 44 3 45 43 46 2 48 1 49
REMARK SMILES IDX 37 50
REMARK H PARENT 27 17 29 19 31 21 33 23 35 25 13 39 43 47 37 51
REMARK Flexibility Score: inf
ROOT
ATOM      1  C   UNL     1      66.779  45.721   8.588  1.00  0.00     0.180 C 
ATOM      2  C   UNL     1      65.408  45.110   8.201  1.00  0.00     0.177 C 
ATOM      3  C   UNL     1      65.322  43.736   8.857  1.00  0.00     0.180 C 
ATOM      4  C   UNL     1      66.436  42.824   8.268  1.00  0.00     0.214 C 
ATOM      5  C   UNL     1      67.728  43.644   7.869  1.00  0.00     0.339 C 
ATOM      6  O   UNL     1      67.908  44.841   8.624  1.00  0.00    -0.332 OA
ENDROOT
BRANCH   1   7
ATOM      7  C   UNL     1      67.106  47.050   7.809  1.00  0.00     0.198 C 
BRANCH   7   8
ATOM      8  O   UNL     1      68.488  47.308   7.477  1.00  0.00    -0.347 OA
BRANCH   8   9
ATOM      9  C   UNL     1      69.262  47.974   8.446  1.00  0.00     0.281 C 
ATOM     10  C   UNL     1      69.888  49.320   5.650  1.00  0.00     0.041 C 
ATOM     11  C   UNL     1      70.381  49.570   7.098  1.00  0.00     0.150 C 
ATOM     12  C   UNL     1      71.834  49.002   7.407  1.00  0.00     0.174 C 
ATOM     13  O   UNL     1      69.409  49.332   8.116  1.00  0.00    -0.344 OA
ATOM     14  C   UNL     1      71.765  47.534   7.845  1.00  0.00     0.179 C 
ATOM     15  C   UNL     1      70.602  47.285   8.852  1.00  0.00     0.202 C 
BRANCH  12  16
ATOM     16  O   UNL     1      72.529  49.787   8.379  1.00  0.00    -0.388 OA
ATOM     17  H   UNL     1      73.399  50.086   7.940  1.00  0.00     0.211 HD
ENDBRANCH  12  16
BRANCH  14  18
ATOM     18  O   UNL     1      71.735  46.647   6.718  1.00  0.00    -0.387 OA
ATOM     19  H   UNL     1      72.618  46.600   6.342  1.00  0.00     0.211 HD
ENDBRANCH  14  18
BRANCH  15  20
ATOM     20  O   UNL     1      70.391  45.934   9.094  1.00  0.00    -0.385 OA
ATOM     21  H   UNL     1      69.416  45.740   9.182  1.00  0.00     0.211 HD
ENDBRANCH  15  20
ENDBRANCH   8   9
ENDBRANCH   7   8
ENDBRANCH   1   7
BRANCH   2  22
ATOM     22  O   UNL     1      64.351  45.983   8.568  1.00  0.00    -0.387 OA
ATOM     23  H   UNL     1      64.643  46.731   9.159  1.00  0.00     0.211 HD
ENDBRANCH   2  22
BRANCH   3  24
ATOM     24  O   UNL     1      64.043  43.162   8.684  1.00  0.00    -0.387 OA
ATOM     25  H   UNL     1      63.941  43.014   7.720  1.00  0.00     0.211 HD
ENDBRANCH   3  24
BRANCH   5  26
ATOM     26  O   UNL     1      68.943  42.910   7.845  1.00  0.00    -0.462 OA
BRANCH  26  27
ATOM     27  C   UNL     1      69.893  42.642   6.823  1.00  0.00     0.130 A 
ATOM     28  C   UNL     1      71.153  43.223   6.974  1.00  0.00     0.093 A 
ATOM     29  C   UNL     1      69.750  41.694   5.772  1.00  0.00     0.094 A 
ATOM     30  C   UNL     1      72.313  42.751   6.309  1.00  0.00     0.133 A 
ATOM     31  C   UNL     1      70.873  41.287   4.993  1.00  0.00     0.138 A 
ATOM     32  C   UNL     1      72.168  41.808   5.292  1.00  0.00     0.102 A 
ATOM     33  O   UNL     1      70.774  40.121   4.168  1.00  0.00    -0.484 OA
ATOM     34  C   UNL     1      73.268  40.995   4.764  1.00  0.00     0.174 C 
ATOM     35  C   UNL     1      71.575  39.055   4.561  1.00  0.00     0.211 C 
ATOM     36  O   UNL     1      74.119  41.393   3.886  1.00  0.00    -0.294 OA
ATOM     37  C   UNL     1      73.050  39.475   4.769  1.00  0.00     0.131 C 
BRANCH  30  38
ATOM     38  O   UNL     1      73.602  43.100   6.761  1.00  0.00    -0.507 OA
ATOM     39  H   UNL     1      73.754  43.237   7.789  1.00  0.00     0.293 HD
ENDBRANCH  30  38
BRANCH  35  40
ATOM     40  C   UNL     1      70.941  38.464   5.848  1.00  0.00    -0.003 A 
ATOM     41  C   UNL     1      71.772  38.517   6.959  1.00  0.00     0.057 A 
ATOM     42  C   UNL     1      69.758  37.726   6.002  1.00  0.00     0.011 A 
ATOM     43  C   UNL     1      71.117  39.028   8.087  1.00  0.00     0.158 A 
ATOM     44  C   UNL     1      69.198  37.686   7.318  1.00  0.00     0.051 A 
ATOM     45  C   UNL     1      69.815  38.463   8.356  1.00  0.00     0.160 A 
BRANCH  43  46
ATOM     46  O   UNL     1      71.545  40.140   8.731  1.00  0.00    -0.504 OA
ATOM     47  H   UNL     1      70.848  40.869   9.026  1.00  0.00     0.293 HD
ENDBRANCH  43  46
BRANCH  45  48
ATOM     48  O   UNL     1      69.165  38.751   9.571  1.00  0.00    -0.493 OA
ATOM     49  C   UNL     1      68.217  39.793   9.728  1.00  0.00     0.278 C 
ENDBRANCH  45  48
ENDBRANCH  35  40
ENDBRANCH  26  27
ENDBRANCH   5  26
BRANCH   4  50
ATOM     50  O   UNL     1      65.940  42.099   7.151  1.00  0.00    -0.384 OA
ATOM     51  H   UNL     1      65.152  42.643   6.857  1.00  0.00     0.211 HD
ENDBRANCH   4  50
TORSDOF 15
ENDMDL
MODEL 8
REMARK VINA RESULT:    -6.271      2.141      5.223
REMARK INTER + INTRA:         -12.797
REMARK INTER:                  -9.707
REMARK INTRA:                  -3.090
REMARK UNBOUND:                -2.494
REMARK SMILES COc1ccc([C@@H]2CC(=O)c3c(O)cc(O[C@@H]4O[C@@H](CO[C@@H]5O[C@H](C)[C@@H](O)[C@H](O)[C@@H]5O)[C@H](O)[C@@H](O)[C@H]4O)cc3O2)cc1O
REMARK SMILES IDX 19 1 32 2 34 3 36 4 17 5 18 6 20 7 21 8 22 9 25 10 24 11
REMARK SMILES IDX 26 12 23 13 28 14 30 15 27 16 29 18 31 20 33 22 35 24 16 26
REMARK SMILES IDX 15 27 14 28 38 29 12 30 39 31 11 32 40 33 9 34 7 35 10 36
REMARK SMILES IDX 8 37 13 38 6 40 41 41 5 42 42 43 4 44 3 45 43 46 2 48 1 49
REMARK SMILES IDX 37 50
REMARK H PARENT 27 17 29 19 31 21 33 23 35 25 13 39 43 47 37 51
REMARK Flexibility Score: inf
ROOT
ATOM      1  C   UNL     1      71.021  46.597   6.585  1.00  0.00     0.180 C 
ATOM      2  C   UNL     1      71.934  47.580   5.810  1.00  0.00     0.177 C 
ATOM      3  C   UNL     1      72.486  46.830   4.602  1.00  0.00     0.180 C 
ATOM      4  C   UNL     1      73.366  45.648   5.098  1.00  0.00     0.214 C 
ATOM      5  C   UNL     1      72.849  45.056   6.470  1.00  0.00     0.339 C 
ATOM      6  O   UNL     1      71.450  45.235   6.686  1.00  0.00    -0.332 OA
ENDROOT
BRANCH   1   7
ATOM      7  C   UNL     1      70.548  47.159   7.979  1.00  0.00     0.198 C 
BRANCH   7   8
ATOM      8  O   UNL     1      69.175  46.925   8.363  1.00  0.00    -0.347 OA
BRANCH   8   9
ATOM      9  C   UNL     1      68.196  47.104   7.368  1.00  0.00     0.281 C 
ATOM     10  C   UNL     1      66.911  47.981  10.125  1.00  0.00     0.041 C 
ATOM     11  C   UNL     1      66.394  47.935   8.664  1.00  0.00     0.150 C 
ATOM     12  C   UNL     1      65.431  46.712   8.342  1.00  0.00     0.174 C 
ATOM     13  O   UNL     1      67.380  48.208   7.667  1.00  0.00    -0.344 OA
ATOM     14  C   UNL     1      66.238  45.473   7.937  1.00  0.00     0.179 C 
ATOM     15  C   UNL     1      67.393  45.832   6.954  1.00  0.00     0.202 C 
BRANCH  12  16
ATOM     16  O   UNL     1      64.460  47.033   7.343  1.00  0.00    -0.388 OA
ATOM     17  H   UNL     1      64.878  47.752   6.753  1.00  0.00     0.211 HD
ENDBRANCH  12  16
BRANCH  14  18
ATOM     18  O   UNL     1      66.680  44.731   9.082  1.00  0.00    -0.387 OA
ATOM     19  H   UNL     1      66.740  45.331   9.830  1.00  0.00     0.211 HD
ENDBRANCH  14  18
BRANCH  15  20
ATOM     20  O   UNL     1      68.259  44.767   6.743  1.00  0.00    -0.385 OA
ATOM     21  H   UNL     1      69.187  45.094   6.580  1.00  0.00     0.211 HD
ENDBRANCH  15  20
ENDBRANCH   8   9
ENDBRANCH   7   8
ENDBRANCH   1   7
BRANCH   2  22
ATOM     22  O   UNL     1      71.224  48.761   5.473  1.00  0.00    -0.387 OA
ATOM     23  H   UNL     1      70.472  48.602   4.837  1.00  0.00     0.211 HD
ENDBRANCH   2  22
BRANCH   3  24
ATOM     24  O   UNL     1      73.213  47.691   3.751  1.00  0.00    -0.387 OA
ATOM     25  H   UNL     1      73.522  48.432   4.314  1.00  0.00     0.211 HD
ENDBRANCH   3  24
BRANCH   5  26
ATOM     26  O   UNL     1      73.202  43.706   6.733  1.00  0.00    -0.462 OA
BRANCH  26  27
ATOM     27  C   UNL     1      73.137  42.518   5.956  1.00  0.00     0.130 A 
ATOM     28  C   UNL     1      74.222  41.647   6.055  1.00  0.00     0.093 A 
ATOM     29  C   UNL     1      72.000  42.043   5.244  1.00  0.00     0.094 A 
ATOM     30  C   UNL     1      74.154  40.275   5.700  1.00  0.00     0.133 A 
ATOM     31  C   UNL     1      71.946  40.703   4.758  1.00  0.00     0.138 A 
ATOM     32  C   UNL     1      73.029  39.811   5.019  1.00  0.00     0.102 A 
ATOM     33  O   UNL     1      70.693  40.157   4.332  1.00  0.00    -0.484 OA
ATOM     34  C   UNL     1      72.672  38.394   4.895  1.00  0.00     0.174 C 
ATOM     35  C   UNL     1      70.204  39.124   5.123  1.00  0.00     0.211 C 
ATOM     36  O   UNL     1      73.177  37.583   4.035  1.00  0.00    -0.294 OA
ATOM     37  C   UNL     1      71.257  38.011   5.349  1.00  0.00     0.131 C 
BRANCH  30  38
ATOM     38  O   UNL     1      75.122  39.358   6.160  1.00  0.00    -0.507 OA
ATOM     39  H   UNL     1      76.110  39.687   6.279  1.00  0.00     0.293 HD
ENDBRANCH  30  38
BRANCH  35  40
ATOM     40  C   UNL     1      69.723  39.761   6.453  1.00  0.00    -0.003 A 
ATOM     41  C   UNL     1      70.344  39.243   7.581  1.00  0.00     0.057 A 
ATOM     42  C   UNL     1      68.639  40.621   6.689  1.00  0.00     0.011 A 
ATOM     43  C   UNL     1      70.802  40.249   8.442  1.00  0.00     0.158 A 
ATOM     44  C   UNL     1      68.685  41.387   7.896  1.00  0.00     0.051 A 
ATOM     45  C   UNL     1      69.853  41.302   8.726  1.00  0.00     0.160 A 
BRANCH  43  46
ATOM     46  O   UNL     1      72.107  40.373   8.782  1.00  0.00    -0.504 OA
ATOM     47  H   UNL     1      72.564  39.631   9.369  1.00  0.00     0.293 HD
ENDBRANCH  43  46
BRANCH  45  48
ATOM     48  O   UNL     1      70.134  42.243   9.734  1.00  0.00    -0.493 OA
ATOM     49  C   UNL     1      70.068  43.646   9.540  1.00  0.00     0.278 C 
ENDBRANCH  45  48
ENDBRANCH  35  40
ENDBRANCH  26  27
ENDBRANCH   5  26
BRANCH   4  50
ATOM     50  O   UNL     1      74.722  46.057   5.210  1.00  0.00    -0.384 OA
ATOM     51  H   UNL     1      74.963  45.795   6.147  1.00  0.00     0.211 HD
ENDBRANCH   4  50
TORSDOF 15
ENDMDL
MODEL 9
REMARK VINA RESULT:    -6.228      2.938      5.890
REMARK INTER + INTRA:         -12.726
REMARK INTER:                 -11.111
REMARK INTRA:                  -1.616
REMARK UNBOUND:                -2.494
REMARK SMILES COc1ccc([C@@H]2CC(=O)c3c(O)cc(O[C@@H]4O[C@@H](CO[C@@H]5O[C@H](C)[C@@H](O)[C@H](O)[C@@H]5O)[C@H](O)[C@@H](O)[C@H]4O)cc3O2)cc1O
REMARK SMILES IDX 19 1 32 2 34 3 36 4 17 5 18 6 20 7 21 8 22 9 25 10 24 11
REMARK SMILES IDX 26 12 23 13 28 14 30 15 27 16 29 18 31 20 33 22 35 24 16 26
REMARK SMILES IDX 15 27 14 28 38 29 12 30 39 31 11 32 40 33 9 34 7 35 10 36
REMARK SMILES IDX 8 37 13 38 6 40 41 41 5 42 42 43 4 44 3 45 43 46 2 48 1 49
REMARK SMILES IDX 37 50
REMARK H PARENT 27 17 29 19 31 21 33 23 35 25 13 39 43 47 37 51
REMARK Flexibility Score: inf
ROOT
ATOM      1  C   UNL     1      72.175  47.149   5.661  1.00  0.00     0.180 C 
ATOM      2  C   UNL     1      72.996  46.846   4.382  1.00  0.00     0.177 C 
ATOM      3  C   UNL     1      72.633  45.433   3.935  1.00  0.00     0.180 C 
ATOM      4  C   UNL     1      73.072  44.426   5.036  1.00  0.00     0.214 C 
ATOM      5  C   UNL     1      72.982  45.051   6.485  1.00  0.00     0.339 C 
ATOM      6  O   UNL     1      72.010  46.088   6.608  1.00  0.00    -0.332 OA
ENDROOT
BRANCH   1   7
ATOM      7  C   UNL     1      72.603  48.492   6.366  1.00  0.00     0.198 C 
BRANCH   7   8
ATOM      8  O   UNL     1      72.053  48.764   7.675  1.00  0.00    -0.347 OA
BRANCH   8   9
ATOM      9  C   UNL     1      71.043  49.742   7.749  1.00  0.00     0.281 C 
ATOM     10  C   UNL     1      70.550  47.693  10.112  1.00  0.00     0.041 C 
ATOM     11  C   UNL     1      69.829  48.981   9.637  1.00  0.00     0.150 C 
ATOM     12  C   UNL     1      68.484  48.723   8.828  1.00  0.00     0.174 C 
ATOM     13  O   UNL     1      70.683  49.983   9.086  1.00  0.00    -0.344 OA
ATOM     14  C   UNL     1      68.775  48.516   7.336  1.00  0.00     0.179 C 
ATOM     15  C   UNL     1      69.819  49.543   6.803  1.00  0.00     0.202 C 
BRANCH  12  16
ATOM     16  O   UNL     1      67.528  49.768   9.016  1.00  0.00    -0.388 OA
ATOM     17  H   UNL     1      67.488  49.947  10.019  1.00  0.00     0.211 HD
ENDBRANCH  12  16
BRANCH  14  18
ATOM     18  O   UNL     1      69.125  47.155   7.049  1.00  0.00    -0.387 OA
ATOM     19  H   UNL     1      70.056  47.121   6.818  1.00  0.00     0.211 HD
ENDBRANCH  14  18
BRANCH  15  20
ATOM     20  O   UNL     1      70.251  49.241   5.519  1.00  0.00    -0.385 OA
ATOM     21  H   UNL     1      69.833  49.855   4.853  1.00  0.00     0.211 HD
ENDBRANCH  15  20
ENDBRANCH   8   9
ENDBRANCH   7   8
ENDBRANCH   1   7
BRANCH   2  22
ATOM     22  O   UNL     1      72.761  47.835   3.392  1.00  0.00    -0.387 OA
ATOM     23  H   UNL     1      72.891  47.501   2.461  1.00  0.00     0.211 HD
ENDBRANCH   2  22
BRANCH   3  24
ATOM     24  O   UNL     1      73.220  45.122   2.689  1.00  0.00    -0.387 OA
ATOM     25  H   UNL     1      73.233  45.958   2.178  1.00  0.00     0.211 HD
ENDBRANCH   3  24
BRANCH   5  26
ATOM     26  O   UNL     1      72.827  44.125   7.550  1.00  0.00    -0.462 OA
BRANCH  26  27
ATOM     27  C   UNL     1      71.719  43.374   8.027  1.00  0.00     0.130 A 
ATOM     28  C   UNL     1      70.452  43.894   7.762  1.00  0.00     0.093 A 
ATOM     29  C   UNL     1      71.768  42.061   8.573  1.00  0.00     0.094 A 
ATOM     30  C   UNL     1      69.268  43.113   7.784  1.00  0.00     0.133 A 
ATOM     31  C   UNL     1      70.579  41.288   8.731  1.00  0.00     0.138 A 
ATOM     32  C   UNL     1      69.326  41.820   8.304  1.00  0.00     0.102 A 
ATOM     33  O   UNL     1      70.681  39.881   8.979  1.00  0.00    -0.484 OA
ATOM     34  C   UNL     1      68.295  40.801   8.083  1.00  0.00     0.174 C 
ATOM     35  C   UNL     1      70.209  39.070   7.954  1.00  0.00     0.211 C 
ATOM     36  O   UNL     1      67.197  40.713   8.746  1.00  0.00    -0.294 OA
ATOM     37  C   UNL     1      68.779  39.462   7.508  1.00  0.00     0.131 C 
BRANCH  30  38
ATOM     38  O   UNL     1      68.089  43.562   7.154  1.00  0.00    -0.507 OA
ATOM     39  H   UNL     1      68.100  43.715   6.117  1.00  0.00     0.293 HD
ENDBRANCH  30  38
BRANCH  35  40
ATOM     40  C   UNL     1      71.236  39.161   6.795  1.00  0.00    -0.003 A 
ATOM     41  C   UNL     1      70.679  39.532   5.579  1.00  0.00     0.057 A 
ATOM     42  C   UNL     1      72.574  38.742   6.755  1.00  0.00     0.011 A 
ATOM     43  C   UNL     1      71.406  40.553   4.953  1.00  0.00     0.158 A 
ATOM     44  C   UNL     1      73.395  39.330   5.741  1.00  0.00     0.051 A 
ATOM     45  C   UNL     1      72.837  40.356   4.907  1.00  0.00     0.160 A 
BRANCH  43  46
ATOM     46  O   UNL     1      70.853  41.749   4.642  1.00  0.00    -0.504 OA
ATOM     47  H   UNL     1      70.716  42.012   3.634  1.00  0.00     0.293 HD
ENDBRANCH  43  46
BRANCH  45  48
ATOM     48  O   UNL     1      73.636  41.211   4.124  1.00  0.00    -0.493 OA
ATOM     49  C   UNL     1      74.754  40.772   3.372  1.00  0.00     0.278 C 
ENDBRANCH  45  48
ENDBRANCH  35  40
ENDBRANCH  26  27
ENDBRANCH   5  26
BRANCH   4  50
ATOM     50  O   UNL     1      74.387  43.954   4.776  1.00  0.00    -0.384 OA
ATOM     51  H   UNL     1      74.297  42.961   4.877  1.00  0.00     0.211 HD
ENDBRANCH   4  50
TORSDOF 15
ENDMDL
