MODEL 1
REMARK VINA RESULT:    -5.182      0.000      0.000
REMARK INTER + INTRA:          -5.901
REMARK INTER:                  -5.787
REMARK INTRA:                  -0.114
REMARK UNBOUND:                -0.114
REMARK SMILES COc1cc2ccc(=O)oc2cc1OC
REMARK SMILES IDX 3 1 13 2 12 3 11 4 5 5 4 6 6 7 7 8 8 9 9 10 10 11 2 12 1 13
REMARK SMILES IDX 14 14 15 15
REMARK H PARENT
REMARK Flexibility Score: inf
ROOT
ATOM      1  C   UNL     1      18.368  30.807  29.493  1.00  0.00     0.161 A 
ATOM      2  C   UNL     1      18.365  30.038  30.669  1.00  0.00     0.164 A 
ATOM      3  C   UNL     1      18.410  28.632  30.585  1.00  0.00     0.098 A 
ATOM      4  C   UNL     1      18.457  27.999  29.341  1.00  0.00     0.142 A 
ATOM      5  C   UNL     1      18.460  28.770  28.161  1.00  0.00     0.022 A 
ATOM      6  C   UNL     1      18.415  30.167  28.238  1.00  0.00     0.062 A 
ATOM      7  C   UNL     1      18.507  28.106  26.931  1.00  0.00     0.019 A 
ATOM      8  C   UNL     1      18.550  26.712  26.906  1.00  0.00     0.094 A 
ATOM      9  C   UNL     1      18.544  26.013  28.118  1.00  0.00     0.336 A 
ATOM     10  O   UNL     1      18.583  24.755  28.117  1.00  0.00    -0.246 OA
ATOM     11  O   UNL     1      18.499  26.671  29.273  1.00  0.00    -0.423 OA
ENDROOT
BRANCH   1  12
ATOM     12  O   UNL     1      18.322  32.206  29.614  1.00  0.00    -0.493 OA
ATOM     13  C   UNL     1      18.705  33.118  28.590  1.00  0.00     0.278 C 
ENDBRANCH   1  12
BRANCH   2  14
ATOM     14  O   UNL     1      18.318  30.708  31.902  1.00  0.00    -0.493 OA
ATOM     15  C   UNL     1      17.339  30.475  32.910  1.00  0.00     0.278 C 
ENDBRANCH   2  14
TORSDOF 2
ENDMDL
MODEL 2
REMARK VINA RESULT:    -5.081      2.288      6.015
REMARK INTER + INTRA:          -5.788
REMARK INTER:                  -5.683
REMARK INTRA:                  -0.105
REMARK UNBOUND:                -0.114
REMARK SMILES COc1cc2ccc(=O)oc2cc1OC
REMARK SMILES IDX 3 1 13 2 12 3 11 4 5 5 4 6 6 7 7 8 8 9 9 10 10 11 2 12 1 13
REMARK SMILES IDX 14 14 15 15
REMARK H PARENT
REMARK Flexibility Score: inf
ROOT
ATOM      1  C   UNL     1      19.587  27.245  30.936  1.00  0.00     0.161 A 
ATOM      2  C   UNL     1      18.747  28.161  30.280  1.00  0.00     0.164 A 
ATOM      3  C   UNL     1      17.991  29.080  31.034  1.00  0.00     0.098 A 
ATOM      4  C   UNL     1      18.070  29.086  32.428  1.00  0.00     0.142 A 
ATOM      5  C   UNL     1      18.912  28.168  33.087  1.00  0.00     0.022 A 
ATOM      6  C   UNL     1      19.666  27.252  32.344  1.00  0.00     0.062 A 
ATOM      7  C   UNL     1      18.969  28.200  34.484  1.00  0.00     0.019 A 
ATOM      8  C   UNL     1      18.199  29.130  35.181  1.00  0.00     0.094 A 
ATOM      9  C   UNL     1      17.386  30.011  34.459  1.00  0.00     0.336 A 
ATOM     10  O   UNL     1      16.683  30.859  35.069  1.00  0.00    -0.246 OA
ATOM     11  O   UNL     1      17.351  29.959  33.130  1.00  0.00    -0.423 OA
ENDROOT
BRANCH   1  12
ATOM     12  O   UNL     1      20.326  26.343  30.154  1.00  0.00    -0.493 OA
ATOM     13  C   UNL     1      20.741  25.051  30.586  1.00  0.00     0.278 C 
ENDBRANCH   1  12
BRANCH   2  14
ATOM     14  O   UNL     1      18.693  28.126  28.878  1.00  0.00    -0.493 OA
ATOM     15  C   UNL     1      18.308  29.225  28.057  1.00  0.00     0.278 C 
ENDBRANCH   2  14
TORSDOF 2
ENDMDL
MODEL 3
REMARK VINA RESULT:    -5.070      1.342      4.939
REMARK INTER + INTRA:          -5.777
REMARK INTER:                  -5.630
REMARK INTRA:                  -0.146
REMARK UNBOUND:                -0.114
REMARK SMILES COc1cc2ccc(=O)oc2cc1OC
REMARK SMILES IDX 3 1 13 2 12 3 11 4 5 5 4 6 6 7 7 8 8 9 9 10 10 11 2 12 1 13
REMARK SMILES IDX 14 14 15 15
REMARK H PARENT
REMARK Flexibility Score: inf
ROOT
ATOM      1  C   UNL     1      18.487  28.562  27.802  1.00  0.00     0.161 A 
ATOM      2  C   UNL     1      18.263  27.697  28.886  1.00  0.00     0.164 A 
ATOM      3  C   UNL     1      18.133  28.225  30.186  1.00  0.00     0.098 A 
ATOM      4  C   UNL     1      18.225  29.601  30.403  1.00  0.00     0.142 A 
ATOM      5  C   UNL     1      18.450  30.470  29.316  1.00  0.00     0.022 A 
ATOM      6  C   UNL     1      18.580  29.951  28.022  1.00  0.00     0.062 A 
ATOM      7  C   UNL     1      18.538  31.843  29.566  1.00  0.00     0.019 A 
ATOM      8  C   UNL     1      18.402  32.312  30.872  1.00  0.00     0.094 A 
ATOM      9  C   UNL     1      18.180  31.391  31.902  1.00  0.00     0.336 A 
ATOM     10  O   UNL     1      18.054  31.793  33.088  1.00  0.00    -0.246 OA
ATOM     11  O   UNL     1      18.101  30.090  31.635  1.00  0.00    -0.423 OA
ENDROOT
BRANCH   1  12
ATOM     12  O   UNL     1      18.612  28.001  26.520  1.00  0.00    -0.493 OA
ATOM     13  C   UNL     1      19.758  28.139  25.687  1.00  0.00     0.278 C 
ENDBRANCH   1  12
BRANCH   2  14
ATOM     14  O   UNL     1      18.176  26.319  28.631  1.00  0.00    -0.493 OA
ATOM     15  C   UNL     1      19.224  25.385  28.872  1.00  0.00     0.278 C 
ENDBRANCH   2  14
TORSDOF 2
ENDMDL
MODEL 4
REMARK VINA RESULT:    -5.033      1.558      5.578
REMARK INTER + INTRA:          -5.735
REMARK INTER:                  -5.619
REMARK INTRA:                  -0.116
REMARK UNBOUND:                -0.114
REMARK SMILES COc1cc2ccc(=O)oc2cc1OC
REMARK SMILES IDX 3 1 13 2 12 3 11 4 5 5 4 6 6 7 7 8 8 9 9 10 10 11 2 12 1 13
REMARK SMILES IDX 14 14 15 15
REMARK H PARENT
REMARK Flexibility Score: inf
ROOT
ATOM      1  C   UNL     1      18.620  27.165  28.029  1.00  0.00     0.161 A 
ATOM      2  C   UNL     1      18.836  28.288  27.212  1.00  0.00     0.164 A 
ATOM      3  C   UNL     1      18.789  29.580  27.773  1.00  0.00     0.098 A 
ATOM      4  C   UNL     1      18.527  29.751  29.134  1.00  0.00     0.142 A 
ATOM      5  C   UNL     1      18.309  28.625  29.954  1.00  0.00     0.022 A 
ATOM      6  C   UNL     1      18.355  27.339  29.402  1.00  0.00     0.062 A 
ATOM      7  C   UNL     1      18.049  28.830  31.312  1.00  0.00     0.019 A 
ATOM      8  C   UNL     1      18.013  30.130  31.815  1.00  0.00     0.094 A 
ATOM      9  C   UNL     1      18.238  31.199  30.942  1.00  0.00     0.336 A 
ATOM     10  O   UNL     1      18.210  32.381  31.375  1.00  0.00    -0.246 OA
ATOM     11  O   UNL     1      18.483  30.976  29.653  1.00  0.00    -0.423 OA
ENDROOT
BRANCH   1  12
ATOM     12  O   UNL     1      18.675  25.893  27.437  1.00  0.00    -0.493 OA
ATOM     13  C   UNL     1      18.864  24.676  28.152  1.00  0.00     0.278 C 
ENDBRANCH   1  12
BRANCH   2  14
ATOM     14  O   UNL     1      19.097  28.078  25.849  1.00  0.00    -0.493 OA
ATOM     15  C   UNL     1      20.299  28.464  25.188  1.00  0.00     0.278 C 
ENDBRANCH   2  14
TORSDOF 2
ENDMDL
MODEL 5
REMARK VINA RESULT:    -4.979      3.823      5.355
REMARK INTER + INTRA:          -5.675
REMARK INTER:                  -5.537
REMARK INTRA:                  -0.139
REMARK UNBOUND:                -0.114
REMARK SMILES COc1cc2ccc(=O)oc2cc1OC
REMARK SMILES IDX 3 1 13 2 12 3 11 4 5 5 4 6 6 7 7 8 8 9 9 10 10 11 2 12 1 13
REMARK SMILES IDX 14 14 15 15
REMARK H PARENT
REMARK Flexibility Score: inf
ROOT
ATOM      1  C   UNL     1      17.296  30.450  35.000  1.00  0.00     0.161 A 
ATOM      2  C   UNL     1      17.071  30.823  33.664  1.00  0.00     0.164 A 
ATOM      3  C   UNL     1      17.633  30.060  32.621  1.00  0.00     0.098 A 
ATOM      4  C   UNL     1      18.412  28.936  32.908  1.00  0.00     0.142 A 
ATOM      5  C   UNL     1      18.638  28.562  34.247  1.00  0.00     0.022 A 
ATOM      6  C   UNL     1      18.082  29.316  35.288  1.00  0.00     0.062 A 
ATOM      7  C   UNL     1      19.422  27.432  34.500  1.00  0.00     0.019 A 
ATOM      8  C   UNL     1      19.954  26.713  33.431  1.00  0.00     0.094 A 
ATOM      9  C   UNL     1      19.687  27.144  32.127  1.00  0.00     0.336 A 
ATOM     10  O   UNL     1      20.158  26.509  31.147  1.00  0.00    -0.246 OA
ATOM     11  O   UNL     1      18.938  28.223  31.915  1.00  0.00    -0.423 OA
ENDROOT
BRANCH   1  12
ATOM     12  O   UNL     1      16.721  31.233  36.014  1.00  0.00    -0.493 OA
ATOM     13  C   UNL     1      17.458  32.032  36.934  1.00  0.00     0.278 C 
ENDBRANCH   1  12
BRANCH   2  14
ATOM     14  O   UNL     1      16.283  31.958  33.414  1.00  0.00    -0.493 OA
ATOM     15  C   UNL     1      16.795  33.278  33.260  1.00  0.00     0.278 C 
ENDBRANCH   2  14
TORSDOF 2
ENDMDL
MODEL 6
REMARK VINA RESULT:    -4.922      1.536      2.278
REMARK INTER + INTRA:          -5.611
REMARK INTER:                  -5.454
REMARK INTRA:                  -0.158
REMARK UNBOUND:                -0.114
REMARK SMILES COc1cc2ccc(=O)oc2cc1OC
REMARK SMILES IDX 3 1 13 2 12 3 11 4 5 5 4 6 6 7 7 8 8 9 9 10 10 11 2 12 1 13
REMARK SMILES IDX 14 14 15 15
REMARK H PARENT
REMARK Flexibility Score: inf
ROOT
ATOM      1  C   UNL     1      18.420  30.968  31.881  1.00  0.00     0.161 A 
ATOM      2  C   UNL     1      18.414  29.713  32.514  1.00  0.00     0.164 A 
ATOM      3  C   UNL     1      18.381  28.539  31.736  1.00  0.00     0.098 A 
ATOM      4  C   UNL     1      18.353  28.614  30.342  1.00  0.00     0.142 A 
ATOM      5  C   UNL     1      18.358  29.872  29.707  1.00  0.00     0.022 A 
ATOM      6  C   UNL     1      18.391  31.043  30.474  1.00  0.00     0.062 A 
ATOM      7  C   UNL     1      18.329  29.914  28.309  1.00  0.00     0.019 A 
ATOM      8  C   UNL     1      18.296  28.721  27.588  1.00  0.00     0.094 A 
ATOM      9  C   UNL     1      18.293  27.509  28.287  1.00  0.00     0.336 A 
ATOM     10  O   UNL     1      18.264  26.420  27.655  1.00  0.00    -0.246 OA
ATOM     11  O   UNL     1      18.321  27.498  29.617  1.00  0.00    -0.423 OA
ENDROOT
BRANCH   1  12
ATOM     12  O   UNL     1      18.453  32.118  32.687  1.00  0.00    -0.493 OA
ATOM     13  C   UNL     1      17.314  32.905  33.020  1.00  0.00     0.278 C 
ENDBRANCH   1  12
BRANCH   2  14
ATOM     14  O   UNL     1      18.443  29.676  33.917  1.00  0.00    -0.493 OA
ATOM     15  C   UNL     1      17.294  29.524  34.744  1.00  0.00     0.278 C 
ENDBRANCH   2  14
TORSDOF 2
ENDMDL
MODEL 7
REMARK VINA RESULT:    -4.914      1.447      3.052
REMARK INTER + INTRA:          -5.602
REMARK INTER:                  -5.494
REMARK INTRA:                  -0.108
REMARK UNBOUND:                -0.114
REMARK SMILES COc1cc2ccc(=O)oc2cc1OC
REMARK SMILES IDX 3 1 13 2 12 3 11 4 5 5 4 6 6 7 7 8 8 9 9 10 10 11 2 12 1 13
REMARK SMILES IDX 14 14 15 15
REMARK H PARENT
REMARK Flexibility Score: inf
ROOT
ATOM      1  C   UNL     1      18.428  31.404  30.527  1.00  0.00     0.161 A 
ATOM      2  C   UNL     1      18.484  31.888  29.209  1.00  0.00     0.164 A 
ATOM      3  C   UNL     1      18.429  30.984  28.129  1.00  0.00     0.098 A 
ATOM      4  C   UNL     1      18.321  29.611  28.361  1.00  0.00     0.142 A 
ATOM      5  C   UNL     1      18.265  29.125  29.683  1.00  0.00     0.022 A 
ATOM      6  C   UNL     1      18.319  30.018  30.760  1.00  0.00     0.062 A 
ATOM      7  C   UNL     1      18.156  27.745  29.882  1.00  0.00     0.019 A 
ATOM      8  C   UNL     1      18.106  26.895  28.777  1.00  0.00     0.094 A 
ATOM      9  C   UNL     1      18.167  27.449  27.494  1.00  0.00     0.336 A 
ATOM     10  O   UNL     1      18.123  26.700  26.484  1.00  0.00    -0.246 OA
ATOM     11  O   UNL     1      18.270  28.766  27.334  1.00  0.00    -0.423 OA
ENDROOT
BRANCH   1  12
ATOM     12  O   UNL     1      18.486  32.333  31.579  1.00  0.00    -0.493 OA
ATOM     13  C   UNL     1      17.679  32.277  32.751  1.00  0.00     0.278 C 
ENDBRANCH   1  12
BRANCH   2  14
ATOM     14  O   UNL     1      18.593  33.274  29.014  1.00  0.00    -0.493 OA
ATOM     15  C   UNL     1      19.016  33.887  27.800  1.00  0.00     0.278 C 
ENDBRANCH   2  14
TORSDOF 2
ENDMDL
MODEL 8
REMARK VINA RESULT:    -4.863      2.351      5.293
REMARK INTER + INTRA:          -5.545
REMARK INTER:                  -5.386
REMARK INTRA:                  -0.158
REMARK UNBOUND:                -0.114
REMARK SMILES COc1cc2ccc(=O)oc2cc1OC
REMARK SMILES IDX 3 1 13 2 12 3 11 4 5 5 4 6 6 7 7 8 8 9 9 10 10 11 2 12 1 13
REMARK SMILES IDX 14 14 15 15
REMARK H PARENT
REMARK Flexibility Score: inf
ROOT
ATOM      1  C   UNL     1      18.809  27.925  29.357  1.00  0.00     0.161 A 
ATOM      2  C   UNL     1      19.626  27.005  30.036  1.00  0.00     0.164 A 
ATOM      3  C   UNL     1      19.726  27.064  31.441  1.00  0.00     0.098 A 
ATOM      4  C   UNL     1      19.020  28.030  32.161  1.00  0.00     0.142 A 
ATOM      5  C   UNL     1      18.201  28.953  31.480  1.00  0.00     0.022 A 
ATOM      6  C   UNL     1      18.096  28.900  30.085  1.00  0.00     0.062 A 
ATOM      7  C   UNL     1      17.507  29.908  32.230  1.00  0.00     0.019 A 
ATOM      8  C   UNL     1      17.643  29.921  33.618  1.00  0.00     0.094 A 
ATOM      9  C   UNL     1      18.475  28.974  34.225  1.00  0.00     0.336 A 
ATOM     10  O   UNL     1      18.611  28.968  35.476  1.00  0.00    -0.246 OA
ATOM     11  O   UNL     1      19.123  28.076  33.487  1.00  0.00    -0.423 OA
ENDROOT
BRANCH   1  12
ATOM     12  O   UNL     1      18.732  27.838  27.957  1.00  0.00    -0.493 OA
ATOM     13  C   UNL     1      17.574  27.430  27.236  1.00  0.00     0.278 C 
ENDBRANCH   1  12
BRANCH   2  14
ATOM     14  O   UNL     1      20.321  26.048  29.280  1.00  0.00    -0.493 OA
ATOM     15  C   UNL     1      19.896  24.701  29.097  1.00  0.00     0.278 C 
ENDBRANCH   2  14
TORSDOF 2
ENDMDL
MODEL 9
REMARK VINA RESULT:    -4.839      2.515      6.679
REMARK INTER + INTRA:          -5.518
REMARK INTER:                  -5.408
REMARK INTRA:                  -0.110
REMARK UNBOUND:                -0.114
REMARK SMILES COc1cc2ccc(=O)oc2cc1OC
REMARK SMILES IDX 3 1 13 2 12 3 11 4 5 5 4 6 6 7 7 8 8 9 9 10 10 11 2 12 1 13
REMARK SMILES IDX 14 14 15 15
REMARK H PARENT
REMARK Flexibility Score: inf
ROOT
ATOM      1  C   UNL     1      19.087  27.783  32.890  1.00  0.00     0.161 A 
ATOM      2  C   UNL     1      18.736  28.397  31.676  1.00  0.00     0.164 A 
ATOM      3  C   UNL     1      18.010  29.605  31.688  1.00  0.00     0.098 A 
ATOM      4  C   UNL     1      17.636  30.193  32.897  1.00  0.00     0.142 A 
ATOM      5  C   UNL     1      17.986  29.578  34.116  1.00  0.00     0.022 A 
ATOM      6  C   UNL     1      18.708  28.378  34.111  1.00  0.00     0.062 A 
ATOM      7  C   UNL     1      17.596  30.192  35.310  1.00  0.00     0.019 A 
ATOM      8  C   UNL     1      16.878  31.387  35.263  1.00  0.00     0.094 A 
ATOM      9  C   UNL     1      16.566  31.940  34.017  1.00  0.00     0.336 A 
ATOM     10  O   UNL     1      15.919  33.018  33.953  1.00  0.00    -0.246 OA
ATOM     11  O   UNL     1      16.949  31.334  32.897  1.00  0.00    -0.423 OA
ENDROOT
BRANCH   1  12
ATOM     12  O   UNL     1      19.810  26.580  32.841  1.00  0.00    -0.493 OA
ATOM     13  C   UNL     1      20.602  26.070  33.910  1.00  0.00     0.278 C 
ENDBRANCH   1  12
BRANCH   2  14
ATOM     14  O   UNL     1      19.130  27.777  30.479  1.00  0.00    -0.493 OA
ATOM     15  C   UNL     1      18.277  27.576  29.356  1.00  0.00     0.278 C 
ENDBRANCH   2  14
TORSDOF 2
ENDMDL
