MODEL 1
REMARK VINA RESULT:    12.279      0.000      0.000
REMARK INTER + INTRA:          17.796
REMARK INTER:                  16.586
REMARK INTRA:                   1.210
REMARK UNBOUND:                 1.210
REMARK SMILES C=C1C(=O)O[C@@H]2[C@H]3O[C@@]3(C)CCC=C(C)CC[C@@H]12
REMARK SMILES IDX 6 1 18 2 2 3 1 4 3 5 4 6 5 7 17 8 16 9 14 10 15 11 13 12
REMARK SMILES IDX 7 14 9 15 8 16 10 17 11 18 12 19
REMARK H PARENT
REMARK Flexibility Score: 70.00
ROOT
ATOM      1  C   UNL     1       9.657  11.555  16.483  1.00  0.00     0.216 C 
ATOM      2  C   UNL     1       9.520   9.999  16.500  1.00  0.00     0.070 C 
ATOM      3  C   UNL     1       8.696   9.758  17.732  1.00  0.00     0.037 C 
ATOM      4  C   UNL     1       8.413   8.579  18.285  1.00  0.00     0.021 C 
ATOM      5  C   UNL     1       8.115  11.026  18.108  1.00  0.00     0.334 C 
ATOM      6  O   UNL     1       7.259  11.202  19.015  1.00  0.00    -0.247 OA
ATOM      7  O   UNL     1       8.600  12.037  17.307  1.00  0.00    -0.455 OA
ENDROOT
BRANCH   2   8
ATOM      8  C   UNL     1      10.905   9.303  16.524  1.00  0.00     0.017 C 
BRANCH   8   9
ATOM      9  C   UNL     1      11.952   9.785  15.486  1.00  0.00     0.031 C 
BRANCH   9  10
ATOM     10  C   UNL     1      11.815   9.288  14.049  1.00  0.00    -0.077 C 
ATOM     11  C   UNL     1      11.245   7.911  13.811  1.00  0.00     0.039 C 
ATOM     12  C   UNL     1      12.249   9.976  12.965  1.00  0.00    -0.028 CG0
ATOM     13  G   UNL     1      12.715  11.410  12.961  1.00  0.00     0.000 G0
ENDBRANCH   9  10
ENDBRANCH   8   9
ENDBRANCH   2   8
BRANCH   1  14
ATOM     14  C   UNL     1       9.702  12.339  15.145  1.00  0.00     0.192 C 
ATOM     15  C   UNL     1      10.839  12.751  14.240  1.00  0.00     0.096 C 
ATOM     16  O   UNL     1      10.481  13.504  15.367  1.00  0.00    -0.362 OA
ATOM     17  C   UNL     1      10.442  13.464  12.944  1.00  0.00     0.045 C 
BRANCH  15  18
ATOM     18  C   UNL     1      12.234  12.089  14.274  1.00  0.00     0.042 C 
BRANCH  18  19
ATOM     19  C   UNL     1      12.698  11.400  12.966  1.00  0.00     0.030 CG0
ATOM     20  G   UNL     1      12.250   9.960  12.955  1.00  0.00     0.000 G0
ENDBRANCH  18  19
ENDBRANCH  15  18
ENDBRANCH   1  14
TORSDOF 0
ENDMDL
MODEL 2
REMARK VINA RESULT:    12.366      2.443      5.279
REMARK INTER + INTRA:          17.914
REMARK INTER:                  16.743
REMARK INTRA:                   1.171
REMARK UNBOUND:                 1.210
REMARK SMILES C=C1C(=O)O[C@@H]2[C@H]3O[C@@]3(C)CCC=C(C)CC[C@@H]12
REMARK SMILES IDX 6 1 18 2 2 3 1 4 3 5 4 6 5 7 17 8 16 9 14 10 15 11 13 12
REMARK SMILES IDX 7 14 9 15 8 16 10 17 11 18 12 19
REMARK H PARENT
REMARK Flexibility Score: 70.00
ROOT
ATOM      1  C   UNL     1      12.015  12.161  13.513  1.00  0.00     0.216 C 
ATOM      2  C   UNL     1      12.886  10.864  13.490  1.00  0.00     0.070 C 
ATOM      3  C   UNL     1      13.687  11.032  12.231  1.00  0.00     0.037 C 
ATOM      4  C   UNL     1      14.488  10.128  11.668  1.00  0.00     0.021 C 
ATOM      5  C   UNL     1      13.573  12.417  11.838  1.00  0.00     0.334 C 
ATOM      6  O   UNL     1      14.211  12.971  10.903  1.00  0.00    -0.247 OA
ATOM      7  O   UNL     1      12.684  13.081  12.655  1.00  0.00    -0.455 OA
ENDROOT
BRANCH   2   8
ATOM      8  C   UNL     1      12.008   9.586  13.511  1.00  0.00     0.017 C 
BRANCH   8   9
ATOM      9  C   UNL     1      10.853   9.544  14.544  1.00  0.00     0.031 C 
BRANCH   9  10
ATOM     10  C   UNL     1      11.178   9.081  15.962  1.00  0.00    -0.077 C 
ATOM     11  C   UNL     1      12.256   8.043  16.154  1.00  0.00     0.039 C 
ATOM     12  C   UNL     1      10.503   9.486  17.065  1.00  0.00    -0.028 CG0
ATOM     13  G   UNL     1       9.496  10.607  17.119  1.00  0.00     0.000 G0
ENDBRANCH   9  10
ENDBRANCH   8   9
ENDBRANCH   2   8
BRANCH   1  14
ATOM     14  C   UNL     1      11.637  12.846  14.853  1.00  0.00     0.192 C 
ATOM     15  C   UNL     1      10.463  12.681  15.789  1.00  0.00     0.096 C 
ATOM     16  O   UNL     1      10.393  13.500  14.653  1.00  0.00    -0.362 OA
ATOM     17  C   UNL     1      10.506  13.513  17.075  1.00  0.00     0.045 C 
BRANCH  15  18
ATOM     18  C   UNL     1       9.548  11.436  15.792  1.00  0.00     0.042 C 
BRANCH  18  19
ATOM     19  C   UNL     1       9.501  10.624  17.110  1.00  0.00     0.030 CG0
ATOM     20  G   UNL     1      10.489   9.486  17.051  1.00  0.00     0.000 G0
ENDBRANCH  18  19
ENDBRANCH  15  18
ENDBRANCH   1  14
TORSDOF 0
ENDMDL
MODEL 3
REMARK VINA RESULT:    13.214      1.785      2.761
REMARK INTER + INTRA:          19.059
REMARK INTER:                  18.446
REMARK INTRA:                   0.613
REMARK UNBOUND:                 1.210
REMARK SMILES C=C1C(=O)O[C@@H]2[C@H]3O[C@@]3(C)CCC=C(C)CC[C@@H]12
REMARK SMILES IDX 6 1 18 2 2 3 1 4 3 5 4 6 5 7 17 8 16 9 14 10 15 11 13 12
REMARK SMILES IDX 7 14 9 15 8 16 10 17 11 18 12 19
REMARK H PARENT
REMARK Flexibility Score: 70.00
ROOT
ATOM      1  C   UNL     1      10.713  11.342  15.690  1.00  0.00     0.216 C 
ATOM      2  C   UNL     1      11.215  10.093  14.898  1.00  0.00     0.070 C 
ATOM      3  C   UNL     1      11.187   9.013  15.940  1.00  0.00     0.037 C 
ATOM      4  C   UNL     1      11.662   7.773  15.818  1.00  0.00     0.021 C 
ATOM      5  C   UNL     1      10.390   9.505  17.039  1.00  0.00     0.334 C 
ATOM      6  O   UNL     1      10.031   8.835  18.044  1.00  0.00    -0.247 OA
ATOM      7  O   UNL     1      10.034  10.819  16.829  1.00  0.00    -0.455 OA
ENDROOT
BRANCH   2   8
ATOM      8  C   UNL     1      12.616  10.334  14.279  1.00  0.00     0.017 C 
BRANCH   8   9
ATOM      9  C   UNL     1      12.720  10.283  12.732  1.00  0.00     0.031 C 
BRANCH   9  10
ATOM     10  C   UNL     1      13.612  11.312  12.042  1.00  0.00    -0.077 C 
ATOM     11  C   UNL     1      14.575  10.837  10.982  1.00  0.00     0.039 C 
ATOM     12  C   UNL     1      13.654  12.625  12.377  1.00  0.00    -0.028 CG0
ATOM     13  G   UNL     1      12.692  13.330  13.299  1.00  0.00     0.000 G0
ENDBRANCH   9  10
ENDBRANCH   8   9
ENDBRANCH   2   8
BRANCH   1  14
ATOM     14  C   UNL     1       9.852  12.433  15.000  1.00  0.00     0.192 C 
ATOM     15  C   UNL     1      10.120  13.364  13.841  1.00  0.00     0.096 C 
ATOM     16  O   UNL     1      10.543  13.665  15.144  1.00  0.00    -0.362 OA
ATOM     17  C   UNL     1       8.952  14.258  13.414  1.00  0.00     0.045 C 
BRANCH  15  18
ATOM     18  C   UNL     1      11.234  13.123  12.799  1.00  0.00     0.042 C 
BRANCH  18  19
ATOM     19  C   UNL     1      12.689  13.333  13.290  1.00  0.00     0.030 CG0
ATOM     20  G   UNL     1      13.651  12.625  12.369  1.00  0.00     0.000 G0
ENDBRANCH  18  19
ENDBRANCH  15  18
ENDBRANCH   1  14
TORSDOF 0
ENDMDL
MODEL 4
REMARK VINA RESULT:    14.558      2.657      4.959
REMARK INTER + INTRA:          20.875
REMARK INTER:                  20.174
REMARK INTRA:                   0.700
REMARK UNBOUND:                 1.210
REMARK SMILES C=C1C(=O)O[C@@H]2[C@H]3O[C@@]3(C)CCC=C(C)CC[C@@H]12
REMARK SMILES IDX 6 1 18 2 2 3 1 4 3 5 4 6 5 7 17 8 16 9 14 10 15 11 13 12
REMARK SMILES IDX 7 14 9 15 8 16 10 17 11 18 12 19
REMARK H PARENT
REMARK Flexibility Score: 70.00
ROOT
ATOM      1  C   UNL     1      11.308  11.815  14.237  1.00  0.00     0.216 C 
ATOM      2  C   UNL     1      11.438  10.396  14.878  1.00  0.00     0.070 C 
ATOM      3  C   UNL     1      11.982   9.575  13.744  1.00  0.00     0.037 C 
ATOM      4  C   UNL     1      12.142   8.252  13.722  1.00  0.00     0.021 C 
ATOM      5  C   UNL     1      12.472  10.499  12.749  1.00  0.00     0.334 C 
ATOM      6  O   UNL     1      13.117  10.189  11.712  1.00  0.00    -0.247 OA
ATOM      7  O   UNL     1      12.168  11.796  13.101  1.00  0.00    -0.455 OA
ENDROOT
BRANCH   2   8
ATOM      8  C   UNL     1      10.078   9.889  15.425  1.00  0.00     0.017 C 
BRANCH   8   9
ATOM      9  C   UNL     1      10.033   9.470  16.917  1.00  0.00     0.031 C 
BRANCH   9  10
ATOM     10  C   UNL     1       8.834   9.918  17.749  1.00  0.00    -0.077 C 
ATOM     11  C   UNL     1       8.249   8.954  18.751  1.00  0.00     0.039 C 
ATOM     12  C   UNL     1       8.205  11.109  17.592  1.00  0.00    -0.028 CG0
ATOM     13  G   UNL     1       8.701  12.263  16.758  1.00  0.00     0.000 G0
ENDBRANCH   9  10
ENDBRANCH   8   9
ENDBRANCH   2   8
BRANCH   1  14
ATOM     14  C   UNL     1      11.548  13.096  15.077  1.00  0.00     0.192 C 
ATOM     15  C   UNL     1      10.890  13.639  16.324  1.00  0.00     0.096 C 
ATOM     16  O   UNL     1      10.344  13.848  15.050  1.00  0.00    -0.362 OA
ATOM     17  C   UNL     1      11.488  14.929  16.894  1.00  0.00     0.045 C 
BRANCH  15  18
ATOM     18  C   UNL     1      10.057  12.768  17.291  1.00  0.00     0.042 C 
BRANCH  18  19
ATOM     19  C   UNL     1       8.698  12.255  16.752  1.00  0.00     0.030 CG0
ATOM     20  G   UNL     1       8.202  11.115  17.606  1.00  0.00     0.000 G0
ENDBRANCH  18  19
ENDBRANCH  15  18
ENDBRANCH   1  14
TORSDOF 0
ENDMDL
MODEL 5
REMARK VINA RESULT:    14.641      1.798      4.126
REMARK INTER + INTRA:          20.986
REMARK INTER:                  21.029
REMARK INTRA:                  -0.042
REMARK UNBOUND:                 1.210
REMARK SMILES C=C1C(=O)O[C@@H]2[C@H]3O[C@@]3(C)CCC=C(C)CC[C@@H]12
REMARK SMILES IDX 6 1 18 2 2 3 1 4 3 5 4 6 5 7 17 8 16 9 14 10 15 11 13 12
REMARK SMILES IDX 7 14 9 15 8 16 10 17 11 18 12 19
REMARK H PARENT
REMARK Flexibility Score: 70.00
ROOT
ATOM      1  C   UNL     1       9.861  12.619  16.861  1.00  0.00     0.216 C 
ATOM      2  C   UNL     1      10.850  12.909  15.687  1.00  0.00     0.070 C 
ATOM      3  C   UNL     1      11.550  14.153  16.151  1.00  0.00     0.037 C 
ATOM      4  C   UNL     1      12.398  14.901  15.446  1.00  0.00     0.021 C 
ATOM      5  C   UNL     1      11.278  14.292  17.562  1.00  0.00     0.334 C 
ATOM      6  O   UNL     1      11.799  15.143  18.331  1.00  0.00    -0.247 OA
ATOM      7  O   UNL     1      10.383  13.331  17.979  1.00  0.00    -0.455 OA
ENDROOT
BRANCH   2   8
ATOM      8  C   UNL     1      10.103  13.072  14.338  1.00  0.00     0.017 C 
BRANCH   8   9
ATOM      9  C   UNL     1      10.735  12.389  13.098  1.00  0.00     0.031 C 
BRANCH   9  10
ATOM     10  C   UNL     1      12.079  11.686  13.276  1.00  0.00    -0.077 C 
ATOM     11  C   UNL     1      13.329  12.383  12.798  1.00  0.00     0.039 C 
ATOM     12  C   UNL     1      12.217  10.430  13.768  1.00  0.00    -0.028 CG0
ATOM     13  G   UNL     1      11.131   9.617  14.425  1.00  0.00     0.000 G0
ENDBRANCH   9  10
ENDBRANCH   8   9
ENDBRANCH   2   8
BRANCH   1  14
ATOM     14  C   UNL     1       9.504  11.164  17.265  1.00  0.00     0.192 C 
ATOM     15  C   UNL     1       9.975   9.819  16.763  1.00  0.00     0.096 C 
ATOM     16  O   UNL     1       8.955  10.533  16.117  1.00  0.00    -0.362 OA
ATOM     17  C   UNL     1       9.420   8.595  17.498  1.00  0.00     0.045 C 
BRANCH  15  18
ATOM     18  C   UNL     1      11.283   9.622  15.965  1.00  0.00     0.042 C 
BRANCH  18  19
ATOM     19  C   UNL     1      11.145   9.583  14.423  1.00  0.00     0.030 CG0
ATOM     20  G   UNL     1      12.215  10.435  13.788  1.00  0.00     0.000 G0
ENDBRANCH  18  19
ENDBRANCH  15  18
ENDBRANCH   1  14
TORSDOF 0
ENDMDL
MODEL 6
REMARK VINA RESULT:    15.230      2.770      4.078
REMARK INTER + INTRA:          21.781
REMARK INTER:                  20.684
REMARK INTRA:                   1.097
REMARK UNBOUND:                 1.210
REMARK SMILES C=C1C(=O)O[C@@H]2[C@H]3O[C@@]3(C)CCC=C(C)CC[C@@H]12
REMARK SMILES IDX 6 1 18 2 2 3 1 4 3 5 4 6 5 7 17 8 16 9 14 10 15 11 13 12
REMARK SMILES IDX 7 14 9 15 8 16 10 17 11 18 12 19
REMARK H PARENT
REMARK Flexibility Score: 70.00
ROOT
ATOM      1  C   UNL     1      11.411  10.283  14.858  1.00  0.00     0.216 C 
ATOM      2  C   UNL     1      10.921  10.451  16.332  1.00  0.00     0.070 C 
ATOM      3  C   UNL     1      10.888   9.034  16.827  1.00  0.00     0.037 C 
ATOM      4  C   UNL     1      10.399   8.608  17.991  1.00  0.00     0.021 C 
ATOM      5  C   UNL     1      11.646   8.239  15.891  1.00  0.00     0.334 C 
ATOM      6  O   UNL     1      11.952   7.026  16.035  1.00  0.00    -0.247 OA
ATOM      7  O   UNL     1      12.032   9.001  14.810  1.00  0.00    -0.455 OA
ENDROOT
BRANCH   2   8
ATOM      8  C   UNL     1       9.552  11.175  16.400  1.00  0.00     0.017 C 
BRANCH   8   9
ATOM      9  C   UNL     1       9.556  12.642  16.900  1.00  0.00     0.031 C 
BRANCH   9  10
ATOM     10  C   UNL     1      10.584  13.599  16.300  1.00  0.00    -0.077 C 
ATOM     11  C   UNL     1      11.609  14.225  17.214  1.00  0.00     0.039 C 
ATOM     12  C   UNL     1      10.590  13.988  15.002  1.00  0.00    -0.028 CG0
ATOM     13  G   UNL     1       9.756  13.387  13.899  1.00  0.00     0.000 G0
ENDBRANCH   9  10
ENDBRANCH   8   9
ENDBRANCH   2   8
BRANCH   1  14
ATOM     14  C   UNL     1      12.318  11.350  14.189  1.00  0.00     0.192 C 
ATOM     15  C   UNL     1      12.059  12.386  13.121  1.00  0.00     0.096 C 
ATOM     16  O   UNL     1      12.360  11.054  12.801  1.00  0.00    -0.362 OA
ATOM     17  C   UNL     1      13.229  13.317  12.790  1.00  0.00     0.045 C 
BRANCH  15  18
ATOM     18  C   UNL     1      10.645  12.877  12.740  1.00  0.00     0.042 C 
BRANCH  18  19
ATOM     19  C   UNL     1       9.753  13.368  13.908  1.00  0.00     0.030 CG0
ATOM     20  G   UNL     1      10.607  13.996  14.981  1.00  0.00     0.000 G0
ENDBRANCH  18  19
ENDBRANCH  15  18
ENDBRANCH   1  14
TORSDOF 0
ENDMDL
