MODEL 1
REMARK VINA RESULT:    -2.687      0.000      0.000
REMARK INTER + INTRA:          -3.281
REMARK INTER:                  -3.158
REMARK INTRA:                  -0.123
REMARK UNBOUND:                -0.123
REMARK SMILES O=C([O-])CCC(=O)[O-]
REMARK SMILES IDX 4 1 2 2 1 3 3 4 5 5 6 6 7 7 8 8
REMARK H PARENT
REMARK Flexibility Score: inf
ROOT
ATOM      1  C   UNL     1      -6.762  30.354 106.772  1.00  0.00     0.059 C 
ENDROOT
BRANCH   1   2
ATOM      2  C   UNL     1      -5.755  29.393 107.319  1.00  0.00     0.042 C 
ATOM      3  O   UNL     1      -6.123  28.447 108.065  1.00  0.00    -0.550 OA
ATOM      4  O   UNL     1      -4.417  29.512 106.968  1.00  0.00    -0.550 OA
ENDBRANCH   1   2
BRANCH   1   5
ATOM      5  C   UNL     1      -7.239  29.900 105.391  1.00  0.00     0.059 C 
BRANCH   5   6
ATOM      6  C   UNL     1      -6.680  30.789 104.325  1.00  0.00     0.042 C 
ATOM      7  O   UNL     1      -7.382  31.715 103.841  1.00  0.00    -0.550 OA
ATOM      8  O   UNL     1      -5.367  30.626 103.901  1.00  0.00    -0.550 OA
ENDBRANCH   5   6
ENDBRANCH   1   5
TORSDOF 3
ENDMDL
MODEL 2
REMARK VINA RESULT:    -2.686      0.098      3.830
REMARK INTER + INTRA:          -3.280
REMARK INTER:                  -3.159
REMARK INTRA:                  -0.122
REMARK UNBOUND:                -0.123
REMARK SMILES O=C([O-])CCC(=O)[O-]
REMARK SMILES IDX 4 1 2 2 1 3 3 4 5 5 6 6 7 7 8 8
REMARK H PARENT
REMARK Flexibility Score: inf
ROOT
ATOM      1  C   UNL     1      -7.258  29.875 105.375  1.00  0.00     0.059 C 
ENDROOT
BRANCH   1   2
ATOM      2  C   UNL     1      -6.716  30.803 104.335  1.00  0.00     0.042 C 
ATOM      3  O   UNL     1      -5.557  30.629 103.873  1.00  0.00    -0.550 OA
ATOM      4  O   UNL     1      -7.506  31.832 103.840  1.00  0.00    -0.550 OA
ENDBRANCH   1   2
BRANCH   1   5
ATOM      5  C   UNL     1      -6.818  30.321 106.771  1.00  0.00     0.059 C 
BRANCH   5   6
ATOM      6  C   UNL     1      -5.795  29.379 107.323  1.00  0.00     0.042 C 
ATOM      7  O   UNL     1      -6.147  28.429 108.071  1.00  0.00    -0.550 OA
ATOM      8  O   UNL     1      -4.458  29.520 106.973  1.00  0.00    -0.550 OA
ENDBRANCH   5   6
ENDBRANCH   1   5
TORSDOF 3
ENDMDL
MODEL 3
REMARK VINA RESULT:    -2.636     18.031     20.199
REMARK INTER + INTRA:          -3.221
REMARK INTER:                  -3.141
REMARK INTRA:                  -0.080
REMARK UNBOUND:                -0.123
REMARK SMILES O=C([O-])CCC(=O)[O-]
REMARK SMILES IDX 4 1 2 2 1 3 3 4 5 5 6 6 7 7 8 8
REMARK H PARENT
REMARK Flexibility Score: inf
ROOT
ATOM      1  C   UNL     1     -18.830  41.512  93.766  1.00  0.00     0.059 C 
ENDROOT
BRANCH   1   2
ATOM      2  C   UNL     1     -19.852  40.538  93.271  1.00  0.00     0.042 C 
ATOM      3  O   UNL     1     -19.612  39.301  93.295  1.00  0.00    -0.550 OA
ATOM      4  O   UNL     1     -21.088  40.991  92.828  1.00  0.00    -0.550 OA
ENDBRANCH   1   2
BRANCH   1   5
ATOM      5  C   UNL     1     -18.625  41.352  95.273  1.00  0.00     0.059 C 
BRANCH   5   6
ATOM      6  C   UNL     1     -17.268  40.790  95.560  1.00  0.00     0.042 C 
ATOM      7  O   UNL     1     -16.248  41.292  95.018  1.00  0.00    -0.550 OA
ATOM      8  O   UNL     1     -17.124  39.744  96.463  1.00  0.00    -0.550 OA
ENDBRANCH   5   6
ENDBRANCH   1   5
TORSDOF 3
ENDMDL
MODEL 4
REMARK VINA RESULT:    -2.567     18.534     20.178
REMARK INTER + INTRA:          -3.141
REMARK INTER:                  -3.020
REMARK INTRA:                  -0.120
REMARK UNBOUND:                -0.123
REMARK SMILES O=C([O-])CCC(=O)[O-]
REMARK SMILES IDX 4 1 2 2 1 3 3 4 5 5 6 6 7 7 8 8
REMARK H PARENT
REMARK Flexibility Score: inf
ROOT
ATOM      1  C   UNL     1     -18.230  41.138  94.907  1.00  0.00     0.059 C 
ENDROOT
BRANCH   1   2
ATOM      2  C   UNL     1     -16.857  40.671  94.541  1.00  0.00     0.042 C 
ATOM      3  O   UNL     1     -15.856  41.079  95.187  1.00  0.00    -0.550 OA
ATOM      4  O   UNL     1     -16.686  39.748  93.517  1.00  0.00    -0.550 OA
ENDBRANCH   1   2
BRANCH   1   5
ATOM      5  C   UNL     1     -19.010  41.540  93.654  1.00  0.00     0.059 C 
BRANCH   5   6
ATOM      6  C   UNL     1     -20.150  40.600  93.423  1.00  0.00     0.042 C 
ATOM      7  O   UNL     1     -21.116  40.943  92.692  1.00  0.00    -0.550 OA
ATOM      8  O   UNL     1     -20.124  39.325  93.975  1.00  0.00    -0.550 OA
ENDBRANCH   5   6
ENDBRANCH   1   5
TORSDOF 3
ENDMDL
MODEL 5
REMARK VINA RESULT:    -2.562     19.001     20.623
REMARK INTER + INTRA:          -3.134
REMARK INTER:                  -3.107
REMARK INTRA:                  -0.028
REMARK UNBOUND:                -0.123
REMARK SMILES O=C([O-])CCC(=O)[O-]
REMARK SMILES IDX 4 1 2 2 1 3 3 4 5 5 6 6 7 7 8 8
REMARK H PARENT
REMARK Flexibility Score: inf
ROOT
ATOM      1  C   UNL     1     -19.035  39.900  93.719  1.00  0.00     0.059 C 
ENDROOT
BRANCH   1   2
ATOM      2  C   UNL     1     -19.986  39.870  92.565  1.00  0.00     0.042 C 
ATOM      3  O   UNL     1     -21.117  40.417  92.662  1.00  0.00    -0.550 OA
ATOM      4  O   UNL     1     -19.608  39.280  91.366  1.00  0.00    -0.550 OA
ENDBRANCH   1   2
BRANCH   1   5
ATOM      5  C   UNL     1     -18.658  41.342  94.064  1.00  0.00     0.059 C 
BRANCH   5   6
ATOM      6  C   UNL     1     -17.720  41.373  95.229  1.00  0.00     0.042 C 
ATOM      7  O   UNL     1     -18.168  41.503  96.399  1.00  0.00    -0.550 OA
ATOM      8  O   UNL     1     -16.355  41.211  95.028  1.00  0.00    -0.550 OA
ENDBRANCH   5   6
ENDBRANCH   1   5
TORSDOF 3
ENDMDL
MODEL 6
REMARK VINA RESULT:    -2.551     18.176     19.945
REMARK INTER + INTRA:          -3.121
REMARK INTER:                  -3.039
REMARK INTRA:                  -0.082
REMARK UNBOUND:                -0.123
REMARK SMILES O=C([O-])CCC(=O)[O-]
REMARK SMILES IDX 4 1 2 2 1 3 3 4 5 5 6 6 7 7 8 8
REMARK H PARENT
REMARK Flexibility Score: inf
ROOT
ATOM      1  C   UNL     1     -17.577  41.178  94.552  1.00  0.00     0.059 C 
ENDROOT
BRANCH   1   2
ATOM      2  C   UNL     1     -17.842  40.914  96.000  1.00  0.00     0.042 C 
ATOM      3  O   UNL     1     -18.486  41.750  96.689  1.00  0.00    -0.550 OA
ATOM      4  O   UNL     1     -17.420  39.724  96.579  1.00  0.00    -0.550 OA
ENDBRANCH   1   2
BRANCH   1   5
ATOM      5  C   UNL     1     -18.875  41.536  93.827  1.00  0.00     0.059 C 
BRANCH   5   6
ATOM      6  C   UNL     1     -19.326  40.398  92.967  1.00  0.00     0.042 C 
ATOM      7  O   UNL     1     -18.510  39.502  92.625  1.00  0.00    -0.550 OA
ATOM      8  O   UNL     1     -20.658  40.300  92.585  1.00  0.00    -0.550 OA
ENDBRANCH   5   6
ENDBRANCH   1   5
TORSDOF 3
ENDMDL
MODEL 7
REMARK VINA RESULT:    -2.495      1.850      3.476
REMARK INTER + INTRA:          -3.056
REMARK INTER:                  -2.875
REMARK INTRA:                  -0.181
REMARK UNBOUND:                -0.123
REMARK SMILES O=C([O-])CCC(=O)[O-]
REMARK SMILES IDX 4 1 2 2 1 3 3 4 5 5 6 6 7 7 8 8
REMARK H PARENT
REMARK Flexibility Score: inf
ROOT
ATOM      1  C   UNL     1      -6.998  28.709 107.246  1.00  0.00     0.059 C 
ENDROOT
BRANCH   1   2
ATOM      2  C   UNL     1      -7.695  29.771 106.457  1.00  0.00     0.042 C 
ATOM      3  O   UNL     1      -8.557  30.507 107.008  1.00  0.00    -0.550 OA
ATOM      4  O   UNL     1      -7.362  29.981 105.125  1.00  0.00    -0.550 OA
ENDBRANCH   1   2
BRANCH   1   5
ATOM      5  C   UNL     1      -6.092  29.338 108.306  1.00  0.00     0.059 C 
BRANCH   5   6
ATOM      6  C   UNL     1      -4.996  30.124 107.659  1.00  0.00     0.042 C 
ATOM      7  O   UNL     1      -4.172  29.553 106.897  1.00  0.00    -0.550 OA
ATOM      8  O   UNL     1      -4.913  31.497 107.858  1.00  0.00    -0.550 OA
ENDBRANCH   5   6
ENDBRANCH   1   5
TORSDOF 3
ENDMDL
MODEL 8
REMARK VINA RESULT:    -2.476     19.750     20.464
REMARK INTER + INTRA:          -3.034
REMARK INTER:                  -2.930
REMARK INTRA:                  -0.104
REMARK UNBOUND:                -0.123
REMARK SMILES O=C([O-])CCC(=O)[O-]
REMARK SMILES IDX 4 1 2 2 1 3 3 4 5 5 6 6 7 7 8 8
REMARK H PARENT
REMARK Flexibility Score: inf
ROOT
ATOM      1  C   UNL     1     -19.261  41.382  93.433  1.00  0.00     0.059 C 
ENDROOT
BRANCH   1   2
ATOM      2  C   UNL     1     -18.389  41.321  94.646  1.00  0.00     0.042 C 
ATOM      3  O   UNL     1     -18.894  41.097  95.778  1.00  0.00    -0.550 OA
ATOM      4  O   UNL     1     -17.014  41.464  94.522  1.00  0.00    -0.550 OA
ENDBRANCH   1   2
BRANCH   1   5
ATOM      5  C   UNL     1     -19.852  40.004  93.129  1.00  0.00     0.059 C 
BRANCH   5   6
ATOM      6  C   UNL     1     -19.010  39.282  92.125  1.00  0.00     0.042 C 
ATOM      7  O   UNL     1     -19.359  39.243  90.916  1.00  0.00    -0.550 OA
ATOM      8  O   UNL     1     -17.813  38.695  92.516  1.00  0.00    -0.550 OA
ENDBRANCH   5   6
ENDBRANCH   1   5
TORSDOF 3
ENDMDL
MODEL 9
REMARK VINA RESULT:    -2.474      2.071      2.875
REMARK INTER + INTRA:          -3.031
REMARK INTER:                  -2.918
REMARK INTRA:                  -0.113
REMARK UNBOUND:                -0.123
REMARK SMILES O=C([O-])CCC(=O)[O-]
REMARK SMILES IDX 4 1 2 2 1 3 3 4 5 5 6 6 7 7 8 8
REMARK H PARENT
REMARK Flexibility Score: inf
ROOT
ATOM      1  C   UNL     1      -6.760  30.474 107.245  1.00  0.00     0.059 C 
ENDROOT
BRANCH   1   2
ATOM      2  C   UNL     1      -5.748  29.411 107.537  1.00  0.00     0.042 C 
ATOM      3  O   UNL     1      -4.563  29.535 107.127  1.00  0.00    -0.550 OA
ATOM      4  O   UNL     1      -6.100  28.307 108.301  1.00  0.00    -0.550 OA
ENDBRANCH   1   2
BRANCH   1   5
ATOM      5  C   UNL     1      -7.445  30.206 105.904  1.00  0.00     0.059 C 
BRANCH   5   6
ATOM      6  C   UNL     1      -8.530  29.189 106.064  1.00  0.00     0.042 C 
ATOM      7  O   UNL     1      -8.370  28.019 105.628  1.00  0.00    -0.550 OA
ATOM      8  O   UNL     1      -9.700  29.520 106.737  1.00  0.00    -0.550 OA
ENDBRANCH   5   6
ENDBRANCH   1   5
TORSDOF 3
ENDMDL
