MODEL 1
REMARK VINA RESULT:    -4.085      0.000      0.000
REMARK INTER + INTRA:          -4.371
REMARK INTER:                  -5.041
REMARK INTRA:                   0.670
REMARK UNBOUND:                 0.670
REMARK SMILES C=C1CC[C@H]2[C@@H]1[C@@H]1[C@@H](CC[C@@H]2C)C1(C)C
REMARK SMILES IDX 6 1 5 2 4 3 3 4 2 5 1 6 11 7 12 8 10 9 7 11 8 12 13 13 14 14
REMARK SMILES IDX 15 15 9 16
REMARK H PARENT
REMARK Flexibility Score: 80.00
ROOT
ATOM      1  C   UNL     1     140.070 135.876 132.750  1.00  0.00     0.022 C 
ATOM      2  C   UNL     1     140.239 137.362 132.254  1.00  0.00    -0.000 C 
ATOM      3  C   UNL     1     139.707 138.222 133.430  1.00  0.00     0.009 C 
ATOM      4  C   UNL     1     138.803 137.342 134.284  1.00  0.00     0.031 C 
ATOM      5  C   UNL     1     139.270 135.963 134.007  1.00  0.00    -0.074 C 
ATOM      6  C   UNL     1     139.236 134.993 134.932  1.00  0.00     0.008 C 
ENDROOT
BRANCH   2   7
ATOM      7  C   UNL     1     139.609 137.863 130.887  1.00  0.00    -0.011 C 
ATOM      8  C   UNL     1     140.150 139.269 130.551  1.00  0.00     0.008 C 
BRANCH   7   9
ATOM      9  C   UNL     1     139.863 136.944 129.655  1.00  0.00     0.004 CG0
ATOM     10  G   UNL     1     138.844 135.789 129.526  1.00  0.00     0.000 G0
ENDBRANCH   7   9
ENDBRANCH   2   7
BRANCH   1  11
ATOM     11  C   UNL     1     139.614 134.836 131.695  1.00  0.00     0.006 C 
ATOM     12  C   UNL     1     138.380 135.382 130.948  1.00  0.00    -0.001 C 
ATOM     13  C   UNL     1     138.348 133.969 131.514  1.00  0.00    -0.029 C 
ATOM     14  C   UNL     1     138.436 132.827 130.489  1.00  0.00     0.012 C 
ATOM     15  C   UNL     1     137.344 133.765 132.655  1.00  0.00     0.012 C 
BRANCH  12  16
ATOM     16  C   UNL     1     138.833 135.804 129.551  1.00  0.00     0.005 CG0
ATOM     17  G   UNL     1     139.880 136.936 129.645  1.00  0.00     0.000 G0
ENDBRANCH  12  16
ENDBRANCH   1  11
TORSDOF 0
ENDMDL
MODEL 2
REMARK VINA RESULT:    -4.030      3.175      4.585
REMARK INTER + INTRA:          -4.302
REMARK INTER:                  -4.997
REMARK INTRA:                   0.695
REMARK UNBOUND:                 0.670
REMARK SMILES C=C1CC[C@H]2[C@@H]1[C@@H]1[C@@H](CC[C@@H]2C)C1(C)C
REMARK SMILES IDX 6 1 5 2 4 3 3 4 2 5 1 6 11 7 12 8 10 9 7 11 8 12 13 13 14 14
REMARK SMILES IDX 15 15 9 16
REMARK H PARENT
REMARK Flexibility Score: 80.00
ROOT
ATOM      1  C   UNL     1     135.679 133.638 132.335  1.00  0.00     0.022 C 
ATOM      2  C   UNL     1     137.056 133.461 131.590  1.00  0.00    -0.000 C 
ATOM      3  C   UNL     1     138.122 133.726 132.685  1.00  0.00     0.009 C 
ATOM      4  C   UNL     1     137.460 134.527 133.800  1.00  0.00     0.031 C 
ATOM      5  C   UNL     1     136.019 134.204 133.673  1.00  0.00    -0.074 C 
ATOM      6  C   UNL     1     135.201 134.143 134.733  1.00  0.00     0.008 C 
ENDROOT
BRANCH   2   7
ATOM      7  C   UNL     1     137.408 134.281 130.279  1.00  0.00    -0.011 C 
ATOM      8  C   UNL     1     138.684 133.701 129.631  1.00  0.00     0.008 C 
BRANCH   7   9
ATOM      9  C   UNL     1     136.292 134.318 129.192  1.00  0.00     0.004 CG0
ATOM     10  G   UNL     1     135.243 135.428 129.424  1.00  0.00     0.000 G0
ENDBRANCH   7   9
ENDBRANCH   2   7
BRANCH   1  11
ATOM     11  C   UNL     1     134.542 134.334 131.544  1.00  0.00     0.006 C 
ATOM     12  C   UNL     1     135.079 135.647 130.938  1.00  0.00    -0.001 C 
ATOM     13  C   UNL     1     133.768 135.660 131.712  1.00  0.00    -0.029 C 
ATOM     14  C   UNL     1     132.490 135.823 130.875  1.00  0.00     0.012 C 
ATOM     15  C   UNL     1     133.813 136.456 133.022  1.00  0.00     0.012 C 
BRANCH  12  16
ATOM     16  C   UNL     1     135.259 135.425 129.437  1.00  0.00     0.005 CG0
ATOM     17  G   UNL     1     136.300 134.311 129.180  1.00  0.00     0.000 G0
ENDBRANCH  12  16
ENDBRANCH   1  11
TORSDOF 0
ENDMDL
MODEL 3
REMARK VINA RESULT:    -3.969      4.680      6.217
REMARK INTER + INTRA:          -4.227
REMARK INTER:                  -4.995
REMARK INTRA:                   0.768
REMARK UNBOUND:                 0.670
REMARK SMILES C=C1CC[C@H]2[C@@H]1[C@@H]1[C@@H](CC[C@@H]2C)C1(C)C
REMARK SMILES IDX 6 1 5 2 4 3 3 4 2 5 1 6 11 7 12 8 10 9 7 11 8 12 13 13 14 14
REMARK SMILES IDX 15 15 9 16
REMARK H PARENT
REMARK Flexibility Score: 80.00
ROOT
ATOM      1  C   UNL     1     133.738 138.071 132.657  1.00  0.00     0.022 C 
ATOM      2  C   UNL     1     133.425 136.613 132.150  1.00  0.00    -0.000 C 
ATOM      3  C   UNL     1     133.973 135.691 133.271  1.00  0.00     0.009 C 
ATOM      4  C   UNL     1     134.998 136.484 134.071  1.00  0.00     0.031 C 
ATOM      5  C   UNL     1     134.616 137.899 133.851  1.00  0.00    -0.074 C 
ATOM      6  C   UNL     1     134.788 138.844 134.786  1.00  0.00     0.008 C 
ENDROOT
BRANCH   2   7
ATOM      7  C   UNL     1     133.917 136.097 130.733  1.00  0.00    -0.011 C 
ATOM      8  C   UNL     1     133.206 134.771 130.388  1.00  0.00     0.008 C 
BRANCH   7   9
ATOM      9  C   UNL     1     133.696 137.082 129.547  1.00  0.00     0.004 CG0
ATOM     10  G   UNL     1     134.832 138.117 129.387  1.00  0.00     0.000 G0
ENDBRANCH   7   9
ENDBRANCH   2   7
BRANCH   1  11
ATOM     11  C   UNL     1     134.194 139.098 131.589  1.00  0.00     0.006 C 
ATOM     12  C   UNL     1     135.370 138.504 130.787  1.00  0.00    -0.001 C 
ATOM     13  C   UNL     1     135.487 139.910 131.358  1.00  0.00    -0.029 C 
ATOM     14  C   UNL     1     135.406 141.061 130.344  1.00  0.00     0.012 C 
ATOM     15  C   UNL     1     136.547 140.062 132.456  1.00  0.00     0.012 C 
BRANCH  12  16
ATOM     16  C   UNL     1     134.840 138.112 129.408  1.00  0.00     0.005 CG0
ATOM     17  G   UNL     1     133.695 137.083 129.546  1.00  0.00     0.000 G0
ENDBRANCH  12  16
ENDBRANCH   1  11
TORSDOF 0
ENDMDL
MODEL 4
REMARK VINA RESULT:    -3.929      2.791      5.195
REMARK INTER + INTRA:          -4.177
REMARK INTER:                  -4.827
REMARK INTRA:                   0.650
REMARK UNBOUND:                 0.670
REMARK SMILES C=C1CC[C@H]2[C@@H]1[C@@H]1[C@@H](CC[C@@H]2C)C1(C)C
REMARK SMILES IDX 6 1 5 2 4 3 3 4 2 5 1 6 11 7 12 8 10 9 7 11 8 12 13 13 14 14
REMARK SMILES IDX 15 15 9 16
REMARK H PARENT
REMARK Flexibility Score: 80.00
ROOT
ATOM      1  C   UNL     1     139.628 139.132 131.508  1.00  0.00     0.022 C 
ATOM      2  C   UNL     1     139.979 137.985 132.529  1.00  0.00    -0.000 C 
ATOM      3  C   UNL     1     140.588 136.860 131.649  1.00  0.00     0.009 C 
ATOM      4  C   UNL     1     140.126 137.086 130.215  1.00  0.00     0.031 C 
ATOM      5  C   UNL     1     139.819 138.534 130.154  1.00  0.00    -0.074 C 
ATOM      6  C   UNL     1     140.001 139.261 129.042  1.00  0.00     0.008 C 
ENDROOT
BRANCH   2   7
ATOM      7  C   UNL     1     138.889 137.377 133.508  1.00  0.00    -0.011 C 
ATOM      8  C   UNL     1     139.575 136.460 134.543  1.00  0.00     0.008 C 
BRANCH   7   9
ATOM      9  C   UNL     1     138.031 138.419 134.285  1.00  0.00     0.004 CG0
ATOM     10  G   UNL     1     136.807 138.925 133.489  1.00  0.00     0.000 G0
ENDBRANCH   7   9
ENDBRANCH   2   7
BRANCH   1  11
ATOM     11  C   UNL     1     138.311 139.909 131.756  1.00  0.00     0.006 C 
ATOM     12  C   UNL     1     137.165 138.901 131.980  1.00  0.00    -0.001 C 
ATOM     13  C   UNL     1     136.977 140.040 130.988  1.00  0.00    -0.029 C 
ATOM     14  C   UNL     1     136.036 141.172 131.430  1.00  0.00     0.012 C 
ATOM     15  C   UNL     1     136.843 139.594 129.527  1.00  0.00     0.012 C 
BRANCH  12  16
ATOM     16  C   UNL     1     136.823 138.910 133.469  1.00  0.00     0.005 CG0
ATOM     17  G   UNL     1     138.032 138.425 134.301  1.00  0.00     0.000 G0
ENDBRANCH  12  16
ENDBRANCH   1  11
TORSDOF 0
ENDMDL
MODEL 5
REMARK VINA RESULT:    -3.908      3.873      5.815
REMARK INTER + INTRA:          -4.151
REMARK INTER:                  -4.949
REMARK INTRA:                   0.798
REMARK UNBOUND:                 0.670
REMARK SMILES C=C1CC[C@H]2[C@@H]1[C@@H]1[C@@H](CC[C@@H]2C)C1(C)C
REMARK SMILES IDX 6 1 5 2 4 3 3 4 2 5 1 6 11 7 12 8 10 9 7 11 8 12 13 13 14 14
REMARK SMILES IDX 15 15 9 16
REMARK H PARENT
REMARK Flexibility Score: 80.00
ROOT
ATOM      1  C   UNL     1     135.349 133.654 132.339  1.00  0.00     0.022 C 
ATOM      2  C   UNL     1     134.300 134.565 131.597  1.00  0.00    -0.000 C 
ATOM      3  C   UNL     1     134.869 134.716 130.162  1.00  0.00     0.009 C 
ATOM      4  C   UNL     1     136.360 134.408 130.214  1.00  0.00     0.031 C 
ATOM      5  C   UNL     1     136.512 133.547 131.411  1.00  0.00    -0.074 C 
ATOM      6  C   UNL     1     137.431 132.574 131.484  1.00  0.00     0.008 C 
ENDROOT
BRANCH   2   7
ATOM      7  C   UNL     1     133.877 135.985 132.165  1.00  0.00    -0.011 C 
ATOM      8  C   UNL     1     132.616 136.484 131.428  1.00  0.00     0.008 C 
BRANCH   7   9
ATOM      9  C   UNL     1     133.590 136.035 133.695  1.00  0.00     0.004 CG0
ATOM     10  G   UNL     1     134.857 136.250 134.554  1.00  0.00     0.000 G0
ENDBRANCH   7   9
ENDBRANCH   2   7
BRANCH   1  11
ATOM     11  C   UNL     1     135.656 134.004 133.817  1.00  0.00     0.006 C 
ATOM     12  C   UNL     1     136.038 135.496 133.913  1.00  0.00    -0.001 C 
ATOM     13  C   UNL     1     136.925 134.452 134.577  1.00  0.00    -0.029 C 
ATOM     14  C   UNL     1     136.866 134.390 136.111  1.00  0.00     0.012 C 
ATOM     15  C   UNL     1     138.321 134.320 133.957  1.00  0.00     0.012 C 
BRANCH  12  16
ATOM     16  C   UNL     1     134.858 136.236 134.543  1.00  0.00     0.005 CG0
ATOM     17  G   UNL     1     133.579 136.022 133.703  1.00  0.00     0.000 G0
ENDBRANCH  12  16
ENDBRANCH   1  11
TORSDOF 0
ENDMDL
MODEL 6
REMARK VINA RESULT:    -3.896      2.017      4.700
REMARK INTER + INTRA:          -4.137
REMARK INTER:                  -4.970
REMARK INTRA:                   0.833
REMARK UNBOUND:                 0.670
REMARK SMILES C=C1CC[C@H]2[C@@H]1[C@@H]1[C@@H](CC[C@@H]2C)C1(C)C
REMARK SMILES IDX 6 1 5 2 4 3 3 4 2 5 1 6 11 7 12 8 10 9 7 11 8 12 13 13 14 14
REMARK SMILES IDX 15 15 9 16
REMARK H PARENT
REMARK Flexibility Score: 80.00
ROOT
ATOM      1  C   UNL     1     140.130 135.570 132.257  1.00  0.00     0.022 C 
ATOM      2  C   UNL     1     139.346 134.421 131.517  1.00  0.00    -0.000 C 
ATOM      3  C   UNL     1     139.253 134.905 130.045  1.00  0.00     0.009 C 
ATOM      4  C   UNL     1     139.452 136.416 130.036  1.00  0.00     0.031 C 
ATOM      5  C   UNL     1     140.218 136.690 131.275  1.00  0.00    -0.074 C 
ATOM      6  C   UNL     1     141.118 137.680 131.359  1.00  0.00     0.008 C 
ENDROOT
BRANCH   2   7
ATOM      7  C   UNL     1     137.924 133.925 132.015  1.00  0.00    -0.011 C 
ATOM      8  C   UNL     1     137.572 132.586 131.332  1.00  0.00     0.008 C 
BRANCH   7   9
ATOM      9  C   UNL     1     137.786 133.728 133.555  1.00  0.00     0.004 CG0
ATOM     10  G   UNL     1     137.426 135.026 134.312  1.00  0.00     0.000 G0
ENDBRANCH   7   9
ENDBRANCH   2   7
BRANCH   1  11
ATOM     11  C   UNL     1     139.660 135.924 133.690  1.00  0.00     0.006 C 
ATOM     12  C   UNL     1     138.148 136.224 133.666  1.00  0.00    -0.001 C 
ATOM     13  C   UNL     1     139.093 137.199 134.354  1.00  0.00    -0.029 C 
ATOM     14  C   UNL     1     139.049 137.214 135.890  1.00  0.00     0.012 C 
ATOM     15  C   UNL     1     139.194 138.570 133.676  1.00  0.00     0.012 C 
BRANCH  12  16
ATOM     16  C   UNL     1     137.429 135.035 134.302  1.00  0.00     0.005 CG0
ATOM     17  G   UNL     1     137.796 133.728 133.564  1.00  0.00     0.000 G0
ENDBRANCH  12  16
ENDBRANCH   1  11
TORSDOF 0
ENDMDL
MODEL 7
REMARK VINA RESULT:    -3.869      3.014      5.035
REMARK INTER + INTRA:          -4.104
REMARK INTER:                  -4.902
REMARK INTRA:                   0.798
REMARK UNBOUND:                 0.670
REMARK SMILES C=C1CC[C@H]2[C@@H]1[C@@H]1[C@@H](CC[C@@H]2C)C1(C)C
REMARK SMILES IDX 6 1 5 2 4 3 3 4 2 5 1 6 11 7 12 8 10 9 7 11 8 12 13 13 14 14
REMARK SMILES IDX 15 15 9 16
REMARK H PARENT
REMARK Flexibility Score: 80.00
ROOT
ATOM      1  C   UNL     1     138.321 140.114 132.133  1.00  0.00     0.022 C 
ATOM      2  C   UNL     1     139.427 139.288 131.373  1.00  0.00    -0.000 C 
ATOM      3  C   UNL     1     138.878 139.149 129.929  1.00  0.00     0.009 C 
ATOM      4  C   UNL     1     137.371 139.368 129.977  1.00  0.00     0.031 C 
ATOM      5  C   UNL     1     137.160 140.181 131.198  1.00  0.00    -0.074 C 
ATOM      6  C   UNL     1     136.185 141.097 131.293  1.00  0.00     0.008 C 
ENDROOT
BRANCH   2   7
ATOM      7  C   UNL     1     139.928 137.879 131.901  1.00  0.00    -0.011 C 
ATOM      8  C   UNL     1     141.221 137.477 131.160  1.00  0.00     0.008 C 
BRANCH   7   9
ATOM      9  C   UNL     1     140.208 137.798 133.432  1.00  0.00     0.004 CG0
ATOM     10  G   UNL     1     138.948 137.493 134.273  1.00  0.00     0.000 G0
ENDBRANCH   7   9
ENDBRANCH   2   7
BRANCH   1  11
ATOM     11  C   UNL     1     138.025 139.701 133.597  1.00  0.00     0.006 C 
ATOM     12  C   UNL     1     137.732 138.187 133.645  1.00  0.00    -0.001 C 
ATOM     13  C   UNL     1     136.780 139.155 134.331  1.00  0.00    -0.029 C 
ATOM     14  C   UNL     1     136.823 139.173 135.867  1.00  0.00     0.012 C 
ATOM     15  C   UNL     1     135.383 139.223 133.703  1.00  0.00     0.012 C 
BRANCH  12  16
ATOM     16  C   UNL     1     138.949 137.499 134.263  1.00  0.00     0.005 CG0
ATOM     17  G   UNL     1     140.218 137.808 133.436  1.00  0.00     0.000 G0
ENDBRANCH  12  16
ENDBRANCH   1  11
TORSDOF 0
ENDMDL
MODEL 8
REMARK VINA RESULT:    -3.858      3.783      5.664
REMARK INTER + INTRA:          -4.089
REMARK INTER:                  -4.774
REMARK INTRA:                   0.685
REMARK UNBOUND:                 0.670
REMARK SMILES C=C1CC[C@H]2[C@@H]1[C@@H]1[C@@H](CC[C@@H]2C)C1(C)C
REMARK SMILES IDX 6 1 5 2 4 3 3 4 2 5 1 6 11 7 12 8 10 9 7 11 8 12 13 13 14 14
REMARK SMILES IDX 15 15 9 16
REMARK H PARENT
REMARK Flexibility Score: 80.00
ROOT
ATOM      1  C   UNL     1     134.170 134.447 131.249  1.00  0.00     0.022 C 
ATOM      2  C   UNL     1     133.681 135.522 132.292  1.00  0.00    -0.000 C 
ATOM      3  C   UNL     1     133.006 136.618 131.426  1.00  0.00     0.009 C 
ATOM      4  C   UNL     1     133.540 136.487 130.004  1.00  0.00     0.031 C 
ATOM      5  C   UNL     1     133.977 135.074 129.909  1.00  0.00    -0.074 C 
ATOM      6  C   UNL     1     133.903 134.374 128.768  1.00  0.00     0.008 C 
ENDROOT
BRANCH   2   7
ATOM      7  C   UNL     1     134.674 136.188 133.334  1.00  0.00    -0.011 C 
ATOM      8  C   UNL     1     133.869 136.988 134.380  1.00  0.00     0.008 C 
BRANCH   7   9
ATOM      9  C   UNL     1     135.605 135.199 134.098  1.00  0.00     0.004 CG0
ATOM     10  G   UNL     1     136.896 134.846 133.325  1.00  0.00     0.000 G0
ENDBRANCH   7   9
ENDBRANCH   2   7
BRANCH   1  11
ATOM     11  C   UNL     1     135.542 133.781 131.525  1.00  0.00     0.006 C 
ATOM     12  C   UNL     1     136.588 134.879 131.808  1.00  0.00    -0.001 C 
ATOM     13  C   UNL     1     136.906 133.784 130.799  1.00  0.00    -0.029 C 
ATOM     14  C   UNL     1     137.927 132.727 131.248  1.00  0.00     0.012 C 
ATOM     15  C   UNL     1     137.046 134.274 129.354  1.00  0.00     0.012 C 
BRANCH  12  16
ATOM     16  C   UNL     1     136.883 134.864 133.307  1.00  0.00     0.005 CG0
ATOM     17  G   UNL     1     135.604 135.196 134.109  1.00  0.00     0.000 G0
ENDBRANCH  12  16
ENDBRANCH   1  11
TORSDOF 0
ENDMDL
MODEL 9
REMARK VINA RESULT:    -3.844      2.704      3.947
REMARK INTER + INTRA:          -4.073
REMARK INTER:                  -4.802
REMARK INTRA:                   0.729
REMARK UNBOUND:                 0.670
REMARK SMILES C=C1CC[C@H]2[C@@H]1[C@@H]1[C@@H](CC[C@@H]2C)C1(C)C
REMARK SMILES IDX 6 1 5 2 4 3 3 4 2 5 1 6 11 7 12 8 10 9 7 11 8 12 13 13 14 14
REMARK SMILES IDX 15 15 9 16
REMARK H PARENT
REMARK Flexibility Score: 80.00
ROOT
ATOM      1  C   UNL     1     138.283 139.797 133.106  1.00  0.00     0.022 C 
ATOM      2  C   UNL     1     136.847 140.131 132.551  1.00  0.00    -0.000 C 
ATOM      3  C   UNL     1     135.889 139.756 133.713  1.00  0.00     0.009 C 
ATOM      4  C   UNL     1     136.621 138.782 134.628  1.00  0.00     0.031 C 
ATOM      5  C   UNL     1     138.056 139.063 134.385  1.00  0.00    -0.074 C 
ATOM      6  C   UNL     1     138.983 138.943 135.346  1.00  0.00     0.008 C 
ENDROOT
BRANCH   2   7
ATOM      7  C   UNL     1     136.314 139.518 131.189  1.00  0.00    -0.011 C 
ATOM      8  C   UNL     1     135.020 140.243 130.763  1.00  0.00     0.008 C 
BRANCH   7   9
ATOM      9  C   UNL     1     137.311 139.575 129.993  1.00  0.00     0.004 CG0
ATOM     10  G   UNL     1     138.305 138.391 129.962  1.00  0.00     0.000 G0
ENDBRANCH   7   9
ENDBRANCH   2   7
BRANCH   1  11
ATOM     11  C   UNL     1     139.290 139.176 132.106  1.00  0.00     0.006 C 
ATOM     12  C   UNL     1     138.629 137.971 131.406  1.00  0.00    -0.001 C 
ATOM     13  C   UNL     1     140.016 137.816 132.014  1.00  0.00    -0.029 C 
ATOM     14  C   UNL     1     141.184 137.724 131.019  1.00  0.00     0.012 C 
ATOM     15  C   UNL     1     140.082 136.857 133.208  1.00  0.00     0.012 C 
BRANCH  12  16
ATOM     16  C   UNL     1     138.292 138.393 129.977  1.00  0.00     0.005 CG0
ATOM     17  G   UNL     1     137.308 139.584 129.986  1.00  0.00     0.000 G0
ENDBRANCH  12  16
ENDBRANCH   1  11
TORSDOF 0
ENDMDL
