MODEL 1
REMARK VINA RESULT:    49.150      0.000      0.000
REMARK INTER + INTRA:          72.164
REMARK INTER:                  64.953
REMARK INTRA:                   7.211
REMARK UNBOUND:                 7.211
REMARK SMILES CC[C@H](C=C[C@@H](C)[C@H]1CC[C@H]2[C@H]3CC=C4C[C@H](O)CC[C@]4(C)[C@H]3CC[C@@]12C)C(C)C
REMARK SMILES IDX 6 1 7 2 5 3 4 4 3 5 2 6 1 7 28 8 29 9 30 10 8 11 9 12 26 13
REMARK SMILES IDX 10 14 11 15 25 16 27 17 12 18 24 19 23 20 13 21 21 22 14 23
REMARK SMILES IDX 15 24 20 25 22 26 16 27 19 28 17 29 18 30
REMARK H PARENT 18 31
REMARK Flexibility Score: inf
ROOT
ATOM      1  C   UNL     1     -41.460  22.230   8.251  1.00  0.00     0.012 C 
ATOM      2  C   UNL     1     -41.449  20.751   7.839  1.00  0.00     0.012 C 
ENDROOT
BRANCH   1   3
ATOM      3  C   UNL     1     -41.850  23.055   7.042  1.00  0.00    -0.028 C 
ATOM      4  C   UNL     1     -41.740  24.394   7.027  1.00  0.00    -0.027 C 
BRANCH   4   5
ATOM      5  C   UNL     1     -42.124  25.258   5.837  1.00  0.00     0.014 C 
BRANCH   5   6
ATOM      6  C   UNL     1     -41.630  26.721   5.975  1.00  0.00     0.004 C 
ATOM      7  C   UNL     1     -42.016  27.577   4.766  1.00  0.00     0.004 C 
ENDBRANCH   5   6
BRANCH   5   8
ATOM      8  C   UNL     1     -41.744  24.624   4.466  1.00  0.00    -0.011 C 
ATOM      9  C   UNL     1     -40.694  23.517   4.636  1.00  0.00     0.008 C 
ATOM     10  C   UNL     1     -41.272  25.637   3.410  1.00  0.00     0.008 C 
ENDBRANCH   5   8
ENDBRANCH   4   5
ENDBRANCH   1   3
BRANCH   1  11
ATOM     11  C   UNL     1     -40.086  22.646   8.899  1.00  0.00     0.002 C 
ATOM     12  C   UNL     1     -38.973  21.585   8.943  1.00  0.00     0.005 C 
ATOM     13  C   UNL     1     -39.397  23.898   8.296  1.00  0.00    -0.026 C 
ATOM     14  C   UNL     1     -37.662  22.356   9.119  1.00  0.00     0.005 C 
ATOM     15  C   UNL     1     -38.018  23.851   9.003  1.00  0.00    -0.001 C 
ATOM     16  C   UNL     1     -39.278  23.811   6.729  1.00  0.00     0.007 C 
ATOM     17  C   UNL     1     -40.156  25.184   8.701  1.00  0.00     0.012 C 
ATOM     18  C   UNL     1     -36.937  24.786   8.382  1.00  0.00     0.000 C 
ATOM     19  C   UNL     1     -37.845  23.813   6.180  1.00  0.00     0.005 C 
ATOM     20  C   UNL     1     -36.994  24.927   6.820  1.00  0.00     0.003 C 
ATOM     21  C   UNL     1     -35.526  24.500   8.929  1.00  0.00     0.031 C 
ATOM     22  C   UNL     1     -35.585  25.140   6.113  1.00  0.00    -0.008 C 
ATOM     23  C   UNL     1     -34.561  25.498   8.370  1.00  0.00    -0.027 C 
ATOM     24  C   UNL     1     -34.603  25.828   7.066  1.00  0.00    -0.065 C 
ATOM     25  C   UNL     1     -35.751  26.027   4.832  1.00  0.00     0.014 C 
ATOM     26  C   UNL     1     -34.948  23.797   5.674  1.00  0.00     0.016 C 
ATOM     27  C   UNL     1     -33.699  26.909   6.525  1.00  0.00     0.063 C 
ATOM     28  C   UNL     1     -35.803  27.533   5.156  1.00  0.00     0.033 C 
ATOM     29  C   UNL     1     -34.528  28.041   5.877  1.00  0.00     0.118 C 
BRANCH  29  30
ATOM     30  O   UNL     1     -34.900  28.978   6.858  1.00  0.00    -0.393 OA
ATOM     31  H   UNL     1     -35.891  29.030   6.840  1.00  0.00     0.210 HD
ENDBRANCH  29  30
ENDBRANCH   1  11
TORSDOF 6
ENDMDL
MODEL 2
REMARK VINA RESULT:    51.456      2.818      8.135
REMARK INTER + INTRA:          75.212
REMARK INTER:                  73.698
REMARK INTRA:                   1.513
REMARK UNBOUND:                 7.211
REMARK SMILES CC[C@H](C=C[C@@H](C)[C@H]1CC[C@H]2[C@H]3CC=C4C[C@H](O)CC[C@]4(C)[C@H]3CC[C@@]12C)C(C)C
REMARK SMILES IDX 6 1 7 2 5 3 4 4 3 5 2 6 1 7 28 8 29 9 30 10 8 11 9 12 26 13
REMARK SMILES IDX 10 14 11 15 25 16 27 17 12 18 24 19 23 20 13 21 21 22 14 23
REMARK SMILES IDX 15 24 20 25 22 26 16 27 19 28 17 29 18 30
REMARK H PARENT 18 31
REMARK Flexibility Score: inf
ROOT
ATOM      1  C   UNL     1     -32.871  25.223   7.888  1.00  0.00     0.012 C 
ATOM      2  C   UNL     1     -33.671  25.704   9.107  1.00  0.00     0.012 C 
ENDROOT
BRANCH   1   3
ATOM      3  C   UNL     1     -31.818  26.265   7.572  1.00  0.00    -0.028 C 
ATOM      4  C   UNL     1     -30.677  25.956   6.933  1.00  0.00    -0.027 C 
BRANCH   4   5
ATOM      5  C   UNL     1     -29.596  26.970   6.601  1.00  0.00     0.014 C 
BRANCH   5   6
ATOM      6  C   UNL     1     -28.214  26.314   6.351  1.00  0.00     0.004 C 
ATOM      7  C   UNL     1     -27.232  27.274   5.676  1.00  0.00     0.004 C 
ENDBRANCH   5   6
BRANCH   5   8
ATOM      8  C   UNL     1     -30.003  27.959   5.468  1.00  0.00    -0.011 C 
ATOM      9  C   UNL     1     -31.456  28.430   5.635  1.00  0.00     0.008 C 
ATOM     10  C   UNL     1     -29.790  27.414   4.046  1.00  0.00     0.008 C 
ENDBRANCH   5   8
ENDBRANCH   4   5
ENDBRANCH   1   3
BRANCH   1  11
ATOM     11  C   UNL     1     -33.827  24.887   6.683  1.00  0.00     0.002 C 
ATOM     12  C   UNL     1     -33.953  23.410   6.269  1.00  0.00     0.005 C 
ATOM     13  C   UNL     1     -35.295  25.372   6.818  1.00  0.00    -0.026 C 
ATOM     14  C   UNL     1     -35.263  23.303   5.482  1.00  0.00     0.005 C 
ATOM     15  C   UNL     1     -35.954  24.675   5.601  1.00  0.00    -0.001 C 
ATOM     16  C   UNL     1     -35.938  24.937   8.187  1.00  0.00     0.007 C 
ATOM     17  C   UNL     1     -35.376  26.909   6.658  1.00  0.00     0.012 C 
ATOM     18  C   UNL     1     -37.513  24.680   5.615  1.00  0.00     0.000 C 
ATOM     19  C   UNL     1     -37.155  24.010   8.073  1.00  0.00     0.005 C 
ATOM     20  C   UNL     1     -38.168  24.528   7.033  1.00  0.00     0.003 C 
ATOM     21  C   UNL     1     -38.114  23.744   4.550  1.00  0.00     0.031 C 
ATOM     22  C   UNL     1     -39.556  23.753   7.052  1.00  0.00    -0.008 C 
ATOM     23  C   UNL     1     -39.605  23.877   4.552  1.00  0.00    -0.027 C 
ATOM     24  C   UNL     1     -40.282  23.916   5.713  1.00  0.00    -0.065 C 
ATOM     25  C   UNL     1     -40.472  24.311   8.194  1.00  0.00     0.014 C 
ATOM     26  C   UNL     1     -39.369  22.234   7.301  1.00  0.00     0.016 C 
ATOM     27  C   UNL     1     -41.773  24.154   5.718  1.00  0.00     0.063 C 
ATOM     28  C   UNL     1     -41.211  25.600   7.786  1.00  0.00     0.033 C 
ATOM     29  C   UNL     1     -42.125  25.407   6.549  1.00  0.00     0.118 C 
BRANCH  29  30
ATOM     30  O   UNL     1     -42.043  26.553   5.738  1.00  0.00    -0.393 OA
ATOM     31  H   UNL     1     -42.330  26.279   4.828  1.00  0.00     0.210 HD
ENDBRANCH  29  30
ENDBRANCH   1  11
TORSDOF 6
ENDMDL
