MODEL 1
REMARK VINA RESULT:    -3.915      0.000      0.000
REMARK INTER + INTRA:          -3.915
REMARK INTER:                  -3.915
REMARK INTRA:                   0.000
REMARK UNBOUND:                 0.000
REMARK SMILES CC1=CC[C@@H]2C[C@H]1C2(C)C
REMARK SMILES IDX 1 1 2 2 3 3 4 4 5 5 6 6 7 7 8 8 9 9 10 10
REMARK H PARENT
REMARK Flexibility Score: inf
ROOT
ATOM      1  C   UNL     1      22.590   5.183 -18.056  1.00  0.00     0.039 C 
ATOM      2  C   UNL     1      22.685   6.555 -18.652  1.00  0.00    -0.074 C 
ATOM      3  C   UNL     1      21.889   7.576 -18.220  1.00  0.00    -0.027 C 
ATOM      4  C   UNL     1      22.059   8.969 -18.857  1.00  0.00     0.031 C 
ATOM      5  C   UNL     1      23.156   8.920 -19.975  1.00  0.00    -0.000 C 
ATOM      6  C   UNL     1      22.835   7.668 -20.820  1.00  0.00     0.013 C 
ATOM      7  C   UNL     1      23.665   6.877 -19.789  1.00  0.00     0.021 C 
ATOM      8  C   UNL     1      24.424   8.189 -19.456  1.00  0.00    -0.026 C 
ATOM      9  C   UNL     1      25.648   8.411 -20.381  1.00  0.00     0.012 C 
ATOM     10  C   UNL     1      24.874   8.429 -17.987  1.00  0.00     0.012 C 
ENDROOT
TORSDOF 0
ENDMDL
MODEL 2
REMARK VINA RESULT:    -3.827     18.679     19.842
REMARK INTER + INTRA:          -3.827
REMARK INTER:                  -3.827
REMARK INTRA:                   0.000
REMARK UNBOUND:                 0.000
REMARK SMILES CC1=CC[C@@H]2C[C@H]1C2(C)C
REMARK SMILES IDX 1 1 2 2 3 3 4 4 5 5 6 6 7 7 8 8 9 9 10 10
REMARK H PARENT
REMARK Flexibility Score: inf
ROOT
ATOM      1  C   UNL     1      31.952  -8.515 -29.530  1.00  0.00     0.039 C 
ATOM      2  C   UNL     1      31.024  -7.488 -30.108  1.00  0.00    -0.074 C 
ATOM      3  C   UNL     1      31.424  -6.652 -31.110  1.00  0.00    -0.027 C 
ATOM      4  C   UNL     1      30.411  -5.639 -31.679  1.00  0.00     0.031 C 
ATOM      5  C   UNL     1      29.048  -5.754 -30.913  1.00  0.00    -0.000 C 
ATOM      6  C   UNL     1      29.413  -5.791 -29.415  1.00  0.00     0.013 C 
ATOM      7  C   UNL     1      29.589  -7.313 -29.593  1.00  0.00     0.021 C 
ATOM      8  C   UNL     1      28.615  -7.241 -30.799  1.00  0.00    -0.026 C 
ATOM      9  C   UNL     1      27.134  -7.389 -30.368  1.00  0.00     0.012 C 
ATOM     10  C   UNL     1      28.867  -8.185 -32.008  1.00  0.00     0.012 C 
ENDROOT
TORSDOF 0
ENDMDL
MODEL 3
REMARK VINA RESULT:    -3.720      6.713      8.180
REMARK INTER + INTRA:          -3.720
REMARK INTER:                  -3.720
REMARK INTRA:                   0.000
REMARK UNBOUND:                 0.000
REMARK SMILES CC1=CC[C@@H]2C[C@H]1C2(C)C
REMARK SMILES IDX 1 1 2 2 3 3 4 4 5 5 6 6 7 7 8 8 9 9 10 10
REMARK H PARENT
REMARK Flexibility Score: inf
ROOT
ATOM      1  C   UNL     1      20.147   3.048 -25.836  1.00  0.00     0.039 C 
ATOM      2  C   UNL     1      21.645   3.011 -25.883  1.00  0.00    -0.074 C 
ATOM      3  C   UNL     1      22.309   2.224 -26.779  1.00  0.00    -0.027 C 
ATOM      4  C   UNL     1      23.851   2.256 -26.793  1.00  0.00     0.031 C 
ATOM      5  C   UNL     1      24.380   3.218 -25.675  1.00  0.00    -0.000 C 
ATOM      6  C   UNL     1      23.581   2.860 -24.404  1.00  0.00     0.013 C 
ATOM      7  C   UNL     1      22.506   3.839 -24.918  1.00  0.00     0.021 C 
ATOM      8  C   UNL     1      23.617   4.570 -25.719  1.00  0.00    -0.026 C 
ATOM      9  C   UNL     1      24.319   5.668 -24.881  1.00  0.00     0.012 C 
ATOM     10  C   UNL     1      23.251   5.174 -27.105  1.00  0.00     0.012 C 
ENDROOT
TORSDOF 0
ENDMDL
MODEL 4
REMARK VINA RESULT:    -3.684      7.377      9.057
REMARK INTER + INTRA:          -3.684
REMARK INTER:                  -3.684
REMARK INTRA:                   0.000
REMARK UNBOUND:                 0.000
REMARK SMILES CC1=CC[C@@H]2C[C@H]1C2(C)C
REMARK SMILES IDX 1 1 2 2 3 3 4 4 5 5 6 6 7 7 8 8 9 9 10 10
REMARK H PARENT
REMARK Flexibility Score: inf
ROOT
ATOM      1  C   UNL     1      23.297   5.202 -27.107  1.00  0.00     0.039 C 
ATOM      2  C   UNL     1      22.979   3.989 -26.286  1.00  0.00    -0.074 C 
ATOM      3  C   UNL     1      23.028   4.020 -24.922  1.00  0.00    -0.027 C 
ATOM      4  C   UNL     1      22.662   2.745 -24.138  1.00  0.00     0.031 C 
ATOM      5  C   UNL     1      22.325   1.580 -25.131  1.00  0.00    -0.000 C 
ATOM      6  C   UNL     1      23.448   1.595 -26.189  1.00  0.00     0.013 C 
ATOM      7  C   UNL     1      22.603   2.648 -26.934  1.00  0.00     0.021 C 
ATOM      8  C   UNL     1      21.345   2.074 -26.231  1.00  0.00    -0.026 C 
ATOM      9  C   UNL     1      20.713   0.901 -27.022  1.00  0.00     0.012 C 
ATOM     10  C   UNL     1      20.210   3.057 -25.829  1.00  0.00     0.012 C 
ENDROOT
TORSDOF 0
ENDMDL
MODEL 5
REMARK VINA RESULT:    -3.644      6.606      8.371
REMARK INTER + INTRA:          -3.644
REMARK INTER:                  -3.644
REMARK INTRA:                   0.000
REMARK UNBOUND:                 0.000
REMARK SMILES CC1=CC[C@@H]2C[C@H]1C2(C)C
REMARK SMILES IDX 1 1 2 2 3 3 4 4 5 5 6 6 7 7 8 8 9 9 10 10
REMARK H PARENT
REMARK Flexibility Score: inf
ROOT
ATOM      1  C   UNL     1      24.128   6.450 -26.135  1.00  0.00     0.039 C 
ATOM      2  C   UNL     1      23.928   4.969 -26.011  1.00  0.00    -0.074 C 
ATOM      3  C   UNL     1      24.863   4.172 -25.416  1.00  0.00    -0.027 C 
ATOM      4  C   UNL     1      24.581   2.661 -25.295  1.00  0.00     0.031 C 
ATOM      5  C   UNL     1      23.204   2.316 -25.960  1.00  0.00    -0.000 C 
ATOM      6  C   UNL     1      23.205   3.042 -27.322  1.00  0.00     0.013 C 
ATOM      7  C   UNL     1      22.675   4.272 -26.560  1.00  0.00     0.021 C 
ATOM      8  C   UNL     1      22.109   3.309 -25.483  1.00  0.00    -0.026 C 
ATOM      9  C   UNL     1      20.681   2.816 -25.827  1.00  0.00     0.012 C 
ATOM     10  C   UNL     1      22.120   3.773 -23.999  1.00  0.00     0.012 C 
ENDROOT
TORSDOF 0
ENDMDL
MODEL 6
REMARK VINA RESULT:    -3.608     19.660     20.707
REMARK INTER + INTRA:          -3.608
REMARK INTER:                  -3.608
REMARK INTRA:                   0.000
REMARK UNBOUND:                 0.000
REMARK SMILES CC1=CC[C@@H]2C[C@H]1C2(C)C
REMARK SMILES IDX 1 1 2 2 3 3 4 4 5 5 6 6 7 7 8 8 9 9 10 10
REMARK H PARENT
REMARK Flexibility Score: inf
ROOT
ATOM      1  C   UNL     1      28.840  -8.130 -31.978  1.00  0.00     0.039 C 
ATOM      2  C   UNL     1      30.152  -7.477 -31.660  1.00  0.00    -0.074 C 
ATOM      3  C   UNL     1      30.343  -6.138 -31.841  1.00  0.00    -0.027 C 
ATOM      4  C   UNL     1      31.707  -5.526 -31.467  1.00  0.00     0.031 C 
ATOM      5  C   UNL     1      32.679  -6.647 -30.960  1.00  0.00    -0.000 C 
ATOM      6  C   UNL     1      32.551  -7.802 -31.976  1.00  0.00     0.013 C 
ATOM      7  C   UNL     1      31.350  -8.282 -31.136  1.00  0.00     0.021 C 
ATOM      8  C   UNL     1      31.966  -7.548 -29.915  1.00  0.00    -0.026 C 
ATOM      9  C   UNL     1      32.963  -8.441 -29.134  1.00  0.00     0.012 C 
ATOM     10  C   UNL     1      31.003  -6.883 -28.891  1.00  0.00     0.012 C 
ENDROOT
TORSDOF 0
ENDMDL
MODEL 7
REMARK VINA RESULT:    -3.571     15.772     17.061
REMARK INTER + INTRA:          -3.571
REMARK INTER:                  -3.571
REMARK INTRA:                   0.000
REMARK UNBOUND:                 0.000
REMARK SMILES CC1=CC[C@@H]2C[C@H]1C2(C)C
REMARK SMILES IDX 1 1 2 2 3 3 4 4 5 5 6 6 7 7 8 8 9 9 10 10
REMARK H PARENT
REMARK Flexibility Score: inf
ROOT
ATOM      1  C   UNL     1      19.889  -6.075 -32.675  1.00  0.00     0.039 C 
ATOM      2  C   UNL     1      20.011  -4.617 -32.345  1.00  0.00    -0.074 C 
ATOM      3  C   UNL     1      19.416  -3.661 -33.115  1.00  0.00    -0.027 C 
ATOM      4  C   UNL     1      19.557  -2.183 -32.702  1.00  0.00     0.031 C 
ATOM      5  C   UNL     1      20.450  -2.065 -31.419  1.00  0.00    -0.000 C 
ATOM      6  C   UNL     1      21.678  -2.962 -31.681  1.00  0.00     0.013 C 
ATOM      7  C   UNL     1      20.825  -4.126 -31.139  1.00  0.00     0.021 C 
ATOM      8  C   UNL     1      19.989  -3.087 -30.344  1.00  0.00    -0.026 C 
ATOM      9  C   UNL     1      20.596  -2.786 -28.951  1.00  0.00     0.012 C 
ATOM     10  C   UNL     1      18.466  -3.346 -30.167  1.00  0.00     0.012 C 
ENDROOT
TORSDOF 0
ENDMDL
MODEL 8
REMARK VINA RESULT:    -3.513      6.959      8.222
REMARK INTER + INTRA:          -3.513
REMARK INTER:                  -3.513
REMARK INTRA:                   0.000
REMARK UNBOUND:                 0.000
REMARK SMILES CC1=CC[C@@H]2C[C@H]1C2(C)C
REMARK SMILES IDX 1 1 2 2 3 3 4 4 5 5 6 6 7 7 8 8 9 9 10 10
REMARK H PARENT
REMARK Flexibility Score: inf
ROOT
ATOM      1  C   UNL     1      18.954   2.708 -26.034  1.00  0.00     0.039 C 
ATOM      2  C   UNL     1      20.292   2.967 -25.409  1.00  0.00    -0.074 C 
ATOM      3  C   UNL     1      20.403   3.413 -24.124  1.00  0.00    -0.027 C 
ATOM      4  C   UNL     1      21.810   3.630 -23.533  1.00  0.00     0.031 C 
ATOM      5  C   UNL     1      22.902   3.314 -24.613  1.00  0.00    -0.000 C 
ATOM      6  C   UNL     1      22.435   4.028 -25.899  1.00  0.00     0.013 C 
ATOM      7  C   UNL     1      21.601   2.762 -26.185  1.00  0.00     0.021 C 
ATOM      8  C   UNL     1      22.598   1.959 -25.308  1.00  0.00    -0.026 C 
ATOM      9  C   UNL     1      23.807   1.434 -26.123  1.00  0.00     0.012 C 
ATOM     10  C   UNL     1      22.046   0.788 -24.447  1.00  0.00     0.012 C 
ENDROOT
TORSDOF 0
ENDMDL
MODEL 9
REMARK VINA RESULT:    -3.433     18.759     19.854
REMARK INTER + INTRA:          -3.433
REMARK INTER:                  -3.433
REMARK INTRA:                   0.000
REMARK UNBOUND:                 0.000
REMARK SMILES CC1=CC[C@@H]2C[C@H]1C2(C)C
REMARK SMILES IDX 1 1 2 2 3 3 4 4 5 5 6 6 7 7 8 8 9 9 10 10
REMARK H PARENT
REMARK Flexibility Score: inf
ROOT
ATOM      1  C   UNL     1      27.246  -7.381 -30.619  1.00  0.00     0.039 C 
ATOM      2  C   UNL     1      28.740  -7.502 -30.644  1.00  0.00    -0.074 C 
ATOM      3  C   UNL     1      29.380  -8.210 -31.619  1.00  0.00    -0.027 C 
ATOM      4  C   UNL     1      30.921  -8.269 -31.602  1.00  0.00     0.031 C 
ATOM      5  C   UNL     1      31.476  -7.486 -30.363  1.00  0.00    -0.000 C 
ATOM      6  C   UNL     1      30.626  -7.950 -29.161  1.00  0.00     0.013 C 
ATOM      7  C   UNL     1      29.623  -6.853 -29.568  1.00  0.00     0.021 C 
ATOM      8  C   UNL     1      30.793  -6.096 -30.252  1.00  0.00    -0.026 C 
ATOM      9  C   UNL     1      31.536  -5.154 -29.271  1.00  0.00     0.012 C 
ATOM     10  C   UNL     1      30.497  -5.305 -31.557  1.00  0.00     0.012 C 
ENDROOT
TORSDOF 0
ENDMDL
