MODEL 1
REMARK VINA RESULT:     2.313      0.000      0.000
REMARK INTER + INTRA:           2.841
REMARK INTER:                   3.665
REMARK INTRA:                  -0.824
REMARK UNBOUND:                -0.824
REMARK SMILES C=CCCCCCCCCCCC
REMARK SMILES IDX 7 1 8 2 9 3 10 4 11 5 12 6 13 7 6 8 5 9 4 10 3 11 2 12 1 13
REMARK H PARENT
REMARK Flexibility Score: inf
ROOT
ATOM      1  C   UNL     1       0.083   6.350 -10.607  1.00  0.00     0.000 C 
ENDROOT
BRANCH   1   2
ATOM      2  C   UNL     1       1.219   5.459 -10.062  1.00  0.00     0.000 C 
BRANCH   2   3
ATOM      3  C   UNL     1       1.198   5.220  -8.541  1.00  0.00    -0.000 C 
BRANCH   3   4
ATOM      4  C   UNL     1       0.013   5.910  -7.844  1.00  0.00    -0.000 C 
BRANCH   4   5
ATOM      5  C   UNL     1       0.427   7.175  -7.071  1.00  0.00    -0.000 C 
BRANCH   5   6
ATOM      6  C   UNL     1      -0.578   8.339  -7.139  1.00  0.00    -0.003 C 
ATOM      7  C   UNL     1      -2.025   7.872  -7.302  1.00  0.00     0.004 C 
ENDBRANCH   5   6
ENDBRANCH   4   5
ENDBRANCH   3   4
ENDBRANCH   2   3
ENDBRANCH   1   2
BRANCH   1   8
ATOM      8  C   UNL     1      -0.988   5.620 -11.436  1.00  0.00     0.000 C 
BRANCH   8   9
ATOM      9  C   UNL     1      -0.588   5.448 -12.910  1.00  0.00     0.000 C 
BRANCH   9  10
ATOM     10  C   UNL     1      -1.696   4.791 -13.755  1.00  0.00     0.004 C 
BRANCH  10  11
ATOM     11  C   UNL     1      -3.001   4.517 -12.987  1.00  0.00     0.027 C 
BRANCH  11  12
ATOM     12  C   UNL     1      -4.124   5.428 -13.407  1.00  0.00    -0.035 C 
ATOM     13  C   UNL     1      -4.061   6.752 -13.233  1.00  0.00     0.004 C 
ENDBRANCH  11  12
ENDBRANCH  10  11
ENDBRANCH   9  10
ENDBRANCH   8   9
ENDBRANCH   1   8
TORSDOF 10
ENDMDL
MODEL 2
REMARK VINA RESULT:     2.685     11.167     13.986
REMARK INTER + INTRA:           3.430
REMARK INTER:                   4.290
REMARK INTRA:                  -0.859
REMARK UNBOUND:                -0.824
REMARK SMILES C=CCCCCCCCCCCC
REMARK SMILES IDX 7 1 8 2 9 3 10 4 11 5 12 6 13 7 6 8 5 9 4 10 3 11 2 12 1 13
REMARK H PARENT
REMARK Flexibility Score: inf
ROOT
ATOM      1  C   UNL     1      12.408   7.386  -8.498  1.00  0.00     0.000 C 
ENDROOT
BRANCH   1   2
ATOM      2  C   UNL     1      11.517   8.382  -9.268  1.00  0.00     0.000 C 
BRANCH   2   3
ATOM      3  C   UNL     1      12.120   8.934 -10.573  1.00  0.00    -0.000 C 
BRANCH   3   4
ATOM      4  C   UNL     1      13.321   9.863 -10.330  1.00  0.00    -0.000 C 
BRANCH   4   5
ATOM      5  C   UNL     1      14.537   9.512 -11.207  1.00  0.00    -0.000 C 
BRANCH   5   6
ATOM      6  C   UNL     1      14.345   8.294 -12.129  1.00  0.00    -0.003 C 
ATOM      7  C   UNL     1      15.050   7.038 -11.616  1.00  0.00     0.004 C 
ENDBRANCH   5   6
ENDBRANCH   4   5
ENDBRANCH   3   4
ENDBRANCH   2   3
ENDBRANCH   1   2
BRANCH   1   8
ATOM      8  C   UNL     1      12.315   7.468  -6.963  1.00  0.00     0.000 C 
BRANCH   8   9
ATOM      9  C   UNL     1      10.968   8.027  -6.475  1.00  0.00     0.000 C 
BRANCH   9  10
ATOM     10  C   UNL     1      10.019   6.929  -5.960  1.00  0.00     0.004 C 
BRANCH  10  11
ATOM     11  C   UNL     1       8.542   7.356  -5.875  1.00  0.00     0.027 C 
BRANCH  11  12
ATOM     12  C   UNL     1       8.215   8.500  -6.798  1.00  0.00    -0.035 C 
ATOM     13  C   UNL     1       7.067   9.178  -6.700  1.00  0.00     0.004 C 
ENDBRANCH  11  12
ENDBRANCH  10  11
ENDBRANCH   9  10
ENDBRANCH   8   9
ENDBRANCH   1   8
TORSDOF 10
ENDMDL
MODEL 3
REMARK VINA RESULT:     2.733      1.379      2.170
REMARK INTER + INTRA:           3.506
REMARK INTER:                   4.245
REMARK INTRA:                  -0.739
REMARK UNBOUND:                -0.824
REMARK SMILES C=CCCCCCCCCCCC
REMARK SMILES IDX 7 1 8 2 9 3 10 4 11 5 12 6 13 7 6 8 5 9 4 10 3 11 2 12 1 13
REMARK H PARENT
REMARK Flexibility Score: inf
ROOT
ATOM      1  C   UNL     1       0.016   6.013 -11.004  1.00  0.00     0.000 C 
ENDROOT
BRANCH   1   2
ATOM      2  C   UNL     1       0.898   4.955 -10.309  1.00  0.00     0.000 C 
BRANCH   2   3
ATOM      3  C   UNL     1       1.426   5.347  -8.917  1.00  0.00    -0.000 C 
BRANCH   3   4
ATOM      4  C   UNL     1       0.305   5.760  -7.948  1.00  0.00    -0.000 C 
BRANCH   4   5
ATOM      5  C   UNL     1       0.563   7.121  -7.279  1.00  0.00    -0.000 C 
BRANCH   5   6
ATOM      6  C   UNL     1      -0.666   8.045  -7.185  1.00  0.00    -0.003 C 
ATOM      7  C   UNL     1      -1.935   7.412  -7.754  1.00  0.00     0.004 C 
ENDBRANCH   5   6
ENDBRANCH   4   5
ENDBRANCH   3   4
ENDBRANCH   2   3
ENDBRANCH   1   2
BRANCH   1   8
ATOM      8  C   UNL     1      -1.483   5.673 -11.083  1.00  0.00     0.000 C 
BRANCH   8   9
ATOM      9  C   UNL     1      -2.066   5.867 -12.493  1.00  0.00     0.000 C 
BRANCH   9  10
ATOM     10  C   UNL     1      -1.600   4.784 -13.484  1.00  0.00     0.004 C 
BRANCH  10  11
ATOM     11  C   UNL     1      -0.479   5.237 -14.437  1.00  0.00     0.027 C 
BRANCH  11  12
ATOM     12  C   UNL     1      -0.810   4.984 -15.884  1.00  0.00    -0.035 C 
ATOM     13  C   UNL     1      -0.112   5.548 -16.875  1.00  0.00     0.004 C 
ENDBRANCH  11  12
ENDBRANCH  10  11
ENDBRANCH   9  10
ENDBRANCH   8   9
ENDBRANCH   1   8
TORSDOF 10
ENDMDL
MODEL 4
REMARK VINA RESULT:     2.775      1.432      6.452
REMARK INTER + INTRA:           3.574
REMARK INTER:                   4.141
REMARK INTRA:                  -0.567
REMARK UNBOUND:                -0.824
REMARK SMILES C=CCCCCCCCCCCC
REMARK SMILES IDX 7 1 8 2 9 3 10 4 11 5 12 6 13 7 6 8 5 9 4 10 3 11 2 12 1 13
REMARK H PARENT
REMARK Flexibility Score: inf
ROOT
ATOM      1  C   UNL     1       0.039   6.017 -10.958  1.00  0.00     0.000 C 
ENDROOT
BRANCH   1   2
ATOM      2  C   UNL     1      -1.438   5.607 -11.140  1.00  0.00     0.000 C 
BRANCH   2   3
ATOM      3  C   UNL     1      -2.006   5.797 -12.558  1.00  0.00    -0.000 C 
BRANCH   3   4
ATOM      4  C   UNL     1      -1.501   4.736 -13.551  1.00  0.00    -0.000 C 
BRANCH   4   5
ATOM      5  C   UNL     1      -0.508   5.304 -14.581  1.00  0.00    -0.000 C 
BRANCH   5   6
ATOM      6  C   UNL     1      -0.766   4.880 -16.038  1.00  0.00    -0.003 C 
ATOM      7  C   UNL     1      -0.029   5.752 -17.055  1.00  0.00     0.004 C 
ENDBRANCH   5   6
ENDBRANCH   4   5
ENDBRANCH   3   4
ENDBRANCH   2   3
ENDBRANCH   1   2
BRANCH   1   8
ATOM      8  C   UNL     1       0.951   4.942 -10.340  1.00  0.00     0.000 C 
BRANCH   8   9
ATOM      9  C   UNL     1       1.295   5.224  -8.869  1.00  0.00     0.000 C 
BRANCH   9  10
ATOM     10  C   UNL     1       0.133   5.880  -8.100  1.00  0.00     0.004 C 
BRANCH  10  11
ATOM     11  C   UNL     1       0.543   7.096  -7.249  1.00  0.00     0.027 C 
BRANCH  11  12
ATOM     12  C   UNL     1      -0.578   8.086  -7.073  1.00  0.00    -0.035 C 
ATOM     13  C   UNL     1      -1.844   7.776  -7.371  1.00  0.00     0.004 C 
ENDBRANCH  11  12
ENDBRANCH  10  11
ENDBRANCH   9  10
ENDBRANCH   8   9
ENDBRANCH   1   8
TORSDOF 10
ENDMDL
MODEL 5
REMARK VINA RESULT:     2.847      0.290      5.868
REMARK INTER + INTRA:           3.687
REMARK INTER:                   4.426
REMARK INTRA:                  -0.738
REMARK UNBOUND:                -0.824
REMARK SMILES C=CCCCCCCCCCCC
REMARK SMILES IDX 7 1 8 2 9 3 10 4 11 5 12 6 13 7 6 8 5 9 4 10 3 11 2 12 1 13
REMARK H PARENT
REMARK Flexibility Score: inf
ROOT
ATOM      1  C   UNL     1       0.350   6.342 -10.689  1.00  0.00     0.000 C 
ENDROOT
BRANCH   1   2
ATOM      2  C   UNL     1      -0.835   5.877 -11.560  1.00  0.00     0.000 C 
BRANCH   2   3
ATOM      3  C   UNL     1      -0.502   5.611 -13.040  1.00  0.00    -0.000 C 
BRANCH   3   4
ATOM      4  C   UNL     1      -1.610   4.835 -13.771  1.00  0.00    -0.000 C 
BRANCH   4   5
ATOM      5  C   UNL     1      -2.752   4.398 -12.836  1.00  0.00    -0.000 C 
BRANCH   5   6
ATOM      6  C   UNL     1      -4.125   5.022 -13.148  1.00  0.00    -0.003 C 
ATOM      7  C   UNL     1      -4.064   6.539 -13.335  1.00  0.00     0.004 C 
ENDBRANCH   5   6
ENDBRANCH   4   5
ENDBRANCH   3   4
ENDBRANCH   2   3
ENDBRANCH   1   2
BRANCH   1   8
ATOM      8  C   UNL     1       1.184   5.215 -10.054  1.00  0.00     0.000 C 
BRANCH   8   9
ATOM      9  C   UNL     1       0.951   5.078  -8.541  1.00  0.00     0.000 C 
BRANCH   9  10
ATOM     10  C   UNL     1      -0.126   6.045  -8.015  1.00  0.00     0.004 C 
BRANCH  10  11
ATOM     11  C   UNL     1       0.414   7.157  -7.098  1.00  0.00     0.027 C 
BRANCH  11  12
ATOM     12  C   UNL     1      -0.478   8.370  -7.070  1.00  0.00    -0.035 C 
ATOM     13  C   UNL     1      -1.810   8.266  -7.109  1.00  0.00     0.004 C 
ENDBRANCH  11  12
ENDBRANCH  10  11
ENDBRANCH   9  10
ENDBRANCH   8   9
ENDBRANCH   1   8
TORSDOF 10
ENDMDL
MODEL 6
REMARK VINA RESULT:     3.502      2.174      3.045
REMARK INTER + INTRA:           4.726
REMARK INTER:                   5.152
REMARK INTRA:                  -0.426
REMARK UNBOUND:                -0.824
REMARK SMILES C=CCCCCCCCCCCC
REMARK SMILES IDX 7 1 8 2 9 3 10 4 11 5 12 6 13 7 6 8 5 9 4 10 3 11 2 12 1 13
REMARK H PARENT
REMARK Flexibility Score: inf
ROOT
ATOM      1  C   UNL     1      -0.502   5.887 -12.139  1.00  0.00     0.000 C 
ENDROOT
BRANCH   1   2
ATOM      2  C   UNL     1      -0.408   5.944 -10.600  1.00  0.00     0.000 C 
BRANCH   2   3
ATOM      3  C   UNL     1       0.923   5.455 -10.001  1.00  0.00    -0.000 C 
BRANCH   3   4
ATOM      4  C   UNL     1       0.981   5.603  -8.472  1.00  0.00    -0.000 C 
BRANCH   4   5
ATOM      5  C   UNL     1      -0.264   6.297  -7.890  1.00  0.00    -0.000 C 
BRANCH   5   6
ATOM      6  C   UNL     1      -0.023   7.716  -7.341  1.00  0.00    -0.003 C 
ATOM      7  C   UNL     1      -1.312   8.420  -6.917  1.00  0.00     0.004 C 
ENDBRANCH   5   6
ENDBRANCH   4   5
ENDBRANCH   3   4
ENDBRANCH   2   3
ENDBRANCH   1   2
BRANCH   1   8
ATOM      8  C   UNL     1      -1.754   5.187 -12.698  1.00  0.00     0.000 C 
BRANCH   8   9
ATOM      9  C   UNL     1      -1.523   4.568 -14.086  1.00  0.00     0.000 C 
BRANCH   9  10
ATOM     10  C   UNL     1      -0.425   5.292 -14.886  1.00  0.00     0.004 C 
BRANCH  10  11
ATOM     11  C   UNL     1      -0.697   5.384 -16.398  1.00  0.00     0.027 C 
BRANCH  11  12
ATOM     12  C   UNL     1       0.508   5.835 -17.179  1.00  0.00    -0.035 C 
ATOM     13  C   UNL     1       0.397   6.623 -18.253  1.00  0.00     0.004 C 
ENDBRANCH  11  12
ENDBRANCH  10  11
ENDBRANCH   9  10
ENDBRANCH   8   9
ENDBRANCH   1   8
TORSDOF 10
ENDMDL
MODEL 7
REMARK VINA RESULT:     3.601      2.287      7.038
REMARK INTER + INTRA:           4.882
REMARK INTER:                   5.317
REMARK INTRA:                  -0.435
REMARK UNBOUND:                -0.824
REMARK SMILES C=CCCCCCCCCCCC
REMARK SMILES IDX 7 1 8 2 9 3 10 4 11 5 12 6 13 7 6 8 5 9 4 10 3 11 2 12 1 13
REMARK H PARENT
REMARK Flexibility Score: inf
ROOT
ATOM      1  C   UNL     1      -0.610   5.895 -12.382  1.00  0.00     0.000 C 
ENDROOT
BRANCH   1   2
ATOM      2  C   UNL     1      -1.681   4.933 -12.938  1.00  0.00     0.000 C 
BRANCH   2   3
ATOM      3  C   UNL     1      -1.491   4.513 -14.407  1.00  0.00    -0.000 C 
BRANCH   3   4
ATOM      4  C   UNL     1      -0.381   5.306 -15.117  1.00  0.00    -0.000 C 
BRANCH   4   5
ATOM      5  C   UNL     1      -0.380   5.101 -16.642  1.00  0.00    -0.000 C 
BRANCH   5   6
ATOM      6  C   UNL     1       0.002   6.344 -17.467  1.00  0.00    -0.003 C 
ATOM      7  C   UNL     1       1.234   6.124 -18.345  1.00  0.00     0.004 C 
ENDBRANCH   5   6
ENDBRANCH   4   5
ENDBRANCH   3   4
ENDBRANCH   2   3
ENDBRANCH   1   2
BRANCH   1   8
ATOM      8  C   UNL     1      -0.514   5.959 -10.847  1.00  0.00     0.000 C 
BRANCH   8   9
ATOM      9  C   UNL     1       0.850   5.492 -10.314  1.00  0.00     0.000 C 
BRANCH   9  10
ATOM     10  C   UNL     1       0.980   5.651  -8.788  1.00  0.00     0.004 C 
BRANCH  10  11
ATOM     11  C   UNL     1      -0.279   6.210  -8.100  1.00  0.00     0.027 C 
BRANCH  11  12
ATOM     12  C   UNL     1      -0.005   7.471  -7.324  1.00  0.00    -0.035 C 
ATOM     13  C   UNL     1      -0.961   8.377  -7.092  1.00  0.00     0.004 C 
ENDBRANCH  11  12
ENDBRANCH  10  11
ENDBRANCH   9  10
ENDBRANCH   8   9
ENDBRANCH   1   8
TORSDOF 10
ENDMDL
