MODEL 1
REMARK VINA RESULT:    -3.721      0.000      0.000
REMARK INTER + INTRA:          -7.109
REMARK INTER:                  -5.896
REMARK INTRA:                  -1.214
REMARK UNBOUND:                -1.214
REMARK SMILES CCCCCCCCCCCC(=O)[O-]
REMARK SMILES IDX 7 1 8 2 9 3 10 4 11 5 12 6 13 7 14 8 6 9 5 10 4 11 3 12 2 13
REMARK SMILES IDX 1 14
REMARK H PARENT
REMARK Flexibility Score: inf
ROOT
ATOM      1  C   UNL     1    -101.041  30.725 -34.709  1.00  0.00     0.000 C 
ENDROOT
BRANCH   1   2
ATOM      2  C   UNL     1    -101.824  32.032 -34.498  1.00  0.00     0.000 C 
BRANCH   2   3
ATOM      3  C   UNL     1    -102.550  32.498 -35.770  1.00  0.00     0.000 C 
BRANCH   3   4
ATOM      4  C   UNL     1    -103.352  31.370 -36.437  1.00  0.00     0.006 C 
BRANCH   4   5
ATOM      5  C   UNL     1    -103.275  31.472 -37.963  1.00  0.00     0.053 C 
BRANCH   5   6
ATOM      6  C   UNL     1    -104.560  32.000 -38.518  1.00  0.00     0.041 C 
ATOM      7  O   UNL     1    -105.073  33.049 -38.044  1.00  0.00    -0.550 OA
ATOM      8  O   UNL     1    -105.168  31.361 -39.592  1.00  0.00    -0.550 OA
ENDBRANCH   5   6
ENDBRANCH   4   5
ENDBRANCH   3   4
ENDBRANCH   2   3
ENDBRANCH   1   2
BRANCH   1   9
ATOM      9  C   UNL     1     -99.773  30.918 -35.561  1.00  0.00     0.000 C 
BRANCH   9  10
ATOM     10  C   UNL     1     -99.825  30.269 -36.957  1.00  0.00    -0.000 C 
BRANCH  10  11
ATOM     11  C   UNL     1     -99.491  31.253 -38.088  1.00  0.00    -0.000 C 
BRANCH  11  12
ATOM     12  C   UNL     1     -99.243  32.661 -37.535  1.00  0.00    -0.000 C 
BRANCH  12  13
ATOM     13  C   UNL     1     -97.866  33.184 -37.962  1.00  0.00    -0.003 C 
ATOM     14  C   UNL     1     -97.592  32.878 -39.431  1.00  0.00     0.004 C 
ENDBRANCH  12  13
ENDBRANCH  11  12
ENDBRANCH  10  11
ENDBRANCH   9  10
ENDBRANCH   1   9
TORSDOF 10
ENDMDL
MODEL 2
REMARK VINA RESULT:    -3.677      1.490      1.873
REMARK INTER + INTRA:          -7.040
REMARK INTER:                  -6.128
REMARK INTRA:                  -0.912
REMARK UNBOUND:                -1.214
REMARK SMILES CCCCCCCCCCCC(=O)[O-]
REMARK SMILES IDX 7 1 8 2 9 3 10 4 11 5 12 6 13 7 14 8 6 9 5 10 4 11 3 12 2 13
REMARK SMILES IDX 1 14
REMARK H PARENT
REMARK Flexibility Score: inf
ROOT
ATOM      1  C   UNL     1    -100.064  30.679 -34.010  1.00  0.00     0.000 C 
ENDROOT
BRANCH   1   2
ATOM      2  C   UNL     1    -101.304  31.472 -33.562  1.00  0.00     0.000 C 
BRANCH   2   3
ATOM      3  C   UNL     1    -102.604  30.663 -33.701  1.00  0.00     0.000 C 
BRANCH   3   4
ATOM      4  C   UNL     1    -103.163  30.690 -35.132  1.00  0.00     0.006 C 
BRANCH   4   5
ATOM      5  C   UNL     1    -103.072  32.097 -35.729  1.00  0.00     0.053 C 
BRANCH   5   6
ATOM      6  C   UNL     1    -104.430  32.715 -35.822  1.00  0.00     0.041 C 
ATOM      7  O   UNL     1    -105.092  32.954 -34.777  1.00  0.00    -0.550 OA
ATOM      8  O   UNL     1    -104.947  33.076 -37.061  1.00  0.00    -0.550 OA
ENDBRANCH   5   6
ENDBRANCH   4   5
ENDBRANCH   3   4
ENDBRANCH   2   3
ENDBRANCH   1   2
BRANCH   1   9
ATOM      9  C   UNL     1     -99.368  31.299 -35.235  1.00  0.00     0.000 C 
BRANCH   9  10
ATOM     10  C   UNL     1     -99.810  30.722 -36.593  1.00  0.00    -0.000 C 
BRANCH  10  11
ATOM     11  C   UNL     1     -99.805  31.767 -37.718  1.00  0.00    -0.000 C 
BRANCH  11  12
ATOM     12  C   UNL     1     -98.656  32.766 -37.536  1.00  0.00    -0.000 C 
BRANCH  12  13
ATOM     13  C   UNL     1     -98.240  33.376 -38.879  1.00  0.00    -0.003 C 
ATOM     14  C   UNL     1     -96.931  32.769 -39.378  1.00  0.00     0.004 C 
ENDBRANCH  12  13
ENDBRANCH  11  12
ENDBRANCH  10  11
ENDBRANCH   9  10
ENDBRANCH   1   9
TORSDOF 10
ENDMDL
MODEL 3
REMARK VINA RESULT:    -3.495      1.895      3.030
REMARK INTER + INTRA:          -6.753
REMARK INTER:                  -5.712
REMARK INTRA:                  -1.041
REMARK UNBOUND:                -1.214
REMARK SMILES CCCCCCCCCCCC(=O)[O-]
REMARK SMILES IDX 7 1 8 2 9 3 10 4 11 5 12 6 13 7 14 8 6 9 5 10 4 11 3 12 2 13
REMARK SMILES IDX 1 14
REMARK H PARENT
REMARK Flexibility Score: inf
ROOT
ATOM      1  C   UNL     1    -101.249  30.477 -39.210  1.00  0.00     0.000 C 
ENDROOT
BRANCH   1   2
ATOM      2  C   UNL     1    -102.648  30.160 -38.654  1.00  0.00     0.000 C 
BRANCH   2   3
ATOM      3  C   UNL     1    -103.610  31.354 -38.759  1.00  0.00     0.000 C 
BRANCH   3   4
ATOM      4  C   UNL     1    -104.343  31.637 -37.439  1.00  0.00     0.006 C 
BRANCH   4   5
ATOM      5  C   UNL     1    -103.477  31.249 -36.238  1.00  0.00     0.053 C 
BRANCH   5   6
ATOM      6  C   UNL     1    -103.013  32.470 -35.510  1.00  0.00     0.041 C 
ATOM      7  O   UNL     1    -101.870  32.497 -34.980  1.00  0.00    -0.550 OA
ATOM      8  O   UNL     1    -103.821  33.599 -35.460  1.00  0.00    -0.550 OA
ENDBRANCH   5   6
ENDBRANCH   4   5
ENDBRANCH   3   4
ENDBRANCH   2   3
ENDBRANCH   1   2
BRANCH   1   9
ATOM      9  C   UNL     1    -100.116  29.875 -38.358  1.00  0.00     0.000 C 
BRANCH   9  10
ATOM     10  C   UNL     1     -99.516  30.830 -37.310  1.00  0.00    -0.000 C 
BRANCH  10  11
ATOM     11  C   UNL     1     -99.556  32.302 -37.746  1.00  0.00    -0.000 C 
BRANCH  11  12
ATOM     12  C   UNL     1     -98.158  32.929 -37.696  1.00  0.00    -0.000 C 
BRANCH  12  13
ATOM     13  C   UNL     1     -97.416  32.724 -39.022  1.00  0.00    -0.003 C 
ATOM     14  C   UNL     1     -98.096  33.486 -40.157  1.00  0.00     0.004 C 
ENDBRANCH  12  13
ENDBRANCH  11  12
ENDBRANCH  10  11
ENDBRANCH   9  10
ENDBRANCH   1   9
TORSDOF 10
ENDMDL
MODEL 4
REMARK VINA RESULT:    -3.493      3.209      5.517
REMARK INTER + INTRA:          -6.748
REMARK INTER:                  -5.841
REMARK INTRA:                  -0.907
REMARK UNBOUND:                -1.214
REMARK SMILES CCCCCCCCCCCC(=O)[O-]
REMARK SMILES IDX 7 1 8 2 9 3 10 4 11 5 12 6 13 7 14 8 6 9 5 10 4 11 3 12 2 13
REMARK SMILES IDX 1 14
REMARK H PARENT
REMARK Flexibility Score: inf
ROOT
ATOM      1  C   UNL     1    -100.583  30.187 -34.894  1.00  0.00     0.000 C 
ENDROOT
BRANCH   1   2
ATOM      2  C   UNL     1     -99.724  31.411 -35.258  1.00  0.00     0.000 C 
BRANCH   2   3
ATOM      3  C   UNL     1    -100.178  32.083 -36.563  1.00  0.00     0.000 C 
BRANCH   3   4
ATOM      4  C   UNL     1     -99.151  31.928 -37.694  1.00  0.00     0.006 C 
BRANCH   4   5
ATOM      5  C   UNL     1     -98.523  33.279 -38.052  1.00  0.00     0.053 C 
BRANCH   5   6
ATOM      6  C   UNL     1     -97.804  33.192 -39.360  1.00  0.00     0.041 C 
ATOM      7  O   UNL     1     -96.709  32.574 -39.443  1.00  0.00    -0.550 OA
ATOM      8  O   UNL     1     -98.366  33.751 -40.502  1.00  0.00    -0.550 OA
ENDBRANCH   5   6
ENDBRANCH   4   5
ENDBRANCH   3   4
ENDBRANCH   2   3
ENDBRANCH   1   2
BRANCH   1   9
ATOM      9  C   UNL     1    -101.319  30.352 -33.552  1.00  0.00     0.000 C 
BRANCH   9  10
ATOM     10  C   UNL     1    -101.828  31.776 -33.262  1.00  0.00    -0.000 C 
BRANCH  10  11
ATOM     11  C   UNL     1    -103.299  31.808 -32.821  1.00  0.00    -0.000 C 
BRANCH  11  12
ATOM     12  C   UNL     1    -104.232  31.943 -34.029  1.00  0.00    -0.000 C 
BRANCH  12  13
ATOM     13  C   UNL     1    -103.539  32.681 -35.180  1.00  0.00    -0.003 C 
ATOM     14  C   UNL     1    -103.877  32.046 -36.526  1.00  0.00     0.004 C 
ENDBRANCH  12  13
ENDBRANCH  11  12
ENDBRANCH  10  11
ENDBRANCH   9  10
ENDBRANCH   1   9
TORSDOF 10
ENDMDL
MODEL 5
REMARK VINA RESULT:    -3.417      3.009      5.522
REMARK INTER + INTRA:          -6.628
REMARK INTER:                  -5.555
REMARK INTRA:                  -1.073
REMARK UNBOUND:                -1.214
REMARK SMILES CCCCCCCCCCCC(=O)[O-]
REMARK SMILES IDX 7 1 8 2 9 3 10 4 11 5 12 6 13 7 14 8 6 9 5 10 4 11 3 12 2 13
REMARK SMILES IDX 1 14
REMARK H PARENT
REMARK Flexibility Score: inf
ROOT
ATOM      1  C   UNL     1    -103.811  31.166 -36.926  1.00  0.00     0.000 C 
ENDROOT
BRANCH   1   2
ATOM      2  C   UNL     1    -102.515  31.383 -37.727  1.00  0.00     0.000 C 
BRANCH   2   3
ATOM      3  C   UNL     1    -101.296  30.720 -37.068  1.00  0.00     0.000 C 
BRANCH   3   4
ATOM      4  C   UNL     1    -100.074  31.649 -37.020  1.00  0.00     0.006 C 
BRANCH   4   5
ATOM      5  C   UNL     1     -99.200  31.469 -38.265  1.00  0.00     0.053 C 
BRANCH   5   6
ATOM      6  C   UNL     1     -98.343  32.674 -38.483  1.00  0.00     0.041 C 
ATOM      7  O   UNL     1     -97.346  32.613 -39.251  1.00  0.00    -0.550 OA
ATOM      8  O   UNL     1     -98.672  33.881 -37.878  1.00  0.00    -0.550 OA
ENDBRANCH   5   6
ENDBRANCH   4   5
ENDBRANCH   3   4
ENDBRANCH   2   3
ENDBRANCH   1   2
BRANCH   1   9
ATOM      9  C   UNL     1    -104.425  32.482 -36.415  1.00  0.00     0.000 C 
BRANCH   9  10
ATOM     10  C   UNL     1    -103.957  32.915 -35.013  1.00  0.00    -0.000 C 
BRANCH  10  11
ATOM     11  C   UNL     1    -104.171  31.828 -33.948  1.00  0.00    -0.000 C 
BRANCH  11  12
ATOM     12  C   UNL     1    -103.030  31.829 -32.925  1.00  0.00    -0.000 C 
BRANCH  12  13
ATOM     13  C   UNL     1    -101.665  31.850 -33.624  1.00  0.00    -0.003 C 
ATOM     14  C   UNL     1    -100.888  30.565 -33.353  1.00  0.00     0.004 C 
ENDBRANCH  12  13
ENDBRANCH  11  12
ENDBRANCH  10  11
ENDBRANCH   9  10
ENDBRANCH   1   9
TORSDOF 10
ENDMDL
MODEL 6
REMARK VINA RESULT:    -3.345      1.315      2.277
REMARK INTER + INTRA:          -6.515
REMARK INTER:                  -5.720
REMARK INTRA:                  -0.795
REMARK UNBOUND:                -1.214
REMARK SMILES CCCCCCCCCCCC(=O)[O-]
REMARK SMILES IDX 7 1 8 2 9 3 10 4 11 5 12 6 13 7 14 8 6 9 5 10 4 11 3 12 2 13
REMARK SMILES IDX 1 14
REMARK H PARENT
REMARK Flexibility Score: inf
ROOT
ATOM      1  C   UNL     1    -103.004  31.479 -36.219  1.00  0.00     0.000 C 
ENDROOT
BRANCH   1   2
ATOM      2  C   UNL     1    -102.837  30.280 -37.169  1.00  0.00     0.000 C 
BRANCH   2   3
ATOM      3  C   UNL     1    -102.970  30.676 -38.648  1.00  0.00     0.000 C 
BRANCH   3   4
ATOM      4  C   UNL     1    -104.017  31.777 -38.871  1.00  0.00     0.006 C 
BRANCH   4   5
ATOM      5  C   UNL     1    -105.410  31.174 -39.077  1.00  0.00     0.053 C 
BRANCH   5   6
ATOM      6  C   UNL     1    -106.388  31.774 -38.119  1.00  0.00     0.041 C 
ATOM      7  O   UNL     1    -107.034  31.038 -37.327  1.00  0.00    -0.550 OA
ATOM      8  O   UNL     1    -106.551  33.153 -38.063  1.00  0.00    -0.550 OA
ENDBRANCH   5   6
ENDBRANCH   4   5
ENDBRANCH   3   4
ENDBRANCH   2   3
ENDBRANCH   1   2
BRANCH   1   9
ATOM      9  C   UNL     1    -101.660  32.016 -35.694  1.00  0.00     0.000 C 
BRANCH   9  10
ATOM     10  C   UNL     1    -100.447  31.108 -35.967  1.00  0.00    -0.000 C 
BRANCH  10  11
ATOM     11  C   UNL     1     -99.208  31.887 -36.434  1.00  0.00    -0.000 C 
BRANCH  11  12
ATOM     12  C   UNL     1     -99.242  32.114 -37.950  1.00  0.00    -0.000 C 
BRANCH  12  13
ATOM     13  C   UNL     1     -98.331  33.280 -38.351  1.00  0.00    -0.003 C 
ATOM     14  C   UNL     1     -97.228  32.817 -39.299  1.00  0.00     0.004 C 
ENDBRANCH  12  13
ENDBRANCH  11  12
ENDBRANCH  10  11
ENDBRANCH   9  10
ENDBRANCH   1   9
TORSDOF 10
ENDMDL
MODEL 7
REMARK VINA RESULT:    -3.274      2.685      4.920
REMARK INTER + INTRA:          -6.402
REMARK INTER:                  -5.300
REMARK INTRA:                  -1.102
REMARK UNBOUND:                -1.214
REMARK SMILES CCCCCCCCCCCC(=O)[O-]
REMARK SMILES IDX 7 1 8 2 9 3 10 4 11 5 12 6 13 7 14 8 6 9 5 10 4 11 3 12 2 13
REMARK SMILES IDX 1 14
REMARK H PARENT
REMARK Flexibility Score: inf
ROOT
ATOM      1  C   UNL     1    -101.772  31.949 -33.368  1.00  0.00     0.000 C 
ENDROOT
BRANCH   1   2
ATOM      2  C   UNL     1    -100.834  30.745 -33.566  1.00  0.00     0.000 C 
BRANCH   2   3
ATOM      3  C   UNL     1     -99.828  30.963 -34.707  1.00  0.00     0.000 C 
BRANCH   3   4
ATOM      4  C   UNL     1    -100.514  31.258 -36.050  1.00  0.00     0.006 C 
BRANCH   4   5
ATOM      5  C   UNL     1     -99.747  32.327 -36.833  1.00  0.00     0.053 C 
BRANCH   5   6
ATOM      6  C   UNL     1     -99.214  31.759 -38.110  1.00  0.00     0.041 C 
ATOM      7  O   UNL     1     -99.593  30.626 -38.508  1.00  0.00    -0.550 OA
ATOM      8  O   UNL     1     -98.336  32.503 -38.890  1.00  0.00    -0.550 OA
ENDBRANCH   5   6
ENDBRANCH   4   5
ENDBRANCH   3   4
ENDBRANCH   2   3
ENDBRANCH   1   2
BRANCH   1   9
ATOM      9  C   UNL     1    -103.214  31.533 -33.025  1.00  0.00     0.000 C 
BRANCH   9  10
ATOM     10  C   UNL     1    -104.243  31.777 -34.144  1.00  0.00    -0.000 C 
BRANCH  10  11
ATOM     11  C   UNL     1    -103.775  32.819 -35.171  1.00  0.00    -0.000 C 
BRANCH  11  12
ATOM     12  C   UNL     1    -104.408  32.560 -36.543  1.00  0.00    -0.000 C 
BRANCH  12  13
ATOM     13  C   UNL     1    -103.879  31.258 -37.155  1.00  0.00    -0.003 C 
ATOM     14  C   UNL     1    -103.596  31.425 -38.646  1.00  0.00     0.004 C 
ENDBRANCH  12  13
ENDBRANCH  11  12
ENDBRANCH  10  11
ENDBRANCH   9  10
ENDBRANCH   1   9
TORSDOF 10
ENDMDL
MODEL 8
REMARK VINA RESULT:    -3.262      2.225      3.128
REMARK INTER + INTRA:          -6.383
REMARK INTER:                  -5.922
REMARK INTRA:                  -0.461
REMARK UNBOUND:                -1.214
REMARK SMILES CCCCCCCCCCCC(=O)[O-]
REMARK SMILES IDX 7 1 8 2 9 3 10 4 11 5 12 6 13 7 14 8 6 9 5 10 4 11 3 12 2 13
REMARK SMILES IDX 1 14
REMARK H PARENT
REMARK Flexibility Score: inf
ROOT
ATOM      1  C   UNL     1    -102.717  31.368 -37.536  1.00  0.00     0.000 C 
ENDROOT
BRANCH   1   2
ATOM      2  C   UNL     1    -103.986  31.841 -38.266  1.00  0.00     0.000 C 
BRANCH   2   3
ATOM      3  C   UNL     1    -104.863  32.754 -37.394  1.00  0.00     0.000 C 
BRANCH   3   4
ATOM      4  C   UNL     1    -106.173  33.152 -38.091  1.00  0.00     0.006 C 
BRANCH   4   5
ATOM      5  C   UNL     1    -107.359  33.042 -37.129  1.00  0.00     0.053 C 
BRANCH   5   6
ATOM      6  C   UNL     1    -108.030  31.714 -37.273  1.00  0.00     0.041 C 
ATOM      7  O   UNL     1    -108.976  31.566 -38.092  1.00  0.00    -0.550 OA
ATOM      8  O   UNL     1    -107.579  30.623 -36.540  1.00  0.00    -0.550 OA
ENDBRANCH   5   6
ENDBRANCH   4   5
ENDBRANCH   3   4
ENDBRANCH   2   3
ENDBRANCH   1   2
BRANCH   1   9
ATOM      9  C   UNL     1    -101.765  30.571 -38.446  1.00  0.00     0.000 C 
BRANCH   9  10
ATOM     10  C   UNL     1    -100.304  31.056 -38.440  1.00  0.00    -0.000 C 
BRANCH  10  11
ATOM     11  C   UNL     1     -99.987  31.987 -37.261  1.00  0.00    -0.000 C 
BRANCH  11  12
ATOM     12  C   UNL     1     -98.543  32.497 -37.336  1.00  0.00    -0.000 C 
BRANCH  12  13
ATOM     13  C   UNL     1     -98.321  33.335 -38.601  1.00  0.00    -0.003 C 
ATOM     14  C   UNL     1     -97.143  32.804 -39.413  1.00  0.00     0.004 C 
ENDBRANCH  12  13
ENDBRANCH  11  12
ENDBRANCH  10  11
ENDBRANCH   9  10
ENDBRANCH   1   9
TORSDOF 10
ENDMDL
MODEL 9
REMARK VINA RESULT:    -3.201      2.278      3.599
REMARK INTER + INTRA:          -6.286
REMARK INTER:                  -5.710
REMARK INTRA:                  -0.576
REMARK UNBOUND:                -1.214
REMARK SMILES CCCCCCCCCCCC(=O)[O-]
REMARK SMILES IDX 7 1 8 2 9 3 10 4 11 5 12 6 13 7 14 8 6 9 5 10 4 11 3 12 2 13
REMARK SMILES IDX 1 14
REMARK H PARENT
REMARK Flexibility Score: inf
ROOT
ATOM      1  C   UNL     1    -103.810  31.637 -38.845  1.00  0.00     0.000 C 
ENDROOT
BRANCH   1   2
ATOM      2  C   UNL     1    -105.290  31.669 -38.428  1.00  0.00     0.000 C 
BRANCH   2   3
ATOM      3  C   UNL     1    -105.682  32.989 -37.744  1.00  0.00     0.000 C 
BRANCH   3   4
ATOM      4  C   UNL     1    -106.473  32.767 -36.445  1.00  0.00     0.006 C 
BRANCH   4   5
ATOM      5  C   UNL     1    -105.660  31.939 -35.445  1.00  0.00     0.053 C 
BRANCH   5   6
ATOM      6  C   UNL     1    -104.703  32.812 -34.698  1.00  0.00     0.041 C 
ATOM      7  O   UNL     1    -103.497  32.882 -35.056  1.00  0.00    -0.550 OA
ATOM      8  O   UNL     1    -105.151  33.589 -33.637  1.00  0.00    -0.550 OA
ENDBRANCH   5   6
ENDBRANCH   4   5
ENDBRANCH   3   4
ENDBRANCH   2   3
ENDBRANCH   1   2
BRANCH   1   9
ATOM      9  C   UNL     1    -102.907  30.966 -37.794  1.00  0.00     0.000 C 
BRANCH   9  10
ATOM     10  C   UNL     1    -101.427  30.835 -38.199  1.00  0.00    -0.000 C 
BRANCH  10  11
ATOM     11  C   UNL     1    -100.491  31.692 -37.334  1.00  0.00    -0.000 C 
BRANCH  11  12
ATOM     12  C   UNL     1     -99.046  31.606 -37.837  1.00  0.00    -0.000 C 
BRANCH  12  13
ATOM     13  C   UNL     1     -98.562  32.967 -38.354  1.00  0.00    -0.003 C 
ATOM     14  C   UNL     1     -97.283  32.821 -39.174  1.00  0.00     0.004 C 
ENDBRANCH  12  13
ENDBRANCH  11  12
ENDBRANCH  10  11
ENDBRANCH   9  10
ENDBRANCH   1   9
TORSDOF 10
ENDMDL
