MODEL 1
REMARK VINA RESULT:    -3.994      0.000      0.000
REMARK INTER + INTRA:          -4.800
REMARK INTER:                  -4.695
REMARK INTRA:                  -0.105
REMARK UNBOUND:                -0.105
REMARK SMILES CCCCC(=O)[O-]
REMARK SMILES IDX 4 1 5 2 6 3 7 4 3 5 2 6 1 7
REMARK H PARENT
REMARK Flexibility Score: inf
ROOT
ATOM      1  C   UNL     1       4.974  13.197   0.615  1.00  0.00     0.053 C 
ENDROOT
BRANCH   1   2
ATOM      2  C   UNL     1       6.091  14.192   0.576  1.00  0.00     0.041 C 
ATOM      3  O   UNL     1       5.883  15.364   0.168  1.00  0.00    -0.550 OA
ATOM      4  O   UNL     1       7.375  13.810   0.945  1.00  0.00    -0.550 OA
ENDBRANCH   1   2
BRANCH   1   5
ATOM      5  C   UNL     1       4.318  13.180   1.998  1.00  0.00     0.006 C 
BRANCH   5   6
ATOM      6  C   UNL     1       3.028  14.009   2.004  1.00  0.00    -0.003 C 
ATOM      7  C   UNL     1       2.343  13.971   0.640  1.00  0.00     0.004 C 
ENDBRANCH   5   6
ENDBRANCH   1   5
TORSDOF 3
ENDMDL
MODEL 2
REMARK VINA RESULT:    -3.982      2.830      3.848
REMARK INTER + INTRA:          -4.786
REMARK INTER:                  -4.731
REMARK INTRA:                  -0.054
REMARK UNBOUND:                -0.105
REMARK SMILES CCCCC(=O)[O-]
REMARK SMILES IDX 4 1 5 2 6 3 7 4 3 5 2 6 1 7
REMARK H PARENT
REMARK Flexibility Score: inf
ROOT
ATOM      1  C   UNL     1       3.078  13.829   1.066  1.00  0.00     0.053 C 
ENDROOT
BRANCH   1   2
ATOM      2  C   UNL     1       2.015  14.227   2.041  1.00  0.00     0.041 C 
ATOM      3  O   UNL     1       0.824  13.857   1.867  1.00  0.00    -0.550 OA
ATOM      4  O   UNL     1       2.331  15.048   3.117  1.00  0.00    -0.550 OA
ENDBRANCH   1   2
BRANCH   1   5
ATOM      5  C   UNL     1       4.226  13.114   1.785  1.00  0.00     0.006 C 
BRANCH   5   6
ATOM      6  C   UNL     1       5.559  13.361   1.070  1.00  0.00    -0.003 C 
ATOM      7  C   UNL     1       5.490  14.606   0.190  1.00  0.00     0.004 C 
ENDBRANCH   5   6
ENDBRANCH   1   5
TORSDOF 3
ENDMDL
MODEL 3
REMARK VINA RESULT:    -3.952      2.455      3.694
REMARK INTER + INTRA:          -4.751
REMARK INTER:                  -4.688
REMARK INTRA:                  -0.063
REMARK UNBOUND:                -0.105
REMARK SMILES CCCCC(=O)[O-]
REMARK SMILES IDX 4 1 5 2 6 3 7 4 3 5 2 6 1 7
REMARK H PARENT
REMARK Flexibility Score: inf
ROOT
ATOM      1  C   UNL     1       4.204  13.098   1.968  1.00  0.00     0.053 C 
ENDROOT
BRANCH   1   2
ATOM      2  C   UNL     1       3.000  13.945   1.696  1.00  0.00     0.041 C 
ATOM      3  O   UNL     1       2.355  13.805   0.625  1.00  0.00    -0.550 OA
ATOM      4  O   UNL     1       2.620  14.924   2.606  1.00  0.00    -0.550 OA
ENDBRANCH   1   2
BRANCH   1   5
ATOM      5  C   UNL     1       5.153  13.114   0.765  1.00  0.00     0.006 C 
BRANCH   5   6
ATOM      6  C   UNL     1       6.117  14.303   0.842  1.00  0.00    -0.003 C 
ATOM      7  C   UNL     1       7.569  13.840   0.772  1.00  0.00     0.004 C 
ENDBRANCH   5   6
ENDBRANCH   1   5
TORSDOF 3
ENDMDL
MODEL 4
REMARK VINA RESULT:    -3.907      2.844      3.224
REMARK INTER + INTRA:          -4.698
REMARK INTER:                  -4.656
REMARK INTRA:                  -0.041
REMARK UNBOUND:                -0.105
REMARK SMILES CCCCC(=O)[O-]
REMARK SMILES IDX 4 1 5 2 6 3 7 4 3 5 2 6 1 7
REMARK H PARENT
REMARK Flexibility Score: inf
ROOT
ATOM      1  C   UNL     1       5.769  14.618   2.846  1.00  0.00     0.053 C 
ENDROOT
BRANCH   1   2
ATOM      2  C   UNL     1       6.073  15.675   3.860  1.00  0.00     0.041 C 
ATOM      3  O   UNL     1       7.227  16.173   3.931  1.00  0.00    -0.550 OA
ATOM      4  O   UNL     1       5.094  16.075   4.762  1.00  0.00    -0.550 OA
ENDBRANCH   1   2
BRANCH   1   5
ATOM      5  C   UNL     1       4.313  14.159   2.969  1.00  0.00     0.006 C 
BRANCH   5   6
ATOM      6  C   UNL     1       3.890  13.342   1.743  1.00  0.00    -0.003 C 
ATOM      7  C   UNL     1       4.994  13.318   0.689  1.00  0.00     0.004 C 
ENDBRANCH   5   6
ENDBRANCH   1   5
TORSDOF 3
ENDMDL
MODEL 5
REMARK VINA RESULT:    -3.873      2.963      3.398
REMARK INTER + INTRA:          -4.657
REMARK INTER:                  -4.602
REMARK INTRA:                  -0.055
REMARK UNBOUND:                -0.105
REMARK SMILES CCCCC(=O)[O-]
REMARK SMILES IDX 4 1 5 2 6 3 7 4 3 5 2 6 1 7
REMARK H PARENT
REMARK Flexibility Score: inf
ROOT
ATOM      1  C   UNL     1       4.914  15.425   2.736  1.00  0.00     0.053 C 
ENDROOT
BRANCH   1   2
ATOM      2  C   UNL     1       5.583  15.880   3.995  1.00  0.00     0.041 C 
ATOM      3  O   UNL     1       4.902  16.108   5.029  1.00  0.00    -0.550 OA
ATOM      4  O   UNL     1       6.955  16.101   4.012  1.00  0.00    -0.550 OA
ENDBRANCH   1   2
BRANCH   1   5
ATOM      5  C   UNL     1       4.237  14.067   2.949  1.00  0.00     0.006 C 
BRANCH   5   6
ATOM      6  C   UNL     1       4.413  13.169   1.719  1.00  0.00    -0.003 C 
ATOM      7  C   UNL     1       5.764  13.408   1.051  1.00  0.00     0.004 C 
ENDBRANCH   5   6
ENDBRANCH   1   5
TORSDOF 3
ENDMDL
MODEL 6
REMARK VINA RESULT:    -3.867      3.506      4.652
REMARK INTER + INTRA:          -4.651
REMARK INTER:                  -4.606
REMARK INTRA:                  -0.045
REMARK UNBOUND:                -0.105
REMARK SMILES CCCCC(=O)[O-]
REMARK SMILES IDX 4 1 5 2 6 3 7 4 3 5 2 6 1 7
REMARK H PARENT
REMARK Flexibility Score: inf
ROOT
ATOM      1  C   UNL     1       1.903  13.885   1.187  1.00  0.00     0.053 C 
ENDROOT
BRANCH   1   2
ATOM      2  C   UNL     1       0.774  14.125   2.140  1.00  0.00     0.041 C 
ATOM      3  O   UNL     1       0.961  14.798   3.188  1.00  0.00    -0.550 OA
ATOM      4  O   UNL     1      -0.473  13.564   1.896  1.00  0.00    -0.550 OA
ENDBRANCH   1   2
BRANCH   1   5
ATOM      5  C   UNL     1       3.232  14.331   1.805  1.00  0.00     0.006 C 
BRANCH   5   6
ATOM      6  C   UNL     1       4.153  13.130   2.049  1.00  0.00    -0.003 C 
ATOM      7  C   UNL     1       5.316  13.119   1.060  1.00  0.00     0.004 C 
ENDBRANCH   5   6
ENDBRANCH   1   5
TORSDOF 3
ENDMDL
MODEL 7
REMARK VINA RESULT:    -3.795      2.291      2.512
REMARK INTER + INTRA:          -4.566
REMARK INTER:                  -4.518
REMARK INTRA:                  -0.047
REMARK UNBOUND:                -0.105
REMARK SMILES CCCCC(=O)[O-]
REMARK SMILES IDX 4 1 5 2 6 3 7 4 3 5 2 6 1 7
REMARK H PARENT
REMARK Flexibility Score: inf
ROOT
ATOM      1  C   UNL     1       4.306  14.620   3.152  1.00  0.00     0.053 C 
ENDROOT
BRANCH   1   2
ATOM      2  C   UNL     1       5.656  15.143   3.532  1.00  0.00     0.041 C 
ATOM      3  O   UNL     1       5.765  16.045   4.403  1.00  0.00    -0.550 OA
ATOM      4  O   UNL     1       6.791  14.669   2.886  1.00  0.00    -0.550 OA
ENDBRANCH   1   2
BRANCH   1   5
ATOM      5  C   UNL     1       4.440  13.446   2.177  1.00  0.00     0.006 C 
BRANCH   5   6
ATOM      6  C   UNL     1       3.629  13.698   0.901  1.00  0.00    -0.003 C 
ATOM      7  C   UNL     1       2.154  13.921   1.221  1.00  0.00     0.004 C 
ENDBRANCH   5   6
ENDBRANCH   1   5
TORSDOF 3
ENDMDL
MODEL 8
REMARK VINA RESULT:    -3.734      1.900      2.657
REMARK INTER + INTRA:          -4.495
REMARK INTER:                  -4.397
REMARK INTRA:                  -0.098
REMARK UNBOUND:                -0.105
REMARK SMILES CCCCC(=O)[O-]
REMARK SMILES IDX 4 1 5 2 6 3 7 4 3 5 2 6 1 7
REMARK H PARENT
REMARK Flexibility Score: inf
ROOT
ATOM      1  C   UNL     1       7.384  13.803   0.782  1.00  0.00     0.053 C 
ENDROOT
BRANCH   1   2
ATOM      2  C   UNL     1       8.069  14.529   1.897  1.00  0.00     0.041 C 
ATOM      3  O   UNL     1       9.225  14.998   1.733  1.00  0.00    -0.550 OA
ATOM      4  O   UNL     1       7.448  14.645   3.135  1.00  0.00    -0.550 OA
ENDBRANCH   1   2
BRANCH   1   5
ATOM      5  C   UNL     1       5.973  14.360   0.566  1.00  0.00     0.006 C 
BRANCH   5   6
ATOM      6  C   UNL     1       4.927  13.241   0.625  1.00  0.00    -0.003 C 
ATOM      7  C   UNL     1       4.226  13.214   1.981  1.00  0.00     0.004 C 
ENDBRANCH   5   6
ENDBRANCH   1   5
TORSDOF 3
ENDMDL
MODEL 9
REMARK VINA RESULT:    -3.702      2.531      3.335
REMARK INTER + INTRA:          -4.457
REMARK INTER:                  -4.381
REMARK INTRA:                  -0.076
REMARK UNBOUND:                -0.105
REMARK SMILES CCCCC(=O)[O-]
REMARK SMILES IDX 4 1 5 2 6 3 7 4 3 5 2 6 1 7
REMARK H PARENT
REMARK Flexibility Score: inf
ROOT
ATOM      1  C   UNL     1       4.188  13.494   2.112  1.00  0.00     0.053 C 
ENDROOT
BRANCH   1   2
ATOM      2  C   UNL     1       3.387  14.257   1.104  1.00  0.00     0.041 C 
ATOM      3  O   UNL     1       2.253  13.842   0.749  1.00  0.00    -0.550 OA
ATOM      4  O   UNL     1       3.915  15.401   0.520  1.00  0.00    -0.550 OA
ENDBRANCH   1   2
BRANCH   1   5
ATOM      5  C   UNL     1       4.785  14.444   3.154  1.00  0.00     0.006 C 
BRANCH   5   6
ATOM      6  C   UNL     1       3.686  15.061   4.027  1.00  0.00    -0.003 C 
ATOM      7  C   UNL     1       4.283  15.839   5.197  1.00  0.00     0.004 C 
ENDBRANCH   5   6
ENDBRANCH   1   5
TORSDOF 3
ENDMDL
