MODEL 1
REMARK VINA RESULT:     7.896      0.000      0.000
REMARK INTER + INTRA:          13.464
REMARK INTER:                  13.896
REMARK INTRA:                  -0.433
REMARK UNBOUND:                -0.433
REMARK SMILES CCCCCCCCCCCCCCC(=O)[O-]
REMARK SMILES IDX 9 1 10 2 11 3 12 4 13 5 14 6 15 7 16 8 17 9 8 10 7 11 6 12
REMARK SMILES IDX 5 13 4 14 3 15 2 16 1 17
REMARK H PARENT
REMARK Flexibility Score: inf
ROOT
ATOM      1  C   UNL     1     -13.186  18.229 -15.956  1.00  0.00     0.000 C 
ENDROOT
BRANCH   1   2
ATOM      2  C   UNL     1     -14.458  17.912 -16.763  1.00  0.00     0.000 C 
BRANCH   2   3
ATOM      3  C   UNL     1     -14.249  17.767 -18.284  1.00  0.00     0.000 C 
BRANCH   3   4
ATOM      4  C   UNL     1     -14.682  18.985 -19.125  1.00  0.00     0.000 C 
BRANCH   4   5
ATOM      5  C   UNL     1     -13.571  19.597 -19.997  1.00  0.00     0.006 C 
BRANCH   5   6
ATOM      6  C   UNL     1     -14.106  20.609 -21.018  1.00  0.00     0.053 C 
BRANCH   6   7
ATOM      7  C   UNL     1     -13.682  20.229 -22.401  1.00  0.00     0.041 C 
ATOM      8  O   UNL     1     -14.053  19.133 -22.898  1.00  0.00    -0.550 OA
ATOM      9  O   UNL     1     -12.836  21.061 -23.123  1.00  0.00    -0.550 OA
ENDBRANCH   6   7
ENDBRANCH   5   6
ENDBRANCH   4   5
ENDBRANCH   3   4
ENDBRANCH   2   3
ENDBRANCH   1   2
BRANCH   1  10
ATOM     10  C   UNL     1     -13.482  18.982 -14.648  1.00  0.00     0.000 C 
BRANCH  10  11
ATOM     11  C   UNL     1     -12.237  19.129 -13.758  1.00  0.00    -0.000 C 
BRANCH  11  12
ATOM     12  C   UNL     1     -12.566  19.724 -12.377  1.00  0.00    -0.000 C 
BRANCH  12  13
ATOM     13  C   UNL     1     -12.982  18.649 -11.359  1.00  0.00    -0.000 C 
BRANCH  13  14
ATOM     14  C   UNL     1     -13.665  19.242 -10.115  1.00  0.00    -0.000 C 
BRANCH  14  15
ATOM     15  C   UNL     1     -12.860  18.974  -8.826  1.00  0.00    -0.000 C 
BRANCH  15  16
ATOM     16  C   UNL     1     -13.051  20.053  -7.746  1.00  0.00    -0.003 C 
ATOM     17  C   UNL     1     -12.103  21.239  -7.911  1.00  0.00     0.004 C 
ENDBRANCH  15  16
ENDBRANCH  14  15
ENDBRANCH  13  14
ENDBRANCH  12  13
ENDBRANCH  11  12
ENDBRANCH  10  11
ENDBRANCH   1  10
TORSDOF 13
ENDMDL
MODEL 2
REMARK VINA RESULT:     7.997      1.413      1.828
REMARK INTER + INTRA:          13.642
REMARK INTER:                  13.941
REMARK INTRA:                  -0.299
REMARK UNBOUND:                -0.433
REMARK SMILES CCCCCCCCCCCCCCC(=O)[O-]
REMARK SMILES IDX 9 1 10 2 11 3 12 4 13 5 14 6 15 7 16 8 17 9 8 10 7 11 6 12
REMARK SMILES IDX 5 13 4 14 3 15 2 16 1 17
REMARK H PARENT
REMARK Flexibility Score: inf
ROOT
ATOM      1  C   UNL     1     -11.415  18.819 -15.413  1.00  0.00     0.000 C 
ENDROOT
BRANCH   1   2
ATOM      2  C   UNL     1     -11.066  19.619 -16.682  1.00  0.00     0.000 C 
BRANCH   2   3
ATOM      3  C   UNL     1     -11.423  18.923 -18.012  1.00  0.00     0.000 C 
BRANCH   3   4
ATOM      4  C   UNL     1     -11.852  19.868 -19.153  1.00  0.00     0.000 C 
BRANCH   4   5
ATOM      5  C   UNL     1     -12.970  19.322 -20.060  1.00  0.00     0.006 C 
BRANCH   5   6
ATOM      6  C   UNL     1     -13.721  20.429 -20.810  1.00  0.00     0.053 C 
BRANCH   6   7
ATOM      7  C   UNL     1     -13.574  20.250 -22.288  1.00  0.00     0.041 C 
ATOM      8  O   UNL     1     -13.057  21.160 -22.987  1.00  0.00    -0.550 OA
ATOM      9  O   UNL     1     -14.054  19.100 -22.900  1.00  0.00    -0.550 OA
ENDBRANCH   6   7
ENDBRANCH   5   6
ENDBRANCH   4   5
ENDBRANCH   3   4
ENDBRANCH   2   3
ENDBRANCH   1   2
BRANCH   1  10
ATOM     10  C   UNL     1     -11.653  19.720 -14.189  1.00  0.00     0.000 C 
BRANCH  10  11
ATOM     11  C   UNL     1     -12.982  19.412 -13.481  1.00  0.00    -0.000 C 
BRANCH  11  12
ATOM     12  C   UNL     1     -12.785  18.619 -12.176  1.00  0.00    -0.000 C 
BRANCH  12  13
ATOM     13  C   UNL     1     -13.066  19.469 -10.926  1.00  0.00    -0.000 C 
BRANCH  13  14
ATOM     14  C   UNL     1     -12.910  18.672  -9.620  1.00  0.00    -0.000 C 
BRANCH  14  15
ATOM     15  C   UNL     1     -13.736  19.278  -8.465  1.00  0.00    -0.000 C 
BRANCH  15  16
ATOM     16  C   UNL     1     -12.881  20.007  -7.414  1.00  0.00    -0.003 C 
ATOM     17  C   UNL     1     -12.120  21.202  -7.986  1.00  0.00     0.004 C 
ENDBRANCH  15  16
ENDBRANCH  14  15
ENDBRANCH  13  14
ENDBRANCH  12  13
ENDBRANCH  11  12
ENDBRANCH  10  11
ENDBRANCH   1  10
TORSDOF 13
ENDMDL
MODEL 3
REMARK VINA RESULT:     8.928      5.576     10.673
REMARK INTER + INTRA:          15.281
REMARK INTER:                  15.612
REMARK INTRA:                  -0.331
REMARK UNBOUND:                -0.433
REMARK SMILES CCCCCCCCCCCCCCC(=O)[O-]
REMARK SMILES IDX 9 1 10 2 11 3 12 4 13 5 14 6 15 7 16 8 17 9 8 10 7 11 6 12
REMARK SMILES IDX 5 13 4 14 3 15 2 16 1 17
REMARK H PARENT
REMARK Flexibility Score: inf
ROOT
ATOM      1  C   UNL     1     -11.772  19.754 -14.524  1.00  0.00     0.000 C 
ENDROOT
BRANCH   1   2
ATOM      2  C   UNL     1     -12.261  18.776 -13.440  1.00  0.00     0.000 C 
BRANCH   2   3
ATOM      3  C   UNL     1     -13.077  19.418 -12.299  1.00  0.00     0.000 C 
BRANCH   3   4
ATOM      4  C   UNL     1     -13.110  18.616 -10.983  1.00  0.00     0.000 C 
BRANCH   4   5
ATOM      5  C   UNL     1     -13.529  19.424  -9.742  1.00  0.00     0.006 C 
BRANCH   5   6
ATOM      6  C   UNL     1     -12.565  19.246  -8.563  1.00  0.00     0.053 C 
BRANCH   6   7
ATOM      7  C   UNL     1     -12.493  20.503  -7.754  1.00  0.00     0.041 C 
ATOM      8  O   UNL     1     -11.764  21.457  -8.131  1.00  0.00    -0.550 OA
ATOM      9  O   UNL     1     -13.192  20.602  -6.558  1.00  0.00    -0.550 OA
ENDBRANCH   6   7
ENDBRANCH   5   6
ENDBRANCH   4   5
ENDBRANCH   3   4
ENDBRANCH   2   3
ENDBRANCH   1   2
BRANCH   1  10
ATOM     10  C   UNL     1     -10.935  19.065 -15.614  1.00  0.00     0.000 C 
BRANCH  10  11
ATOM     11  C   UNL     1     -10.850  19.896 -16.905  1.00  0.00    -0.000 C 
BRANCH  11  12
ATOM     12  C   UNL     1     -11.452  19.164 -18.119  1.00  0.00    -0.000 C 
BRANCH  12  13
ATOM     13  C   UNL     1     -11.826  20.127 -19.257  1.00  0.00    -0.000 C 
BRANCH  13  14
ATOM     14  C   UNL     1     -12.561  19.424 -20.411  1.00  0.00    -0.000 C 
BRANCH  14  15
ATOM     15  C   UNL     1     -13.817  20.199 -20.860  1.00  0.00    -0.000 C 
BRANCH  15  16
ATOM     16  C   UNL     1     -13.820  20.552 -22.357  1.00  0.00    -0.003 C 
ATOM     17  C   UNL     1     -12.559  20.088 -23.084  1.00  0.00     0.004 C 
ENDBRANCH  15  16
ENDBRANCH  14  15
ENDBRANCH  13  14
ENDBRANCH  12  13
ENDBRANCH  11  12
ENDBRANCH  10  11
ENDBRANCH   1  10
TORSDOF 13
ENDMDL
MODEL 4
REMARK VINA RESULT:     9.098      5.235     10.364
REMARK INTER + INTRA:          15.579
REMARK INTER:                  16.020
REMARK INTRA:                  -0.441
REMARK UNBOUND:                -0.433
REMARK SMILES CCCCCCCCCCCCCCC(=O)[O-]
REMARK SMILES IDX 9 1 10 2 11 3 12 4 13 5 14 6 15 7 16 8 17 9 8 10 7 11 6 12
REMARK SMILES IDX 5 13 4 14 3 15 2 16 1 17
REMARK H PARENT
REMARK Flexibility Score: inf
ROOT
ATOM      1  C   UNL     1     -13.314  18.704 -15.055  1.00  0.00     0.000 C 
ENDROOT
BRANCH   1   2
ATOM      2  C   UNL     1     -11.938  19.070 -14.468  1.00  0.00     0.000 C 
BRANCH   2   3
ATOM      3  C   UNL     1     -11.962  19.577 -13.012  1.00  0.00     0.000 C 
BRANCH   3   4
ATOM      4  C   UNL     1     -13.277  19.320 -12.249  1.00  0.00     0.000 C 
BRANCH   4   5
ATOM      5  C   UNL     1     -13.104  18.687 -10.856  1.00  0.00     0.006 C 
BRANCH   5   6
ATOM      6  C   UNL     1     -13.584  19.603  -9.723  1.00  0.00     0.053 C 
BRANCH   6   7
ATOM      7  C   UNL     1     -12.855  19.289  -8.455  1.00  0.00     0.041 C 
ATOM      8  O   UNL     1     -12.406  18.130  -8.253  1.00  0.00    -0.550 OA
ATOM      9  O   UNL     1     -12.716  20.261  -7.473  1.00  0.00    -0.550 OA
ENDBRANCH   6   7
ENDBRANCH   5   6
ENDBRANCH   4   5
ENDBRANCH   3   4
ENDBRANCH   2   3
ENDBRANCH   1   2
BRANCH   1  10
ATOM     10  C   UNL     1     -13.209  17.922 -16.375  1.00  0.00     0.000 C 
BRANCH  10  11
ATOM     11  C   UNL     1     -14.533  17.904 -17.157  1.00  0.00    -0.000 C 
BRANCH  11  12
ATOM     12  C   UNL     1     -14.320  17.971 -18.680  1.00  0.00    -0.000 C 
BRANCH  12  13
ATOM     13  C   UNL     1     -14.575  19.377 -19.247  1.00  0.00    -0.000 C 
BRANCH  13  14
ATOM     14  C   UNL     1     -13.656  19.713 -20.434  1.00  0.00    -0.000 C 
BRANCH  14  15
ATOM     15  C   UNL     1     -14.190  20.897 -21.267  1.00  0.00    -0.000 C 
BRANCH  15  16
ATOM     16  C   UNL     1     -13.685  20.905 -22.720  1.00  0.00    -0.003 C 
ATOM     17  C   UNL     1     -12.444  20.039 -22.927  1.00  0.00     0.004 C 
ENDBRANCH  15  16
ENDBRANCH  14  15
ENDBRANCH  13  14
ENDBRANCH  12  13
ENDBRANCH  11  12
ENDBRANCH  10  11
ENDBRANCH   1  10
TORSDOF 13
ENDMDL
MODEL 5
REMARK VINA RESULT:     9.587     12.788     15.624
REMARK INTER + INTRA:          16.440
REMARK INTER:                  16.847
REMARK INTRA:                  -0.407
REMARK UNBOUND:                -0.433
REMARK SMILES CCCCCCCCCCCCCCC(=O)[O-]
REMARK SMILES IDX 9 1 10 2 11 3 12 4 13 5 14 6 15 7 16 8 17 9 8 10 7 11 6 12
REMARK SMILES IDX 5 13 4 14 3 15 2 16 1 17
REMARK H PARENT
REMARK Flexibility Score: inf
ROOT
ATOM      1  C   UNL     1      -7.249   7.861 -17.876  1.00  0.00     0.000 C 
ENDROOT
BRANCH   1   2
ATOM      2  C   UNL     1      -8.153   9.007 -18.363  1.00  0.00     0.000 C 
BRANCH   2   3
ATOM      3  C   UNL     1      -8.121  10.281 -17.494  1.00  0.00     0.000 C 
BRANCH   3   4
ATOM      4  C   UNL     1      -7.089  11.343 -17.924  1.00  0.00     0.000 C 
BRANCH   4   5
ATOM      5  C   UNL     1      -6.460  12.140 -16.767  1.00  0.00     0.006 C 
BRANCH   5   6
ATOM      6  C   UNL     1      -5.886  13.489 -17.216  1.00  0.00     0.053 C 
BRANCH   6   7
ATOM      7  C   UNL     1      -4.517  13.689 -16.649  1.00  0.00     0.041 C 
ATOM      8  O   UNL     1      -3.590  12.886 -16.934  1.00  0.00    -0.550 OA
ATOM      9  O   UNL     1      -4.275  14.733 -15.766  1.00  0.00    -0.550 OA
ENDBRANCH   6   7
ENDBRANCH   5   6
ENDBRANCH   4   5
ENDBRANCH   3   4
ENDBRANCH   2   3
ENDBRANCH   1   2
BRANCH   1  10
ATOM     10  C   UNL     1      -7.147   6.710 -18.891  1.00  0.00     0.000 C 
BRANCH  10  11
ATOM     11  C   UNL     1      -8.301   5.703 -18.756  1.00  0.00    -0.000 C 
BRANCH  11  12
ATOM     12  C   UNL     1      -8.454   4.811 -20.003  1.00  0.00    -0.000 C 
BRANCH  12  13
ATOM     13  C   UNL     1      -7.098   4.333 -20.550  1.00  0.00    -0.000 C 
BRANCH  13  14
ATOM     14  C   UNL     1      -7.242   3.455 -21.805  1.00  0.00    -0.000 C 
BRANCH  14  15
ATOM     15  C   UNL     1      -7.824   4.239 -23.001  1.00  0.00    -0.000 C 
BRANCH  15  16
ATOM     16  C   UNL     1      -9.353   4.127 -23.124  1.00  0.00    -0.003 C 
ATOM     17  C   UNL     1     -10.055   5.484 -23.123  1.00  0.00     0.004 C 
ENDBRANCH  15  16
ENDBRANCH  14  15
ENDBRANCH  13  14
ENDBRANCH  12  13
ENDBRANCH  11  12
ENDBRANCH  10  11
ENDBRANCH   1  10
TORSDOF 13
ENDMDL
MODEL 6
REMARK VINA RESULT:    10.057     12.818     15.508
REMARK INTER + INTRA:          17.267
REMARK INTER:                  17.848
REMARK INTRA:                  -0.581
REMARK UNBOUND:                -0.433
REMARK SMILES CCCCCCCCCCCCCCC(=O)[O-]
REMARK SMILES IDX 9 1 10 2 11 3 12 4 13 5 14 6 15 7 16 8 17 9 8 10 7 11 6 12
REMARK SMILES IDX 5 13 4 14 3 15 2 16 1 17
REMARK H PARENT
REMARK Flexibility Score: inf
ROOT
ATOM      1  C   UNL     1      -8.212   8.587 -18.796  1.00  0.00     0.000 C 
ENDROOT
BRANCH   1   2
ATOM      2  C   UNL     1      -7.869   9.921 -18.107  1.00  0.00     0.000 C 
BRANCH   2   3
ATOM      3  C   UNL     1      -7.503  11.075 -19.062  1.00  0.00     0.000 C 
BRANCH   3   4
ATOM      4  C   UNL     1      -6.376  12.005 -18.567  1.00  0.00     0.000 C 
BRANCH   4   5
ATOM      5  C   UNL     1      -6.443  12.364 -17.072  1.00  0.00     0.006 C 
BRANCH   5   6
ATOM      6  C   UNL     1      -5.885  13.760 -16.770  1.00  0.00     0.053 C 
BRANCH   6   7
ATOM      7  C   UNL     1      -4.405  13.696 -16.562  1.00  0.00     0.041 C 
ATOM      8  O   UNL     1      -3.765  14.734 -16.247  1.00  0.00    -0.550 OA
ATOM      9  O   UNL     1      -3.724  12.503 -16.764  1.00  0.00    -0.550 OA
ENDBRANCH   6   7
ENDBRANCH   5   6
ENDBRANCH   4   5
ENDBRANCH   3   4
ENDBRANCH   2   3
ENDBRANCH   1   2
BRANCH   1  10
ATOM     10  C   UNL     1      -7.055   7.575 -18.744  1.00  0.00     0.000 C 
BRANCH  10  11
ATOM     11  C   UNL     1      -7.517   6.174 -18.310  1.00  0.00    -0.000 C 
BRANCH  11  12
ATOM     12  C   UNL     1      -7.442   5.148 -19.455  1.00  0.00    -0.000 C 
BRANCH  12  13
ATOM     13  C   UNL     1      -8.772   5.021 -20.216  1.00  0.00    -0.000 C 
BRANCH  13  14
ATOM     14  C   UNL     1      -8.622   4.272 -21.551  1.00  0.00    -0.000 C 
BRANCH  14  15
ATOM     15  C   UNL     1      -7.516   3.197 -21.495  1.00  0.00    -0.000 C 
BRANCH  15  16
ATOM     16  C   UNL     1      -6.502   3.297 -22.647  1.00  0.00    -0.003 C 
ATOM     17  C   UNL     1      -6.277   4.730 -23.125  1.00  0.00     0.004 C 
ENDBRANCH  15  16
ENDBRANCH  14  15
ENDBRANCH  13  14
ENDBRANCH  12  13
ENDBRANCH  11  12
ENDBRANCH  10  11
ENDBRANCH   1  10
TORSDOF 13
ENDMDL
MODEL 7
REMARK VINA RESULT:    10.264     12.661     14.221
REMARK INTER + INTRA:          17.631
REMARK INTER:                  17.970
REMARK INTRA:                  -0.338
REMARK UNBOUND:                -0.433
REMARK SMILES CCCCCCCCCCCCCCC(=O)[O-]
REMARK SMILES IDX 9 1 10 2 11 3 12 4 13 5 14 6 15 7 16 8 17 9 8 10 7 11 6 12
REMARK SMILES IDX 5 13 4 14 3 15 2 16 1 17
REMARK H PARENT
REMARK Flexibility Score: inf
ROOT
ATOM      1  C   UNL     1      -7.364   7.244 -19.046  1.00  0.00     0.000 C 
ENDROOT
BRANCH   1   2
ATOM      2  C   UNL     1      -7.892   5.838 -18.705  1.00  0.00     0.000 C 
BRANCH   2   3
ATOM      3  C   UNL     1      -8.247   4.960 -19.922  1.00  0.00     0.000 C 
BRANCH   3   4
ATOM      4  C   UNL     1      -7.046   4.301 -20.628  1.00  0.00     0.000 C 
BRANCH   4   5
ATOM      5  C   UNL     1      -7.397   3.509 -21.901  1.00  0.00     0.006 C 
BRANCH   5   6
ATOM      6  C   UNL     1      -7.643   4.413 -23.115  1.00  0.00     0.053 C 
BRANCH   6   7
ATOM      7  C   UNL     1      -9.046   4.931 -23.105  1.00  0.00     0.041 C 
ATOM      8  O   UNL     1     -10.017   4.129 -23.125  1.00  0.00    -0.550 OA
ATOM      9  O   UNL     1      -9.283   6.299 -23.124  1.00  0.00    -0.550 OA
ENDBRANCH   6   7
ENDBRANCH   5   6
ENDBRANCH   4   5
ENDBRANCH   3   4
ENDBRANCH   2   3
ENDBRANCH   1   2
BRANCH   1  10
ATOM     10  C   UNL     1      -7.500   8.231 -17.874  1.00  0.00     0.000 C 
BRANCH  10  11
ATOM     11  C   UNL     1      -8.357   9.456 -18.232  1.00  0.00    -0.000 C 
BRANCH  11  12
ATOM     12  C   UNL     1      -7.509  10.650 -18.708  1.00  0.00    -0.000 C 
BRANCH  12  13
ATOM     13  C   UNL     1      -6.941  11.470 -17.538  1.00  0.00    -0.000 C 
BRANCH  13  14
ATOM     14  C   UNL     1      -6.327  12.805 -17.992  1.00  0.00    -0.000 C 
BRANCH  14  15
ATOM     15  C   UNL     1      -6.033  13.745 -16.804  1.00  0.00    -0.000 C 
BRANCH  15  16
ATOM     16  C   UNL     1      -4.537  14.048 -16.614  1.00  0.00    -0.003 C 
ATOM     17  C   UNL     1      -3.665  12.794 -16.631  1.00  0.00     0.004 C 
ENDBRANCH  15  16
ENDBRANCH  14  15
ENDBRANCH  13  14
ENDBRANCH  12  13
ENDBRANCH  11  12
ENDBRANCH  10  11
ENDBRANCH   1  10
TORSDOF 13
ENDMDL
