MODEL 1
REMARK VINA RESULT:    -4.738      0.000      0.000
REMARK INTER + INTRA:          -8.944
REMARK INTER:                  -8.062
REMARK INTRA:                  -0.882
REMARK UNBOUND:                -0.882
REMARK SMILES CCCCCCCCCCCCCC(=O)[O-]
REMARK SMILES IDX 8 1 9 2 10 3 11 4 12 5 13 6 14 7 15 8 16 9 7 10 6 11 5 12
REMARK SMILES IDX 4 13 3 14 2 15 1 16
REMARK H PARENT
REMARK Flexibility Score: inf
ROOT
ATOM      1  C   UNL     1       0.941   6.138  16.962  1.00  0.00     0.000 C 
ENDROOT
BRANCH   1   2
ATOM      2  C   UNL     1       1.311   7.578  16.557  1.00  0.00     0.000 C 
BRANCH   2   3
ATOM      3  C   UNL     1       0.872   8.667  17.555  1.00  0.00     0.000 C 
BRANCH   3   4
ATOM      4  C   UNL     1       1.494   8.548  18.959  1.00  0.00     0.000 C 
BRANCH   4   5
ATOM      5  C   UNL     1       0.440   8.392  20.069  1.00  0.00     0.006 C 
BRANCH   5   6
ATOM      6  C   UNL     1       0.227   6.923  20.460  1.00  0.00     0.053 C 
BRANCH   6   7
ATOM      7  C   UNL     1       0.349   6.719  21.939  1.00  0.00     0.041 C 
ATOM      8  O   UNL     1       1.475   6.799  22.499  1.00  0.00    -0.550 OA
ATOM      9  O   UNL     1      -0.785   6.477  22.705  1.00  0.00    -0.550 OA
ENDBRANCH   6   7
ENDBRANCH   5   6
ENDBRANCH   4   5
ENDBRANCH   3   4
ENDBRANCH   2   3
ENDBRANCH   1   2
BRANCH   1  10
ATOM     10  C   UNL     1      -0.579   5.892  17.062  1.00  0.00     0.000 C 
BRANCH  10  11
ATOM     11  C   UNL     1      -0.943   4.405  16.907  1.00  0.00    -0.000 C 
BRANCH  11  12
ATOM     12  C   UNL     1      -1.659   4.103  15.580  1.00  0.00    -0.000 C 
BRANCH  12  13
ATOM     13  C   UNL     1      -2.935   3.267  15.771  1.00  0.00    -0.000 C 
BRANCH  13  14
ATOM     14  C   UNL     1      -4.203   4.132  15.838  1.00  0.00    -0.000 C 
BRANCH  14  15
ATOM     15  C   UNL     1      -5.149   3.712  16.974  1.00  0.00    -0.003 C 
ATOM     16  C   UNL     1      -5.007   2.223  17.282  1.00  0.00     0.004 C 
ENDBRANCH  14  15
ENDBRANCH  13  14
ENDBRANCH  12  13
ENDBRANCH  11  12
ENDBRANCH  10  11
ENDBRANCH   1  10
TORSDOF 12
ENDMDL
MODEL 2
REMARK VINA RESULT:    -4.713      3.210      7.033
REMARK INTER + INTRA:          -8.901
REMARK INTER:                  -8.057
REMARK INTRA:                  -0.844
REMARK UNBOUND:                -0.882
REMARK SMILES CCCCCCCCCCCCCC(=O)[O-]
REMARK SMILES IDX 8 1 9 2 10 3 11 4 12 5 13 6 14 7 15 8 16 9 7 10 6 11 5 12
REMARK SMILES IDX 4 13 3 14 2 15 1 16
REMARK H PARENT
REMARK Flexibility Score: inf
ROOT
ATOM      1  C   UNL     1      -2.567   3.638  15.626  1.00  0.00     0.000 C 
ENDROOT
BRANCH   1   2
ATOM      2  C   UNL     1      -3.295   2.731  16.636  1.00  0.00     0.000 C 
BRANCH   2   3
ATOM      3  C   UNL     1      -4.827   2.889  16.667  1.00  0.00     0.000 C 
BRANCH   3   4
ATOM      4  C   UNL     1      -5.416   3.715  15.508  1.00  0.00     0.000 C 
BRANCH   4   5
ATOM      5  C   UNL     1      -6.222   4.934  15.990  1.00  0.00     0.006 C 
BRANCH   5   6
ATOM      6  C   UNL     1      -5.576   5.609  17.207  1.00  0.00     0.053 C 
BRANCH   6   7
ATOM      7  C   UNL     1      -6.217   6.926  17.516  1.00  0.00     0.041 C 
ATOM      8  O   UNL     1      -6.963   7.048  18.523  1.00  0.00    -0.550 OA
ATOM      9  O   UNL     1      -5.961   8.031  16.713  1.00  0.00    -0.550 OA
ENDBRANCH   6   7
ENDBRANCH   5   6
ENDBRANCH   4   5
ENDBRANCH   3   4
ENDBRANCH   2   3
ENDBRANCH   1   2
BRANCH   1  10
ATOM     10  C   UNL     1      -2.018   4.942  16.245  1.00  0.00     0.000 C 
BRANCH  10  11
ATOM     11  C   UNL     1      -0.641   4.743  16.903  1.00  0.00    -0.000 C 
BRANCH  11  12
ATOM     12  C   UNL     1      -0.198   5.958  17.734  1.00  0.00    -0.000 C 
BRANCH  12  13
ATOM     13  C   UNL     1       0.657   6.949  16.927  1.00  0.00    -0.000 C 
BRANCH  13  14
ATOM     14  C   UNL     1       1.007   8.214  17.725  1.00  0.00    -0.000 C 
BRANCH  14  15
ATOM     15  C   UNL     1       0.662   8.088  19.217  1.00  0.00    -0.003 C 
ATOM     16  C   UNL     1       1.761   8.694  20.087  1.00  0.00     0.004 C 
ENDBRANCH  14  15
ENDBRANCH  13  14
ENDBRANCH  12  13
ENDBRANCH  11  12
ENDBRANCH  10  11
ENDBRANCH   1  10
TORSDOF 12
ENDMDL
MODEL 3
REMARK VINA RESULT:    -4.689      1.719      3.421
REMARK INTER + INTRA:          -8.861
REMARK INTER:                  -7.906
REMARK INTRA:                  -0.955
REMARK UNBOUND:                -0.882
REMARK SMILES CCCCCCCCCCCCCC(=O)[O-]
REMARK SMILES IDX 8 1 9 2 10 3 11 4 12 5 13 6 14 7 15 8 16 9 7 10 6 11 5 12
REMARK SMILES IDX 4 13 3 14 2 15 1 16
REMARK H PARENT
REMARK Flexibility Score: inf
ROOT
ATOM      1  C   UNL     1      -2.548   3.117  15.820  1.00  0.00     0.000 C 
ENDROOT
BRANCH   1   2
ATOM      2  C   UNL     1      -1.396   3.681  16.674  1.00  0.00     0.000 C 
BRANCH   2   3
ATOM      3  C   UNL     1      -1.265   5.216  16.658  1.00  0.00     0.000 C 
BRANCH   3   4
ATOM      4  C   UNL     1       0.031   5.762  17.287  1.00  0.00     0.000 C 
BRANCH   4   5
ATOM      5  C   UNL     1       0.032   5.681  18.823  1.00  0.00     0.006 C 
BRANCH   5   6
ATOM      6  C   UNL     1       0.202   7.060  19.474  1.00  0.00     0.053 C 
BRANCH   6   7
ATOM      7  C   UNL     1       0.499   6.950  20.938  1.00  0.00     0.041 C 
ATOM      8  O   UNL     1       1.669   7.139  21.363  1.00  0.00    -0.550 OA
ATOM      9  O   UNL     1      -0.524   6.675  21.838  1.00  0.00    -0.550 OA
ENDBRANCH   6   7
ENDBRANCH   5   6
ENDBRANCH   4   5
ENDBRANCH   3   4
ENDBRANCH   2   3
ENDBRANCH   1   2
BRANCH   1  10
ATOM     10  C   UNL     1      -3.894   3.031  16.571  1.00  0.00     0.000 C 
BRANCH  10  11
ATOM     11  C   UNL     1      -5.093   3.362  15.664  1.00  0.00    -0.000 C 
BRANCH  11  12
ATOM     12  C   UNL     1      -4.766   4.438  14.616  1.00  0.00    -0.000 C 
BRANCH  12  13
ATOM     13  C   UNL     1      -4.728   5.855  15.213  1.00  0.00    -0.000 C 
BRANCH  13  14
ATOM     14  C   UNL     1      -6.132   6.425  15.471  1.00  0.00    -0.000 C 
BRANCH  14  15
ATOM     15  C   UNL     1      -6.252   7.110  16.841  1.00  0.00    -0.003 C 
ATOM     16  C   UNL     1      -5.878   6.151  17.968  1.00  0.00     0.004 C 
ENDBRANCH  14  15
ENDBRANCH  13  14
ENDBRANCH  12  13
ENDBRANCH  11  12
ENDBRANCH  10  11
ENDBRANCH   1  10
TORSDOF 12
ENDMDL
MODEL 4
REMARK VINA RESULT:    -4.555      4.780      6.821
REMARK INTER + INTRA:          -8.632
REMARK INTER:                  -6.875
REMARK INTRA:                  -1.757
REMARK UNBOUND:                -0.882
REMARK SMILES CCCCCCCCCCCCCC(=O)[O-]
REMARK SMILES IDX 8 1 9 2 10 3 11 4 12 5 13 6 14 7 15 8 16 9 7 10 6 11 5 12
REMARK SMILES IDX 4 13 3 14 2 15 1 16
REMARK H PARENT
REMARK Flexibility Score: inf
ROOT
ATOM      1  C   UNL     1      -5.901   7.555  15.611  1.00  0.00     0.000 C 
ENDROOT
BRANCH   1   2
ATOM      2  C   UNL     1      -5.021   6.297  15.477  1.00  0.00     0.000 C 
BRANCH   2   3
ATOM      3  C   UNL     1      -5.006   5.378  16.714  1.00  0.00     0.000 C 
BRANCH   3   4
ATOM      4  C   UNL     1      -5.409   3.917  16.440  1.00  0.00     0.000 C 
BRANCH   4   5
ATOM      5  C   UNL     1      -4.231   2.936  16.573  1.00  0.00     0.006 C 
BRANCH   5   6
ATOM      6  C   UNL     1      -3.034   3.349  15.706  1.00  0.00     0.053 C 
BRANCH   6   7
ATOM      7  C   UNL     1      -1.741   3.224  16.450  1.00  0.00     0.041 C 
ATOM      8  O   UNL     1      -1.537   2.238  17.206  1.00  0.00    -0.550 OA
ATOM      9  O   UNL     1      -0.745   4.178  16.280  1.00  0.00    -0.550 OA
ENDBRANCH   6   7
ENDBRANCH   5   6
ENDBRANCH   4   5
ENDBRANCH   3   4
ENDBRANCH   2   3
ENDBRANCH   1   2
BRANCH   1  10
ATOM     10  C   UNL     1      -7.403   7.246  15.785  1.00  0.00     0.000 C 
BRANCH  10  11
ATOM     11  C   UNL     1      -8.061   6.783  14.472  1.00  0.00    -0.000 C 
BRANCH  11  12
ATOM     12  C   UNL     1      -8.489   5.307  14.510  1.00  0.00    -0.000 C 
BRANCH  12  13
ATOM     13  C   UNL     1      -7.926   4.496  13.330  1.00  0.00    -0.000 C 
BRANCH  13  14
ATOM     14  C   UNL     1      -7.291   5.388  12.251  1.00  0.00    -0.000 C 
BRANCH  14  15
ATOM     15  C   UNL     1      -5.816   5.045  11.992  1.00  0.00    -0.003 C 
ATOM     16  C   UNL     1      -5.415   3.762  12.716  1.00  0.00     0.004 C 
ENDBRANCH  14  15
ENDBRANCH  13  14
ENDBRANCH  12  13
ENDBRANCH  11  12
ENDBRANCH  10  11
ENDBRANCH   1  10
TORSDOF 12
ENDMDL
MODEL 5
REMARK VINA RESULT:    -4.535      1.375      2.235
REMARK INTER + INTRA:          -8.599
REMARK INTER:                  -7.899
REMARK INTRA:                  -0.701
REMARK UNBOUND:                -0.882
REMARK SMILES CCCCCCCCCCCCCC(=O)[O-]
REMARK SMILES IDX 8 1 9 2 10 3 11 4 12 5 13 6 14 7 15 8 16 9 7 10 6 11 5 12
REMARK SMILES IDX 4 13 3 14 2 15 1 16
REMARK H PARENT
REMARK Flexibility Score: inf
ROOT
ATOM      1  C   UNL     1      -0.794   5.138  16.530  1.00  0.00     0.000 C 
ENDROOT
BRANCH   1   2
ATOM      2  C   UNL     1      -0.114   5.637  17.819  1.00  0.00     0.000 C 
BRANCH   2   3
ATOM      3  C   UNL     1       0.393   7.091  17.766  1.00  0.00     0.000 C 
BRANCH   3   4
ATOM      4  C   UNL     1       0.579   7.762  19.140  1.00  0.00     0.000 C 
BRANCH   4   5
ATOM      5  C   UNL     1       0.679   6.749  20.293  1.00  0.00     0.006 C 
BRANCH   5   6
ATOM      6  C   UNL     1      -0.427   6.952  21.338  1.00  0.00     0.053 C 
BRANCH   6   7
ATOM      7  C   UNL     1       0.030   6.571  22.712  1.00  0.00     0.041 C 
ATOM      8  O   UNL     1      -0.806   6.214  23.583  1.00  0.00    -0.550 OA
ATOM      9  O   UNL     1       1.386   6.574  23.020  1.00  0.00    -0.550 OA
ENDBRANCH   6   7
ENDBRANCH   5   6
ENDBRANCH   4   5
ENDBRANCH   3   4
ENDBRANCH   2   3
ENDBRANCH   1   2
BRANCH   1  10
ATOM     10  C   UNL     1      -1.222   3.656  16.587  1.00  0.00     0.000 C 
BRANCH  10  11
ATOM     11  C   UNL     1      -2.696   3.457  16.191  1.00  0.00    -0.000 C 
BRANCH  11  12
ATOM     12  C   UNL     1      -3.368   4.759  15.725  1.00  0.00    -0.000 C 
BRANCH  12  13
ATOM     13  C   UNL     1      -4.745   4.520  15.083  1.00  0.00    -0.000 C 
BRANCH  13  14
ATOM     14  C   UNL     1      -5.898   5.077  15.933  1.00  0.00    -0.000 C 
BRANCH  14  15
ATOM     15  C   UNL     1      -5.499   6.334  16.721  1.00  0.00    -0.003 C 
ATOM     16  C   UNL     1      -6.021   6.271  18.154  1.00  0.00     0.004 C 
ENDBRANCH  14  15
ENDBRANCH  13  14
ENDBRANCH  12  13
ENDBRANCH  11  12
ENDBRANCH  10  11
ENDBRANCH   1  10
TORSDOF 12
ENDMDL
MODEL 6
REMARK VINA RESULT:    -4.466      5.156      7.029
REMARK INTER + INTRA:          -8.482
REMARK INTER:                  -6.443
REMARK INTRA:                  -2.039
REMARK UNBOUND:                -0.882
REMARK SMILES CCCCCCCCCCCCCC(=O)[O-]
REMARK SMILES IDX 8 1 9 2 10 3 11 4 12 5 13 6 14 7 15 8 16 9 7 10 6 11 5 12
REMARK SMILES IDX 4 13 3 14 2 15 1 16
REMARK H PARENT
REMARK Flexibility Score: inf
ROOT
ATOM      1  C   UNL     1      -7.288   7.640  15.419  1.00  0.00     0.000 C 
ENDROOT
BRANCH   1   2
ATOM      2  C   UNL     1      -6.151   7.661  16.458  1.00  0.00     0.000 C 
BRANCH   2   3
ATOM      3  C   UNL     1      -5.999   6.369  17.283  1.00  0.00     0.000 C 
BRANCH   3   4
ATOM      4  C   UNL     1      -4.723   5.558  16.987  1.00  0.00     0.000 C 
BRANCH   4   5
ATOM      5  C   UNL     1      -4.986   4.047  16.871  1.00  0.00     0.006 C 
BRANCH   5   6
ATOM      6  C   UNL     1      -4.229   3.417  15.694  1.00  0.00     0.053 C 
BRANCH   6   7
ATOM      7  C   UNL     1      -2.760   3.315  15.971  1.00  0.00     0.041 C 
ATOM      8  O   UNL     1      -1.947   4.059  15.362  1.00  0.00    -0.550 OA
ATOM      9  O   UNL     1      -2.292   2.424  16.929  1.00  0.00    -0.550 OA
ENDBRANCH   6   7
ENDBRANCH   5   6
ENDBRANCH   4   5
ENDBRANCH   3   4
ENDBRANCH   2   3
ENDBRANCH   1   2
BRANCH   1  10
ATOM     10  C   UNL     1      -8.339   6.537  15.671  1.00  0.00     0.000 C 
BRANCH  10  11
ATOM     11  C   UNL     1      -8.573   5.657  14.430  1.00  0.00    -0.000 C 
BRANCH  11  12
ATOM     12  C   UNL     1      -7.500   4.568  14.263  1.00  0.00    -0.000 C 
BRANCH  12  13
ATOM     13  C   UNL     1      -7.152   4.300  12.789  1.00  0.00    -0.000 C 
BRANCH  13  14
ATOM     14  C   UNL     1      -5.681   4.604  12.465  1.00  0.00    -0.000 C 
BRANCH  14  15
ATOM     15  C   UNL     1      -5.384   6.111  12.417  1.00  0.00    -0.003 C 
ATOM     16  C   UNL     1      -4.347   6.498  13.468  1.00  0.00     0.004 C 
ENDBRANCH  14  15
ENDBRANCH  13  14
ENDBRANCH  12  13
ENDBRANCH  11  12
ENDBRANCH  10  11
ENDBRANCH   1  10
TORSDOF 12
ENDMDL
MODEL 7
REMARK VINA RESULT:    -4.458      5.143      8.332
REMARK INTER + INTRA:          -8.468
REMARK INTER:                  -7.184
REMARK INTRA:                  -1.284
REMARK UNBOUND:                -0.882
REMARK SMILES CCCCCCCCCCCCCC(=O)[O-]
REMARK SMILES IDX 8 1 9 2 10 3 11 4 12 5 13 6 14 7 15 8 16 9 7 10 6 11 5 12
REMARK SMILES IDX 4 13 3 14 2 15 1 16
REMARK H PARENT
REMARK Flexibility Score: inf
ROOT
ATOM      1  C   UNL     1      -5.740   6.052  17.561  1.00  0.00     0.000 C 
ENDROOT
BRANCH   1   2
ATOM      2  C   UNL     1      -6.484   7.056  16.662  1.00  0.00     0.000 C 
BRANCH   2   3
ATOM      3  C   UNL     1      -7.703   6.482  15.915  1.00  0.00     0.000 C 
BRANCH   3   4
ATOM      4  C   UNL     1      -7.464   6.179  14.424  1.00  0.00     0.000 C 
BRANCH   4   5
ATOM      5  C   UNL     1      -7.561   4.679  14.093  1.00  0.00     0.006 C 
BRANCH   5   6
ATOM      6  C   UNL     1      -6.287   4.152  13.420  1.00  0.00     0.053 C 
BRANCH   6   7
ATOM      7  C   UNL     1      -6.193   4.590  11.991  1.00  0.00     0.041 C 
ATOM      8  O   UNL     1      -6.981   4.120  11.130  1.00  0.00    -0.550 OA
ATOM      9  O   UNL     1      -5.257   5.547  11.617  1.00  0.00    -0.550 OA
ENDBRANCH   6   7
ENDBRANCH   5   6
ENDBRANCH   4   5
ENDBRANCH   3   4
ENDBRANCH   2   3
ENDBRANCH   1   2
BRANCH   1  10
ATOM     10  C   UNL     1      -4.826   5.081  16.783  1.00  0.00     0.000 C 
BRANCH  10  11
ATOM     11  C   UNL     1      -5.231   3.609  16.983  1.00  0.00    -0.000 C 
BRANCH  11  12
ATOM     12  C   UNL     1      -4.056   2.637  16.788  1.00  0.00    -0.000 C 
BRANCH  12  13
ATOM     13  C   UNL     1      -2.937   3.229  15.914  1.00  0.00    -0.000 C 
BRANCH  13  14
ATOM     14  C   UNL     1      -1.577   3.250  16.631  1.00  0.00    -0.000 C 
BRANCH  14  15
ATOM     15  C   UNL     1      -0.769   4.522  16.332  1.00  0.00    -0.003 C 
ATOM     16  C   UNL     1      -0.419   5.264  17.619  1.00  0.00     0.004 C 
ENDBRANCH  14  15
ENDBRANCH  13  14
ENDBRANCH  12  13
ENDBRANCH  11  12
ENDBRANCH  10  11
ENDBRANCH   1  10
TORSDOF 12
ENDMDL
MODEL 8
REMARK VINA RESULT:    -4.435      4.662      7.245
REMARK INTER + INTRA:          -8.429
REMARK INTER:                  -6.992
REMARK INTRA:                  -1.437
REMARK UNBOUND:                -0.882
REMARK SMILES CCCCCCCCCCCCCC(=O)[O-]
REMARK SMILES IDX 8 1 9 2 10 3 11 4 12 5 13 6 14 7 15 8 16 9 7 10 6 11 5 12
REMARK SMILES IDX 4 13 3 14 2 15 1 16
REMARK H PARENT
REMARK Flexibility Score: inf
ROOT
ATOM      1  C   UNL     1      -6.709   4.439  12.412  1.00  0.00     0.000 C 
ENDROOT
BRANCH   1   2
ATOM      2  C   UNL     1      -5.428   3.795  12.975  1.00  0.00     0.000 C 
BRANCH   2   3
ATOM      3  C   UNL     1      -4.999   4.307  14.364  1.00  0.00     0.000 C 
BRANCH   3   4
ATOM      4  C   UNL     1      -5.239   3.318  15.521  1.00  0.00     0.000 C 
BRANCH   4   5
ATOM      5  C   UNL     1      -4.197   3.448  16.646  1.00  0.00     0.006 C 
BRANCH   5   6
ATOM      6  C   UNL     1      -3.043   4.383  16.260  1.00  0.00     0.053 C 
BRANCH   6   7
ATOM      7  C   UNL     1      -1.717   3.692  16.345  1.00  0.00     0.041 C 
ATOM      8  O   UNL     1      -0.675   4.265  15.932  1.00  0.00    -0.550 OA
ATOM      9  O   UNL     1      -1.627   2.427  16.916  1.00  0.00    -0.550 OA
ENDBRANCH   6   7
ENDBRANCH   5   6
ENDBRANCH   4   5
ENDBRANCH   3   4
ENDBRANCH   2   3
ENDBRANCH   1   2
BRANCH   1  10
ATOM     10  C   UNL     1      -7.887   4.452  13.409  1.00  0.00     0.000 C 
BRANCH  10  11
ATOM     11  C   UNL     1      -8.854   5.624  13.157  1.00  0.00    -0.000 C 
BRANCH  11  12
ATOM     12  C   UNL     1      -8.696   6.756  14.185  1.00  0.00    -0.000 C 
BRANCH  12  13
ATOM     13  C   UNL     1      -8.021   6.287  15.485  1.00  0.00    -0.000 C 
BRANCH  13  14
ATOM     14  C   UNL     1      -6.829   7.172  15.884  1.00  0.00    -0.000 C 
BRANCH  14  15
ATOM     15  C   UNL     1      -6.109   6.664  17.143  1.00  0.00    -0.003 C 
ATOM     16  C   UNL     1      -6.803   7.159  18.409  1.00  0.00     0.004 C 
ENDBRANCH  14  15
ENDBRANCH  13  14
ENDBRANCH  12  13
ENDBRANCH  11  12
ENDBRANCH  10  11
ENDBRANCH   1  10
TORSDOF 12
ENDMDL
MODEL 9
REMARK VINA RESULT:    -4.388      5.114      6.801
REMARK INTER + INTRA:          -8.349
REMARK INTER:                  -6.558
REMARK INTRA:                  -1.791
REMARK UNBOUND:                -0.882
REMARK SMILES CCCCCCCCCCCCCC(=O)[O-]
REMARK SMILES IDX 8 1 9 2 10 3 11 4 12 5 13 6 14 7 15 8 16 9 7 10 6 11 5 12
REMARK SMILES IDX 4 13 3 14 2 15 1 16
REMARK H PARENT
REMARK Flexibility Score: inf
ROOT
ATOM      1  C   UNL     1      -7.098   6.750  16.040  1.00  0.00     0.000 C 
ENDROOT
BRANCH   1   2
ATOM      2  C   UNL     1      -5.821   7.001  16.864  1.00  0.00     0.000 C 
BRANCH   2   3
ATOM      3  C   UNL     1      -4.912   5.770  17.047  1.00  0.00     0.000 C 
BRANCH   3   4
ATOM      4  C   UNL     1      -5.598   4.414  16.794  1.00  0.00     0.000 C 
BRANCH   4   5
ATOM      5  C   UNL     1      -4.764   3.477  15.905  1.00  0.00     0.006 C 
BRANCH   5   6
ATOM      6  C   UNL     1      -3.754   2.656  16.718  1.00  0.00     0.053 C 
BRANCH   6   7
ATOM      7  C   UNL     1      -2.344   2.945  16.305  1.00  0.00     0.041 C 
ATOM      8  O   UNL     1      -2.111   3.744  15.360  1.00  0.00    -0.550 OA
ATOM      9  O   UNL     1      -1.284   2.359  16.988  1.00  0.00    -0.550 OA
ENDBRANCH   6   7
ENDBRANCH   5   6
ENDBRANCH   4   5
ENDBRANCH   3   4
ENDBRANCH   2   3
ENDBRANCH   1   2
BRANCH   1  10
ATOM     10  C   UNL     1      -7.225   7.658  14.799  1.00  0.00     0.000 C 
BRANCH  10  11
ATOM     11  C   UNL     1      -5.864   8.208  14.334  1.00  0.00    -0.000 C 
BRANCH  11  12
ATOM     12  C   UNL     1      -5.401   7.600  13.000  1.00  0.00    -0.000 C 
BRANCH  12  13
ATOM     13  C   UNL     1      -5.035   6.111  13.122  1.00  0.00    -0.000 C 
BRANCH  13  14
ATOM     14  C   UNL     1      -5.859   5.221  12.178  1.00  0.00    -0.000 C 
BRANCH  14  15
ATOM     15  C   UNL     1      -6.549   4.059  12.910  1.00  0.00    -0.003 C 
ATOM     16  C   UNL     1      -7.991   4.412  13.262  1.00  0.00     0.004 C 
ENDBRANCH  14  15
ENDBRANCH  13  14
ENDBRANCH  12  13
ENDBRANCH  11  12
ENDBRANCH  10  11
ENDBRANCH   1  10
TORSDOF 12
ENDMDL
