MODEL 1
REMARK VINA RESULT:    -4.523      0.000      0.000
REMARK INTER + INTRA:         -10.605
REMARK INTER:                  -8.489
REMARK INTRA:                  -2.116
REMARK UNBOUND:                -2.116
REMARK SMILES CCCCCCCCC=CCCCCCCCC(=O)[O-]
REMARK SMILES IDX 10 1 9 2 11 3 12 4 13 5 14 6 15 7 16 8 17 9 18 10 19 11
REMARK SMILES IDX 20 12 8 13 7 14 6 15 5 16 4 17 3 18 2 19 1 20
REMARK H PARENT
REMARK Flexibility Score: inf
ROOT
ATOM      1  C   UNL     1       7.884   4.282  -0.637  1.00  0.00    -0.031 C 
ATOM      2  C   UNL     1       8.483   3.919   0.513  1.00  0.00    -0.031 C 
ENDROOT
BRANCH   1   3
ATOM      3  C   UNL     1       8.533   4.245  -1.999  1.00  0.00     0.027 C 
BRANCH   3   4
ATOM      4  C   UNL     1       8.973   5.640  -2.470  1.00  0.00     0.004 C 
BRANCH   4   5
ATOM      5  C   UNL     1      10.267   6.100  -1.776  1.00  0.00     0.000 C 
BRANCH   5   6
ATOM      6  C   UNL     1      10.178   7.541  -1.248  1.00  0.00     0.000 C 
BRANCH   6   7
ATOM      7  C   UNL     1       8.771   7.898  -0.738  1.00  0.00     0.000 C 
BRANCH   7   8
ATOM      8  C   UNL     1       8.630   7.726   0.786  1.00  0.00     0.006 C 
BRANCH   8   9
ATOM      9  C   UNL     1       9.934   7.352   1.508  1.00  0.00     0.053 C 
BRANCH   9  10
ATOM     10  C   UNL     1       9.677   6.659   2.811  1.00  0.00     0.041 C 
ATOM     11  O   UNL     1       8.498   6.502   3.223  1.00  0.00    -0.550 OA
ATOM     12  O   UNL     1      10.739   6.155   3.552  1.00  0.00    -0.550 OA
ENDBRANCH   9  10
ENDBRANCH   8   9
ENDBRANCH   7   8
ENDBRANCH   6   7
ENDBRANCH   5   6
ENDBRANCH   4   5
ENDBRANCH   3   4
ENDBRANCH   1   3
BRANCH   2  13
ATOM     13  C   UNL     1       9.883   3.362   0.625  1.00  0.00     0.027 C 
BRANCH  13  14
ATOM     14  C   UNL     1      10.081   2.155  -0.302  1.00  0.00     0.004 C 
BRANCH  14  15
ATOM     15  C   UNL     1      11.496   1.562  -0.182  1.00  0.00     0.000 C 
BRANCH  15  16
ATOM     16  C   UNL     1      12.264   1.588  -1.514  1.00  0.00     0.000 C 
BRANCH  16  17
ATOM     17  C   UNL     1      11.944   2.836  -2.355  1.00  0.00    -0.000 C 
BRANCH  17  18
ATOM     18  C   UNL     1      11.557   2.488  -3.802  1.00  0.00    -0.000 C 
BRANCH  18  19
ATOM     19  C   UNL     1      11.431   0.975  -4.035  1.00  0.00    -0.003 C 
ATOM     20  C   UNL     1      11.635   0.628  -5.506  1.00  0.00     0.004 C 
ENDBRANCH  18  19
ENDBRANCH  17  18
ENDBRANCH  16  17
ENDBRANCH  15  16
ENDBRANCH  14  15
ENDBRANCH  13  14
ENDBRANCH   2  13
TORSDOF 15
ENDMDL
MODEL 2
REMARK VINA RESULT:    -4.438      1.331      4.850
REMARK INTER + INTRA:         -10.446
REMARK INTER:                  -7.813
REMARK INTRA:                  -2.633
REMARK UNBOUND:                -2.116
REMARK SMILES CCCCCCCCC=CCCCCCCCC(=O)[O-]
REMARK SMILES IDX 10 1 9 2 11 3 12 4 13 5 14 6 15 7 16 8 17 9 18 10 19 11
REMARK SMILES IDX 20 12 8 13 7 14 6 15 5 16 4 17 3 18 2 19 1 20
REMARK H PARENT
REMARK Flexibility Score: inf
ROOT
ATOM      1  C   UNL     1      11.446   1.312  -3.342  1.00  0.00    -0.031 C 
ATOM      2  C   UNL     1      11.250   1.460  -4.666  1.00  0.00    -0.031 C 
ENDROOT
BRANCH   1   3
ATOM      3  C   UNL     1      12.157   2.307  -2.458  1.00  0.00     0.027 C 
BRANCH   3   4
ATOM      4  C   UNL     1      11.538   2.381  -1.053  1.00  0.00     0.004 C 
BRANCH   4   5
ATOM      5  C   UNL     1      10.078   1.894  -1.041  1.00  0.00     0.000 C 
BRANCH   5   6
ATOM      6  C   UNL     1       9.194   2.691  -0.070  1.00  0.00     0.000 C 
BRANCH   6   7
ATOM      7  C   UNL     1      10.011   3.419   1.012  1.00  0.00     0.000 C 
BRANCH   7   8
ATOM      8  C   UNL     1       9.546   4.870   1.232  1.00  0.00     0.006 C 
BRANCH   8   9
ATOM      9  C   UNL     1      10.389   5.661   2.245  1.00  0.00     0.053 C 
BRANCH   9  10
ATOM     10  C   UNL     1       9.612   6.777   2.874  1.00  0.00     0.041 C 
ATOM     11  O   UNL     1       8.543   6.534   3.493  1.00  0.00    -0.550 OA
ATOM     12  O   UNL     1      10.088   8.080   2.807  1.00  0.00    -0.550 OA
ENDBRANCH   9  10
ENDBRANCH   8   9
ENDBRANCH   7   8
ENDBRANCH   6   7
ENDBRANCH   5   6
ENDBRANCH   4   5
ENDBRANCH   3   4
ENDBRANCH   1   3
BRANCH   2  13
ATOM     13  C   UNL     1      11.659   2.669  -5.475  1.00  0.00     0.027 C 
BRANCH  13  14
ATOM     14  C   UNL     1      10.464   3.596  -5.739  1.00  0.00     0.004 C 
BRANCH  14  15
ATOM     15  C   UNL     1      10.455   4.808  -4.792  1.00  0.00     0.000 C 
BRANCH  15  16
ATOM     16  C   UNL     1       9.104   4.994  -4.082  1.00  0.00     0.000 C 
BRANCH  16  17
ATOM     17  C   UNL     1       9.260   5.231  -2.570  1.00  0.00    -0.000 C 
BRANCH  17  18
ATOM     18  C   UNL     1      10.658   5.752  -2.196  1.00  0.00    -0.000 C 
BRANCH  18  19
ATOM     19  C   UNL     1      10.638   7.210  -1.714  1.00  0.00    -0.003 C 
ATOM     20  C   UNL     1       9.263   7.589  -1.172  1.00  0.00     0.004 C 
ENDBRANCH  18  19
ENDBRANCH  17  18
ENDBRANCH  16  17
ENDBRANCH  15  16
ENDBRANCH  14  15
ENDBRANCH  13  14
ENDBRANCH   2  13
TORSDOF 15
ENDMDL
MODEL 3
REMARK VINA RESULT:    -4.436      3.475      6.957
REMARK INTER + INTRA:         -10.442
REMARK INTER:                  -7.895
REMARK INTRA:                  -2.548
REMARK UNBOUND:                -2.116
REMARK SMILES CCCCCCCCC=CCCCCCCCC(=O)[O-]
REMARK SMILES IDX 10 1 9 2 11 3 12 4 13 5 14 6 15 7 16 8 17 9 18 10 19 11
REMARK SMILES IDX 20 12 8 13 7 14 6 15 5 16 4 17 3 18 2 19 1 20
REMARK H PARENT
REMARK Flexibility Score: inf
ROOT
ATOM      1  C   UNL     1       8.208   4.713  -2.666  1.00  0.00    -0.031 C 
ATOM      2  C   UNL     1       9.177   5.571  -3.037  1.00  0.00    -0.031 C 
ENDROOT
BRANCH   1   3
ATOM      3  C   UNL     1       8.442   3.402  -1.956  1.00  0.00     0.027 C 
BRANCH   3   4
ATOM      4  C   UNL     1       8.594   3.583  -0.438  1.00  0.00     0.004 C 
BRANCH   4   5
ATOM      5  C   UNL     1       9.884   2.935   0.094  1.00  0.00     0.000 C 
BRANCH   5   6
ATOM      6  C   UNL     1      10.407   1.816  -0.821  1.00  0.00     0.000 C 
BRANCH   6   7
ATOM      7  C   UNL     1      11.891   1.997  -1.186  1.00  0.00     0.000 C 
BRANCH   7   8
ATOM      8  C   UNL     1      12.122   2.103  -2.705  1.00  0.00     0.006 C 
BRANCH   8   9
ATOM      9  C   UNL     1      11.156   1.262  -3.555  1.00  0.00     0.053 C 
BRANCH   9  10
ATOM     10  C   UNL     1      11.510   1.299  -5.010  1.00  0.00     0.041 C 
ATOM     11  O   UNL     1      11.509   2.392  -5.635  1.00  0.00    -0.550 OA
ATOM     12  O   UNL     1      11.876   0.130  -5.667  1.00  0.00    -0.550 OA
ENDBRANCH   9  10
ENDBRANCH   8   9
ENDBRANCH   7   8
ENDBRANCH   6   7
ENDBRANCH   5   6
ENDBRANCH   4   5
ENDBRANCH   3   4
ENDBRANCH   1   3
BRANCH   2  13
ATOM     13  C   UNL     1      10.651   5.393  -2.757  1.00  0.00     0.027 C 
BRANCH  13  14
ATOM     14  C   UNL     1      11.069   6.123  -1.474  1.00  0.00     0.004 C 
BRANCH  14  15
ATOM     15  C   UNL     1      10.383   7.494  -1.341  1.00  0.00     0.000 C 
BRANCH  15  16
ATOM     16  C   UNL     1       9.893   7.775   0.089  1.00  0.00     0.000 C 
BRANCH  16  17
ATOM     17  C   UNL     1      10.024   6.549   1.009  1.00  0.00    -0.000 C 
BRANCH  17  18
ATOM     18  C   UNL     1       9.732   6.882   2.481  1.00  0.00    -0.000 C 
BRANCH  18  19
ATOM     19  C   UNL     1       8.231   7.041   2.767  1.00  0.00    -0.003 C 
ATOM     20  C   UNL     1       7.431   5.904   2.138  1.00  0.00     0.004 C 
ENDBRANCH  18  19
ENDBRANCH  17  18
ENDBRANCH  16  17
ENDBRANCH  15  16
ENDBRANCH  14  15
ENDBRANCH  13  14
ENDBRANCH   2  13
TORSDOF 15
ENDMDL
MODEL 4
REMARK VINA RESULT:    -4.420      2.780      3.983
REMARK INTER + INTRA:         -10.411
REMARK INTER:                  -7.943
REMARK INTRA:                  -2.468
REMARK UNBOUND:                -2.116
REMARK SMILES CCCCCCCCC=CCCCCCCCC(=O)[O-]
REMARK SMILES IDX 10 1 9 2 11 3 12 4 13 5 14 6 15 7 16 8 17 9 18 10 19 11
REMARK SMILES IDX 20 12 8 13 7 14 6 15 5 16 4 17 3 18 2 19 1 20
REMARK H PARENT
REMARK Flexibility Score: inf
ROOT
ATOM      1  C   UNL     1       9.988   4.559   1.452  1.00  0.00    -0.031 C 
ATOM      2  C   UNL     1      10.096   3.363   0.843  1.00  0.00    -0.031 C 
ENDROOT
BRANCH   1   3
ATOM      3  C   UNL     1       8.935   5.595   1.139  1.00  0.00     0.027 C 
BRANCH   3   4
ATOM      4  C   UNL     1       9.551   6.932   0.699  1.00  0.00     0.004 C 
BRANCH   4   5
ATOM      5  C   UNL     1       9.276   7.231  -0.785  1.00  0.00     0.000 C 
BRANCH   5   6
ATOM      6  C   UNL     1      10.544   7.160  -1.651  1.00  0.00     0.000 C 
BRANCH   6   7
ATOM      7  C   UNL     1      10.982   5.714  -1.940  1.00  0.00     0.000 C 
BRANCH   7   8
ATOM      8  C   UNL     1      10.409   5.172  -3.263  1.00  0.00     0.006 C 
BRANCH   8   9
ATOM      9  C   UNL     1       8.894   4.909  -3.240  1.00  0.00     0.053 C 
BRANCH   9  10
ATOM     10  C   UNL     1       8.176   5.666  -4.314  1.00  0.00     0.041 C 
ATOM     11  O   UNL     1       7.543   5.049  -5.210  1.00  0.00    -0.550 OA
ATOM     12  O   UNL     1       8.176   7.056  -4.305  1.00  0.00    -0.550 OA
ENDBRANCH   9  10
ENDBRANCH   8   9
ENDBRANCH   7   8
ENDBRANCH   6   7
ENDBRANCH   5   6
ENDBRANCH   4   5
ENDBRANCH   3   4
ENDBRANCH   1   3
BRANCH   2  13
ATOM     13  C   UNL     1       9.152   2.836  -0.212  1.00  0.00     0.027 C 
BRANCH  13  14
ATOM     14  C   UNL     1       9.891   1.977  -1.247  1.00  0.00     0.004 C 
BRANCH  14  15
ATOM     15  C   UNL     1      11.413   1.982  -1.018  1.00  0.00     0.000 C 
BRANCH  15  16
ATOM     16  C   UNL     1      12.209   2.062  -2.331  1.00  0.00     0.000 C 
BRANCH  16  17
ATOM     17  C   UNL     1      11.496   1.357  -3.497  1.00  0.00    -0.000 C 
BRANCH  17  18
ATOM     18  C   UNL     1      11.456   2.217  -4.771  1.00  0.00    -0.000 C 
BRANCH  18  19
ATOM     19  C   UNL     1      11.451   1.375  -6.055  1.00  0.00    -0.003 C 
ATOM     20  C   UNL     1      11.899  -0.056  -5.774  1.00  0.00     0.004 C 
ENDBRANCH  18  19
ENDBRANCH  17  18
ENDBRANCH  16  17
ENDBRANCH  15  16
ENDBRANCH  14  15
ENDBRANCH  13  14
ENDBRANCH   2  13
TORSDOF 15
ENDMDL
MODEL 5
REMARK VINA RESULT:    -4.405      1.575      3.485
REMARK INTER + INTRA:         -10.383
REMARK INTER:                  -8.005
REMARK INTRA:                  -2.378
REMARK UNBOUND:                -2.116
REMARK SMILES CCCCCCCCC=CCCCCCCCC(=O)[O-]
REMARK SMILES IDX 10 1 9 2 11 3 12 4 13 5 14 6 15 7 16 8 17 9 18 10 19 11
REMARK SMILES IDX 20 12 8 13 7 14 6 15 5 16 4 17 3 18 2 19 1 20
REMARK H PARENT
REMARK Flexibility Score: inf
ROOT
ATOM      1  C   UNL     1       8.595   6.415  -2.063  1.00  0.00    -0.031 C 
ATOM      2  C   UNL     1       9.879   6.370  -2.466  1.00  0.00    -0.031 C 
ENDROOT
BRANCH   1   3
ATOM      3  C   UNL     1       7.530   5.422  -2.461  1.00  0.00     0.027 C 
BRANCH   3   4
ATOM      4  C   UNL     1       7.437   4.246  -1.476  1.00  0.00     0.004 C 
BRANCH   4   5
ATOM      5  C   UNL     1       7.732   4.682  -0.030  1.00  0.00     0.000 C 
BRANCH   5   6
ATOM      6  C   UNL     1       8.505   3.617   0.765  1.00  0.00     0.000 C 
BRANCH   6   7
ATOM      7  C   UNL     1       9.945   4.051   1.089  1.00  0.00     0.000 C 
BRANCH   7   8
ATOM      8  C   UNL     1      10.109   5.582   1.133  1.00  0.00     0.006 C 
BRANCH   8   9
ATOM      9  C   UNL     1      10.029   6.189   2.543  1.00  0.00     0.053 C 
BRANCH   9  10
ATOM     10  C   UNL     1       8.753   6.944   2.758  1.00  0.00     0.041 C 
ATOM     11  O   UNL     1       8.386   7.817   1.929  1.00  0.00    -0.550 OA
ATOM     12  O   UNL     1       7.952   6.657   3.857  1.00  0.00    -0.550 OA
ENDBRANCH   9  10
ENDBRANCH   8   9
ENDBRANCH   7   8
ENDBRANCH   6   7
ENDBRANCH   5   6
ENDBRANCH   4   5
ENDBRANCH   3   4
ENDBRANCH   1   3
BRANCH   2  13
ATOM     13  C   UNL     1      10.480   5.291  -3.336  1.00  0.00     0.027 C 
BRANCH  13  14
ATOM     14  C   UNL     1      11.039   4.138  -2.492  1.00  0.00     0.004 C 
BRANCH  14  15
ATOM     15  C   UNL     1      10.492   2.773  -2.945  1.00  0.00     0.000 C 
BRANCH  15  16
ATOM     16  C   UNL     1      11.407   1.604  -2.542  1.00  0.00     0.000 C 
BRANCH  16  17
ATOM     17  C   UNL     1      12.236   1.912  -1.284  1.00  0.00    -0.000 C 
BRANCH  17  18
ATOM     18  C   UNL     1      11.953   0.929  -0.136  1.00  0.00    -0.000 C 
BRANCH  18  19
ATOM     19  C   UNL     1      13.156   0.030   0.185  1.00  0.00    -0.003 C 
ATOM     20  C   UNL     1      13.218  -0.291   1.676  1.00  0.00     0.004 C 
ENDBRANCH  18  19
ENDBRANCH  17  18
ENDBRANCH  16  17
ENDBRANCH  15  16
ENDBRANCH  14  15
ENDBRANCH  13  14
ENDBRANCH   2  13
TORSDOF 15
ENDMDL
MODEL 6
REMARK VINA RESULT:    -4.398      3.135      6.169
REMARK INTER + INTRA:         -10.370
REMARK INTER:                  -7.346
REMARK INTRA:                  -3.024
REMARK UNBOUND:                -2.116
REMARK SMILES CCCCCCCCC=CCCCCCCCC(=O)[O-]
REMARK SMILES IDX 10 1 9 2 11 3 12 4 13 5 14 6 15 7 16 8 17 9 18 10 19 11
REMARK SMILES IDX 20 12 8 13 7 14 6 15 5 16 4 17 3 18 2 19 1 20
REMARK H PARENT
REMARK Flexibility Score: inf
ROOT
ATOM      1  C   UNL     1      10.059   6.584   1.362  1.00  0.00    -0.031 C 
ATOM      2  C   UNL     1       9.493   7.744   0.977  1.00  0.00    -0.031 C 
ENDROOT
BRANCH   1   3
ATOM      3  C   UNL     1       9.300   5.326   1.707  1.00  0.00     0.027 C 
BRANCH   3   4
ATOM      4  C   UNL     1      10.000   4.064   1.179  1.00  0.00     0.004 C 
BRANCH   4   5
ATOM      5  C   UNL     1       9.022   3.128   0.447  1.00  0.00     0.000 C 
BRANCH   5   6
ATOM      6  C   UNL     1       9.725   2.211  -0.568  1.00  0.00     0.000 C 
BRANCH   6   7
ATOM      7  C   UNL     1      11.223   2.034  -0.265  1.00  0.00     0.000 C 
BRANCH   7   8
ATOM      8  C   UNL     1      12.021   1.536  -1.485  1.00  0.00     0.006 C 
BRANCH   8   9
ATOM      9  C   UNL     1      12.125   2.552  -2.634  1.00  0.00     0.053 C 
BRANCH   9  10
ATOM     10  C   UNL     1      11.550   2.019  -3.910  1.00  0.00     0.041 C 
ATOM     11  O   UNL     1      11.122   0.836  -3.967  1.00  0.00    -0.550 OA
ATOM     12  O   UNL     1      11.454   2.840  -5.027  1.00  0.00    -0.550 OA
ENDBRANCH   9  10
ENDBRANCH   8   9
ENDBRANCH   7   8
ENDBRANCH   6   7
ENDBRANCH   5   6
ENDBRANCH   4   5
ENDBRANCH   3   4
ENDBRANCH   1   3
BRANCH   2  13
ATOM     13  C   UNL     1       8.012   7.962   0.772  1.00  0.00     0.027 C 
BRANCH  13  14
ATOM     14  C   UNL     1       7.634   7.885  -0.713  1.00  0.00     0.004 C 
BRANCH  14  15
ATOM     15  C   UNL     1       6.652   6.736  -0.999  1.00  0.00     0.000 C 
BRANCH  15  16
ATOM     16  C   UNL     1       7.355   5.474  -1.526  1.00  0.00     0.000 C 
BRANCH  16  17
ATOM     17  C   UNL     1       7.948   5.672  -2.932  1.00  0.00    -0.000 C 
BRANCH  17  18
ATOM     18  C   UNL     1       9.349   5.056  -3.073  1.00  0.00    -0.000 C 
BRANCH  18  19
ATOM     19  C   UNL     1      10.369   5.673  -2.104  1.00  0.00    -0.003 C 
ATOM     20  C   UNL     1      10.789   7.066  -2.563  1.00  0.00     0.004 C 
ENDBRANCH  18  19
ENDBRANCH  17  18
ENDBRANCH  16  17
ENDBRANCH  15  16
ENDBRANCH  14  15
ENDBRANCH  13  14
ENDBRANCH   2  13
TORSDOF 15
ENDMDL
MODEL 7
REMARK VINA RESULT:    -4.271      2.239      6.414
REMARK INTER + INTRA:         -10.132
REMARK INTER:                  -7.769
REMARK INTRA:                  -2.363
REMARK UNBOUND:                -2.116
REMARK SMILES CCCCCCCCC=CCCCCCCCC(=O)[O-]
REMARK SMILES IDX 10 1 9 2 11 3 12 4 13 5 14 6 15 7 16 8 17 9 18 10 19 11
REMARK SMILES IDX 20 12 8 13 7 14 6 15 5 16 4 17 3 18 2 19 1 20
REMARK H PARENT
REMARK Flexibility Score: inf
ROOT
ATOM      1  C   UNL     1       9.892   3.060   0.657  1.00  0.00    -0.031 C 
ATOM      2  C   UNL     1       8.901   3.972   0.674  1.00  0.00    -0.031 C 
ENDROOT
BRANCH   1   3
ATOM      3  C   UNL     1      10.140   2.076  -0.460  1.00  0.00     0.027 C 
BRANCH   3   4
ATOM      4  C   UNL     1      11.614   1.647  -0.537  1.00  0.00     0.004 C 
BRANCH   4   5
ATOM      5  C   UNL     1      12.182   1.794  -1.959  1.00  0.00     0.000 C 
BRANCH   5   6
ATOM      6  C   UNL     1      11.101   1.685  -3.046  1.00  0.00     0.000 C 
BRANCH   6   7
ATOM      7  C   UNL     1      11.534   2.321  -4.378  1.00  0.00     0.000 C 
BRANCH   7   8
ATOM      8  C   UNL     1      10.814   3.652  -4.663  1.00  0.00     0.006 C 
BRANCH   8   9
ATOM      9  C   UNL     1       9.912   4.145  -3.520  1.00  0.00     0.053 C 
BRANCH   9  10
ATOM     10  C   UNL     1      10.465   5.367  -2.854  1.00  0.00     0.041 C 
ATOM     11  O   UNL     1      11.238   5.255  -1.866  1.00  0.00    -0.550 OA
ATOM     12  O   UNL     1      10.155   6.628  -3.346  1.00  0.00    -0.550 OA
ENDBRANCH   9  10
ENDBRANCH   8   9
ENDBRANCH   7   8
ENDBRANCH   6   7
ENDBRANCH   5   6
ENDBRANCH   4   5
ENDBRANCH   3   4
ENDBRANCH   1   3
BRANCH   2  13
ATOM     13  C   UNL     1       7.909   4.199  -0.443  1.00  0.00     0.027 C 
BRANCH  13  14
ATOM     14  C   UNL     1       7.104   5.487  -0.224  1.00  0.00     0.004 C 
BRANCH  14  15
ATOM     15  C   UNL     1       7.971   6.745  -0.400  1.00  0.00     0.000 C 
BRANCH  15  16
ATOM     16  C   UNL     1       7.852   7.718   0.785  1.00  0.00     0.000 C 
BRANCH  16  17
ATOM     17  C   UNL     1       7.303   7.039   2.051  1.00  0.00    -0.000 C 
BRANCH  17  18
ATOM     18  C   UNL     1       8.263   7.156   3.247  1.00  0.00    -0.000 C 
BRANCH  18  19
ATOM     19  C   UNL     1       9.717   7.401   2.818  1.00  0.00    -0.003 C 
ATOM     20  C   UNL     1      10.549   6.129   2.946  1.00  0.00     0.004 C 
ENDBRANCH  18  19
ENDBRANCH  17  18
ENDBRANCH  16  17
ENDBRANCH  15  16
ENDBRANCH  14  15
ENDBRANCH  13  14
ENDBRANCH   2  13
TORSDOF 15
ENDMDL
MODEL 8
REMARK VINA RESULT:    -4.260      3.321      6.996
REMARK INTER + INTRA:         -10.112
REMARK INTER:                  -7.413
REMARK INTRA:                  -2.699
REMARK UNBOUND:                -2.116
REMARK SMILES CCCCCCCCC=CCCCCCCCC(=O)[O-]
REMARK SMILES IDX 10 1 9 2 11 3 12 4 13 5 14 6 15 7 16 8 17 9 18 10 19 11
REMARK SMILES IDX 20 12 8 13 7 14 6 15 5 16 4 17 3 18 2 19 1 20
REMARK H PARENT
REMARK Flexibility Score: inf
ROOT
ATOM      1  C   UNL     1      10.654   5.303  -1.802  1.00  0.00    -0.031 C 
ATOM      2  C   UNL     1      10.794   6.593  -1.439  1.00  0.00    -0.031 C 
ENDROOT
BRANCH   1   3
ATOM      3  C   UNL     1       9.457   4.735  -2.523  1.00  0.00     0.027 C 
BRANCH   3   4
ATOM      4  C   UNL     1       8.869   3.513  -1.798  1.00  0.00     0.004 C 
BRANCH   4   5
ATOM      5  C   UNL     1       9.701   3.122  -0.564  1.00  0.00     0.000 C 
BRANCH   5   6
ATOM      6  C   UNL     1      10.384   1.754  -0.717  1.00  0.00     0.000 C 
BRANCH   6   7
ATOM      7  C   UNL     1      11.897   1.874  -0.971  1.00  0.00     0.000 C 
BRANCH   7   8
ATOM      8  C   UNL     1      12.233   2.122  -2.454  1.00  0.00     0.006 C 
BRANCH   8   9
ATOM      9  C   UNL     1      11.501   1.193  -3.436  1.00  0.00     0.053 C 
BRANCH   9  10
ATOM     10  C   UNL     1      11.419   1.781  -4.811  1.00  0.00     0.041 C 
ATOM     11  O   UNL     1      11.483   1.036  -5.824  1.00  0.00    -0.550 OA
ATOM     12  O   UNL     1      11.235   3.148  -4.973  1.00  0.00    -0.550 OA
ENDBRANCH   9  10
ENDBRANCH   8   9
ENDBRANCH   7   8
ENDBRANCH   6   7
ENDBRANCH   5   6
ENDBRANCH   4   5
ENDBRANCH   3   4
ENDBRANCH   1   3
BRANCH   2  13
ATOM     13  C   UNL     1       9.804   7.693  -1.741  1.00  0.00     0.027 C 
BRANCH  13  14
ATOM     14  C   UNL     1       8.805   7.879  -0.591  1.00  0.00     0.004 C 
BRANCH  14  15
ATOM     15  C   UNL     1       7.461   7.186  -0.877  1.00  0.00     0.000 C 
BRANCH  15  16
ATOM     16  C   UNL     1       6.815   6.602   0.391  1.00  0.00     0.000 C 
BRANCH  16  17
ATOM     17  C   UNL     1       7.827   5.861   1.281  1.00  0.00    -0.000 C 
BRANCH  17  18
ATOM     18  C   UNL     1       8.007   6.531   2.653  1.00  0.00    -0.000 C 
BRANCH  18  19
ATOM     19  C   UNL     1       9.471   6.547   3.117  1.00  0.00    -0.003 C 
ATOM     20  C   UNL     1      10.363   5.783   2.144  1.00  0.00     0.004 C 
ENDBRANCH  18  19
ENDBRANCH  17  18
ENDBRANCH  16  17
ENDBRANCH  15  16
ENDBRANCH  14  15
ENDBRANCH  13  14
ENDBRANCH   2  13
TORSDOF 15
ENDMDL
MODEL 9
REMARK VINA RESULT:    -4.250      3.396      6.744
REMARK INTER + INTRA:         -10.093
REMARK INTER:                  -7.672
REMARK INTRA:                  -2.421
REMARK UNBOUND:                -2.116
REMARK SMILES CCCCCCCCC=CCCCCCCCC(=O)[O-]
REMARK SMILES IDX 10 1 9 2 11 3 12 4 13 5 14 6 15 7 16 8 17 9 18 10 19 11
REMARK SMILES IDX 20 12 8 13 7 14 6 15 5 16 4 17 3 18 2 19 1 20
REMARK H PARENT
REMARK Flexibility Score: inf
ROOT
ATOM      1  C   UNL     1      10.014   5.232   1.812  1.00  0.00    -0.031 C 
ATOM      2  C   UNL     1      10.376   6.321   2.516  1.00  0.00    -0.031 C 
ENDROOT
BRANCH   1   3
ATOM      3  C   UNL     1       8.611   4.936   1.340  1.00  0.00     0.027 C 
BRANCH   3   4
ATOM      4  C   UNL     1       8.571   3.774   0.335  1.00  0.00     0.004 C 
BRANCH   4   5
ATOM      5  C   UNL     1       9.785   2.841   0.485  1.00  0.00     0.000 C 
BRANCH   5   6
ATOM      6  C   UNL     1      10.143   2.117  -0.823  1.00  0.00     0.000 C 
BRANCH   6   7
ATOM      7  C   UNL     1      11.623   1.704  -0.883  1.00  0.00     0.000 C 
BRANCH   7   8
ATOM      8  C   UNL     1      12.132   1.523  -2.326  1.00  0.00     0.006 C 
BRANCH   8   9
ATOM      9  C   UNL     1      11.369   2.345  -3.377  1.00  0.00     0.053 C 
BRANCH   9  10
ATOM     10  C   UNL     1      11.533   1.786  -4.757  1.00  0.00     0.041 C 
ATOM     11  O   UNL     1      11.688   0.548  -4.924  1.00  0.00    -0.550 OA
ATOM     12  O   UNL     1      11.478   2.628  -5.860  1.00  0.00    -0.550 OA
ENDBRANCH   9  10
ENDBRANCH   8   9
ENDBRANCH   7   8
ENDBRANCH   6   7
ENDBRANCH   5   6
ENDBRANCH   4   5
ENDBRANCH   3   4
ENDBRANCH   1   3
BRANCH   2  13
ATOM     13  C   UNL     1       9.452   7.453   2.903  1.00  0.00     0.027 C 
BRANCH  13  14
ATOM     14  C   UNL     1       9.674   8.684   2.015  1.00  0.00     0.004 C 
BRANCH  14  15
ATOM     15  C   UNL     1       8.490   8.930   1.063  1.00  0.00     0.000 C 
BRANCH  15  16
ATOM     16  C   UNL     1       8.927   9.049  -0.407  1.00  0.00     0.000 C 
BRANCH  16  17
ATOM     17  C   UNL     1       8.124   8.124  -1.337  1.00  0.00    -0.000 C 
BRANCH  17  18
ATOM     18  C   UNL     1       8.893   6.842  -1.700  1.00  0.00    -0.000 C 
BRANCH  18  19
ATOM     19  C   UNL     1      10.388   6.932  -1.363  1.00  0.00    -0.003 C 
ATOM     20  C   UNL     1      11.135   5.692  -1.846  1.00  0.00     0.004 C 
ENDBRANCH  18  19
ENDBRANCH  17  18
ENDBRANCH  16  17
ENDBRANCH  15  16
ENDBRANCH  14  15
ENDBRANCH  13  14
ENDBRANCH   2  13
TORSDOF 15
ENDMDL
