MODEL 1
REMARK VINA RESULT:    -4.009      0.000      0.000
REMARK INTER + INTRA:         -13.173
REMARK INTER:                  -9.164
REMARK INTRA:                  -4.009
REMARK UNBOUND:                -4.009
REMARK SMILES CCCCCCCCCCCCCCCCCCCCCCCC(=O)[O-]
REMARK SMILES IDX 13 1 14 2 15 3 16 4 17 5 18 6 19 7 20 8 21 9 22 10 23 11
REMARK SMILES IDX 24 12 25 13 26 14 12 15 11 16 10 17 9 18 8 19 7 20 6 21 5 22
REMARK SMILES IDX 4 23 3 24 2 25 1 26
REMARK H PARENT
REMARK Flexibility Score: inf
ROOT
ATOM      1  C   UNL     1      15.822  40.046  29.562  1.00  0.00     0.000 C 
ENDROOT
BRANCH   1   2
ATOM      2  C   UNL     1      14.639  40.730  28.859  1.00  0.00     0.000 C 
BRANCH   2   3
ATOM      3  C   UNL     1      14.618  40.475  27.342  1.00  0.00     0.000 C 
BRANCH   3   4
ATOM      4  C   UNL     1      14.275  39.030  26.930  1.00  0.00     0.000 C 
BRANCH   4   5
ATOM      5  C   UNL     1      15.402  38.317  26.151  1.00  0.00     0.000 C 
BRANCH   5   6
ATOM      6  C   UNL     1      16.549  39.272  25.775  1.00  0.00     0.000 C 
BRANCH   6   7
ATOM      7  C   UNL     1      17.937  38.697  26.105  1.00  0.00     0.000 C 
BRANCH   7   8
ATOM      8  C   UNL     1      17.938  37.762  27.334  1.00  0.00     0.000 C 
BRANCH   8   9
ATOM      9  C   UNL     1      18.770  36.490  27.092  1.00  0.00     0.000 C 
BRANCH   9  10
ATOM     10  C   UNL     1      18.215  35.268  27.840  1.00  0.00     0.006 C 
BRANCH  10  11
ATOM     11  C   UNL     1      17.146  35.644  28.876  1.00  0.00     0.053 C 
BRANCH  11  12
ATOM     12  C   UNL     1      15.867  34.919  28.596  1.00  0.00     0.041 C 
ATOM     13  O   UNL     1      15.261  35.101  27.506  1.00  0.00    -0.550 OA
ATOM     14  O   UNL     1      15.322  34.073  29.554  1.00  0.00    -0.550 OA
ENDBRANCH  11  12
ENDBRANCH  10  11
ENDBRANCH   9  10
ENDBRANCH   8   9
ENDBRANCH   7   8
ENDBRANCH   6   7
ENDBRANCH   5   6
ENDBRANCH   4   5
ENDBRANCH   3   4
ENDBRANCH   2   3
ENDBRANCH   1   2
BRANCH   1  15
ATOM     15  C   UNL     1      17.142  40.752  29.219  1.00  0.00     0.000 C 
BRANCH  15  16
ATOM     16  C   UNL     1      18.263  40.449  30.228  1.00  0.00     0.000 C 
BRANCH  16  17
ATOM     17  C   UNL     1      18.316  38.990  30.722  1.00  0.00     0.000 C 
BRANCH  17  18
ATOM     18  C   UNL     1      19.684  38.298  30.564  1.00  0.00    -0.000 C 
BRANCH  18  19
ATOM     19  C   UNL     1      19.853  36.994  31.369  1.00  0.00    -0.000 C 
BRANCH  19  20
ATOM     20  C   UNL     1      20.848  37.074  32.541  1.00  0.00    -0.000 C 
BRANCH  20  21
ATOM     21  C   UNL     1      20.161  37.062  33.914  1.00  0.00    -0.000 C 
BRANCH  21  22
ATOM     22  C   UNL     1      18.667  36.731  33.774  1.00  0.00    -0.000 C 
BRANCH  22  23
ATOM     23  C   UNL     1      17.756  37.785  34.429  1.00  0.00    -0.000 C 
BRANCH  23  24
ATOM     24  C   UNL     1      16.287  37.767  33.956  1.00  0.00    -0.000 C 
BRANCH  24  25
ATOM     25  C   UNL     1      15.751  39.116  33.446  1.00  0.00    -0.003 C 
ATOM     26  C   UNL     1      16.654  40.293  33.813  1.00  0.00     0.004 C 
ENDBRANCH  24  25
ENDBRANCH  23  24
ENDBRANCH  22  23
ENDBRANCH  21  22
ENDBRANCH  20  21
ENDBRANCH  19  20
ENDBRANCH  18  19
ENDBRANCH  17  18
ENDBRANCH  16  17
ENDBRANCH  15  16
ENDBRANCH   1  15
TORSDOF 22
ENDMDL
MODEL 2
REMARK VINA RESULT:    -3.968      3.976      7.935
REMARK INTER + INTRA:         -13.080
REMARK INTER:                  -8.861
REMARK INTRA:                  -4.219
REMARK UNBOUND:                -4.009
REMARK SMILES CCCCCCCCCCCCCCCCCCCCCCCC(=O)[O-]
REMARK SMILES IDX 13 1 14 2 15 3 16 4 17 5 18 6 19 7 20 8 21 9 22 10 23 11
REMARK SMILES IDX 24 12 25 13 26 14 12 15 11 16 10 17 9 18 8 19 7 20 6 21 5 22
REMARK SMILES IDX 4 23 3 24 2 25 1 26
REMARK H PARENT
REMARK Flexibility Score: inf
ROOT
ATOM      1  C   UNL     1      17.313  36.668  32.889  1.00  0.00     0.000 C 
ENDROOT
BRANCH   1   2
ATOM      2  C   UNL     1      18.153  36.726  31.604  1.00  0.00     0.000 C 
BRANCH   2   3
ATOM      3  C   UNL     1      19.138  37.908  31.589  1.00  0.00     0.000 C 
BRANCH   3   4
ATOM      4  C   UNL     1      20.552  37.569  31.079  1.00  0.00     0.000 C 
BRANCH   4   5
ATOM      5  C   UNL     1      21.686  38.069  32.001  1.00  0.00     0.000 C 
BRANCH   5   6
ATOM      6  C   UNL     1      21.201  39.132  33.003  1.00  0.00     0.000 C 
BRANCH   6   7
ATOM      7  C   UNL     1      21.719  38.888  34.430  1.00  0.00     0.000 C 
BRANCH   7   8
ATOM      8  C   UNL     1      21.795  37.393  34.809  1.00  0.00     0.000 C 
BRANCH   8   9
ATOM      9  C   UNL     1      21.173  37.113  36.188  1.00  0.00     0.000 C 
BRANCH   9  10
ATOM     10  C   UNL     1      20.586  38.375  36.840  1.00  0.00     0.006 C 
BRANCH  10  11
ATOM     11  C   UNL     1      19.472  38.056  37.848  1.00  0.00     0.053 C 
BRANCH  11  12
ATOM     12  C   UNL     1      20.001  38.101  39.247  1.00  0.00     0.041 C 
ATOM     13  O   UNL     1      19.219  37.965  40.226  1.00  0.00    -0.550 OA
ATOM     14  O   UNL     1      21.353  38.333  39.472  1.00  0.00    -0.550 OA
ENDBRANCH  11  12
ENDBRANCH  10  11
ENDBRANCH   9  10
ENDBRANCH   8   9
ENDBRANCH   7   8
ENDBRANCH   6   7
ENDBRANCH   5   6
ENDBRANCH   4   5
ENDBRANCH   3   4
ENDBRANCH   2   3
ENDBRANCH   1   2
BRANCH   1  15
ATOM     15  C   UNL     1      18.083  37.270  34.073  1.00  0.00     0.000 C 
BRANCH  15  16
ATOM     16  C   UNL     1      17.238  38.256  34.899  1.00  0.00     0.000 C 
BRANCH  16  17
ATOM     17  C   UNL     1      17.752  39.709  34.901  1.00  0.00     0.000 C 
BRANCH  17  18
ATOM     18  C   UNL     1      17.108  40.629  33.845  1.00  0.00    -0.000 C 
BRANCH  18  19
ATOM     19  C   UNL     1      15.701  40.205  33.380  1.00  0.00    -0.000 C 
BRANCH  19  20
ATOM     20  C   UNL     1      15.413  40.427  31.884  1.00  0.00    -0.000 C 
BRANCH  20  21
ATOM     21  C   UNL     1      16.675  40.356  31.012  1.00  0.00    -0.000 C 
BRANCH  21  22
ATOM     22  C   UNL     1      16.305  40.225  29.527  1.00  0.00    -0.000 C 
BRANCH  22  23
ATOM     23  C   UNL     1      17.419  39.572  28.688  1.00  0.00    -0.000 C 
BRANCH  23  24
ATOM     24  C   UNL     1      17.226  38.069  28.398  1.00  0.00    -0.000 C 
BRANCH  24  25
ATOM     25  C   UNL     1      18.270  37.450  27.452  1.00  0.00    -0.003 C 
ATOM     26  C   UNL     1      18.891  36.169  28.007  1.00  0.00     0.004 C 
ENDBRANCH  24  25
ENDBRANCH  23  24
ENDBRANCH  22  23
ENDBRANCH  21  22
ENDBRANCH  20  21
ENDBRANCH  19  20
ENDBRANCH  18  19
ENDBRANCH  17  18
ENDBRANCH  16  17
ENDBRANCH  15  16
ENDBRANCH   1  15
TORSDOF 22
ENDMDL
MODEL 3
REMARK VINA RESULT:    -3.955      1.857      3.189
REMARK INTER + INTRA:         -13.051
REMARK INTER:                  -9.181
REMARK INTRA:                  -3.871
REMARK UNBOUND:                -4.009
REMARK SMILES CCCCCCCCCCCCCCCCCCCCCCCC(=O)[O-]
REMARK SMILES IDX 13 1 14 2 15 3 16 4 17 5 18 6 19 7 20 8 21 9 22 10 23 11
REMARK SMILES IDX 24 12 25 13 26 14 12 15 11 16 10 17 9 18 8 19 7 20 6 21 5 22
REMARK SMILES IDX 4 23 3 24 2 25 1 26
REMARK H PARENT
REMARK Flexibility Score: inf
ROOT
ATOM      1  C   UNL     1      16.067  40.343  29.669  1.00  0.00     0.000 C 
ENDROOT
BRANCH   1   2
ATOM      2  C   UNL     1      14.566  40.675  29.646  1.00  0.00     0.000 C 
BRANCH   2   3
ATOM      3  C   UNL     1      14.028  40.902  28.223  1.00  0.00     0.000 C 
BRANCH   3   4
ATOM      4  C   UNL     1      14.845  40.227  27.103  1.00  0.00     0.000 C 
BRANCH   4   5
ATOM      5  C   UNL     1      14.369  38.800  26.754  1.00  0.00     0.000 C 
BRANCH   5   6
ATOM      6  C   UNL     1      15.540  37.857  26.424  1.00  0.00     0.000 C 
BRANCH   6   7
ATOM      7  C   UNL     1      16.763  38.600  25.859  1.00  0.00     0.000 C 
BRANCH   7   8
ATOM      8  C   UNL     1      18.050  38.379  26.682  1.00  0.00     0.000 C 
BRANCH   8   9
ATOM      9  C   UNL     1      17.791  37.542  27.947  1.00  0.00     0.000 C 
BRANCH   9  10
ATOM     10  C   UNL     1      18.912  36.528  28.227  1.00  0.00     0.006 C 
BRANCH  10  11
ATOM     11  C   UNL     1      18.555  35.109  27.761  1.00  0.00     0.053 C 
BRANCH  11  12
ATOM     12  C   UNL     1      19.489  34.662  26.681  1.00  0.00     0.041 C 
ATOM     13  O   UNL     1      20.043  33.532  26.749  1.00  0.00    -0.550 OA
ATOM     14  O   UNL     1      19.780  35.509  25.618  1.00  0.00    -0.550 OA
ENDBRANCH  11  12
ENDBRANCH  10  11
ENDBRANCH   9  10
ENDBRANCH   8   9
ENDBRANCH   7   8
ENDBRANCH   6   7
ENDBRANCH   5   6
ENDBRANCH   4   5
ENDBRANCH   3   4
ENDBRANCH   2   3
ENDBRANCH   1   2
BRANCH   1  15
ATOM     15  C   UNL     1      16.595  40.306  31.110  1.00  0.00     0.000 C 
BRANCH  15  16
ATOM     16  C   UNL     1      15.471  40.306  32.161  1.00  0.00     0.000 C 
BRANCH  16  17
ATOM     17  C   UNL     1      15.921  39.957  33.593  1.00  0.00     0.000 C 
BRANCH  17  18
ATOM     18  C   UNL     1      17.269  40.570  34.019  1.00  0.00    -0.000 C 
BRANCH  18  19
ATOM     19  C   UNL     1      18.125  39.685  34.947  1.00  0.00    -0.000 C 
BRANCH  19  20
ATOM     20  C   UNL     1      17.688  38.211  35.028  1.00  0.00    -0.000 C 
BRANCH  20  21
ATOM     21  C   UNL     1      18.619  37.265  34.255  1.00  0.00    -0.000 C 
BRANCH  21  22
ATOM     22  C   UNL     1      17.867  36.581  33.103  1.00  0.00    -0.000 C 
BRANCH  22  23
ATOM     23  C   UNL     1      18.291  37.101  31.718  1.00  0.00    -0.000 C 
BRANCH  23  24
ATOM     24  C   UNL     1      19.755  37.579  31.617  1.00  0.00    -0.000 C 
BRANCH  24  25
ATOM     25  C   UNL     1      19.943  38.972  30.989  1.00  0.00    -0.003 C 
ATOM     26  C   UNL     1      20.415  40.020  31.995  1.00  0.00     0.004 C 
ENDBRANCH  24  25
ENDBRANCH  23  24
ENDBRANCH  22  23
ENDBRANCH  21  22
ENDBRANCH  20  21
ENDBRANCH  19  20
ENDBRANCH  18  19
ENDBRANCH  17  18
ENDBRANCH  16  17
ENDBRANCH  15  16
ENDBRANCH   1  15
TORSDOF 22
ENDMDL
MODEL 4
REMARK VINA RESULT:    -3.954      3.502      8.017
REMARK INTER + INTRA:         -13.047
REMARK INTER:                  -9.444
REMARK INTRA:                  -3.604
REMARK UNBOUND:                -4.009
REMARK SMILES CCCCCCCCCCCCCCCCCCCCCCCC(=O)[O-]
REMARK SMILES IDX 13 1 14 2 15 3 16 4 17 5 18 6 19 7 20 8 21 9 22 10 23 11
REMARK SMILES IDX 24 12 25 13 26 14 12 15 11 16 10 17 9 18 8 19 7 20 6 21 5 22
REMARK SMILES IDX 4 23 3 24 2 25 1 26
REMARK H PARENT
REMARK Flexibility Score: inf
ROOT
ATOM      1  C   UNL     1      19.553  39.202  30.795  1.00  0.00     0.000 C 
ENDROOT
BRANCH   1   2
ATOM      2  C   UNL     1      20.537  39.089  31.970  1.00  0.00     0.000 C 
BRANCH   2   3
ATOM      3  C   UNL     1      20.767  37.635  32.417  1.00  0.00     0.000 C 
BRANCH   3   4
ATOM      4  C   UNL     1      19.610  36.667  32.102  1.00  0.00     0.000 C 
BRANCH   4   5
ATOM      5  C   UNL     1      18.711  36.350  33.317  1.00  0.00     0.000 C 
BRANCH   5   6
ATOM      6  C   UNL     1      17.360  37.085  33.254  1.00  0.00     0.000 C 
BRANCH   6   7
ATOM      7  C   UNL     1      17.054  37.882  34.533  1.00  0.00     0.000 C 
BRANCH   7   8
ATOM      8  C   UNL     1      17.612  39.322  34.508  1.00  0.00     0.000 C 
BRANCH   8   9
ATOM      9  C   UNL     1      18.855  39.476  35.403  1.00  0.00     0.000 C 
BRANCH   9  10
ATOM     10  C   UNL     1      18.983  38.349  36.439  1.00  0.00     0.006 C 
BRANCH  10  11
ATOM     11  C   UNL     1      19.111  38.877  37.875  1.00  0.00     0.053 C 
BRANCH  11  12
ATOM     12  C   UNL     1      19.506  37.774  38.806  1.00  0.00     0.041 C 
ATOM     13  O   UNL     1      20.428  36.977  38.490  1.00  0.00    -0.550 OA
ATOM     14  O   UNL     1      18.829  37.602  40.007  1.00  0.00    -0.550 OA
ENDBRANCH  11  12
ENDBRANCH  10  11
ENDBRANCH   9  10
ENDBRANCH   8   9
ENDBRANCH   7   8
ENDBRANCH   6   7
ENDBRANCH   5   6
ENDBRANCH   4   5
ENDBRANCH   3   4
ENDBRANCH   2   3
ENDBRANCH   1   2
BRANCH   1  15
ATOM     15  C   UNL     1      18.438  40.209  31.111  1.00  0.00     0.000 C 
BRANCH  15  16
ATOM     16  C   UNL     1      17.059  39.758  30.597  1.00  0.00     0.000 C 
BRANCH  16  17
ATOM     17  C   UNL     1      16.575  40.476  29.322  1.00  0.00     0.000 C 
BRANCH  17  18
ATOM     18  C   UNL     1      15.045  40.524  29.144  1.00  0.00    -0.000 C 
BRANCH  18  19
ATOM     19  C   UNL     1      14.557  40.519  27.682  1.00  0.00    -0.000 C 
BRANCH  19  20
ATOM     20  C   UNL     1      15.660  40.709  26.625  1.00  0.00    -0.000 C 
BRANCH  20  21
ATOM     21  C   UNL     1      15.806  39.504  25.685  1.00  0.00    -0.000 C 
BRANCH  21  22
ATOM     22  C   UNL     1      14.952  38.325  26.174  1.00  0.00    -0.000 C 
BRANCH  22  23
ATOM     23  C   UNL     1      15.792  37.084  26.530  1.00  0.00    -0.000 C 
BRANCH  23  24
ATOM     24  C   UNL     1      16.538  37.163  27.878  1.00  0.00    -0.000 C 
BRANCH  24  25
ATOM     25  C   UNL     1      18.061  37.356  27.768  1.00  0.00    -0.003 C 
ATOM     26  C   UNL     1      18.588  37.136  26.351  1.00  0.00     0.004 C 
ENDBRANCH  24  25
ENDBRANCH  23  24
ENDBRANCH  22  23
ENDBRANCH  21  22
ENDBRANCH  20  21
ENDBRANCH  19  20
ENDBRANCH  18  19
ENDBRANCH  17  18
ENDBRANCH  16  17
ENDBRANCH  15  16
ENDBRANCH   1  15
TORSDOF 22
ENDMDL
MODEL 5
REMARK VINA RESULT:    -3.938      2.209      5.154
REMARK INTER + INTRA:         -13.010
REMARK INTER:                  -9.049
REMARK INTRA:                  -3.962
REMARK UNBOUND:                -4.009
REMARK SMILES CCCCCCCCCCCCCCCCCCCCCCCC(=O)[O-]
REMARK SMILES IDX 13 1 14 2 15 3 16 4 17 5 18 6 19 7 20 8 21 9 22 10 23 11
REMARK SMILES IDX 24 12 25 13 26 14 12 15 11 16 10 17 9 18 8 19 7 20 6 21 5 22
REMARK SMILES IDX 4 23 3 24 2 25 1 26
REMARK H PARENT
REMARK Flexibility Score: inf
ROOT
ATOM      1  C   UNL     1      20.502  37.006  32.333  1.00  0.00     0.000 C 
ENDROOT
BRANCH   1   2
ATOM      2  C   UNL     1      20.756  38.519  32.236  1.00  0.00     0.000 C 
BRANCH   2   3
ATOM      3  C   UNL     1      19.829  39.215  31.225  1.00  0.00     0.000 C 
BRANCH   3   4
ATOM      4  C   UNL     1      19.262  38.298  30.124  1.00  0.00     0.000 C 
BRANCH   4   5
ATOM      5  C   UNL     1      17.737  38.432  29.920  1.00  0.00     0.000 C 
BRANCH   5   6
ATOM      6  C   UNL     1      17.174  39.721  30.546  1.00  0.00     0.000 C 
BRANCH   6   7
ATOM      7  C   UNL     1      15.991  40.301  29.754  1.00  0.00     0.000 C 
BRANCH   7   8
ATOM      8  C   UNL     1      16.350  40.675  28.299  1.00  0.00     0.000 C 
BRANCH   8   9
ATOM      9  C   UNL     1      15.110  40.708  27.388  1.00  0.00     0.000 C 
BRANCH   9  10
ATOM     10  C   UNL     1      14.226  39.461  27.544  1.00  0.00     0.006 C 
BRANCH  10  11
ATOM     11  C   UNL     1      14.218  38.580  26.286  1.00  0.00     0.053 C 
BRANCH  11  12
ATOM     12  C   UNL     1      15.597  38.079  25.989  1.00  0.00     0.041 C 
ATOM     13  O   UNL     1      16.165  38.390  24.908  1.00  0.00    -0.550 OA
ATOM     14  O   UNL     1      16.240  37.236  26.887  1.00  0.00    -0.550 OA
ENDBRANCH  11  12
ENDBRANCH  10  11
ENDBRANCH   9  10
ENDBRANCH   8   9
ENDBRANCH   7   8
ENDBRANCH   6   7
ENDBRANCH   5   6
ENDBRANCH   4   5
ENDBRANCH   3   4
ENDBRANCH   2   3
ENDBRANCH   1   2
BRANCH   1  15
ATOM     15  C   UNL     1      19.581  36.681  33.517  1.00  0.00     0.000 C 
BRANCH  15  16
ATOM     16  C   UNL     1      18.188  36.198  33.078  1.00  0.00     0.000 C 
BRANCH  16  17
ATOM     17  C   UNL     1      17.037  37.179  33.374  1.00  0.00     0.000 C 
BRANCH  17  18
ATOM     18  C   UNL     1      17.261  38.097  34.591  1.00  0.00    -0.000 C 
BRANCH  18  19
ATOM     19  C   UNL     1      17.250  39.607  34.280  1.00  0.00    -0.000 C 
BRANCH  19  20
ATOM     20  C   UNL     1      18.526  40.367  34.687  1.00  0.00    -0.000 C 
BRANCH  20  21
ATOM     21  C   UNL     1      19.175  39.811  35.963  1.00  0.00    -0.000 C 
BRANCH  21  22
ATOM     22  C   UNL     1      20.685  39.612  35.764  1.00  0.00    -0.000 C 
BRANCH  22  23
ATOM     23  C   UNL     1      21.202  38.299  36.382  1.00  0.00    -0.000 C 
BRANCH  23  24
ATOM     24  C   UNL     1      20.124  37.416  37.044  1.00  0.00    -0.000 C 
BRANCH  24  25
ATOM     25  C   UNL     1      20.164  37.383  38.582  1.00  0.00    -0.003 C 
ATOM     26  C   UNL     1      18.945  38.044  39.224  1.00  0.00     0.004 C 
ENDBRANCH  24  25
ENDBRANCH  23  24
ENDBRANCH  22  23
ENDBRANCH  21  22
ENDBRANCH  20  21
ENDBRANCH  19  20
ENDBRANCH  18  19
ENDBRANCH  17  18
ENDBRANCH  16  17
ENDBRANCH  15  16
ENDBRANCH   1  15
TORSDOF 22
ENDMDL
MODEL 6
REMARK VINA RESULT:    -3.888      3.055      5.929
REMARK INTER + INTRA:         -12.897
REMARK INTER:                  -8.650
REMARK INTRA:                  -4.247
REMARK UNBOUND:                -4.009
REMARK SMILES CCCCCCCCCCCCCCCCCCCCCCCC(=O)[O-]
REMARK SMILES IDX 13 1 14 2 15 3 16 4 17 5 18 6 19 7 20 8 21 9 22 10 23 11
REMARK SMILES IDX 24 12 25 13 26 14 12 15 11 16 10 17 9 18 8 19 7 20 6 21 5 22
REMARK SMILES IDX 4 23 3 24 2 25 1 26
REMARK H PARENT
REMARK Flexibility Score: inf
ROOT
ATOM      1  C   UNL     1      17.092  37.330  33.565  1.00  0.00     0.000 C 
ENDROOT
BRANCH   1   2
ATOM      2  C   UNL     1      18.449  36.628  33.405  1.00  0.00     0.000 C 
BRANCH   2   3
ATOM      3  C   UNL     1      19.037  36.783  31.992  1.00  0.00     0.000 C 
BRANCH   3   4
ATOM      4  C   UNL     1      20.561  37.009  31.943  1.00  0.00     0.000 C 
BRANCH   4   5
ATOM      5  C   UNL     1      20.992  38.165  31.014  1.00  0.00     0.000 C 
BRANCH   5   6
ATOM      6  C   UNL     1      20.739  39.547  31.642  1.00  0.00     0.000 C 
BRANCH   6   7
ATOM      7  C   UNL     1      19.558  40.290  30.993  1.00  0.00     0.000 C 
BRANCH   7   8
ATOM      8  C   UNL     1      18.391  40.557  31.967  1.00  0.00     0.000 C 
BRANCH   8   9
ATOM      9  C   UNL     1      17.021  40.313  31.308  1.00  0.00     0.000 C 
BRANCH   9  10
ATOM     10  C   UNL     1      17.137  39.642  29.931  1.00  0.00     0.006 C 
BRANCH  10  11
ATOM     11  C   UNL     1      16.725  40.574  28.782  1.00  0.00     0.053 C 
BRANCH  11  12
ATOM     12  C   UNL     1      15.292  40.348  28.413  1.00  0.00     0.041 C 
ATOM     13  O   UNL     1      14.999  39.798  27.318  1.00  0.00    -0.550 OA
ATOM     14  O   UNL     1      14.279  40.782  29.259  1.00  0.00    -0.550 OA
ENDBRANCH  11  12
ENDBRANCH  10  11
ENDBRANCH   9  10
ENDBRANCH   8   9
ENDBRANCH   7   8
ENDBRANCH   6   7
ENDBRANCH   5   6
ENDBRANCH   4   5
ENDBRANCH   3   4
ENDBRANCH   2   3
ENDBRANCH   1   2
BRANCH   1  15
ATOM     15  C   UNL     1      17.109  38.284  34.768  1.00  0.00     0.000 C 
BRANCH  15  16
ATOM     16  C   UNL     1      18.436  38.243  35.546  1.00  0.00     0.000 C 
BRANCH  16  17
ATOM     17  C   UNL     1      18.975  39.618  35.984  1.00  0.00     0.000 C 
BRANCH  17  18
ATOM     18  C   UNL     1      20.097  40.190  35.095  1.00  0.00    -0.000 C 
BRANCH  18  19
ATOM     19  C   UNL     1      21.530  39.912  35.591  1.00  0.00    -0.000 C 
BRANCH  19  20
ATOM     20  C   UNL     1      22.151  38.596  35.089  1.00  0.00    -0.000 C 
BRANCH  20  21
ATOM     21  C   UNL     1      22.610  37.674  36.228  1.00  0.00    -0.000 C 
BRANCH  21  22
ATOM     22  C   UNL     1      21.530  36.633  36.556  1.00  0.00    -0.000 C 
BRANCH  22  23
ATOM     23  C   UNL     1      21.206  36.558  38.060  1.00  0.00    -0.000 C 
BRANCH  23  24
ATOM     24  C   UNL     1      21.551  37.826  38.868  1.00  0.00    -0.000 C 
BRANCH  24  25
ATOM     25  C   UNL     1      20.354  38.738  39.189  1.00  0.00    -0.003 C 
ATOM     26  C   UNL     1      19.053  37.964  39.394  1.00  0.00     0.004 C 
ENDBRANCH  24  25
ENDBRANCH  23  24
ENDBRANCH  22  23
ENDBRANCH  21  22
ENDBRANCH  20  21
ENDBRANCH  19  20
ENDBRANCH  18  19
ENDBRANCH  17  18
ENDBRANCH  16  17
ENDBRANCH  15  16
ENDBRANCH   1  15
TORSDOF 22
ENDMDL
MODEL 7
REMARK VINA RESULT:    -3.877      1.636      3.810
REMARK INTER + INTRA:         -12.872
REMARK INTER:                  -9.266
REMARK INTRA:                  -3.606
REMARK UNBOUND:                -4.009
REMARK SMILES CCCCCCCCCCCCCCCCCCCCCCCC(=O)[O-]
REMARK SMILES IDX 13 1 14 2 15 3 16 4 17 5 18 6 19 7 20 8 21 9 22 10 23 11
REMARK SMILES IDX 24 12 25 13 26 14 12 15 11 16 10 17 9 18 8 19 7 20 6 21 5 22
REMARK SMILES IDX 4 23 3 24 2 25 1 26
REMARK H PARENT
REMARK Flexibility Score: inf
ROOT
ATOM      1  C   UNL     1      14.934  38.325  26.973  1.00  0.00     0.000 C 
ENDROOT
BRANCH   1   2
ATOM      2  C   UNL     1      14.353  37.773  25.662  1.00  0.00     0.000 C 
BRANCH   2   3
ATOM      3  C   UNL     1      15.440  37.373  24.650  1.00  0.00     0.000 C 
BRANCH   3   4
ATOM      4  C   UNL     1      16.658  38.317  24.597  1.00  0.00     0.000 C 
BRANCH   4   5
ATOM      5  C   UNL     1      18.009  37.609  24.836  1.00  0.00     0.000 C 
BRANCH   5   6
ATOM      6  C   UNL     1      18.308  37.407  26.333  1.00  0.00     0.000 C 
BRANCH   6   7
ATOM      7  C   UNL     1      18.999  36.065  26.627  1.00  0.00     0.000 C 
BRANCH   7   8
ATOM      8  C   UNL     1      18.170  35.133  27.536  1.00  0.00     0.000 C 
BRANCH   8   9
ATOM      9  C   UNL     1      16.821  34.755  26.900  1.00  0.00     0.000 C 
BRANCH   9  10
ATOM     10  C   UNL     1      15.668  34.742  27.916  1.00  0.00     0.006 C 
BRANCH  10  11
ATOM     11  C   UNL     1      14.354  34.223  27.314  1.00  0.00     0.053 C 
BRANCH  11  12
ATOM     12  C   UNL     1      13.995  32.896  27.905  1.00  0.00     0.041 C 
ATOM     13  O   UNL     1      14.148  31.840  27.234  1.00  0.00    -0.550 OA
ATOM     14  O   UNL     1      13.454  32.827  29.183  1.00  0.00    -0.550 OA
ENDBRANCH  11  12
ENDBRANCH  10  11
ENDBRANCH   9  10
ENDBRANCH   8   9
ENDBRANCH   7   8
ENDBRANCH   6   7
ENDBRANCH   5   6
ENDBRANCH   4   5
ENDBRANCH   3   4
ENDBRANCH   2   3
ENDBRANCH   1   2
BRANCH   1  15
ATOM     15  C   UNL     1      14.070  39.474  27.513  1.00  0.00     0.000 C 
BRANCH  15  16
ATOM     16  C   UNL     1      14.852  40.790  27.668  1.00  0.00     0.000 C 
BRANCH  16  17
ATOM     17  C   UNL     1      16.369  40.676  27.424  1.00  0.00     0.000 C 
BRANCH  17  18
ATOM     18  C   UNL     1      17.238  40.728  28.697  1.00  0.00    -0.000 C 
BRANCH  18  19
ATOM     19  C   UNL     1      16.578  40.146  29.963  1.00  0.00    -0.000 C 
BRANCH  19  20
ATOM     20  C   UNL     1      17.533  39.402  30.914  1.00  0.00    -0.000 C 
BRANCH  20  21
ATOM     21  C   UNL     1      17.837  37.968  30.459  1.00  0.00    -0.000 C 
BRANCH  21  22
ATOM     22  C   UNL     1      19.213  37.891  29.779  1.00  0.00    -0.000 C 
BRANCH  22  23
ATOM     23  C   UNL     1      20.228  37.052  30.577  1.00  0.00    -0.000 C 
BRANCH  23  24
ATOM     24  C   UNL     1      20.735  37.701  31.881  1.00  0.00    -0.000 C 
BRANCH  24  25
ATOM     25  C   UNL     1      20.614  36.821  33.137  1.00  0.00    -0.003 C 
ATOM     26  C   UNL     1      19.177  36.702  33.645  1.00  0.00     0.004 C 
ENDBRANCH  24  25
ENDBRANCH  23  24
ENDBRANCH  22  23
ENDBRANCH  21  22
ENDBRANCH  20  21
ENDBRANCH  19  20
ENDBRANCH  18  19
ENDBRANCH  17  18
ENDBRANCH  16  17
ENDBRANCH  15  16
ENDBRANCH   1  15
TORSDOF 22
ENDMDL
MODEL 8
REMARK VINA RESULT:    -3.863      3.015      6.886
REMARK INTER + INTRA:         -12.840
REMARK INTER:                  -8.626
REMARK INTRA:                  -4.213
REMARK UNBOUND:                -4.009
REMARK SMILES CCCCCCCCCCCCCCCCCCCCCCCC(=O)[O-]
REMARK SMILES IDX 13 1 14 2 15 3 16 4 17 5 18 6 19 7 20 8 21 9 22 10 23 11
REMARK SMILES IDX 24 12 25 13 26 14 12 15 11 16 10 17 9 18 8 19 7 20 6 21 5 22
REMARK SMILES IDX 4 23 3 24 2 25 1 26
REMARK H PARENT
REMARK Flexibility Score: inf
ROOT
ATOM      1  C   UNL     1      16.572  39.303  33.855  1.00  0.00     0.000 C 
ENDROOT
BRANCH   1   2
ATOM      2  C   UNL     1      16.352  37.788  33.717  1.00  0.00     0.000 C 
BRANCH   2   3
ATOM      3  C   UNL     1      17.668  37.006  33.566  1.00  0.00     0.000 C 
BRANCH   3   4
ATOM      4  C   UNL     1      17.837  36.271  32.222  1.00  0.00     0.000 C 
BRANCH   4   5
ATOM      5  C   UNL     1      17.799  37.202  30.990  1.00  0.00     0.000 C 
BRANCH   5   6
ATOM      6  C   UNL     1      19.088  37.117  30.153  1.00  0.00     0.000 C 
BRANCH   6   7
ATOM      7  C   UNL     1      20.357  37.026  31.018  1.00  0.00     0.000 C 
BRANCH   7   8
ATOM      8  C   UNL     1      21.000  38.399  31.311  1.00  0.00     0.000 C 
BRANCH   8   9
ATOM      9  C   UNL     1      21.733  38.416  32.664  1.00  0.00     0.000 C 
BRANCH   9  10
ATOM     10  C   UNL     1      21.129  37.434  33.678  1.00  0.00     0.006 C 
BRANCH  10  11
ATOM     11  C   UNL     1      21.866  37.448  35.026  1.00  0.00     0.053 C 
BRANCH  11  12
ATOM     12  C   UNL     1      21.032  38.119  36.072  1.00  0.00     0.041 C 
ATOM     13  O   UNL     1      21.509  39.067  36.751  1.00  0.00    -0.550 OA
ATOM     14  O   UNL     1      19.741  37.671  36.326  1.00  0.00    -0.550 OA
ENDBRANCH  11  12
ENDBRANCH  10  11
ENDBRANCH   9  10
ENDBRANCH   8   9
ENDBRANCH   7   8
ENDBRANCH   6   7
ENDBRANCH   5   6
ENDBRANCH   4   5
ENDBRANCH   3   4
ENDBRANCH   2   3
ENDBRANCH   1   2
BRANCH   1  15
ATOM     15  C   UNL     1      18.069  39.630  33.954  1.00  0.00     0.000 C 
BRANCH  15  16
ATOM     16  C   UNL     1      18.541  40.608  32.863  1.00  0.00     0.000 C 
BRANCH  16  17
ATOM     17  C   UNL     1      17.542  40.829  31.711  1.00  0.00     0.000 C 
BRANCH  17  18
ATOM     18  C   UNL     1      18.157  40.780  30.298  1.00  0.00    -0.000 C 
BRANCH  18  19
ATOM     19  C   UNL     1      17.145  40.585  29.152  1.00  0.00    -0.000 C 
BRANCH  19  20
ATOM     20  C   UNL     1      15.728  40.175  29.594  1.00  0.00    -0.000 C 
BRANCH  20  21
ATOM     21  C   UNL     1      14.622  40.854  28.773  1.00  0.00    -0.000 C 
BRANCH  21  22
ATOM     22  C   UNL     1      14.718  40.455  27.293  1.00  0.00    -0.000 C 
BRANCH  22  23
ATOM     23  C   UNL     1      14.353  38.979  27.046  1.00  0.00    -0.000 C 
BRANCH  23  24
ATOM     24  C   UNL     1      15.381  38.178  26.220  1.00  0.00    -0.000 C 
BRANCH  24  25
ATOM     25  C   UNL     1      16.510  37.530  27.039  1.00  0.00    -0.003 C 
ATOM     26  C   UNL     1      16.107  36.190  27.653  1.00  0.00     0.004 C 
ENDBRANCH  24  25
ENDBRANCH  23  24
ENDBRANCH  22  23
ENDBRANCH  21  22
ENDBRANCH  20  21
ENDBRANCH  19  20
ENDBRANCH  18  19
ENDBRANCH  17  18
ENDBRANCH  16  17
ENDBRANCH  15  16
ENDBRANCH   1  15
TORSDOF 22
ENDMDL
MODEL 9
REMARK VINA RESULT:    -3.840      2.711      5.076
REMARK INTER + INTRA:         -12.788
REMARK INTER:                  -8.780
REMARK INTRA:                  -4.008
REMARK UNBOUND:                -4.009
REMARK SMILES CCCCCCCCCCCCCCCCCCCCCCCC(=O)[O-]
REMARK SMILES IDX 13 1 14 2 15 3 16 4 17 5 18 6 19 7 20 8 21 9 22 10 23 11
REMARK SMILES IDX 24 12 25 13 26 14 12 15 11 16 10 17 9 18 8 19 7 20 6 21 5 22
REMARK SMILES IDX 4 23 3 24 2 25 1 26
REMARK H PARENT
REMARK Flexibility Score: inf
ROOT
ATOM      1  C   UNL     1      16.507  40.431  33.684  1.00  0.00     0.000 C 
ENDROOT
BRANCH   1   2
ATOM      2  C   UNL     1      17.536  41.125  32.778  1.00  0.00     0.000 C 
BRANCH   2   3
ATOM      3  C   UNL     1      17.990  40.239  31.604  1.00  0.00     0.000 C 
BRANCH   3   4
ATOM      4  C   UNL     1      19.505  39.962  31.547  1.00  0.00     0.000 C 
BRANCH   4   5
ATOM      5  C   UNL     1      19.872  38.633  30.851  1.00  0.00     0.000 C 
BRANCH   5   6
ATOM      6  C   UNL     1      19.205  37.418  31.521  1.00  0.00     0.000 C 
BRANCH   6   7
ATOM      7  C   UNL     1      18.134  36.761  30.633  1.00  0.00     0.000 C 
BRANCH   7   8
ATOM      8  C   UNL     1      18.396  36.937  29.122  1.00  0.00     0.000 C 
BRANCH   8   9
ATOM      9  C   UNL     1      17.165  37.492  28.383  1.00  0.00     0.000 C 
BRANCH   9  10
ATOM     10  C   UNL     1      17.326  38.969  27.989  1.00  0.00     0.006 C 
BRANCH  10  11
ATOM     11  C   UNL     1      16.130  39.830  28.422  1.00  0.00     0.053 C 
BRANCH  11  12
ATOM     12  C   UNL     1      14.968  39.611  27.504  1.00  0.00     0.041 C 
ATOM     13  O   UNL     1      13.792  39.621  27.955  1.00  0.00    -0.550 OA
ATOM     14  O   UNL     1      15.185  39.357  26.155  1.00  0.00    -0.550 OA
ENDBRANCH  11  12
ENDBRANCH  10  11
ENDBRANCH   9  10
ENDBRANCH   8   9
ENDBRANCH   7   8
ENDBRANCH   6   7
ENDBRANCH   5   6
ENDBRANCH   4   5
ENDBRANCH   3   4
ENDBRANCH   2   3
ENDBRANCH   1   2
BRANCH   1  15
ATOM     15  C   UNL     1      16.271  38.982  33.232  1.00  0.00     0.000 C 
BRANCH  15  16
ATOM     16  C   UNL     1      16.626  37.951  34.317  1.00  0.00     0.000 C 
BRANCH  16  17
ATOM     17  C   UNL     1      17.651  38.434  35.362  1.00  0.00     0.000 C 
BRANCH  17  18
ATOM     18  C   UNL     1      19.033  37.756  35.279  1.00  0.00    -0.000 C 
BRANCH  18  19
ATOM     19  C   UNL     1      20.198  38.690  34.896  1.00  0.00    -0.000 C 
BRANCH  19  20
ATOM     20  C   UNL     1      21.604  38.097  35.096  1.00  0.00    -0.000 C 
BRANCH  20  21
ATOM     21  C   UNL     1      21.578  36.639  35.579  1.00  0.00    -0.000 C 
BRANCH  21  22
ATOM     22  C   UNL     1      22.406  36.475  36.862  1.00  0.00    -0.000 C 
BRANCH  22  23
ATOM     23  C   UNL     1      21.538  36.424  38.133  1.00  0.00    -0.000 C 
BRANCH  23  24
ATOM     24  C   UNL     1      21.485  37.735  38.944  1.00  0.00    -0.000 C 
BRANCH  24  25
ATOM     25  C   UNL     1      20.275  38.637  38.645  1.00  0.00    -0.003 C 
ATOM     26  C   UNL     1      18.944  37.998  39.039  1.00  0.00     0.004 C 
ENDBRANCH  24  25
ENDBRANCH  23  24
ENDBRANCH  22  23
ENDBRANCH  21  22
ENDBRANCH  20  21
ENDBRANCH  19  20
ENDBRANCH  18  19
ENDBRANCH  17  18
ENDBRANCH  16  17
ENDBRANCH  15  16
ENDBRANCH   1  15
TORSDOF 22
ENDMDL
