MODEL 1
REMARK VINA RESULT:     0.672      0.000      0.000
REMARK INTER + INTRA:           0.766
REMARK INTER:                   0.790
REMARK INTRA:                  -0.024
REMARK UNBOUND:                -0.024
REMARK SMILES CCCCC(=O)[O-]
REMARK SMILES IDX 4 1 5 2 6 3 7 4 3 5 2 6 1 7
REMARK H PARENT
REMARK Flexibility Score: inf
ROOT
ATOM      1  C   UNL     1       5.984   6.238  -2.661  1.00  0.00     0.053 C 
ENDROOT
BRANCH   1   2
ATOM      2  C   UNL     1       5.225   7.511  -2.443  1.00  0.00     0.041 C 
ATOM      3  O   UNL     1       4.044   7.624  -2.864  1.00  0.00    -0.550 OA
ATOM      4  O   UNL     1       5.834   8.583  -1.802  1.00  0.00    -0.550 OA
ENDBRANCH   1   2
BRANCH   1   5
ATOM      5  C   UNL     1       5.252   5.297  -3.626  1.00  0.00     0.006 C 
BRANCH   5   6
ATOM      6  C   UNL     1       6.221   4.392  -4.400  1.00  0.00    -0.003 C 
ATOM      7  C   UNL     1       6.783   3.293  -3.503  1.00  0.00     0.004 C 
ENDBRANCH   5   6
ENDBRANCH   1   5
TORSDOF 3
ENDMDL
MODEL 2
REMARK VINA RESULT:     0.984      2.562      3.892
REMARK INTER + INTRA:           1.133
REMARK INTER:                   1.171
REMARK INTRA:                  -0.039
REMARK UNBOUND:                -0.024
REMARK SMILES CCCCC(=O)[O-]
REMARK SMILES IDX 4 1 5 2 6 3 7 4 3 5 2 6 1 7
REMARK H PARENT
REMARK Flexibility Score: inf
ROOT
ATOM      1  C   UNL     1       6.002   5.734  -2.923  1.00  0.00     0.053 C 
ENDROOT
BRANCH   1   2
ATOM      2  C   UNL     1       6.182   4.662  -3.954  1.00  0.00     0.041 C 
ATOM      3  O   UNL     1       5.751   4.830  -5.125  1.00  0.00    -0.550 OA
ATOM      4  O   UNL     1       6.800   3.466  -3.612  1.00  0.00    -0.550 OA
ENDBRANCH   1   2
BRANCH   1   5
ATOM      5  C   UNL     1       4.579   6.307  -2.943  1.00  0.00     0.006 C 
BRANCH   5   6
ATOM      6  C   UNL     1       4.463   7.598  -2.119  1.00  0.00    -0.003 C 
ATOM      7  C   UNL     1       5.840   8.184  -1.819  1.00  0.00     0.004 C 
ENDBRANCH   5   6
ENDBRANCH   1   5
TORSDOF 3
ENDMDL
MODEL 3
REMARK VINA RESULT:     1.735      2.837      4.148
REMARK INTER + INTRA:           2.016
REMARK INTER:                   2.032
REMARK INTRA:                  -0.016
REMARK UNBOUND:                -0.024
REMARK SMILES CCCCC(=O)[O-]
REMARK SMILES IDX 4 1 5 2 6 3 7 4 3 5 2 6 1 7
REMARK H PARENT
REMARK Flexibility Score: inf
ROOT
ATOM      1  C   UNL     1       3.584   7.259  -2.370  1.00  0.00     0.053 C 
ENDROOT
BRANCH   1   2
ATOM      2  C   UNL     1       5.079   7.258  -2.445  1.00  0.00     0.041 C 
ATOM      3  O   UNL     1       5.690   6.256  -2.902  1.00  0.00    -0.550 OA
ATOM      4  O   UNL     1       5.800   8.352  -1.982  1.00  0.00    -0.550 OA
ENDBRANCH   1   2
BRANCH   1   5
ATOM      5  C   UNL     1       2.947   7.686  -3.699  1.00  0.00     0.006 C 
BRANCH   5   6
ATOM      6  C   UNL     1       1.413   7.639  -3.649  1.00  0.00    -0.003 C 
ATOM      7  C   UNL     1       0.801   8.395  -4.825  1.00  0.00     0.004 C 
ENDBRANCH   5   6
ENDBRANCH   1   5
TORSDOF 3
ENDMDL
MODEL 4
REMARK VINA RESULT:     2.203      5.982      6.945
REMARK INTER + INTRA:           2.565
REMARK INTER:                   2.583
REMARK INTRA:                  -0.018
REMARK UNBOUND:                -0.024
REMARK SMILES CCCCC(=O)[O-]
REMARK SMILES IDX 4 1 5 2 6 3 7 4 3 5 2 6 1 7
REMARK H PARENT
REMARK Flexibility Score: inf
ROOT
ATOM      1  C   UNL     1       0.536   8.753  -6.301  1.00  0.00     0.053 C 
ENDROOT
BRANCH   1   2
ATOM      2  C   UNL     1       1.293   8.470  -7.562  1.00  0.00     0.041 C 
ATOM      3  O   UNL     1       0.724   7.901  -8.530  1.00  0.00    -0.550 OA
ATOM      4  O   UNL     1       2.638   8.806  -7.655  1.00  0.00    -0.550 OA
ENDBRANCH   1   2
BRANCH   1   5
ATOM      5  C   UNL     1       1.366   8.424  -5.053  1.00  0.00     0.006 C 
BRANCH   5   6
ATOM      6  C   UNL     1       0.490   7.962  -3.879  1.00  0.00    -0.003 C 
ATOM      7  C   UNL     1      -0.400   9.097  -3.378  1.00  0.00     0.004 C 
ENDBRANCH   5   6
ENDBRANCH   1   5
TORSDOF 3
ENDMDL
MODEL 5
REMARK VINA RESULT:     2.695      3.754      4.569
REMARK INTER + INTRA:           3.144
REMARK INTER:                   3.160
REMARK INTRA:                  -0.016
REMARK UNBOUND:                -0.024
REMARK SMILES CCCCC(=O)[O-]
REMARK SMILES IDX 4 1 5 2 6 3 7 4 3 5 2 6 1 7
REMARK H PARENT
REMARK Flexibility Score: inf
ROOT
ATOM      1  C   UNL     1       1.778   7.319  -3.490  1.00  0.00     0.053 C 
ENDROOT
BRANCH   1   2
ATOM      2  C   UNL     1       0.923   8.273  -4.267  1.00  0.00     0.041 C 
ATOM      3  O   UNL     1      -0.128   8.741  -3.757  1.00  0.00    -0.550 OA
ATOM      4  O   UNL     1       1.273   8.620  -5.566  1.00  0.00    -0.550 OA
ENDBRANCH   1   2
BRANCH   1   5
ATOM      5  C   UNL     1       3.259   7.718  -3.533  1.00  0.00     0.006 C 
BRANCH   5   6
ATOM      6  C   UNL     1       4.070   7.058  -2.408  1.00  0.00    -0.003 C 
ATOM      7  C   UNL     1       5.374   7.811  -2.155  1.00  0.00     0.004 C 
ENDBRANCH   5   6
ENDBRANCH   1   5
TORSDOF 3
ENDMDL
MODEL 6
REMARK VINA RESULT:     2.723      5.804      6.377
REMARK INTER + INTRA:           3.176
REMARK INTER:                   3.214
REMARK INTRA:                  -0.038
REMARK UNBOUND:                -0.024
REMARK SMILES CCCCC(=O)[O-]
REMARK SMILES IDX 4 1 5 2 6 3 7 4 3 5 2 6 1 7
REMARK H PARENT
REMARK Flexibility Score: inf
ROOT
ATOM      1  C   UNL     1       1.083   8.811  -5.572  1.00  0.00     0.053 C 
ENDROOT
BRANCH   1   2
ATOM      2  C   UNL     1       0.650   8.233  -4.260  1.00  0.00     0.041 C 
ATOM      3  O   UNL     1      -0.183   8.846  -3.542  1.00  0.00    -0.550 OA
ATOM      4  O   UNL     1       1.190   7.033  -3.816  1.00  0.00    -0.550 OA
ENDBRANCH   1   2
BRANCH   1   5
ATOM      5  C   UNL     1       0.133   8.413  -6.710  1.00  0.00     0.006 C 
BRANCH   5   6
ATOM      6  C   UNL     1       0.863   8.280  -8.054  1.00  0.00    -0.003 C 
ATOM      7  C   UNL     1       2.295   8.800  -7.956  1.00  0.00     0.004 C 
ENDBRANCH   5   6
ENDBRANCH   1   5
TORSDOF 3
ENDMDL
MODEL 7
REMARK VINA RESULT:     3.351     10.660     11.110
REMARK INTER + INTRA:           3.915
REMARK INTER:                   3.958
REMARK INTRA:                  -0.043
REMARK UNBOUND:                -0.024
REMARK SMILES CCCCC(=O)[O-]
REMARK SMILES IDX 4 1 5 2 6 3 7 4 3 5 2 6 1 7
REMARK H PARENT
REMARK Flexibility Score: inf
ROOT
ATOM      1  C   UNL     1       0.814  15.959  -3.695  1.00  0.00     0.053 C 
ENDROOT
BRANCH   1   2
ATOM      2  C   UNL     1       1.642  15.667  -4.908  1.00  0.00     0.041 C 
ATOM      3  O   UNL     1       1.106  15.176  -5.937  1.00  0.00    -0.550 OA
ATOM      4  O   UNL     1       3.010  15.909  -4.892  1.00  0.00    -0.550 OA
ENDBRANCH   1   2
BRANCH   1   5
ATOM      5  C   UNL     1       1.685  16.351  -2.494  1.00  0.00     0.006 C 
BRANCH   5   6
ATOM      6  C   UNL     1       1.030  15.977  -1.156  1.00  0.00    -0.003 C 
ATOM      7  C   UNL     1      -0.365  15.397  -1.370  1.00  0.00     0.004 C 
ENDBRANCH   5   6
ENDBRANCH   1   5
TORSDOF 3
ENDMDL
