MODEL 1
REMARK VINA RESULT:    -4.132      0.000      0.000
REMARK INTER + INTRA:          -4.417
REMARK INTER:                  -4.374
REMARK INTRA:                  -0.043
REMARK UNBOUND:                -0.043
REMARK SMILES COc1ccc2ccc(=O)oc2c1
REMARK SMILES IDX 3 1 13 2 12 3 6 4 5 5 4 6 7 7 8 8 9 9 10 10 11 11 2 12 1 13
REMARK H PARENT
REMARK Flexibility Score: inf
ROOT
ATOM      1  C   UNL     1      76.195  41.215  20.250  1.00  0.00     0.122 A 
ATOM      2  C   UNL     1      75.681  40.303  19.320  1.00  0.00     0.094 A 
ATOM      3  C   UNL     1      74.705  39.375  19.697  1.00  0.00     0.142 A 
ATOM      4  C   UNL     1      74.232  39.358  21.028  1.00  0.00     0.018 A 
ATOM      5  C   UNL     1      74.742  40.268  21.962  1.00  0.00     0.016 A 
ATOM      6  C   UNL     1      75.719  41.192  21.577  1.00  0.00     0.047 A 
ATOM      7  C   UNL     1      73.255  38.420  21.375  1.00  0.00     0.019 A 
ATOM      8  C   UNL     1      72.780  37.536  20.408  1.00  0.00     0.094 A 
ATOM      9  C   UNL     1      73.295  37.611  19.109  1.00  0.00     0.336 A 
ATOM     10  O   UNL     1      72.879  36.821  18.222  1.00  0.00    -0.246 OA
ATOM     11  O   UNL     1      74.224  38.513  18.805  1.00  0.00    -0.423 OA
ENDROOT
BRANCH   1  12
ATOM     12  O   UNL     1      77.173  42.124  19.819  1.00  0.00    -0.497 OA
ATOM     13  C   UNL     1      77.797  42.088  18.540  1.00  0.00     0.278 C 
ENDBRANCH   1  12
TORSDOF 1
ENDMDL
MODEL 2
REMARK VINA RESULT:    -4.045      1.101      4.561
REMARK INTER + INTRA:          -4.325
REMARK INTER:                  -4.282
REMARK INTRA:                  -0.043
REMARK UNBOUND:                -0.043
REMARK SMILES COc1ccc2ccc(=O)oc2c1
REMARK SMILES IDX 3 1 13 2 12 3 6 4 5 5 4 6 7 7 8 8 9 9 10 10 11 11 2 12 1 13
REMARK H PARENT
REMARK Flexibility Score: inf
ROOT
ATOM      1  C   UNL     1      73.405  38.279  19.992  1.00  0.00     0.122 A 
ATOM      2  C   UNL     1      74.493  38.941  19.410  1.00  0.00     0.094 A 
ATOM      3  C   UNL     1      75.150  39.968  20.095  1.00  0.00     0.142 A 
ATOM      4  C   UNL     1      74.713  40.342  21.384  1.00  0.00     0.018 A 
ATOM      5  C   UNL     1      73.626  39.682  21.972  1.00  0.00     0.016 A 
ATOM      6  C   UNL     1      72.974  38.657  21.280  1.00  0.00     0.047 A 
ATOM      7  C   UNL     1      75.390  41.372  22.045  1.00  0.00     0.019 A 
ATOM      8  C   UNL     1      76.467  41.996  21.417  1.00  0.00     0.094 A 
ATOM      9  C   UNL     1      76.844  41.573  20.138  1.00  0.00     0.336 A 
ATOM     10  O   UNL     1      77.814  42.125  19.555  1.00  0.00    -0.246 OA
ATOM     11  O   UNL     1      76.183  40.591  19.532  1.00  0.00    -0.423 OA
ENDROOT
BRANCH   1  12
ATOM     12  O   UNL     1      72.781  37.256  19.262  1.00  0.00    -0.497 OA
ATOM     13  C   UNL     1      73.163  36.857  17.949  1.00  0.00     0.278 C 
ENDBRANCH   1  12
TORSDOF 1
ENDMDL
MODEL 3
REMARK VINA RESULT:    -3.795      2.476      5.316
REMARK INTER + INTRA:          -4.060
REMARK INTER:                  -4.025
REMARK INTRA:                  -0.035
REMARK UNBOUND:                -0.043
REMARK SMILES COc1ccc2ccc(=O)oc2c1
REMARK SMILES IDX 3 1 13 2 12 3 6 4 5 5 4 6 7 7 8 8 9 9 10 10 11 11 2 12 1 13
REMARK H PARENT
REMARK Flexibility Score: inf
ROOT
ATOM      1  C   UNL     1      72.439  40.005  21.058  1.00  0.00     0.122 A 
ATOM      2  C   UNL     1      73.413  40.333  22.010  1.00  0.00     0.094 A 
ATOM      3  C   UNL     1      74.666  40.811  21.611  1.00  0.00     0.142 A 
ATOM      4  C   UNL     1      74.951  40.965  20.237  1.00  0.00     0.018 A 
ATOM      5  C   UNL     1      73.981  40.640  19.281  1.00  0.00     0.016 A 
ATOM      6  C   UNL     1      72.731  40.162  19.688  1.00  0.00     0.047 A 
ATOM      7  C   UNL     1      76.211  41.446  19.868  1.00  0.00     0.019 A 
ATOM      8  C   UNL     1      77.142  41.756  20.859  1.00  0.00     0.094 A 
ATOM      9  C   UNL     1      76.789  41.577  22.201  1.00  0.00     0.336 A 
ATOM     10  O   UNL     1      77.616  41.851  23.109  1.00  0.00    -0.246 OA
ATOM     11  O   UNL     1      75.583  41.118  22.524  1.00  0.00    -0.423 OA
ENDROOT
BRANCH   1  12
ATOM     12  O   UNL     1      71.200  39.530  21.512  1.00  0.00    -0.497 OA
ATOM     13  C   UNL     1      70.274  40.297  22.275  1.00  0.00     0.278 C 
ENDBRANCH   1  12
TORSDOF 1
ENDMDL
MODEL 4
REMARK VINA RESULT:    -3.733      2.294      3.514
REMARK INTER + INTRA:          -3.994
REMARK INTER:                  -3.955
REMARK INTRA:                  -0.039
REMARK UNBOUND:                -0.043
REMARK SMILES COc1ccc2ccc(=O)oc2c1
REMARK SMILES IDX 3 1 13 2 12 3 6 4 5 5 4 6 7 7 8 8 9 9 10 10 11 11 2 12 1 13
REMARK H PARENT
REMARK Flexibility Score: inf
ROOT
ATOM      1  C   UNL     1      72.927  41.032  21.507  1.00  0.00     0.122 A 
ATOM      2  C   UNL     1      72.486  39.856  20.886  1.00  0.00     0.094 A 
ATOM      3  C   UNL     1      73.267  39.231  19.908  1.00  0.00     0.142 A 
ATOM      4  C   UNL     1      74.511  39.790  19.544  1.00  0.00     0.018 A 
ATOM      5  C   UNL     1      74.958  40.965  20.161  1.00  0.00     0.016 A 
ATOM      6  C   UNL     1      74.170  41.584  21.138  1.00  0.00     0.047 A 
ATOM      7  C   UNL     1      75.271  39.143  18.564  1.00  0.00     0.019 A 
ATOM      8  C   UNL     1      74.781  37.975  17.980  1.00  0.00     0.094 A 
ATOM      9  C   UNL     1      73.539  37.479  18.391  1.00  0.00     0.336 A 
ATOM     10  O   UNL     1      73.081  36.427  17.875  1.00  0.00    -0.246 OA
ATOM     11  O   UNL     1      72.838  38.115  19.326  1.00  0.00    -0.423 OA
ENDROOT
BRANCH   1  12
ATOM     12  O   UNL     1      72.105  41.618  22.481  1.00  0.00    -0.497 OA
ATOM     13  C   UNL     1      70.689  41.729  22.378  1.00  0.00     0.278 C 
ENDBRANCH   1  12
TORSDOF 1
ENDMDL
MODEL 5
REMARK VINA RESULT:    -3.664      2.489      4.391
REMARK INTER + INTRA:          -3.922
REMARK INTER:                  -3.886
REMARK INTRA:                  -0.036
REMARK UNBOUND:                -0.043
REMARK SMILES COc1ccc2ccc(=O)oc2c1
REMARK SMILES IDX 3 1 13 2 12 3 6 4 5 5 4 6 7 7 8 8 9 9 10 10 11 11 2 12 1 13
REMARK H PARENT
REMARK Flexibility Score: inf
ROOT
ATOM      1  C   UNL     1      71.634  40.516  21.855  1.00  0.00     0.122 A 
ATOM      2  C   UNL     1      72.141  39.622  20.904  1.00  0.00     0.094 A 
ATOM      3  C   UNL     1      73.401  39.829  20.333  1.00  0.00     0.142 A 
ATOM      4  C   UNL     1      74.169  40.949  20.719  1.00  0.00     0.018 A 
ATOM      5  C   UNL     1      73.667  41.846  21.670  1.00  0.00     0.016 A 
ATOM      6  C   UNL     1      72.406  41.632  22.236  1.00  0.00     0.047 A 
ATOM      7  C   UNL     1      75.425  41.129  20.132  1.00  0.00     0.019 A 
ATOM      8  C   UNL     1      75.879  40.207  19.190  1.00  0.00     0.094 A 
ATOM      9  C   UNL     1      75.063  39.121  18.856  1.00  0.00     0.336 A 
ATOM     10  O   UNL     1      75.456  38.278  18.008  1.00  0.00    -0.246 OA
ATOM     11  O   UNL     1      73.872  38.973  19.430  1.00  0.00    -0.423 OA
ENDROOT
BRANCH   1  12
ATOM     12  O   UNL     1      70.365  40.262  22.396  1.00  0.00    -0.497 OA
ATOM     13  C   UNL     1      69.157  40.242  21.641  1.00  0.00     0.278 C 
ENDBRANCH   1  12
TORSDOF 1
ENDMDL
MODEL 6
REMARK VINA RESULT:    -3.623      1.386      2.489
REMARK INTER + INTRA:          -3.878
REMARK INTER:                  -3.842
REMARK INTRA:                  -0.036
REMARK UNBOUND:                -0.043
REMARK SMILES COc1ccc2ccc(=O)oc2c1
REMARK SMILES IDX 3 1 13 2 12 3 6 4 5 5 4 6 7 7 8 8 9 9 10 10 11 11 2 12 1 13
REMARK H PARENT
REMARK Flexibility Score: inf
ROOT
ATOM      1  C   UNL     1      76.059  41.360  20.968  1.00  0.00     0.122 A 
ATOM      2  C   UNL     1      75.164  40.321  21.253  1.00  0.00     0.094 A 
ATOM      3  C   UNL     1      74.642  39.529  20.225  1.00  0.00     0.142 A 
ATOM      4  C   UNL     1      75.021  39.778  18.888  1.00  0.00     0.018 A 
ATOM      5  C   UNL     1      75.916  40.815  18.597  1.00  0.00     0.016 A 
ATOM      6  C   UNL     1      76.433  41.603  19.630  1.00  0.00     0.047 A 
ATOM      7  C   UNL     1      74.483  38.969  17.882  1.00  0.00     0.019 A 
ATOM      8  C   UNL     1      73.596  37.950  18.224  1.00  0.00     0.094 A 
ATOM      9  C   UNL     1      73.266  37.762  19.571  1.00  0.00     0.336 A 
ATOM     10  O   UNL     1      72.466  36.847  19.899  1.00  0.00    -0.246 OA
ATOM     11  O   UNL     1      73.792  38.546  20.508  1.00  0.00    -0.423 OA
ENDROOT
BRANCH   1  12
ATOM     12  O   UNL     1      76.553  42.124  22.035  1.00  0.00    -0.497 OA
ATOM     13  C   UNL     1      77.289  41.593  23.132  1.00  0.00     0.278 C 
ENDBRANCH   1  12
TORSDOF 1
ENDMDL
MODEL 7
REMARK VINA RESULT:    -3.594      2.883      3.602
REMARK INTER + INTRA:          -3.847
REMARK INTER:                  -3.805
REMARK INTRA:                  -0.042
REMARK UNBOUND:                -0.043
REMARK SMILES COc1ccc2ccc(=O)oc2c1
REMARK SMILES IDX 3 1 13 2 12 3 6 4 5 5 4 6 7 7 8 8 9 9 10 10 11 11 2 12 1 13
REMARK H PARENT
REMARK Flexibility Score: inf
ROOT
ATOM      1  C   UNL     1      74.755  39.951  19.905  1.00  0.00     0.122 A 
ATOM      2  C   UNL     1      73.469  39.428  20.092  1.00  0.00     0.094 A 
ATOM      3  C   UNL     1      72.551  40.077  20.924  1.00  0.00     0.142 A 
ATOM      4  C   UNL     1      72.922  41.270  21.580  1.00  0.00     0.018 A 
ATOM      5  C   UNL     1      74.206  41.798  21.396  1.00  0.00     0.016 A 
ATOM      6  C   UNL     1      75.119  41.143  20.563  1.00  0.00     0.047 A 
ATOM      7  C   UNL     1      71.983  41.897  22.405  1.00  0.00     0.019 A 
ATOM      8  C   UNL     1      70.718  41.331  22.555  1.00  0.00     0.094 A 
ATOM      9  C   UNL     1      70.420  40.146  21.873  1.00  0.00     0.336 A 
ATOM     10  O   UNL     1      69.283  39.620  21.996  1.00  0.00    -0.246 OA
ATOM     11  O   UNL     1      71.332  39.570  21.095  1.00  0.00    -0.423 OA
ENDROOT
BRANCH   1  12
ATOM     12  O   UNL     1      75.637  39.260  19.060  1.00  0.00    -0.497 OA
ATOM     13  C   UNL     1      75.230  38.363  18.032  1.00  0.00     0.278 C 
ENDBRANCH   1  12
TORSDOF 1
ENDMDL
MODEL 8
REMARK VINA RESULT:    -3.486      2.291      4.639
REMARK INTER + INTRA:          -3.732
REMARK INTER:                  -3.689
REMARK INTRA:                  -0.043
REMARK UNBOUND:                -0.043
REMARK SMILES COc1ccc2ccc(=O)oc2c1
REMARK SMILES IDX 3 1 13 2 12 3 6 4 5 5 4 6 7 7 8 8 9 9 10 10 11 11 2 12 1 13
REMARK H PARENT
REMARK Flexibility Score: inf
ROOT
ATOM      1  C   UNL     1      72.086  39.604  21.226  1.00  0.00     0.122 A 
ATOM      2  C   UNL     1      72.844  40.639  20.666  1.00  0.00     0.094 A 
ATOM      3  C   UNL     1      73.859  40.360  19.744  1.00  0.00     0.142 A 
ATOM      4  C   UNL     1      74.121  39.023  19.375  1.00  0.00     0.018 A 
ATOM      5  C   UNL     1      73.365  37.984  19.931  1.00  0.00     0.016 A 
ATOM      6  C   UNL     1      72.353  38.271  20.853  1.00  0.00     0.047 A 
ATOM      7  C   UNL     1      75.141  38.775  18.451  1.00  0.00     0.019 A 
ATOM      8  C   UNL     1      75.864  39.846  17.926  1.00  0.00     0.094 A 
ATOM      9  C   UNL     1      75.548  41.145  18.339  1.00  0.00     0.336 A 
ATOM     10  O   UNL     1      76.190  42.124  17.876  1.00  0.00    -0.246 OA
ATOM     11  O   UNL     1      74.573  41.353  19.219  1.00  0.00    -0.423 OA
ENDROOT
BRANCH   1  12
ATOM     12  O   UNL     1      71.080  39.938  22.146  1.00  0.00    -0.497 OA
ATOM     13  C   UNL     1      70.629  41.265  22.397  1.00  0.00     0.278 C 
ENDBRANCH   1  12
TORSDOF 1
ENDMDL
MODEL 9
REMARK VINA RESULT:    -2.979      1.654      5.060
REMARK INTER + INTRA:          -3.196
REMARK INTER:                  -3.160
REMARK INTRA:                  -0.036
REMARK UNBOUND:                -0.043
REMARK SMILES COc1ccc2ccc(=O)oc2c1
REMARK SMILES IDX 3 1 13 2 12 3 6 4 5 5 4 6 7 7 8 8 9 9 10 10 11 11 2 12 1 13
REMARK H PARENT
REMARK Flexibility Score: inf
ROOT
ATOM      1  C   UNL     1      73.688  37.868  19.000  1.00  0.00     0.122 A 
ATOM      2  C   UNL     1      73.810  38.640  20.163  1.00  0.00     0.094 A 
ATOM      3  C   UNL     1      74.704  39.714  20.214  1.00  0.00     0.142 A 
ATOM      4  C   UNL     1      75.490  40.025  19.083  1.00  0.00     0.018 A 
ATOM      5  C   UNL     1      75.372  39.258  17.918  1.00  0.00     0.016 A 
ATOM      6  C   UNL     1      74.476  38.184  17.875  1.00  0.00     0.047 A 
ATOM      7  C   UNL     1      76.375  41.105  19.164  1.00  0.00     0.019 A 
ATOM      8  C   UNL     1      76.455  41.838  20.347  1.00  0.00     0.094 A 
ATOM      9  C   UNL     1      75.644  41.471  21.428  1.00  0.00     0.336 A 
ATOM     10  O   UNL     1      75.703  42.120  22.504  1.00  0.00    -0.246 OA
ATOM     11  O   UNL     1      74.812  40.439  21.324  1.00  0.00    -0.423 OA
ENDROOT
BRANCH   1  12
ATOM     12  O   UNL     1      72.777  36.802  19.002  1.00  0.00    -0.497 OA
ATOM     13  C   UNL     1      72.565  35.922  17.903  1.00  0.00     0.278 C 
ENDBRANCH   1  12
TORSDOF 1
ENDMDL
