MODEL 1
REMARK VINA RESULT:    -6.860      0.000      0.000
REMARK INTER + INTRA:          -7.772
REMARK INTER:                  -7.462
REMARK INTRA:                  -0.311
REMARK UNBOUND:                -0.311
REMARK SMILES CC(=O)[C@@H]1CC[C@H]2[C@@H]3CC=C4C[C@H](O)CC[C@@]4(C)[C@H]3CC[C@@]12C
REMARK SMILES IDX 4 1 5 2 6 3 7 4 22 5 21 6 20 7 19 8 8 9 9 10 10 11 11 12
REMARK SMILES IDX 17 13 16 14 15 15 13 16 12 17 18 18 23 19 2 20 1 21 3 22
REMARK SMILES IDX 14 23
REMARK H PARENT 14 24
REMARK Flexibility Score: inf
ROOT
ATOM      1  C   UNL     1       9.434  10.390  45.673  1.00  0.00     0.062 C 
ATOM      2  C   UNL     1       9.805  11.626  44.849  1.00  0.00     0.012 C 
ATOM      3  C   UNL     1       9.574  12.838  45.755  1.00  0.00     0.005 C 
ATOM      4  C   UNL     1       9.033  12.303  47.098  1.00  0.00    -0.001 C 
ATOM      5  C   UNL     1       9.574  10.845  47.158  1.00  0.00    -0.020 C 
ATOM      6  C   UNL     1       8.788   9.963  48.164  1.00  0.00     0.008 C 
ATOM      7  C   UNL     1       7.273  10.086  48.050  1.00  0.00     0.005 C 
ATOM      8  C   UNL     1       6.816  11.549  48.226  1.00  0.00     0.003 C 
ATOM      9  C   UNL     1       7.470  12.444  47.150  1.00  0.00     0.000 C 
ATOM     10  C   UNL     1       7.103  13.906  47.471  1.00  0.00     0.031 C 
ATOM     11  C   UNL     1       5.622  14.099  47.521  1.00  0.00    -0.027 C 
ATOM     12  C   UNL     1       4.774  13.140  47.941  1.00  0.00    -0.065 C 
ATOM     13  C   UNL     1       5.234  11.711  48.281  1.00  0.00    -0.008 C 
ATOM     14  C   UNL     1       4.520  10.752  47.271  1.00  0.00     0.014 C 
ATOM     15  C   UNL     1       3.001  10.985  47.141  1.00  0.00     0.033 C 
ATOM     16  C   UNL     1       2.673  12.451  46.809  1.00  0.00     0.118 C 
ATOM     17  C   UNL     1       3.285  13.404  47.845  1.00  0.00     0.063 C 
ATOM     18  C   UNL     1       4.779  11.378  49.727  1.00  0.00     0.016 C 
ATOM     19  C   UNL     1      11.058  10.900  47.634  1.00  0.00     0.012 C 
ENDROOT
BRANCH   1  20
ATOM     20  C   UNL     1      10.128   9.139  45.140  1.00  0.00     0.133 C 
ATOM     21  C   UNL     1       9.653   7.730  45.342  1.00  0.00     0.088 C 
ATOM     22  O   UNL     1      11.165   9.299  44.512  1.00  0.00    -0.300 OA
ENDBRANCH   1  20
BRANCH  16  23
ATOM     23  O   UNL     1       1.283  12.641  46.719  1.00  0.00    -0.393 OA
ATOM     24  H   UNL     1       0.847  11.942  47.274  1.00  0.00     0.210 HD
ENDBRANCH  16  23
TORSDOF 2
ENDMDL
MODEL 2
REMARK VINA RESULT:    -6.843      2.417      3.420
REMARK INTER + INTRA:          -7.754
REMARK INTER:                  -7.472
REMARK INTRA:                  -0.282
REMARK UNBOUND:                -0.311
REMARK SMILES CC(=O)[C@@H]1CC[C@H]2[C@@H]3CC=C4C[C@H](O)CC[C@@]4(C)[C@H]3CC[C@@]12C
REMARK SMILES IDX 4 1 5 2 6 3 7 4 22 5 21 6 20 7 19 8 8 9 9 10 10 11 11 12
REMARK SMILES IDX 17 13 16 14 15 15 13 16 12 17 18 18 23 19 2 20 1 21 3 22
REMARK SMILES IDX 14 23
REMARK H PARENT 14 24
REMARK Flexibility Score: inf
ROOT
ATOM      1  C   UNL     1       8.996   7.389  48.389  1.00  0.00     0.062 C 
ATOM      2  C   UNL     1       8.584   6.569  47.162  1.00  0.00     0.012 C 
ATOM      3  C   UNL     1       8.472   7.556  45.997  1.00  0.00     0.005 C 
ATOM      4  C   UNL     1       8.785   8.958  46.560  1.00  0.00    -0.001 C 
ATOM      5  C   UNL     1       9.674   8.666  47.804  1.00  0.00    -0.020 C 
ATOM      6  C   UNL     1       9.721   9.862  48.792  1.00  0.00     0.008 C 
ATOM      7  C   UNL     1       8.357  10.470  49.100  1.00  0.00     0.005 C 
ATOM      8  C   UNL     1       7.648  10.933  47.810  1.00  0.00     0.003 C 
ATOM      9  C   UNL     1       7.453   9.737  46.852  1.00  0.00     0.000 C 
ATOM     10  C   UNL     1       6.886  10.286  45.528  1.00  0.00     0.031 C 
ATOM     11  C   UNL     1       5.608  11.029  45.747  1.00  0.00    -0.027 C 
ATOM     12  C   UNL     1       5.354  11.731  46.869  1.00  0.00    -0.065 C 
ATOM     13  C   UNL     1       6.296  11.725  48.088  1.00  0.00    -0.008 C 
ATOM     14  C   UNL     1       5.494  11.100  49.277  1.00  0.00     0.014 C 
ATOM     15  C   UNL     1       4.090  11.704  49.483  1.00  0.00     0.033 C 
ATOM     16  C   UNL     1       3.253  11.658  48.192  1.00  0.00     0.118 C 
ATOM     17  C   UNL     1       3.982  12.352  47.034  1.00  0.00     0.063 C 
ATOM     18  C   UNL     1       6.673  13.192  48.425  1.00  0.00     0.016 C 
ATOM     19  C   UNL     1      11.128   8.403  47.308  1.00  0.00     0.012 C 
ENDROOT
BRANCH   1  20
ATOM     20  C   UNL     1       9.682   6.514  49.435  1.00  0.00     0.133 C 
ATOM     21  C   UNL     1      10.331   5.188  49.168  1.00  0.00     0.088 C 
ATOM     22  O   UNL     1       9.688   6.921  50.589  1.00  0.00    -0.300 OA
ENDBRANCH   1  20
BRANCH  16  23
ATOM     23  O   UNL     1       1.988  12.235  48.401  1.00  0.00    -0.393 OA
ATOM     24  H   UNL     1       2.108  13.220  48.438  1.00  0.00     0.210 HD
ENDBRANCH  16  23
TORSDOF 2
ENDMDL
MODEL 3
REMARK VINA RESULT:    -6.639      7.981     10.288
REMARK INTER + INTRA:          -7.532
REMARK INTER:                  -7.312
REMARK INTRA:                  -0.220
REMARK UNBOUND:                -0.311
REMARK SMILES CC(=O)[C@@H]1CC[C@H]2[C@@H]3CC=C4C[C@H](O)CC[C@@]4(C)[C@H]3CC[C@@]12C
REMARK SMILES IDX 4 1 5 2 6 3 7 4 22 5 21 6 20 7 19 8 8 9 9 10 10 11 11 12
REMARK SMILES IDX 17 13 16 14 15 15 13 16 12 17 18 18 23 19 2 20 1 21 3 22
REMARK SMILES IDX 14 23
REMARK H PARENT 14 24
REMARK Flexibility Score: inf
ROOT
ATOM      1  C   UNL     1      11.507   4.409  49.188  1.00  0.00     0.062 C 
ATOM      2  C   UNL     1      10.203   4.269  48.397  1.00  0.00     0.012 C 
ATOM      3  C   UNL     1       9.124   4.994  49.205  1.00  0.00     0.005 C 
ATOM      4  C   UNL     1       9.799   5.525  50.487  1.00  0.00    -0.001 C 
ATOM      5  C   UNL     1      11.295   5.668  50.083  1.00  0.00    -0.020 C 
ATOM      6  C   UNL     1      12.238   5.731  51.315  1.00  0.00     0.008 C 
ATOM      7  C   UNL     1      11.951   4.671  52.373  1.00  0.00     0.005 C 
ATOM      8  C   UNL     1      10.494   4.757  52.871  1.00  0.00     0.003 C 
ATOM      9  C   UNL     1       9.516   4.559  51.691  1.00  0.00     0.000 C 
ATOM     10  C   UNL     1       8.090   4.810  52.219  1.00  0.00     0.031 C 
ATOM     11  C   UNL     1       7.763   3.906  53.363  1.00  0.00    -0.027 C 
ATOM     12  C   UNL     1       8.687   3.485  54.249  1.00  0.00    -0.065 C 
ATOM     13  C   UNL     1      10.189   3.784  54.092  1.00  0.00    -0.008 C 
ATOM     14  C   UNL     1      10.911   2.406  53.927  1.00  0.00     0.014 C 
ATOM     15  C   UNL     1      10.515   1.352  54.981  1.00  0.00     0.033 C 
ATOM     16  C   UNL     1       8.991   1.151  55.045  1.00  0.00     0.118 C 
ATOM     17  C   UNL     1       8.268   2.481  55.303  1.00  0.00     0.063 C 
ATOM     18  C   UNL     1      10.689   4.483  55.385  1.00  0.00     0.016 C 
ATOM     19  C   UNL     1      11.457   7.003  49.294  1.00  0.00     0.012 C 
ENDROOT
BRANCH   1  20
ATOM     20  C   UNL     1      12.725   4.256  48.281  1.00  0.00     0.133 C 
ATOM     21  C   UNL     1      14.147   4.519  48.684  1.00  0.00     0.088 C 
ATOM     22  O   UNL     1      12.524   3.906  47.126  1.00  0.00    -0.300 OA
ENDBRANCH   1  20
BRANCH  16  23
ATOM     23  O   UNL     1       8.656   0.204  56.027  1.00  0.00    -0.393 OA
ATOM     24  H   UNL     1       9.482  -0.010  56.534  1.00  0.00     0.210 HD
ENDBRANCH  16  23
TORSDOF 2
ENDMDL
MODEL 4
REMARK VINA RESULT:    -6.414      1.529      6.534
REMARK INTER + INTRA:          -7.287
REMARK INTER:                  -7.533
REMARK INTRA:                   0.246
REMARK UNBOUND:                -0.311
REMARK SMILES CC(=O)[C@@H]1CC[C@H]2[C@@H]3CC=C4C[C@H](O)CC[C@@]4(C)[C@H]3CC[C@@]12C
REMARK SMILES IDX 4 1 5 2 6 3 7 4 22 5 21 6 20 7 19 8 8 9 9 10 10 11 11 12
REMARK SMILES IDX 17 13 16 14 15 15 13 16 12 17 18 18 23 19 2 20 1 21 3 22
REMARK SMILES IDX 14 23
REMARK H PARENT 14 24
REMARK Flexibility Score: inf
ROOT
ATOM      1  C   UNL     1       4.021  11.149  47.610  1.00  0.00     0.062 C 
ATOM      2  C   UNL     1       3.993  11.046  49.138  1.00  0.00     0.012 C 
ATOM      3  C   UNL     1       5.313  11.637  49.638  1.00  0.00     0.005 C 
ATOM      4  C   UNL     1       6.125  12.051  48.392  1.00  0.00    -0.001 C 
ATOM      5  C   UNL     1       5.036  12.294  47.307  1.00  0.00    -0.020 C 
ATOM      6  C   UNL     1       5.616  12.258  45.868  1.00  0.00     0.008 C 
ATOM      7  C   UNL     1       6.544  11.078  45.600  1.00  0.00     0.005 C 
ATOM      8  C   UNL     1       7.720  11.054  46.598  1.00  0.00     0.003 C 
ATOM      9  C   UNL     1       7.188  10.949  48.045  1.00  0.00     0.000 C 
ATOM     10  C   UNL     1       8.392  11.086  48.997  1.00  0.00     0.031 C 
ATOM     11  C   UNL     1       9.431  10.050  48.716  1.00  0.00    -0.027 C 
ATOM     12  C   UNL     1       9.670   9.571  47.480  1.00  0.00    -0.065 C 
ATOM     13  C   UNL     1       8.807   9.943  46.260  1.00  0.00    -0.008 C 
ATOM     14  C   UNL     1       8.142   8.620  45.755  1.00  0.00     0.014 C 
ATOM     15  C   UNL     1       9.124   7.442  45.583  1.00  0.00     0.033 C 
ATOM     16  C   UNL     1       9.931   7.178  46.867  1.00  0.00     0.118 C 
ATOM     17  C   UNL     1      10.669   8.442  47.327  1.00  0.00     0.063 C 
ATOM     18  C   UNL     1       9.736  10.515  45.157  1.00  0.00     0.016 C 
ATOM     19  C   UNL     1       4.432  13.712  47.539  1.00  0.00     0.012 C 
ENDROOT
BRANCH   1  20
ATOM     20  C   UNL     1       2.610  11.143  47.027  1.00  0.00     0.133 C 
ATOM     21  C   UNL     1       1.771   9.919  46.799  1.00  0.00     0.088 C 
ATOM     22  O   UNL     1       2.132  12.221  46.704  1.00  0.00    -0.300 OA
ENDBRANCH   1  20
BRANCH  16  23
ATOM     23  O   UNL     1      10.832   6.116  46.676  1.00  0.00    -0.393 OA
ATOM     24  H   UNL     1      11.586   6.456  46.126  1.00  0.00     0.210 HD
ENDBRANCH  16  23
TORSDOF 2
ENDMDL
MODEL 5
REMARK VINA RESULT:    -6.333      1.722      3.274
REMARK INTER + INTRA:          -7.199
REMARK INTER:                  -6.889
REMARK INTRA:                  -0.310
REMARK UNBOUND:                -0.311
REMARK SMILES CC(=O)[C@@H]1CC[C@H]2[C@@H]3CC=C4C[C@H](O)CC[C@@]4(C)[C@H]3CC[C@@]12C
REMARK SMILES IDX 4 1 5 2 6 3 7 4 22 5 21 6 20 7 19 8 8 9 9 10 10 11 11 12
REMARK SMILES IDX 17 13 16 14 15 15 13 16 12 17 18 18 23 19 2 20 1 21 3 22
REMARK SMILES IDX 14 23
REMARK H PARENT 14 24
REMARK Flexibility Score: inf
ROOT
ATOM      1  C   UNL     1      10.278  11.510  46.859  1.00  0.00     0.062 C 
ATOM      2  C   UNL     1      10.282  10.040  46.430  1.00  0.00     0.012 C 
ATOM      3  C   UNL     1       9.156   9.884  45.405  1.00  0.00     0.005 C 
ATOM      4  C   UNL     1       8.474  11.261  45.267  1.00  0.00    -0.001 C 
ATOM      5  C   UNL     1       9.588  12.266  45.682  1.00  0.00    -0.020 C 
ATOM      6  C   UNL     1       9.016  13.655  46.075  1.00  0.00     0.008 C 
ATOM      7  C   UNL     1       7.818  13.592  47.015  1.00  0.00     0.005 C 
ATOM      8  C   UNL     1       6.676  12.749  46.410  1.00  0.00     0.003 C 
ATOM      9  C   UNL     1       7.166  11.310  46.132  1.00  0.00     0.000 C 
ATOM     10  C   UNL     1       6.038  10.567  45.390  1.00  0.00     0.031 C 
ATOM     11  C   UNL     1       4.768  10.574  46.177  1.00  0.00    -0.027 C 
ATOM     12  C   UNL     1       4.413  11.594  46.983  1.00  0.00    -0.065 C 
ATOM     13  C   UNL     1       5.341  12.788  47.275  1.00  0.00    -0.008 C 
ATOM     14  C   UNL     1       5.646  12.761  48.809  1.00  0.00     0.014 C 
ATOM     15  C   UNL     1       4.396  12.612  49.702  1.00  0.00     0.033 C 
ATOM     16  C   UNL     1       3.551  11.390  49.304  1.00  0.00     0.118 C 
ATOM     17  C   UNL     1       3.160  11.447  47.821  1.00  0.00     0.063 C 
ATOM     18  C   UNL     1       4.587  14.096  46.915  1.00  0.00     0.016 C 
ATOM     19  C   UNL     1      10.534  12.471  44.461  1.00  0.00     0.012 C 
ENDROOT
BRANCH   1  20
ATOM     20  C   UNL     1      11.640  11.932  47.405  1.00  0.00     0.133 C 
ATOM     21  C   UNL     1      11.882  13.080  48.341  1.00  0.00     0.088 C 
ATOM     22  O   UNL     1      12.615  11.293  47.035  1.00  0.00    -0.300 OA
ENDBRANCH   1  20
BRANCH  16  23
ATOM     23  O   UNL     1       2.408  11.291  50.117  1.00  0.00    -0.393 OA
ATOM     24  H   UNL     1       1.704  10.829  49.592  1.00  0.00     0.210 HD
ENDBRANCH  16  23
TORSDOF 2
ENDMDL
MODEL 6
REMARK VINA RESULT:    -6.241      7.301      9.978
REMARK INTER + INTRA:          -7.099
REMARK INTER:                  -6.808
REMARK INTRA:                  -0.291
REMARK UNBOUND:                -0.311
REMARK SMILES CC(=O)[C@@H]1CC[C@H]2[C@@H]3CC=C4C[C@H](O)CC[C@@]4(C)[C@H]3CC[C@@]12C
REMARK SMILES IDX 4 1 5 2 6 3 7 4 22 5 21 6 20 7 19 8 8 9 9 10 10 11 11 12
REMARK SMILES IDX 17 13 16 14 15 15 13 16 12 17 18 18 23 19 2 20 1 21 3 22
REMARK SMILES IDX 14 23
REMARK H PARENT 14 24
REMARK Flexibility Score: inf
ROOT
ATOM      1  C   UNL     1       9.915   2.779  53.643  1.00  0.00     0.062 C 
ATOM      2  C   UNL     1      11.308   2.144  53.594  1.00  0.00     0.012 C 
ATOM      3  C   UNL     1      12.310   3.299  53.529  1.00  0.00     0.005 C 
ATOM      4  C   UNL     1      11.493   4.608  53.504  1.00  0.00    -0.001 C 
ATOM      5  C   UNL     1      10.154   4.219  54.195  1.00  0.00    -0.020 C 
ATOM      6  C   UNL     1       9.008   5.215  53.871  1.00  0.00     0.008 C 
ATOM      7  C   UNL     1       8.894   5.573  52.394  1.00  0.00     0.005 C 
ATOM      8  C   UNL     1      10.215   6.160  51.856  1.00  0.00     0.003 C 
ATOM      9  C   UNL     1      11.362   5.139  52.032  1.00  0.00     0.000 C 
ATOM     10  C   UNL     1      12.675   5.835  51.625  1.00  0.00     0.031 C 
ATOM     11  C   UNL     1      12.608   6.352  50.224  1.00  0.00    -0.027 C 
ATOM     12  C   UNL     1      11.468   6.802  49.665  1.00  0.00    -0.065 C 
ATOM     13  C   UNL     1      10.100   6.704  50.366  1.00  0.00    -0.008 C 
ATOM     14  C   UNL     1       9.203   5.777  49.481  1.00  0.00     0.014 C 
ATOM     15  C   UNL     1       9.196   6.144  47.982  1.00  0.00     0.033 C 
ATOM     16  C   UNL     1      10.620   6.218  47.404  1.00  0.00     0.118 C 
ATOM     17  C   UNL     1      11.491   7.198  48.203  1.00  0.00     0.063 C 
ATOM     18  C   UNL     1       9.478   8.125  50.432  1.00  0.00     0.016 C 
ATOM     19  C   UNL     1      10.381   4.243  55.737  1.00  0.00     0.012 C 
ENDROOT
BRANCH   1  20
ATOM     20  C   UNL     1       8.895   1.831  54.268  1.00  0.00     0.133 C 
ATOM     21  C   UNL     1       7.408   2.039  54.277  1.00  0.00     0.088 C 
ATOM     22  O   UNL     1       9.326   0.829  54.821  1.00  0.00    -0.300 OA
ENDBRANCH   1  20
BRANCH  16  23
ATOM     23  O   UNL     1      10.586   6.577  46.046  1.00  0.00    -0.393 OA
ATOM     24  H   UNL     1       9.696   6.975  45.861  1.00  0.00     0.210 HD
ENDBRANCH  16  23
TORSDOF 2
ENDMDL
MODEL 7
REMARK VINA RESULT:    -6.210      7.355     10.370
REMARK INTER + INTRA:          -7.065
REMARK INTER:                  -6.773
REMARK INTRA:                  -0.292
REMARK UNBOUND:                -0.311
REMARK SMILES CC(=O)[C@@H]1CC[C@H]2[C@@H]3CC=C4C[C@H](O)CC[C@@]4(C)[C@H]3CC[C@@]12C
REMARK SMILES IDX 4 1 5 2 6 3 7 4 22 5 21 6 20 7 19 8 8 9 9 10 10 11 11 12
REMARK SMILES IDX 17 13 16 14 15 15 13 16 12 17 18 18 23 19 2 20 1 21 3 22
REMARK SMILES IDX 14 23
REMARK H PARENT 14 24
REMARK Flexibility Score: inf
ROOT
ATOM      1  C   UNL     1      -0.665  10.847  40.485  1.00  0.00     0.062 C 
ATOM      2  C   UNL     1      -0.129   9.488  40.027  1.00  0.00     0.012 C 
ATOM      3  C   UNL     1      -0.959   8.426  40.753  1.00  0.00     0.005 C 
ATOM      4  C   UNL     1      -1.956   9.175  41.662  1.00  0.00    -0.001 C 
ATOM      5  C   UNL     1      -2.119  10.559  40.969  1.00  0.00    -0.020 C 
ATOM      6  C   UNL     1      -2.689  11.638  41.928  1.00  0.00     0.008 C 
ATOM      7  C   UNL     1      -2.017  11.674  43.295  1.00  0.00     0.005 C 
ATOM      8  C   UNL     1      -2.105  10.303  43.999  1.00  0.00     0.003 C 
ATOM      9  C   UNL     1      -1.420   9.219  43.137  1.00  0.00     0.000 C 
ATOM     10  C   UNL     1      -1.675   7.857  43.811  1.00  0.00     0.031 C 
ATOM     11  C   UNL     1      -1.173   7.840  45.218  1.00  0.00    -0.027 C 
ATOM     12  C   UNL     1      -1.174   8.932  46.007  1.00  0.00    -0.065 C 
ATOM     13  C   UNL     1      -1.566  10.330  45.495  1.00  0.00    -0.008 C 
ATOM     14  C   UNL     1      -0.298  11.236  45.636  1.00  0.00     0.014 C 
ATOM     15  C   UNL     1       0.383  11.164  47.019  1.00  0.00     0.033 C 
ATOM     16  C   UNL     1       0.715   9.715  47.418  1.00  0.00     0.118 C 
ATOM     17  C   UNL     1      -0.537   8.829  47.378  1.00  0.00     0.063 C 
ATOM     18  C   UNL     1      -2.704  10.881  46.394  1.00  0.00     0.016 C 
ATOM     19  C   UNL     1      -3.125  10.393  39.790  1.00  0.00     0.012 C 
ENDROOT
BRANCH   1  20
ATOM     20  C   UNL     1      -0.352  11.939  39.465  1.00  0.00     0.133 C 
ATOM     21  C   UNL     1      -0.139  13.390  39.784  1.00  0.00     0.088 C 
ATOM     22  O   UNL     1      -0.288  11.606  38.290  1.00  0.00    -0.300 OA
ENDBRANCH   1  20
BRANCH  16  23
ATOM     23  O   UNL     1       1.313   9.675  48.689  1.00  0.00    -0.393 OA
ATOM     24  H   UNL     1       1.061  10.508  49.167  1.00  0.00     0.210 HD
ENDBRANCH  16  23
TORSDOF 2
ENDMDL
MODEL 8
REMARK VINA RESULT:    -6.133      3.711      5.379
REMARK INTER + INTRA:          -6.982
REMARK INTER:                  -6.695
REMARK INTRA:                  -0.287
REMARK UNBOUND:                -0.311
REMARK SMILES CC(=O)[C@@H]1CC[C@H]2[C@@H]3CC=C4C[C@H](O)CC[C@@]4(C)[C@H]3CC[C@@]12C
REMARK SMILES IDX 4 1 5 2 6 3 7 4 22 5 21 6 20 7 19 8 8 9 9 10 10 11 11 12
REMARK SMILES IDX 17 13 16 14 15 15 13 16 12 17 18 18 23 19 2 20 1 21 3 22
REMARK SMILES IDX 14 23
REMARK H PARENT 14 24
REMARK Flexibility Score: inf
ROOT
ATOM      1  C   UNL     1       9.271   6.276  50.595  1.00  0.00     0.062 C 
ATOM      2  C   UNL     1       9.160   5.119  49.597  1.00  0.00     0.012 C 
ATOM      3  C   UNL     1       9.711   5.638  48.267  1.00  0.00     0.005 C 
ATOM      4  C   UNL     1      10.109   7.113  48.486  1.00  0.00    -0.001 C 
ATOM      5  C   UNL     1      10.389   7.196  50.015  1.00  0.00    -0.020 C 
ATOM      6  C   UNL     1      10.345   8.653  50.547  1.00  0.00     0.008 C 
ATOM      7  C   UNL     1       9.143   9.456  50.065  1.00  0.00     0.005 C 
ATOM      8  C   UNL     1       9.080   9.499  48.524  1.00  0.00     0.003 C 
ATOM      9  C   UNL     1       8.981   8.066  47.955  1.00  0.00     0.000 C 
ATOM     10  C   UNL     1       9.079   8.164  46.421  1.00  0.00     0.031 C 
ATOM     11  C   UNL     1       8.017   9.054  45.860  1.00  0.00    -0.027 C 
ATOM     12  C   UNL     1       7.539  10.126  46.521  1.00  0.00    -0.065 C 
ATOM     13  C   UNL     1       7.941  10.462  47.969  1.00  0.00    -0.008 C 
ATOM     14  C   UNL     1       6.640  10.375  48.833  1.00  0.00     0.014 C 
ATOM     15  C   UNL     1       5.436  11.142  48.247  1.00  0.00     0.033 C 
ATOM     16  C   UNL     1       5.143  10.723  46.796  1.00  0.00     0.118 C 
ATOM     17  C   UNL     1       6.384  10.892  45.909  1.00  0.00     0.063 C 
ATOM     18  C   UNL     1       8.494  11.911  48.003  1.00  0.00     0.016 C 
ATOM     19  C   UNL     1      11.822   6.639  50.275  1.00  0.00     0.012 C 
ENDROOT
BRANCH   1  20
ATOM     20  C   UNL     1       9.306   5.766  52.033  1.00  0.00     0.133 C 
ATOM     21  C   UNL     1       9.754   4.398  52.459  1.00  0.00     0.088 C 
ATOM     22  O   UNL     1       8.922   6.529  52.908  1.00  0.00    -0.300 OA
ENDBRANCH   1  20
BRANCH  16  23
ATOM     23  O   UNL     1       4.058  11.452  46.279  1.00  0.00    -0.393 OA
ATOM     24  H   UNL     1       4.111  12.373  46.648  1.00  0.00     0.210 HD
ENDBRANCH  16  23
TORSDOF 2
ENDMDL
MODEL 9
REMARK VINA RESULT:    -6.048      2.151      3.395
REMARK INTER + INTRA:          -6.890
REMARK INTER:                  -6.603
REMARK INTRA:                  -0.287
REMARK UNBOUND:                -0.311
REMARK SMILES CC(=O)[C@@H]1CC[C@H]2[C@@H]3CC=C4C[C@H](O)CC[C@@]4(C)[C@H]3CC[C@@]12C
REMARK SMILES IDX 4 1 5 2 6 3 7 4 22 5 21 6 20 7 19 8 8 9 9 10 10 11 11 12
REMARK SMILES IDX 17 13 16 14 15 15 13 16 12 17 18 18 23 19 2 20 1 21 3 22
REMARK SMILES IDX 14 23
REMARK H PARENT 14 24
REMARK Flexibility Score: inf
ROOT
ATOM      1  C   UNL     1       9.214   9.731  49.322  1.00  0.00     0.062 C 
ATOM      2  C   UNL     1       9.037   8.371  48.641  1.00  0.00     0.012 C 
ATOM      3  C   UNL     1       8.530   8.655  47.225  1.00  0.00     0.005 C 
ATOM      4  C   UNL     1       8.378  10.186  47.098  1.00  0.00    -0.001 C 
ATOM      5  C   UNL     1       9.382  10.745  48.148  1.00  0.00    -0.020 C 
ATOM      6  C   UNL     1       9.075  12.216  48.537  1.00  0.00     0.008 C 
ATOM      7  C   UNL     1       7.606  12.486  48.839  1.00  0.00     0.005 C 
ATOM      8  C   UNL     1       6.709  12.103  47.643  1.00  0.00     0.003 C 
ATOM      9  C   UNL     1       6.879  10.603  47.310  1.00  0.00     0.000 C 
ATOM     10  C   UNL     1       6.085  10.318  46.021  1.00  0.00     0.031 C 
ATOM     11  C   UNL     1       4.645  10.687  46.173  1.00  0.00    -0.027 C 
ATOM     12  C   UNL     1       4.231  11.714  46.941  1.00  0.00    -0.065 C 
ATOM     13  C   UNL     1       5.186  12.519  47.842  1.00  0.00    -0.008 C 
ATOM     14  C   UNL     1       4.714  12.296  49.317  1.00  0.00     0.014 C 
ATOM     15  C   UNL     1       3.202  12.506  49.538  1.00  0.00     0.033 C 
ATOM     16  C   UNL     1       2.359  11.654  48.573  1.00  0.00     0.118 C 
ATOM     17  C   UNL     1       2.742  11.929  47.113  1.00  0.00     0.063 C 
ATOM     18  C   UNL     1       5.059  14.021  47.475  1.00  0.00     0.016 C 
ATOM     19  C   UNL     1      10.808  10.708  47.520  1.00  0.00     0.012 C 
ENDROOT
BRANCH   1  20
ATOM     20  C   UNL     1      10.215   9.651  50.471  1.00  0.00     0.133 C 
ATOM     21  C   UNL     1      11.321   8.643  50.590  1.00  0.00     0.088 C 
ATOM     22  O   UNL     1      10.095  10.463  51.378  1.00  0.00    -0.300 OA
ENDBRANCH   1  20
BRANCH  16  23
ATOM     23  O   UNL     1       0.987  11.881  48.779  1.00  0.00    -0.393 OA
ATOM     24  H   UNL     1       0.646  11.156  49.365  1.00  0.00     0.210 HD
ENDBRANCH  16  23
TORSDOF 2
ENDMDL
