MODEL 1
REMARK VINA RESULT:    -4.129      0.000      0.000
REMARK INTER + INTRA:          -6.369
REMARK INTER:                  -6.061
REMARK INTRA:                  -0.309
REMARK UNBOUND:                -0.309
REMARK SMILES O=C([O-])CCCCCCCC(=O)[O-]
REMARK SMILES IDX 7 1 6 2 5 3 4 4 2 5 1 6 3 7 8 8 9 9 10 10 11 11 12 12 13 13
REMARK H PARENT
REMARK Flexibility Score: inf
ROOT
ATOM      1  C   UNL     1      -5.227  -3.362  -4.684  1.00  0.00     0.000 C 
ENDROOT
BRANCH   1   2
ATOM      2  C   UNL     1      -4.537  -3.945  -3.439  1.00  0.00     0.000 C 
BRANCH   2   3
ATOM      3  C   UNL     1      -5.491  -4.455  -2.345  1.00  0.00     0.006 C 
BRANCH   3   4
ATOM      4  C   UNL     1      -5.569  -3.517  -1.133  1.00  0.00     0.053 C 
BRANCH   4   5
ATOM      5  C   UNL     1      -6.876  -3.684  -0.426  1.00  0.00     0.041 C 
ATOM      6  O   UNL     1      -7.388  -4.828  -0.300  1.00  0.00    -0.550 OA
ATOM      7  O   UNL     1      -7.507  -2.583   0.140  1.00  0.00    -0.550 OA
ENDBRANCH   4   5
ENDBRANCH   3   4
ENDBRANCH   2   3
ENDBRANCH   1   2
BRANCH   1   8
ATOM      8  C   UNL     1      -4.332  -3.384  -5.932  1.00  0.00     0.000 C 
BRANCH   8   9
ATOM      9  C   UNL     1      -4.185  -1.976  -6.528  1.00  0.00     0.006 C 
BRANCH   9  10
ATOM     10  C   UNL     1      -5.398  -1.087  -6.226  1.00  0.00     0.053 C 
BRANCH  10  11
ATOM     11  C   UNL     1      -4.987   0.310  -5.875  1.00  0.00     0.041 C 
ATOM     12  O   UNL     1      -4.103   0.512  -5.002  1.00  0.00    -0.550 OA
ATOM     13  O   UNL     1      -5.607   1.391  -6.490  1.00  0.00    -0.550 OA
ENDBRANCH  10  11
ENDBRANCH   9  10
ENDBRANCH   8   9
ENDBRANCH   1   8
TORSDOF 8
ENDMDL
MODEL 2
REMARK VINA RESULT:    -4.072      1.455      6.640
REMARK INTER + INTRA:          -6.286
REMARK INTER:                  -5.979
REMARK INTRA:                  -0.306
REMARK UNBOUND:                -0.309
REMARK SMILES O=C([O-])CCCCCCCC(=O)[O-]
REMARK SMILES IDX 7 1 6 2 5 3 4 4 2 5 1 6 3 7 8 8 9 9 10 10 11 11 12 12 13 13
REMARK H PARENT
REMARK Flexibility Score: inf
ROOT
ATOM      1  C   UNL     1      -5.472  -4.221  -2.185  1.00  0.00     0.000 C 
ENDROOT
BRANCH   1   2
ATOM      2  C   UNL     1      -4.615  -4.108  -3.458  1.00  0.00     0.000 C 
BRANCH   2   3
ATOM      3  C   UNL     1      -5.293  -3.387  -4.637  1.00  0.00     0.006 C 
BRANCH   3   4
ATOM      4  C   UNL     1      -4.353  -3.174  -5.829  1.00  0.00     0.053 C 
BRANCH   4   5
ATOM      5  C   UNL     1      -4.427  -1.758  -6.307  1.00  0.00     0.041 C 
ATOM      6  O   UNL     1      -5.546  -1.202  -6.468  1.00  0.00    -0.550 OA
ATOM      7  O   UNL     1      -3.261  -1.035  -6.527  1.00  0.00    -0.550 OA
ENDBRANCH   4   5
ENDBRANCH   3   4
ENDBRANCH   2   3
ENDBRANCH   1   2
BRANCH   1   8
ATOM      8  C   UNL     1      -5.110  -3.172  -1.123  1.00  0.00     0.000 C 
BRANCH   8   9
ATOM      9  C   UNL     1      -6.140  -3.166   0.016  1.00  0.00     0.006 C 
BRANCH   9  10
ATOM     10  C   UNL     1      -7.563  -3.436  -0.485  1.00  0.00     0.053 C 
BRANCH  10  11
ATOM     11  C   UNL     1      -8.197  -4.585   0.238  1.00  0.00     0.041 C 
ATOM     12  O   UNL     1      -9.101  -4.378   1.090  1.00  0.00    -0.550 OA
ATOM     13  O   UNL     1      -7.765  -5.883  -0.006  1.00  0.00    -0.550 OA
ENDBRANCH  10  11
ENDBRANCH   9  10
ENDBRANCH   8   9
ENDBRANCH   1   8
TORSDOF 8
ENDMDL
MODEL 3
REMARK VINA RESULT:    -4.064      2.094      5.462
REMARK INTER + INTRA:          -6.274
REMARK INTER:                  -5.647
REMARK INTRA:                  -0.627
REMARK UNBOUND:                -0.309
REMARK SMILES O=C([O-])CCCCCCCC(=O)[O-]
REMARK SMILES IDX 7 1 6 2 5 3 4 4 2 5 1 6 3 7 8 8 9 9 10 10 11 11 12 12 13 13
REMARK H PARENT
REMARK Flexibility Score: inf
ROOT
ATOM      1  C   UNL     1      -4.303  -3.737  -5.468  1.00  0.00     0.000 C 
ENDROOT
BRANCH   1   2
ATOM      2  C   UNL     1      -4.041  -2.550  -6.413  1.00  0.00     0.000 C 
BRANCH   2   3
ATOM      3  C   UNL     1      -4.885  -1.295  -6.130  1.00  0.00     0.006 C 
BRANCH   3   4
ATOM      4  C   UNL     1      -4.057  -0.004  -6.133  1.00  0.00     0.053 C 
BRANCH   4   5
ATOM      5  C   UNL     1      -4.948   1.188  -5.979  1.00  0.00     0.041 C 
ATOM      6  O   UNL     1      -6.127   1.160  -6.419  1.00  0.00    -0.550 OA
ATOM      7  O   UNL     1      -4.492   2.315  -5.304  1.00  0.00    -0.550 OA
ENDBRANCH   4   5
ENDBRANCH   3   4
ENDBRANCH   2   3
ENDBRANCH   1   2
BRANCH   1   8
ATOM      8  C   UNL     1      -5.441  -3.470  -4.472  1.00  0.00     0.000 C 
BRANCH   8   9
ATOM      9  C   UNL     1      -5.032  -3.874  -3.048  1.00  0.00     0.006 C 
BRANCH   9  10
ATOM     10  C   UNL     1      -3.612  -3.411  -2.698  1.00  0.00     0.053 C 
BRANCH  10  11
ATOM     11  C   UNL     1      -3.603  -2.020  -2.140  1.00  0.00     0.041 C 
ATOM     12  O   UNL     1      -3.256  -1.049  -2.862  1.00  0.00    -0.550 OA
ATOM     13  O   UNL     1      -3.947  -1.802  -0.812  1.00  0.00    -0.550 OA
ENDBRANCH  10  11
ENDBRANCH   9  10
ENDBRANCH   8   9
ENDBRANCH   1   8
TORSDOF 8
ENDMDL
MODEL 4
REMARK VINA RESULT:    -4.061      0.912      5.926
REMARK INTER + INTRA:          -6.270
REMARK INTER:                  -5.915
REMARK INTRA:                  -0.354
REMARK UNBOUND:                -0.309
REMARK SMILES O=C([O-])CCCCCCCC(=O)[O-]
REMARK SMILES IDX 7 1 6 2 5 3 4 4 2 5 1 6 3 7 8 8 9 9 10 10 11 11 12 12 13 13
REMARK H PARENT
REMARK Flexibility Score: inf
ROOT
ATOM      1  C   UNL     1      -5.376  -3.366  -4.861  1.00  0.00     0.000 C 
ENDROOT
BRANCH   1   2
ATOM      2  C   UNL     1      -4.318  -3.076  -5.940  1.00  0.00     0.000 C 
BRANCH   2   3
ATOM      3  C   UNL     1      -4.305  -1.629  -6.466  1.00  0.00     0.006 C 
BRANCH   3   4
ATOM      4  C   UNL     1      -3.927  -0.605  -5.389  1.00  0.00     0.053 C 
BRANCH   4   5
ATOM      5  C   UNL     1      -4.717   0.654  -5.564  1.00  0.00     0.041 C 
ATOM      6  O   UNL     1      -4.324   1.727  -5.037  1.00  0.00    -0.550 OA
ATOM      7  O   UNL     1      -5.862   0.653  -6.351  1.00  0.00    -0.550 OA
ENDBRANCH   4   5
ENDBRANCH   3   4
ENDBRANCH   2   3
ENDBRANCH   1   2
BRANCH   1   8
ATOM      8  C   UNL     1      -4.838  -4.230  -3.711  1.00  0.00     0.000 C 
BRANCH   8   9
ATOM      9  C   UNL     1      -4.959  -3.495  -2.368  1.00  0.00     0.006 C 
BRANCH   9  10
ATOM     10  C   UNL     1      -5.741  -4.308  -1.329  1.00  0.00     0.053 C 
BRANCH  10  11
ATOM     11  C   UNL     1      -6.644  -3.437  -0.509  1.00  0.00     0.041 C 
ATOM     12  O   UNL     1      -6.163  -2.520   0.208  1.00  0.00    -0.550 OA
ATOM     13  O   UNL     1      -8.015  -3.662  -0.511  1.00  0.00    -0.550 OA
ENDBRANCH  10  11
ENDBRANCH   9  10
ENDBRANCH   8   9
ENDBRANCH   1   8
TORSDOF 8
ENDMDL
MODEL 5
REMARK VINA RESULT:    -4.049      1.735      2.906
REMARK INTER + INTRA:          -6.251
REMARK INTER:                  -5.836
REMARK INTRA:                  -0.415
REMARK UNBOUND:                -0.309
REMARK SMILES O=C([O-])CCCCCCCC(=O)[O-]
REMARK SMILES IDX 7 1 6 2 5 3 4 4 2 5 1 6 3 7 8 8 9 9 10 10 11 11 12 12 13 13
REMARK H PARENT
REMARK Flexibility Score: inf
ROOT
ATOM      1  C   UNL     1      -4.987  -4.261  -1.176  1.00  0.00     0.000 C 
ENDROOT
BRANCH   1   2
ATOM      2  C   UNL     1      -5.457  -2.949  -0.523  1.00  0.00     0.000 C 
BRANCH   2   3
ATOM      3  C   UNL     1      -6.516  -3.115   0.581  1.00  0.00     0.006 C 
BRANCH   3   4
ATOM      4  C   UNL     1      -7.935  -3.296   0.027  1.00  0.00     0.053 C 
BRANCH   4   5
ATOM      5  C   UNL     1      -8.506  -4.606   0.471  1.00  0.00     0.041 C 
ATOM      6  O   UNL     1      -7.995  -5.687   0.074  1.00  0.00    -0.550 OA
ATOM      7  O   UNL     1      -9.571  -4.635   1.362  1.00  0.00    -0.550 OA
ENDBRANCH   4   5
ENDBRANCH   3   4
ENDBRANCH   2   3
ENDBRANCH   1   2
BRANCH   1   8
ATOM      8  C   UNL     1      -5.490  -4.427  -2.617  1.00  0.00     0.000 C 
BRANCH   8   9
ATOM      9  C   UNL     1      -4.480  -3.852  -3.621  1.00  0.00     0.006 C 
BRANCH   9  10
ATOM     10  C   UNL     1      -5.158  -3.328  -4.893  1.00  0.00     0.053 C 
BRANCH  10  11
ATOM     11  C   UNL     1      -4.512  -2.071  -5.389  1.00  0.00     0.041 C 
ATOM     12  O   UNL     1      -3.801  -1.375  -4.617  1.00  0.00    -0.550 OA
ATOM     13  O   UNL     1      -4.722  -1.652  -6.697  1.00  0.00    -0.550 OA
ENDBRANCH  10  11
ENDBRANCH   9  10
ENDBRANCH   8   9
ENDBRANCH   1   8
TORSDOF 8
ENDMDL
MODEL 6
REMARK VINA RESULT:    -3.923     16.103     17.530
REMARK INTER + INTRA:          -6.067
REMARK INTER:                  -5.574
REMARK INTRA:                  -0.493
REMARK UNBOUND:                -0.309
REMARK SMILES O=C([O-])CCCCCCCC(=O)[O-]
REMARK SMILES IDX 7 1 6 2 5 3 4 4 2 5 1 6 3 7 8 8 9 9 10 10 11 11 12 12 13 13
REMARK H PARENT
REMARK Flexibility Score: inf
ROOT
ATOM      1  C   UNL     1     -12.967   4.119 -16.718  1.00  0.00     0.000 C 
ENDROOT
BRANCH   1   2
ATOM      2  C   UNL     1     -12.268   5.490 -16.670  1.00  0.00     0.000 C 
BRANCH   2   3
ATOM      3  C   UNL     1     -12.692   6.394 -15.499  1.00  0.00     0.006 C 
BRANCH   3   4
ATOM      4  C   UNL     1     -14.205   6.637 -15.447  1.00  0.00     0.053 C 
BRANCH   4   5
ATOM      5  C   UNL     1     -14.496   8.100 -15.325  1.00  0.00     0.041 C 
ATOM      6  O   UNL     1     -15.686   8.507 -15.272  1.00  0.00    -0.550 OA
ATOM      7  O   UNL     1     -13.452   9.011 -15.218  1.00  0.00    -0.550 OA
ENDBRANCH   4   5
ENDBRANCH   3   4
ENDBRANCH   2   3
ENDBRANCH   1   2
BRANCH   1   8
ATOM      8  C   UNL     1     -13.793   3.911 -17.996  1.00  0.00     0.000 C 
BRANCH   8   9
ATOM      9  C   UNL     1     -14.898   2.868 -17.772  1.00  0.00     0.006 C 
BRANCH   9  10
ATOM     10  C   UNL     1     -15.356   2.810 -16.310  1.00  0.00     0.053 C 
BRANCH  10  11
ATOM     11  C   UNL     1     -15.308   1.414 -15.768  1.00  0.00     0.041 C 
ATOM     12  O   UNL     1     -14.789   0.488 -16.446  1.00  0.00    -0.550 OA
ATOM     13  O   UNL     1     -15.867   1.130 -14.529  1.00  0.00    -0.550 OA
ENDBRANCH  10  11
ENDBRANCH   9  10
ENDBRANCH   8   9
ENDBRANCH   1   8
TORSDOF 8
ENDMDL
MODEL 7
REMARK VINA RESULT:    -3.923      2.506      3.205
REMARK INTER + INTRA:          -6.066
REMARK INTER:                  -5.382
REMARK INTRA:                  -0.684
REMARK UNBOUND:                -0.309
REMARK SMILES O=C([O-])CCCCCCCC(=O)[O-]
REMARK SMILES IDX 7 1 6 2 5 3 4 4 2 5 1 6 3 7 8 8 9 9 10 10 11 11 12 12 13 13
REMARK H PARENT
REMARK Flexibility Score: inf
ROOT
ATOM      1  C   UNL     1      -5.299  -3.506  -4.699  1.00  0.00     0.000 C 
ENDROOT
BRANCH   1   2
ATOM      2  C   UNL     1      -4.775  -4.262  -3.464  1.00  0.00     0.000 C 
BRANCH   2   3
ATOM      3  C   UNL     1      -4.190  -3.369  -2.356  1.00  0.00     0.006 C 
BRANCH   3   4
ATOM      4  C   UNL     1      -2.724  -2.995  -2.601  1.00  0.00     0.053 C 
BRANCH   4   5
ATOM      5  C   UNL     1      -2.606  -1.546  -2.957  1.00  0.00     0.041 C 
ATOM      6  O   UNL     1      -3.410  -0.707  -2.471  1.00  0.00    -0.550 OA
ATOM      7  O   UNL     1      -1.579  -1.114  -3.787  1.00  0.00    -0.550 OA
ENDBRANCH   4   5
ENDBRANCH   3   4
ENDBRANCH   2   3
ENDBRANCH   1   2
BRANCH   1   8
ATOM      8  C   UNL     1      -4.298  -3.492  -5.863  1.00  0.00     0.000 C 
BRANCH   8   9
ATOM      9  C   UNL     1      -4.023  -2.057  -6.335  1.00  0.00     0.006 C 
BRANCH   9  10
ATOM     10  C   UNL     1      -5.298  -1.206  -6.380  1.00  0.00     0.053 C 
BRANCH  10  11
ATOM     11  C   UNL     1      -5.028   0.219  -6.003  1.00  0.00     0.041 C 
ATOM     12  O   UNL     1      -3.969   0.525  -5.395  1.00  0.00    -0.550 OA
ATOM     13  O   UNL     1      -5.963   1.204  -6.295  1.00  0.00    -0.550 OA
ENDBRANCH  10  11
ENDBRANCH   9  10
ENDBRANCH   8   9
ENDBRANCH   1   8
TORSDOF 8
ENDMDL
MODEL 8
REMARK VINA RESULT:    -3.868      5.977     10.648
REMARK INTER + INTRA:          -5.986
REMARK INTER:                  -5.675
REMARK INTRA:                  -0.311
REMARK UNBOUND:                -0.309
REMARK SMILES O=C([O-])CCCCCCCC(=O)[O-]
REMARK SMILES IDX 7 1 6 2 5 3 4 4 2 5 1 6 3 7 8 8 9 9 10 10 11 11 12 12 13 13
REMARK H PARENT
REMARK Flexibility Score: inf
ROOT
ATOM      1  C   UNL     1      -2.829   3.731  -9.988  1.00  0.00     0.000 C 
ENDROOT
BRANCH   1   2
ATOM      2  C   UNL     1      -1.880   3.146 -11.049  1.00  0.00     0.000 C 
BRANCH   2   3
ATOM      3  C   UNL     1      -2.495   2.980 -12.450  1.00  0.00     0.006 C 
BRANCH   3   4
ATOM      4  C   UNL     1      -3.926   3.524 -12.544  1.00  0.00     0.053 C 
BRANCH   4   5
ATOM      5  C   UNL     1      -3.962   4.755 -13.393  1.00  0.00     0.041 C 
ATOM      6  O   UNL     1      -4.312   4.682 -14.601  1.00  0.00    -0.550 OA
ATOM      7  O   UNL     1      -3.658   5.992 -12.839  1.00  0.00    -0.550 OA
ENDBRANCH   4   5
ENDBRANCH   3   4
ENDBRANCH   2   3
ENDBRANCH   1   2
BRANCH   1   8
ATOM      8  C   UNL     1      -2.391   3.414  -8.551  1.00  0.00     0.000 C 
BRANCH   8   9
ATOM      9  C   UNL     1      -3.599   3.379  -7.603  1.00  0.00     0.006 C 
BRANCH   9  10
ATOM     10  C   UNL     1      -3.253   2.757  -6.245  1.00  0.00     0.053 C 
BRANCH  10  11
ATOM     11  C   UNL     1      -4.042   1.509  -5.989  1.00  0.00     0.041 C 
ATOM     12  O   UNL     1      -5.130   1.564  -5.356  1.00  0.00    -0.550 OA
ATOM     13  O   UNL     1      -3.559   0.281  -6.422  1.00  0.00    -0.550 OA
ENDBRANCH  10  11
ENDBRANCH   9  10
ENDBRANCH   8   9
ENDBRANCH   1   8
TORSDOF 8
ENDMDL
MODEL 9
REMARK VINA RESULT:    -3.863      3.350      7.199
REMARK INTER + INTRA:          -5.979
REMARK INTER:                  -5.261
REMARK INTRA:                  -0.718
REMARK UNBOUND:                -0.309
REMARK SMILES O=C([O-])CCCCCCCC(=O)[O-]
REMARK SMILES IDX 7 1 6 2 5 3 4 4 2 5 1 6 3 7 8 8 9 9 10 10 11 11 12 12 13 13
REMARK H PARENT
REMARK Flexibility Score: inf
ROOT
ATOM      1  C   UNL     1      -7.752  -3.134  -0.259  1.00  0.00     0.000 C 
ENDROOT
BRANCH   1   2
ATOM      2  C   UNL     1      -6.393  -2.916   0.430  1.00  0.00     0.000 C 
BRANCH   2   3
ATOM      3  C   UNL     1      -5.167  -3.066  -0.488  1.00  0.00     0.006 C 
BRANCH   3   4
ATOM      4  C   UNL     1      -5.443  -3.944  -1.715  1.00  0.00     0.053 C 
BRANCH   4   5
ATOM      5  C   UNL     1      -4.565  -3.538  -2.857  1.00  0.00     0.041 C 
ATOM      6  O   UNL     1      -3.895  -2.474  -2.793  1.00  0.00    -0.550 OA
ATOM      7  O   UNL     1      -4.447  -4.360  -3.971  1.00  0.00    -0.550 OA
ENDBRANCH   4   5
ENDBRANCH   3   4
ENDBRANCH   2   3
ENDBRANCH   1   2
BRANCH   1   8
ATOM      8  C   UNL     1      -8.579  -4.254   0.388  1.00  0.00     0.000 C 
BRANCH   8   9
ATOM      9  C   UNL     1      -7.924  -4.740   1.689  1.00  0.00     0.006 C 
BRANCH   9  10
ATOM     10  C   UNL     1      -7.860  -6.270   1.772  1.00  0.00     0.053 C 
BRANCH  10  11
ATOM     11  C   UNL     1      -7.045  -6.852   0.657  1.00  0.00     0.041 C 
ATOM     12  O   UNL     1      -7.580  -7.615  -0.189  1.00  0.00    -0.550 OA
ATOM     13  O   UNL     1      -5.686  -6.577   0.573  1.00  0.00    -0.550 OA
ENDBRANCH  10  11
ENDBRANCH   9  10
ENDBRANCH   8   9
ENDBRANCH   1   8
TORSDOF 8
ENDMDL
