MODEL 1
REMARK VINA RESULT:    -3.854      0.000      0.000
REMARK INTER + INTRA:          -6.136
REMARK INTER:                  -5.882
REMARK INTRA:                  -0.254
REMARK UNBOUND:                -0.254
REMARK SMILES CC1=CCC[C@H](C)C(=O)C[C@H](C(C)C)C(=O)C1
REMARK SMILES IDX 8 1 9 2 6 3 7 4 5 5 4 6 3 7 2 8 1 9 10 11 11 12 15 13 16 14
REMARK SMILES IDX 17 15 12 17 13 18 14 19
REMARK H PARENT
REMARK Flexibility Score: 70.00
ROOT
ATOM      1  C   UNL     1      15.240 -20.490 -21.418  1.00  0.00     0.136 C 
ATOM      2  O   UNL     1      15.029 -21.643 -21.763  1.00  0.00    -0.299 OA
ENDROOT
BRANCH   1   3
ATOM      3  C   UNL     1      16.206 -19.630 -22.204  1.00  0.00     0.053 C 
ATOM      4  C   UNL     1      17.638 -20.115 -21.953  1.00  0.00     0.016 C 
BRANCH   3   5
ATOM      5  C   UNL     1      15.901 -19.625 -23.721  1.00  0.00     0.015 C 
BRANCH   5   6
ATOM      6  C   UNL     1      14.414 -19.389 -24.053  1.00  0.00     0.028 C 
BRANCH   6   7
ATOM      7  C   UNL     1      14.040 -17.929 -23.929  1.00  0.00    -0.028 C 
ATOM      8  C   UNL     1      13.255 -17.378 -22.973  1.00  0.00    -0.070 CG0
ATOM      9  C   UNL     1      13.037 -15.886 -23.014  1.00  0.00     0.039 C 
ATOM     10  G   UNL     1      12.528 -18.181 -21.914  1.00  0.00     0.000 G0
ENDBRANCH   6   7
ENDBRANCH   5   6
ENDBRANCH   3   5
ENDBRANCH   1   3
BRANCH   1  11
ATOM     11  C   UNL     1      14.554 -19.947 -20.187  1.00  0.00     0.087 C 
BRANCH  11  12
ATOM     12  C   UNL     1      14.493 -18.403 -20.191  1.00  0.00     0.066 C 
BRANCH  12  13
ATOM     13  C   UNL     1      13.100 -17.921 -20.551  1.00  0.00     0.140 C 
ATOM     14  O   UNL     1      12.417 -17.351 -19.712  1.00  0.00    -0.299 OA
BRANCH  13  15
ATOM     15  C   UNL     1      12.518 -18.169 -21.916  1.00  0.00     0.106 CG0
ATOM     16  G   UNL     1      13.279 -17.371 -22.956  1.00  0.00     0.000 G0
ENDBRANCH  13  15
ENDBRANCH  12  13
BRANCH  12  17
ATOM     17  C   UNL     1      15.025 -17.785 -18.862  1.00  0.00    -0.006 C 
ATOM     18  C   UNL     1      14.619 -18.640 -17.652  1.00  0.00     0.008 C 
ATOM     19  C   UNL     1      16.543 -17.532 -18.841  1.00  0.00     0.008 C 
ENDBRANCH  12  17
ENDBRANCH  11  12
ENDBRANCH   1  11
TORSDOF 1
ENDMDL
MODEL 2
REMARK VINA RESULT:    -3.803      2.129      4.247
REMARK INTER + INTRA:          -6.058
REMARK INTER:                  -6.206
REMARK INTRA:                   0.148
REMARK UNBOUND:                -0.254
REMARK SMILES CC1=CCC[C@H](C)C(=O)C[C@H](C(C)C)C(=O)C1
REMARK SMILES IDX 8 1 9 2 6 3 7 4 5 5 4 6 3 7 2 8 1 9 10 11 11 12 15 13 16 14
REMARK SMILES IDX 17 15 12 17 13 18 14 19
REMARK H PARENT
REMARK Flexibility Score: 70.00
ROOT
ATOM      1  C   UNL     1      10.563 -18.050 -19.992  1.00  0.00     0.136 C 
ATOM      2  O   UNL     1       9.930 -17.926 -18.954  1.00  0.00    -0.299 OA
ENDROOT
BRANCH   1   3
ATOM      3  C   UNL     1       9.884 -18.591 -21.231  1.00  0.00     0.053 C 
ATOM      4  C   UNL     1       8.499 -19.131 -20.856  1.00  0.00     0.016 C 
BRANCH   3   5
ATOM      5  C   UNL     1       9.759 -17.534 -22.354  1.00  0.00     0.015 C 
BRANCH   5   6
ATOM      6  C   UNL     1      10.689 -17.794 -23.555  1.00  0.00     0.028 C 
BRANCH   6   7
ATOM      7  C   UNL     1      11.597 -16.615 -23.823  1.00  0.00    -0.028 C 
ATOM      8  C   UNL     1      12.949 -16.609 -23.754  1.00  0.00    -0.070 CG0
ATOM      9  C   UNL     1      13.667 -15.327 -24.098  1.00  0.00     0.039 C 
ATOM     10  G   UNL     1      13.775 -17.789 -23.284  1.00  0.00     0.000 G0
ENDBRANCH   6   7
ENDBRANCH   5   6
ENDBRANCH   3   5
ENDBRANCH   1   3
BRANCH   1  11
ATOM     11  C   UNL     1      12.028 -17.686 -20.015  1.00  0.00     0.087 C 
BRANCH  11  12
ATOM     12  C   UNL     1      12.839 -18.608 -20.954  1.00  0.00     0.066 C 
BRANCH  12  13
ATOM     13  C   UNL     1      13.838 -17.803 -21.767  1.00  0.00     0.140 C 
ATOM     14  O   UNL     1      14.680 -17.124 -21.198  1.00  0.00    -0.299 OA
BRANCH  13  15
ATOM     15  C   UNL     1      13.785 -17.787 -23.271  1.00  0.00     0.106 CG0
ATOM     16  G   UNL     1      12.920 -16.637 -23.745  1.00  0.00     0.000 G0
ENDBRANCH  13  15
ENDBRANCH  12  13
BRANCH  12  17
ATOM     17  C   UNL     1      13.496 -19.800 -20.194  1.00  0.00    -0.006 C 
ATOM     18  C   UNL     1      14.100 -20.816 -21.176  1.00  0.00     0.008 C 
ATOM     19  C   UNL     1      14.549 -19.387 -19.152  1.00  0.00     0.008 C 
ENDBRANCH  12  17
ENDBRANCH  11  12
ENDBRANCH   1  11
TORSDOF 1
ENDMDL
MODEL 3
REMARK VINA RESULT:    -3.645      4.888      7.264
REMARK INTER + INTRA:          -5.817
REMARK INTER:                  -5.367
REMARK INTRA:                  -0.450
REMARK UNBOUND:                -0.254
REMARK SMILES CC1=CCC[C@H](C)C(=O)C[C@H](C(C)C)C(=O)C1
REMARK SMILES IDX 8 1 9 2 6 3 7 4 5 5 4 6 3 7 2 8 1 9 10 11 11 12 15 13 16 14
REMARK SMILES IDX 17 15 12 17 13 18 14 19
REMARK H PARENT
REMARK Flexibility Score: 70.00
ROOT
ATOM      1  C   UNL     1      17.792 -20.559 -24.891  1.00  0.00     0.136 C 
ATOM      2  O   UNL     1      18.104 -19.380 -24.982  1.00  0.00    -0.299 OA
ENDROOT
BRANCH   1   3
ATOM      3  C   UNL     1      17.848 -21.452 -26.111  1.00  0.00     0.053 C 
ATOM      4  C   UNL     1      17.136 -20.762 -27.279  1.00  0.00     0.016 C 
BRANCH   3   5
ATOM      5  C   UNL     1      19.295 -21.824 -26.511  1.00  0.00     0.015 C 
BRANCH   5   6
ATOM      6  C   UNL     1      20.167 -22.283 -25.326  1.00  0.00     0.028 C 
BRANCH   6   7
ATOM      7  C   UNL     1      20.023 -23.766 -25.069  1.00  0.00    -0.028 C 
ATOM      8  C   UNL     1      19.444 -24.343 -23.989  1.00  0.00    -0.070 CG0
ATOM      9  C   UNL     1      19.373 -25.849 -23.947  1.00  0.00     0.039 C 
ATOM     10  G   UNL     1      18.931 -23.568 -22.793  1.00  0.00     0.000 G0
ENDBRANCH   6   7
ENDBRANCH   5   6
ENDBRANCH   3   5
ENDBRANCH   1   3
BRANCH   1  11
ATOM     11  C   UNL     1      17.322 -21.100 -23.562  1.00  0.00     0.087 C 
BRANCH  11  12
ATOM     12  C   UNL     1      16.665 -22.492 -23.703  1.00  0.00     0.066 C 
BRANCH  12  13
ATOM     13  C   UNL     1      17.393 -23.519 -22.854  1.00  0.00     0.140 C 
ATOM     14  O   UNL     1      16.756 -24.310 -22.175  1.00  0.00    -0.299 OA
BRANCH  13  15
ATOM     15  C   UNL     1      18.896 -23.556 -22.796  1.00  0.00     0.106 CG0
ATOM     16  G   UNL     1      19.440 -24.335 -23.976  1.00  0.00     0.000 G0
ENDBRANCH  13  15
ENDBRANCH  12  13
BRANCH  12  17
ATOM     17  C   UNL     1      15.131 -22.454 -23.427  1.00  0.00    -0.006 C 
ATOM     18  C   UNL     1      14.808 -21.568 -22.214  1.00  0.00     0.008 C 
ATOM     19  C   UNL     1      14.279 -22.025 -24.633  1.00  0.00     0.008 C 
ENDBRANCH  12  17
ENDBRANCH  11  12
ENDBRANCH   1  11
TORSDOF 1
ENDMDL
MODEL 4
REMARK VINA RESULT:    -3.591      2.295      4.493
REMARK INTER + INTRA:          -5.735
REMARK INTER:                  -5.875
REMARK INTRA:                   0.139
REMARK UNBOUND:                -0.254
REMARK SMILES CC1=CCC[C@H](C)C(=O)C[C@H](C(C)C)C(=O)C1
REMARK SMILES IDX 8 1 9 2 6 3 7 4 5 5 4 6 3 7 2 8 1 9 10 11 11 12 15 13 16 14
REMARK SMILES IDX 17 15 12 17 13 18 14 19
REMARK H PARENT
REMARK Flexibility Score: 70.00
ROOT
ATOM      1  C   UNL     1      12.440 -18.536 -20.959  1.00  0.00     0.136 C 
ATOM      2  O   UNL     1      11.392 -18.554 -20.330  1.00  0.00    -0.299 OA
ENDROOT
BRANCH   1   3
ATOM      3  C   UNL     1      13.756 -18.740 -20.240  1.00  0.00     0.053 C 
ATOM      4  C   UNL     1      14.446 -19.993 -20.790  1.00  0.00     0.016 C 
BRANCH   3   5
ATOM      5  C   UNL     1      14.695 -17.517 -20.359  1.00  0.00     0.015 C 
BRANCH   5   6
ATOM      6  C   UNL     1      15.859 -17.722 -21.349  1.00  0.00     0.028 C 
BRANCH   6   7
ATOM      7  C   UNL     1      16.165 -16.458 -22.120  1.00  0.00    -0.028 C 
ATOM      8  C   UNL     1      15.466 -15.967 -23.170  1.00  0.00    -0.070 CG0
ATOM      9  C   UNL     1      15.925 -14.663 -23.775  1.00  0.00     0.039 C 
ATOM     10  G   UNL     1      14.297 -16.684 -23.814  1.00  0.00     0.000 G0
ENDBRANCH   6   7
ENDBRANCH   5   6
ENDBRANCH   3   5
ENDBRANCH   1   3
BRANCH   1  11
ATOM     11  C   UNL     1      12.407 -18.280 -22.447  1.00  0.00     0.087 C 
BRANCH  11  12
ATOM     12  C   UNL     1      11.909 -16.856 -22.779  1.00  0.00     0.066 C 
BRANCH  12  13
ATOM     13  C   UNL     1      12.998 -16.053 -23.467  1.00  0.00     0.140 C 
ATOM     14  O   UNL     1      12.799 -14.882 -23.759  1.00  0.00    -0.299 OA
BRANCH  13  15
ATOM     15  C   UNL     1      14.312 -16.683 -23.843  1.00  0.00     0.106 CG0
ATOM     16  G   UNL     1      15.450 -15.949 -23.163  1.00  0.00     0.000 G0
ENDBRANCH  13  15
ENDBRANCH  12  13
BRANCH  12  17
ATOM     17  C   UNL     1      10.568 -16.866 -23.574  1.00  0.00    -0.006 C 
ATOM     18  C   UNL     1      10.776 -17.390 -25.003  1.00  0.00     0.008 C 
ATOM     19  C   UNL     1       9.430 -17.643 -22.890  1.00  0.00     0.008 C 
ENDBRANCH  12  17
ENDBRANCH  11  12
ENDBRANCH   1  11
TORSDOF 1
ENDMDL
MODEL 5
REMARK VINA RESULT:    -3.583      4.688      6.649
REMARK INTER + INTRA:          -5.722
REMARK INTER:                  -5.449
REMARK INTRA:                  -0.273
REMARK UNBOUND:                -0.254
REMARK SMILES CC1=CCC[C@H](C)C(=O)C[C@H](C(C)C)C(=O)C1
REMARK SMILES IDX 8 1 9 2 6 3 7 4 5 5 4 6 3 7 2 8 1 9 10 11 11 12 15 13 16 14
REMARK SMILES IDX 17 15 12 17 13 18 14 19
REMARK H PARENT
REMARK Flexibility Score: 70.00
ROOT
ATOM      1  C   UNL     1      17.289 -24.503 -22.965  1.00  0.00     0.136 C 
ATOM      2  O   UNL     1      16.897 -25.621 -22.663  1.00  0.00    -0.299 OA
ENDROOT
BRANCH   1   3
ATOM      3  C   UNL     1      18.750 -24.144 -22.797  1.00  0.00     0.053 C 
ATOM      4  C   UNL     1      19.158 -24.353 -21.334  1.00  0.00     0.016 C 
BRANCH   3   5
ATOM      5  C   UNL     1      19.676 -24.957 -23.732  1.00  0.00     0.015 C 
BRANCH   5   6
ATOM      6  C   UNL     1      19.558 -24.561 -25.217  1.00  0.00     0.028 C 
BRANCH   6   7
ATOM      7  C   UNL     1      19.980 -23.127 -25.447  1.00  0.00    -0.028 C 
ATOM      8  C   UNL     1      19.196 -22.120 -25.898  1.00  0.00    -0.070 CG0
ATOM      9  C   UNL     1      19.811 -20.748 -26.023  1.00  0.00     0.039 C 
ATOM     10  G   UNL     1      17.762 -22.306 -26.351  1.00  0.00     0.000 G0
ENDBRANCH   6   7
ENDBRANCH   5   6
ENDBRANCH   3   5
ENDBRANCH   1   3
BRANCH   1  11
ATOM     11  C   UNL     1      16.301 -23.483 -23.477  1.00  0.00     0.087 C 
BRANCH  11  12
ATOM     12  C   UNL     1      16.983 -22.144 -23.836  1.00  0.00     0.066 C 
BRANCH  12  13
ATOM     13  C   UNL     1      16.790 -21.821 -25.307  1.00  0.00     0.140 C 
ATOM     14  O   UNL     1      15.819 -21.171 -25.666  1.00  0.00    -0.299 OA
BRANCH  13  15
ATOM     15  C   UNL     1      17.754 -22.324 -26.348  1.00  0.00     0.106 CG0
ATOM     16  G   UNL     1      19.179 -22.110 -25.879  1.00  0.00     0.000 G0
ENDBRANCH  13  15
ENDBRANCH  12  13
BRANCH  12  17
ATOM     17  C   UNL     1      16.541 -20.982 -22.896  1.00  0.00    -0.006 C 
ATOM     18  C   UNL     1      15.450 -21.445 -21.919  1.00  0.00     0.008 C 
ATOM     19  C   UNL     1      17.693 -20.318 -22.122  1.00  0.00     0.008 C 
ENDBRANCH  12  17
ENDBRANCH  11  12
ENDBRANCH   1  11
TORSDOF 1
ENDMDL
MODEL 6
REMARK VINA RESULT:    -3.562      2.353      4.364
REMARK INTER + INTRA:          -5.691
REMARK INTER:                  -5.654
REMARK INTRA:                  -0.037
REMARK UNBOUND:                -0.254
REMARK SMILES CC1=CCC[C@H](C)C(=O)C[C@H](C(C)C)C(=O)C1
REMARK SMILES IDX 8 1 9 2 6 3 7 4 5 5 4 6 3 7 2 8 1 9 10 11 11 12 15 13 16 14
REMARK SMILES IDX 17 15 12 17 13 18 14 19
REMARK H PARENT
REMARK Flexibility Score: 70.00
ROOT
ATOM      1  C   UNL     1      12.396 -17.980 -20.636  1.00  0.00     0.136 C 
ATOM      2  O   UNL     1      12.490 -17.720 -19.446  1.00  0.00    -0.299 OA
ENDROOT
BRANCH   1   3
ATOM      3  C   UNL     1      11.042 -18.287 -21.238  1.00  0.00     0.053 C 
ATOM      4  C   UNL     1       9.984 -18.297 -20.129  1.00  0.00     0.016 C 
BRANCH   3   5
ATOM      5  C   UNL     1      10.643 -17.288 -22.349  1.00  0.00     0.015 C 
BRANCH   5   6
ATOM      6  C   UNL     1      10.409 -17.950 -23.722  1.00  0.00     0.028 C 
BRANCH   6   7
ATOM      7  C   UNL     1      11.259 -17.314 -24.799  1.00  0.00    -0.028 C 
ATOM      8  C   UNL     1      12.364 -17.848 -25.371  1.00  0.00    -0.070 CG0
ATOM      9  C   UNL     1      13.047 -17.057 -26.459  1.00  0.00     0.039 C 
ATOM     10  G   UNL     1      12.993 -19.155 -24.932  1.00  0.00     0.000 G0
ENDBRANCH   6   7
ENDBRANCH   5   6
ENDBRANCH   3   5
ENDBRANCH   1   3
BRANCH   1  11
ATOM     11  C   UNL     1      13.643 -18.022 -21.487  1.00  0.00     0.087 C 
BRANCH  11  12
ATOM     12  C   UNL     1      13.685 -19.273 -22.393  1.00  0.00     0.066 C 
BRANCH  12  13
ATOM     13  C   UNL     1      13.992 -18.887 -23.829  1.00  0.00     0.140 C 
ATOM     14  O   UNL     1      15.037 -18.312 -24.095  1.00  0.00    -0.299 OA
BRANCH  13  15
ATOM     15  C   UNL     1      13.009 -19.160 -24.935  1.00  0.00     0.106 CG0
ATOM     16  G   UNL     1      12.366 -17.864 -25.387  1.00  0.00     0.000 G0
ENDBRANCH  13  15
ENDBRANCH  12  13
BRANCH  12  17
ATOM     17  C   UNL     1      14.642 -20.373 -21.842  1.00  0.00    -0.006 C 
ATOM     18  C   UNL     1      14.208 -20.835 -20.442  1.00  0.00     0.008 C 
ATOM     19  C   UNL     1      14.811 -21.590 -22.768  1.00  0.00     0.008 C 
ENDBRANCH  12  17
ENDBRANCH  11  12
ENDBRANCH   1  11
TORSDOF 1
ENDMDL
MODEL 7
REMARK VINA RESULT:    -3.552      5.158      7.697
REMARK INTER + INTRA:          -5.675
REMARK INTER:                  -5.452
REMARK INTRA:                  -0.223
REMARK UNBOUND:                -0.254
REMARK SMILES CC1=CCC[C@H](C)C(=O)C[C@H](C(C)C)C(=O)C1
REMARK SMILES IDX 8 1 9 2 6 3 7 4 5 5 4 6 3 7 2 8 1 9 10 11 11 12 15 13 16 14
REMARK SMILES IDX 17 15 12 17 13 18 14 19
REMARK H PARENT
REMARK Flexibility Score: 70.00
ROOT
ATOM      1  C   UNL     1      16.180 -22.294 -24.401  1.00  0.00     0.136 C 
ATOM      2  O   UNL     1      15.158 -21.865 -24.916  1.00  0.00    -0.299 OA
ENDROOT
BRANCH   1   3
ATOM      3  C   UNL     1      16.178 -22.700 -22.943  1.00  0.00     0.053 C 
ATOM      4  C   UNL     1      15.070 -21.940 -22.206  1.00  0.00     0.016 C 
BRANCH   3   5
ATOM      5  C   UNL     1      16.003 -24.224 -22.749  1.00  0.00     0.015 C 
BRANCH   5   6
ATOM      6  C   UNL     1      17.295 -25.032 -22.983  1.00  0.00     0.028 C 
BRANCH   6   7
ATOM      7  C   UNL     1      18.446 -24.493 -22.163  1.00  0.00    -0.028 C 
ATOM      8  C   UNL     1      19.539 -23.850 -22.637  1.00  0.00    -0.070 CG0
ATOM      9  C   UNL     1      20.557 -23.360 -21.637  1.00  0.00     0.039 C 
ATOM     10  G   UNL     1      19.832 -23.659 -24.111  1.00  0.00     0.000 G0
ENDBRANCH   6   7
ENDBRANCH   5   6
ENDBRANCH   3   5
ENDBRANCH   1   3
BRANCH   1  11
ATOM     11  C   UNL     1      17.443 -22.386 -25.224  1.00  0.00     0.087 C 
BRANCH  11  12
ATOM     12  C   UNL     1      18.535 -21.417 -24.718  1.00  0.00     0.066 C 
BRANCH  12  13
ATOM     13  C   UNL     1      19.831 -22.161 -24.451  1.00  0.00     0.140 C 
ATOM     14  O   UNL     1      20.899 -21.572 -24.532  1.00  0.00    -0.299 OA
BRANCH  13  15
ATOM     15  C   UNL     1      19.833 -23.631 -24.128  1.00  0.00     0.106 CG0
ATOM     16  G   UNL     1      19.544 -23.837 -22.655  1.00  0.00     0.000 G0
ENDBRANCH  13  15
ENDBRANCH  12  13
BRANCH  12  17
ATOM     17  C   UNL     1      18.723 -20.190 -25.661  1.00  0.00    -0.006 C 
ATOM     18  C   UNL     1      18.690 -20.616 -27.137  1.00  0.00     0.008 C 
ATOM     19  C   UNL     1      17.724 -19.045 -25.421  1.00  0.00     0.008 C 
ENDBRANCH  12  17
ENDBRANCH  11  12
ENDBRANCH   1  11
TORSDOF 1
ENDMDL
MODEL 8
REMARK VINA RESULT:    -3.501      2.154      3.983
REMARK INTER + INTRA:          -5.598
REMARK INTER:                  -5.427
REMARK INTRA:                  -0.171
REMARK UNBOUND:                -0.254
REMARK SMILES CC1=CCC[C@H](C)C(=O)C[C@H](C(C)C)C(=O)C1
REMARK SMILES IDX 8 1 9 2 6 3 7 4 5 5 4 6 3 7 2 8 1 9 10 11 11 12 15 13 16 14
REMARK SMILES IDX 17 15 12 17 13 18 14 19
REMARK H PARENT
REMARK Flexibility Score: 70.00
ROOT
ATOM      1  C   UNL     1      14.961 -16.523 -23.008  1.00  0.00     0.136 C 
ATOM      2  O   UNL     1      15.759 -15.878 -23.672  1.00  0.00    -0.299 OA
ENDROOT
BRANCH   1   3
ATOM      3  C   UNL     1      13.532 -16.677 -23.483  1.00  0.00     0.053 C 
ATOM      4  C   UNL     1      12.968 -15.300 -23.850  1.00  0.00     0.016 C 
BRANCH   3   5
ATOM      5  C   UNL     1      13.403 -17.645 -24.683  1.00  0.00     0.015 C 
BRANCH   5   6
ATOM      6  C   UNL     1      12.885 -19.044 -24.297  1.00  0.00     0.028 C 
BRANCH   6   7
ATOM      7  C   UNL     1      13.897 -20.121 -24.617  1.00  0.00    -0.028 C 
ATOM      8  C   UNL     1      14.529 -20.922 -23.726  1.00  0.00    -0.070 CG0
ATOM      9  C   UNL     1      15.480 -21.962 -24.263  1.00  0.00     0.039 C 
ATOM     10  G   UNL     1      14.389 -20.786 -22.223  1.00  0.00     0.000 G0
ENDBRANCH   6   7
ENDBRANCH   5   6
ENDBRANCH   3   5
ENDBRANCH   1   3
BRANCH   1  11
ATOM     11  C   UNL     1      15.407 -17.134 -21.701  1.00  0.00     0.087 C 
BRANCH  11  12
ATOM     12  C   UNL     1      14.538 -18.349 -21.303  1.00  0.00     0.066 C 
BRANCH  12  13
ATOM     13  C   UNL     1      15.212 -19.647 -21.710  1.00  0.00     0.140 C 
ATOM     14  O   UNL     1      16.429 -19.742 -21.666  1.00  0.00    -0.299 OA
BRANCH  13  15
ATOM     15  C   UNL     1      14.408 -20.817 -22.213  1.00  0.00     0.106 CG0
ATOM     16  G   UNL     1      14.534 -20.921 -23.719  1.00  0.00     0.000 G0
ENDBRANCH  13  15
ENDBRANCH  12  13
BRANCH  12  17
ATOM     17  C   UNL     1      14.133 -18.321 -19.798  1.00  0.00    -0.006 C 
ATOM     18  C   UNL     1      15.264 -17.748 -18.930  1.00  0.00     0.008 C 
ATOM     19  C   UNL     1      12.819 -17.575 -19.507  1.00  0.00     0.008 C 
ENDBRANCH  12  17
ENDBRANCH  11  12
ENDBRANCH   1  11
TORSDOF 1
ENDMDL
MODEL 9
REMARK VINA RESULT:    -3.307      4.332      6.703
REMARK INTER + INTRA:          -5.302
REMARK INTER:                  -5.213
REMARK INTRA:                  -0.088
REMARK UNBOUND:                -0.254
REMARK SMILES CC1=CCC[C@H](C)C(=O)C[C@H](C(C)C)C(=O)C1
REMARK SMILES IDX 8 1 9 2 6 3 7 4 5 5 4 6 3 7 2 8 1 9 10 11 11 12 15 13 16 14
REMARK SMILES IDX 17 15 12 17 13 18 14 19
REMARK H PARENT
REMARK Flexibility Score: 70.00
ROOT
ATOM      1  C   UNL     1      19.642 -22.170 -25.588  1.00  0.00     0.136 C 
ATOM      2  O   UNL     1      20.686 -22.196 -24.952  1.00  0.00    -0.299 OA
ENDROOT
BRANCH   1   3
ATOM      3  C   UNL     1      19.297 -20.958 -26.426  1.00  0.00     0.053 C 
ATOM      4  C   UNL     1      18.246 -21.347 -27.471  1.00  0.00     0.016 C 
BRANCH   3   5
ATOM      5  C   UNL     1      18.792 -19.769 -25.575  1.00  0.00     0.015 C 
BRANCH   5   6
ATOM      6  C   UNL     1      17.264 -19.576 -25.626  1.00  0.00     0.028 C 
BRANCH   6   7
ATOM      7  C   UNL     1      16.630 -19.790 -24.270  1.00  0.00    -0.028 C 
ATOM      8  C   UNL     1      16.167 -20.963 -23.775  1.00  0.00    -0.070 CG0
ATOM      9  C   UNL     1      15.600 -20.963 -22.377  1.00  0.00     0.039 C 
ATOM     10  G   UNL     1      16.119 -22.253 -24.568  1.00  0.00     0.000 G0
ENDBRANCH   6   7
ENDBRANCH   5   6
ENDBRANCH   3   5
ENDBRANCH   1   3
BRANCH   1  11
ATOM     11  C   UNL     1      18.693 -23.341 -25.502  1.00  0.00     0.087 C 
BRANCH  11  12
ATOM     12  C   UNL     1      18.289 -23.655 -24.044  1.00  0.00     0.066 C 
BRANCH  12  13
ATOM     13  C   UNL     1      16.816 -23.364 -23.820  1.00  0.00     0.140 C 
ATOM     14  O   UNL     1      16.170 -24.051 -23.043  1.00  0.00    -0.299 OA
BRANCH  13  15
ATOM     15  C   UNL     1      16.116 -22.264 -24.573  1.00  0.00     0.106 CG0
ATOM     16  G   UNL     1      16.170 -20.977 -23.776  1.00  0.00     0.000 G0
ENDBRANCH  13  15
ENDBRANCH  12  13
BRANCH  12  17
ATOM     17  C   UNL     1      18.695 -25.097 -23.613  1.00  0.00    -0.006 C 
ATOM     18  C   UNL     1      19.797 -25.658 -24.525  1.00  0.00     0.008 C 
ATOM     19  C   UNL     1      19.117 -25.225 -22.139  1.00  0.00     0.008 C 
ENDBRANCH  12  17
ENDBRANCH  11  12
ENDBRANCH   1  11
TORSDOF 1
ENDMDL
