MODEL 1
REMARK VINA RESULT:    -3.873      0.000      0.000
REMARK INTER + INTRA:          -5.530
REMARK INTER:                  -5.231
REMARK INTRA:                  -0.299
REMARK UNBOUND:                -0.299
REMARK SMILES CCCCCCC=CC(=O)[O-]
REMARK SMILES IDX 5 1 6 2 7 3 8 4 9 5 10 6 11 7 4 8 3 9 2 10 1 11
REMARK H PARENT
REMARK Flexibility Score: inf
ROOT
ATOM      1  C   UNL     1      16.453  16.000  30.056  1.00  0.00     0.004 C 
ENDROOT
BRANCH   1   2
ATOM      2  C   UNL     1      15.628  15.217  29.023  1.00  0.00     0.027 C 
BRANCH   2   3
ATOM      3  C   UNL     1      16.309  15.204  27.685  1.00  0.00    -0.025 C 
ATOM      4  C   UNL     1      15.960  16.058  26.715  1.00  0.00     0.020 C 
BRANCH   4   5
ATOM      5  C   UNL     1      16.623  16.073  25.401  1.00  0.00     0.064 C 
ATOM      6  O   UNL     1      17.878  16.014  25.305  1.00  0.00    -0.545 OA
ATOM      7  O   UNL     1      15.853  16.154  24.250  1.00  0.00    -0.545 OA
ENDBRANCH   4   5
ENDBRANCH   2   3
ENDBRANCH   1   2
BRANCH   1   8
ATOM      8  C   UNL     1      17.381  15.096  30.881  1.00  0.00     0.000 C 
BRANCH   8   9
ATOM      9  C   UNL     1      16.721  13.763  31.265  1.00  0.00    -0.000 C 
BRANCH   9  10
ATOM     10  C   UNL     1      17.516  13.053  32.366  1.00  0.00    -0.003 C 
ATOM     11  C   UNL     1      18.797  13.812  32.700  1.00  0.00     0.004 C 
ENDBRANCH   9  10
ENDBRANCH   8   9
ENDBRANCH   1   8
TORSDOF 6
ENDMDL
MODEL 2
REMARK VINA RESULT:    -3.742      0.831      1.520
REMARK INTER + INTRA:          -5.354
REMARK INTER:                  -5.054
REMARK INTRA:                  -0.299
REMARK UNBOUND:                -0.299
REMARK SMILES CCCCCCC=CC(=O)[O-]
REMARK SMILES IDX 5 1 6 2 7 3 8 4 9 5 10 6 11 7 4 8 3 9 2 10 1 11
REMARK H PARENT
REMARK Flexibility Score: inf
ROOT
ATOM      1  C   UNL     1      15.081  14.661  29.592  1.00  0.00     0.004 C 
ENDROOT
BRANCH   1   2
ATOM      2  C   UNL     1      15.843  15.698  28.752  1.00  0.00     0.027 C 
BRANCH   2   3
ATOM      3  C   UNL     1      15.917  15.279  27.312  1.00  0.00    -0.025 C 
ATOM      4  C   UNL     1      16.301  16.132  26.355  1.00  0.00     0.020 C 
BRANCH   4   5
ATOM      5  C   UNL     1      16.394  15.739  24.940  1.00  0.00     0.064 C 
ATOM      6  O   UNL     1      15.483  16.035  24.121  1.00  0.00    -0.545 OA
ATOM      7  O   UNL     1      17.503  15.031  24.499  1.00  0.00    -0.545 OA
ENDBRANCH   4   5
ENDBRANCH   2   3
ENDBRANCH   1   2
BRANCH   1   8
ATOM      8  C   UNL     1      15.935  14.078  30.728  1.00  0.00     0.000 C 
BRANCH   8   9
ATOM      9  C   UNL     1      17.264  14.825  30.913  1.00  0.00    -0.000 C 
BRANCH   9  10
ATOM     10  C   UNL     1      18.098  14.195  32.034  1.00  0.00    -0.003 C 
ATOM     11  C   UNL     1      17.565  12.816  32.411  1.00  0.00     0.004 C 
ENDBRANCH   9  10
ENDBRANCH   8   9
ENDBRANCH   1   8
TORSDOF 6
ENDMDL
MODEL 3
REMARK VINA RESULT:    -3.697      4.107      4.876
REMARK INTER + INTRA:          -5.293
REMARK INTER:                  -4.920
REMARK INTRA:                  -0.373
REMARK UNBOUND:                -0.299
REMARK SMILES CCCCCCC=CC(=O)[O-]
REMARK SMILES IDX 5 1 6 2 7 3 8 4 9 5 10 6 11 7 4 8 3 9 2 10 1 11
REMARK H PARENT
REMARK Flexibility Score: inf
ROOT
ATOM      1  C   UNL     1      15.847  15.595  28.474  1.00  0.00     0.004 C 
ENDROOT
BRANCH   1   2
ATOM      2  C   UNL     1      14.810  14.464  28.401  1.00  0.00     0.027 C 
BRANCH   2   3
ATOM      3  C   UNL     1      14.013  14.378  29.671  1.00  0.00    -0.025 C 
ATOM      4  C   UNL     1      12.683  14.520  29.672  1.00  0.00     0.020 C 
BRANCH   4   5
ATOM      5  C   UNL     1      11.880  14.426  30.902  1.00  0.00     0.064 C 
ATOM      6  O   UNL     1      10.832  15.110  31.049  1.00  0.00    -0.545 OA
ATOM      7  O   UNL     1      12.285  13.571  31.918  1.00  0.00    -0.545 OA
ENDBRANCH   4   5
ENDBRANCH   2   3
ENDBRANCH   1   2
BRANCH   1   8
ATOM      8  C   UNL     1      16.341  15.854  29.905  1.00  0.00     0.000 C 
BRANCH   8   9
ATOM      9  C   UNL     1      17.558  14.993  30.275  1.00  0.00    -0.000 C 
BRANCH   9  10
ATOM     10  C   UNL     1      17.263  14.126  31.504  1.00  0.00    -0.003 C 
ATOM     11  C   UNL     1      18.481  14.032  32.419  1.00  0.00     0.004 C 
ENDBRANCH   9  10
ENDBRANCH   8   9
ENDBRANCH   1   8
TORSDOF 6
ENDMDL
MODEL 4
REMARK VINA RESULT:    -3.661      3.677      6.085
REMARK INTER + INTRA:          -5.243
REMARK INTER:                  -4.894
REMARK INTRA:                  -0.350
REMARK UNBOUND:                -0.299
REMARK SMILES CCCCCCC=CC(=O)[O-]
REMARK SMILES IDX 5 1 6 2 7 3 8 4 9 5 10 6 11 7 4 8 3 9 2 10 1 11
REMARK H PARENT
REMARK Flexibility Score: inf
ROOT
ATOM      1  C   UNL     1      15.506  15.056  28.851  1.00  0.00     0.004 C 
ENDROOT
BRANCH   1   2
ATOM      2  C   UNL     1      16.246  16.016  29.795  1.00  0.00     0.027 C 
BRANCH   2   3
ATOM      3  C   UNL     1      17.252  15.282  30.633  1.00  0.00    -0.025 C 
ATOM      4  C   UNL     1      16.918  14.191  31.332  1.00  0.00     0.020 C 
BRANCH   4   5
ATOM      5  C   UNL     1      17.890  13.448  32.149  1.00  0.00     0.064 C 
ATOM      6  O   UNL     1      17.859  12.190  32.214  1.00  0.00    -0.545 OA
ATOM      7  O   UNL     1      18.858  14.144  32.860  1.00  0.00    -0.545 OA
ENDBRANCH   4   5
ENDBRANCH   2   3
ENDBRANCH   1   2
BRANCH   1   8
ATOM      8  C   UNL     1      15.738  15.388  27.369  1.00  0.00     0.000 C 
BRANCH   8   9
ATOM      9  C   UNL     1      17.199  15.188  26.940  1.00  0.00    -0.000 C 
BRANCH   9  10
ATOM     10  C   UNL     1      17.491  15.919  25.624  1.00  0.00    -0.003 C 
ATOM     11  C   UNL     1      16.200  16.271  24.890  1.00  0.00     0.004 C 
ENDBRANCH   9  10
ENDBRANCH   8   9
ENDBRANCH   1   8
TORSDOF 6
ENDMDL
MODEL 5
REMARK VINA RESULT:    -3.654      3.659      5.107
REMARK INTER + INTRA:          -5.234
REMARK INTER:                  -4.615
REMARK INTRA:                  -0.619
REMARK UNBOUND:                -0.299
REMARK SMILES CCCCCCC=CC(=O)[O-]
REMARK SMILES IDX 5 1 6 2 7 3 8 4 9 5 10 6 11 7 4 8 3 9 2 10 1 11
REMARK H PARENT
REMARK Flexibility Score: inf
ROOT
ATOM      1  C   UNL     1      16.509  12.712  31.125  1.00  0.00     0.004 C 
ENDROOT
BRANCH   1   2
ATOM      2  C   UNL     1      15.052  12.496  31.563  1.00  0.00     0.027 C 
BRANCH   2   3
ATOM      3  C   UNL     1      14.103  13.252  30.678  1.00  0.00    -0.025 C 
ATOM      4  C   UNL     1      12.981  13.797  31.161  1.00  0.00     0.020 C 
BRANCH   4   5
ATOM      5  C   UNL     1      12.044  14.553  30.315  1.00  0.00     0.064 C 
ATOM      6  O   UNL     1      11.119  15.241  30.823  1.00  0.00    -0.545 OA
ATOM      7  O   UNL     1      12.181  14.507  28.934  1.00  0.00    -0.545 OA
ENDBRANCH   4   5
ENDBRANCH   2   3
ENDBRANCH   1   2
BRANCH   1   8
ATOM      8  C   UNL     1      17.078  14.056  31.603  1.00  0.00     0.000 C 
BRANCH   8   9
ATOM      9  C   UNL     1      17.591  14.927  30.446  1.00  0.00    -0.000 C 
BRANCH   9  10
ATOM     10  C   UNL     1      16.549  15.977  30.045  1.00  0.00    -0.003 C 
ATOM     11  C   UNL     1      15.947  15.664  28.678  1.00  0.00     0.004 C 
ENDBRANCH   9  10
ENDBRANCH   8   9
ENDBRANCH   1   8
TORSDOF 6
ENDMDL
MODEL 6
REMARK VINA RESULT:    -3.614      1.496      2.233
REMARK INTER + INTRA:          -5.180
REMARK INTER:                  -4.716
REMARK INTRA:                  -0.464
REMARK UNBOUND:                -0.299
REMARK SMILES CCCCCCC=CC(=O)[O-]
REMARK SMILES IDX 5 1 6 2 7 3 8 4 9 5 10 6 11 7 4 8 3 9 2 10 1 11
REMARK H PARENT
REMARK Flexibility Score: inf
ROOT
ATOM      1  C   UNL     1      16.596  14.070  31.204  1.00  0.00     0.004 C 
ENDROOT
BRANCH   1   2
ATOM      2  C   UNL     1      17.060  15.353  30.497  1.00  0.00     0.027 C 
BRANCH   2   3
ATOM      3  C   UNL     1      17.020  15.193  29.004  1.00  0.00    -0.025 C 
ATOM      4  C   UNL     1      15.966  15.597  28.287  1.00  0.00     0.020 C 
BRANCH   4   5
ATOM      5  C   UNL     1      15.910  15.463  26.822  1.00  0.00     0.064 C 
ATOM      6  O   UNL     1      15.670  14.352  26.279  1.00  0.00    -0.545 OA
ATOM      7  O   UNL     1      16.127  16.579  26.026  1.00  0.00    -0.545 OA
ENDBRANCH   4   5
ENDBRANCH   2   3
ENDBRANCH   1   2
BRANCH   1   8
ATOM      8  C   UNL     1      17.752  13.316  31.879  1.00  0.00     0.000 C 
BRANCH   8   9
ATOM      9  C   UNL     1      18.812  14.260  32.465  1.00  0.00    -0.000 C 
BRANCH   9  10
ATOM     10  C   UNL     1      20.224  13.822  32.056  1.00  0.00    -0.003 C 
ATOM     11  C   UNL     1      20.451  14.016  30.560  1.00  0.00     0.004 C 
ENDBRANCH   9  10
ENDBRANCH   8   9
ENDBRANCH   1   8
TORSDOF 6
ENDMDL
MODEL 7
REMARK VINA RESULT:    -3.607      3.880      6.079
REMARK INTER + INTRA:          -5.170
REMARK INTER:                  -4.773
REMARK INTRA:                  -0.398
REMARK UNBOUND:                -0.299
REMARK SMILES CCCCCCC=CC(=O)[O-]
REMARK SMILES IDX 5 1 6 2 7 3 8 4 9 5 10 6 11 7 4 8 3 9 2 10 1 11
REMARK H PARENT
REMARK Flexibility Score: inf
ROOT
ATOM      1  C   UNL     1      15.692  15.386  29.401  1.00  0.00     0.004 C 
ENDROOT
BRANCH   1   2
ATOM      2  C   UNL     1      16.917  15.844  30.207  1.00  0.00     0.027 C 
BRANCH   2   3
ATOM      3  C   UNL     1      17.357  14.783  31.174  1.00  0.00    -0.025 C 
ATOM      4  C   UNL     1      16.678  13.639  31.312  1.00  0.00     0.020 C 
BRANCH   4   5
ATOM      5  C   UNL     1      17.098  12.580  32.243  1.00  0.00     0.064 C 
ATOM      6  O   UNL     1      18.011  12.780  33.089  1.00  0.00    -0.545 OA
ATOM      7  O   UNL     1      16.479  11.338  32.189  1.00  0.00    -0.545 OA
ENDBRANCH   4   5
ENDBRANCH   2   3
ENDBRANCH   1   2
BRANCH   1   8
ATOM      8  C   UNL     1      15.853  15.623  27.892  1.00  0.00     0.000 C 
BRANCH   8   9
ATOM      9  C   UNL     1      17.197  15.111  27.353  1.00  0.00    -0.000 C 
BRANCH   9  10
ATOM     10  C   UNL     1      17.461  15.644  25.940  1.00  0.00    -0.003 C 
ATOM     11  C   UNL     1      16.213  16.297  25.354  1.00  0.00     0.004 C 
ENDBRANCH   9  10
ENDBRANCH   8   9
ENDBRANCH   1   8
TORSDOF 6
ENDMDL
MODEL 8
REMARK VINA RESULT:    -3.413      1.949      2.435
REMARK INTER + INTRA:          -4.909
REMARK INTER:                  -4.407
REMARK INTRA:                  -0.502
REMARK UNBOUND:                -0.299
REMARK SMILES CCCCCCC=CC(=O)[O-]
REMARK SMILES IDX 5 1 6 2 7 3 8 4 9 5 10 6 11 7 4 8 3 9 2 10 1 11
REMARK H PARENT
REMARK Flexibility Score: inf
ROOT
ATOM      1  C   UNL     1      16.205  15.685  29.432  1.00  0.00     0.004 C 
ENDROOT
BRANCH   1   2
ATOM      2  C   UNL     1      15.886  15.690  27.928  1.00  0.00     0.027 C 
BRANCH   2   3
ATOM      3  C   UNL     1      16.920  14.924  27.153  1.00  0.00    -0.025 C 
ATOM      4  C   UNL     1      18.142  14.701  27.649  1.00  0.00     0.020 C 
BRANCH   4   5
ATOM      5  C   UNL     1      19.165  13.941  26.914  1.00  0.00     0.064 C 
ATOM      6  O   UNL     1      20.322  13.780  27.387  1.00  0.00    -0.545 OA
ATOM      7  O   UNL     1      18.852  13.393  25.678  1.00  0.00    -0.545 OA
ENDBRANCH   4   5
ENDBRANCH   2   3
ENDBRANCH   1   2
BRANCH   1   8
ATOM      8  C   UNL     1      15.467  14.571  30.189  1.00  0.00     0.000 C 
BRANCH   8   9
ATOM      9  C   UNL     1      16.403  13.744  31.083  1.00  0.00    -0.000 C 
BRANCH   9  10
ATOM     10  C   UNL     1      17.642  14.554  31.480  1.00  0.00    -0.003 C 
ATOM     11  C   UNL     1      18.484  13.808  32.511  1.00  0.00     0.004 C 
ENDBRANCH   9  10
ENDBRANCH   8   9
ENDBRANCH   1   8
TORSDOF 6
ENDMDL
MODEL 9
REMARK VINA RESULT:    -3.368      9.299     11.258
REMARK INTER + INTRA:          -4.848
REMARK INTER:                  -4.217
REMARK INTRA:                  -0.631
REMARK UNBOUND:                -0.299
REMARK SMILES CCCCCCC=CC(=O)[O-]
REMARK SMILES IDX 5 1 6 2 7 3 8 4 9 5 10 6 11 7 4 8 3 9 2 10 1 11
REMARK H PARENT
REMARK Flexibility Score: inf
ROOT
ATOM      1  C   UNL     1       6.734  18.839  26.622  1.00  0.00     0.004 C 
ENDROOT
BRANCH   1   2
ATOM      2  C   UNL     1       8.229  18.489  26.702  1.00  0.00     0.027 C 
BRANCH   2   3
ATOM      3  C   UNL     1       8.496  17.123  26.138  1.00  0.00    -0.025 C 
ATOM      4  C   UNL     1       8.688  16.934  24.828  1.00  0.00     0.020 C 
BRANCH   4   5
ATOM      5  C   UNL     1       8.966  15.607  24.254  1.00  0.00     0.064 C 
ATOM      6  O   UNL     1       9.356  14.654  24.979  1.00  0.00    -0.545 OA
ATOM      7  O   UNL     1       8.794  15.403  22.892  1.00  0.00    -0.545 OA
ENDBRANCH   4   5
ENDBRANCH   2   3
ENDBRANCH   1   2
BRANCH   1   8
ATOM      8  C   UNL     1       6.470  20.125  25.825  1.00  0.00     0.000 C 
BRANCH   8   9
ATOM      9  C   UNL     1       5.761  19.858  24.488  1.00  0.00    -0.000 C 
BRANCH   9  10
ATOM     10  C   UNL     1       6.771  19.784  23.337  1.00  0.00    -0.003 C 
ATOM     11  C   UNL     1       6.439  18.639  22.384  1.00  0.00     0.004 C 
ENDBRANCH   9  10
ENDBRANCH   8   9
ENDBRANCH   1   8
TORSDOF 6
ENDMDL
