MODEL 1
REMARK VINA RESULT:    -3.802      0.000      0.000
REMARK INTER + INTRA:          -7.843
REMARK INTER:                  -6.469
REMARK INTRA:                  -1.374
REMARK UNBOUND:                -1.374
REMARK SMILES CCCCCCCCCCCCCC(=O)[O-]
REMARK SMILES IDX 8 1 9 2 10 3 11 4 12 5 13 6 14 7 15 8 16 9 7 10 6 11 5 12
REMARK SMILES IDX 4 13 3 14 2 15 1 16
REMARK H PARENT
REMARK Flexibility Score: inf
ROOT
ATOM      1  C   UNL     1      11.853   3.831  51.825  1.00  0.00     0.000 C 
ENDROOT
BRANCH   1   2
ATOM      2  C   UNL     1      10.998   2.569  51.625  1.00  0.00     0.000 C 
BRANCH   2   3
ATOM      3  C   UNL     1      10.338   2.513  50.239  1.00  0.00     0.000 C 
BRANCH   3   4
ATOM      4  C   UNL     1       8.855   2.128  50.354  1.00  0.00     0.000 C 
BRANCH   4   5
ATOM      5  C   UNL     1       8.111   2.943  51.423  1.00  0.00     0.006 C 
BRANCH   5   6
ATOM      6  C   UNL     1       6.595   2.981  51.188  1.00  0.00     0.053 C 
BRANCH   6   7
ATOM      7  C   UNL     1       6.096   4.391  51.228  1.00  0.00     0.041 C 
ATOM      8  O   UNL     1       4.939   4.642  51.659  1.00  0.00    -0.550 OA
ATOM      9  O   UNL     1       6.890   5.424  50.744  1.00  0.00    -0.550 OA
ENDBRANCH   6   7
ENDBRANCH   5   6
ENDBRANCH   4   5
ENDBRANCH   3   4
ENDBRANCH   2   3
ENDBRANCH   1   2
BRANCH   1  10
ATOM     10  C   UNL     1      11.419   4.990  50.914  1.00  0.00     0.000 C 
BRANCH  10  11
ATOM     11  C   UNL     1      10.369   5.903  51.569  1.00  0.00    -0.000 C 
BRANCH  11  12
ATOM     12  C   UNL     1      10.360   5.832  53.110  1.00  0.00    -0.000 C 
BRANCH  12  13
ATOM     13  C   UNL     1       9.032   5.290  53.659  1.00  0.00    -0.000 C 
BRANCH  13  14
ATOM     14  C   UNL     1       8.830   5.701  55.122  1.00  0.00    -0.000 C 
BRANCH  14  15
ATOM     15  C   UNL     1       7.709   4.884  55.774  1.00  0.00    -0.003 C 
ATOM     16  C   UNL     1       6.622   4.534  54.763  1.00  0.00     0.004 C 
ENDBRANCH  14  15
ENDBRANCH  13  14
ENDBRANCH  12  13
ENDBRANCH  11  12
ENDBRANCH  10  11
ENDBRANCH   1  10
TORSDOF 12
ENDMDL
MODEL 2
REMARK VINA RESULT:    -3.624      2.240      4.528
REMARK INTER + INTRA:          -7.540
REMARK INTER:                  -6.021
REMARK INTRA:                  -1.520
REMARK UNBOUND:                -1.374
REMARK SMILES CCCCCCCCCCCCCC(=O)[O-]
REMARK SMILES IDX 8 1 9 2 10 3 11 4 12 5 13 6 14 7 15 8 16 9 7 10 6 11 5 12
REMARK SMILES IDX 4 13 3 14 2 15 1 16
REMARK H PARENT
REMARK Flexibility Score: inf
ROOT
ATOM      1  C   UNL     1       8.148   3.933  53.202  1.00  0.00     0.000 C 
ENDROOT
BRANCH   1   2
ATOM      2  C   UNL     1       6.625   4.134  53.262  1.00  0.00     0.000 C 
BRANCH   2   3
ATOM      3  C   UNL     1       5.941   3.897  51.907  1.00  0.00     0.000 C 
BRANCH   3   4
ATOM      4  C   UNL     1       5.542   5.229  51.255  1.00  0.00     0.000 C 
BRANCH   4   5
ATOM      5  C   UNL     1       4.035   5.321  50.968  1.00  0.00     0.006 C 
BRANCH   5   6
ATOM      6  C   UNL     1       3.367   3.943  50.873  1.00  0.00     0.053 C 
BRANCH   6   7
ATOM      7  C   UNL     1       1.880   4.088  50.800  1.00  0.00     0.041 C 
ATOM      8  O   UNL     1       1.364   5.208  50.543  1.00  0.00    -0.550 OA
ATOM      9  O   UNL     1       1.062   2.997  51.067  1.00  0.00    -0.550 OA
ENDBRANCH   6   7
ENDBRANCH   5   6
ENDBRANCH   4   5
ENDBRANCH   3   4
ENDBRANCH   2   3
ENDBRANCH   1   2
BRANCH   1  10
ATOM     10  C   UNL     1       8.926   5.234  53.450  1.00  0.00     0.000 C 
BRANCH  10  11
ATOM     11  C   UNL     1       9.900   5.576  52.309  1.00  0.00    -0.000 C 
BRANCH  11  12
ATOM     12  C   UNL     1       9.198   5.930  50.981  1.00  0.00    -0.000 C 
BRANCH  12  13
ATOM     13  C   UNL     1       9.411   4.852  49.907  1.00  0.00    -0.000 C 
BRANCH  13  14
ATOM     14  C   UNL     1      10.615   3.965  50.247  1.00  0.00    -0.000 C 
BRANCH  14  15
ATOM     15  C   UNL     1      10.183   2.512  50.470  1.00  0.00    -0.003 C 
ATOM     16  C   UNL     1       8.764   2.274  49.961  1.00  0.00     0.004 C 
ENDBRANCH  14  15
ENDBRANCH  13  14
ENDBRANCH  12  13
ENDBRANCH  11  12
ENDBRANCH  10  11
ENDBRANCH   1  10
TORSDOF 12
ENDMDL
MODEL 3
REMARK VINA RESULT:    -3.566      2.252      4.504
REMARK INTER + INTRA:          -7.441
REMARK INTER:                  -6.260
REMARK INTRA:                  -1.181
REMARK UNBOUND:                -1.374
REMARK SMILES CCCCCCCCCCCCCC(=O)[O-]
REMARK SMILES IDX 8 1 9 2 10 3 11 4 12 5 13 6 14 7 15 8 16 9 7 10 6 11 5 12
REMARK SMILES IDX 4 13 3 14 2 15 1 16
REMARK H PARENT
REMARK Flexibility Score: inf
ROOT
ATOM      1  C   UNL     1       7.995   4.132  53.100  1.00  0.00     0.000 C 
ENDROOT
BRANCH   1   2
ATOM      2  C   UNL     1       6.461   4.135  53.003  1.00  0.00     0.000 C 
BRANCH   2   3
ATOM      3  C   UNL     1       5.948   3.538  51.684  1.00  0.00     0.000 C 
BRANCH   3   4
ATOM      4  C   UNL     1       5.360   4.633  50.780  1.00  0.00     0.000 C 
BRANCH   4   5
ATOM      5  C   UNL     1       4.186   5.376  51.436  1.00  0.00     0.006 C 
BRANCH   5   6
ATOM      6  C   UNL     1       3.038   5.647  50.455  1.00  0.00     0.053 C 
BRANCH   6   7
ATOM      7  C   UNL     1       1.879   4.747  50.748  1.00  0.00     0.041 C 
ATOM      8  O   UNL     1       0.700   5.161  50.592  1.00  0.00    -0.550 OA
ATOM      9  O   UNL     1       2.100   3.467  51.240  1.00  0.00    -0.550 OA
ENDBRANCH   6   7
ENDBRANCH   5   6
ENDBRANCH   4   5
ENDBRANCH   3   4
ENDBRANCH   2   3
ENDBRANCH   1   2
BRANCH   1  10
ATOM     10  C   UNL     1       8.660   3.398  51.925  1.00  0.00     0.000 C 
BRANCH  10  11
ATOM     11  C   UNL     1      10.109   2.978  52.225  1.00  0.00    -0.000 C 
BRANCH  11  12
ATOM     12  C   UNL     1      11.097   3.300  51.085  1.00  0.00    -0.000 C 
BRANCH  12  13
ATOM     13  C   UNL     1      11.731   4.690  51.242  1.00  0.00    -0.000 C 
BRANCH  13  14
ATOM     14  C   UNL     1      11.138   5.684  50.236  1.00  0.00    -0.000 C 
BRANCH  14  15
ATOM     15  C   UNL     1      10.118   6.608  50.910  1.00  0.00    -0.003 C 
ATOM     16  C   UNL     1       8.767   6.545  50.206  1.00  0.00     0.004 C 
ENDBRANCH  14  15
ENDBRANCH  13  14
ENDBRANCH  12  13
ENDBRANCH  11  12
ENDBRANCH  10  11
ENDBRANCH   1  10
TORSDOF 12
ENDMDL
MODEL 4
REMARK VINA RESULT:    -3.454      2.201      4.662
REMARK INTER + INTRA:          -7.251
REMARK INTER:                  -5.888
REMARK INTRA:                  -1.363
REMARK UNBOUND:                -1.374
REMARK SMILES CCCCCCCCCCCCCC(=O)[O-]
REMARK SMILES IDX 8 1 9 2 10 3 11 4 12 5 13 6 14 7 15 8 16 9 7 10 6 11 5 12
REMARK SMILES IDX 4 13 3 14 2 15 1 16
REMARK H PARENT
REMARK Flexibility Score: inf
ROOT
ATOM      1  C   UNL     1       9.438   5.981  54.087  1.00  0.00     0.000 C 
ENDROOT
BRANCH   1   2
ATOM      2  C   UNL     1      10.462   5.581  53.012  1.00  0.00     0.000 C 
BRANCH   2   3
ATOM      3  C   UNL     1      10.476   6.547  51.817  1.00  0.00     0.000 C 
BRANCH   3   4
ATOM      4  C   UNL     1      11.594   6.179  50.829  1.00  0.00     0.000 C 
BRANCH   4   5
ATOM      5  C   UNL     1      11.887   4.671  50.800  1.00  0.00     0.006 C 
BRANCH   5   6
ATOM      6  C   UNL     1      10.879   3.891  49.946  1.00  0.00     0.053 C 
BRANCH   6   7
ATOM      7  C   UNL     1      10.459   2.638  50.648  1.00  0.00     0.041 C 
ATOM      8  O   UNL     1      11.145   2.187  51.603  1.00  0.00    -0.550 OA
ATOM      9  O   UNL     1       9.338   1.941  50.216  1.00  0.00    -0.550 OA
ENDBRANCH   6   7
ENDBRANCH   5   6
ENDBRANCH   4   5
ENDBRANCH   3   4
ENDBRANCH   2   3
ENDBRANCH   1   2
BRANCH   1  10
ATOM     10  C   UNL     1       8.315   4.944  54.248  1.00  0.00     0.000 C 
BRANCH  10  11
ATOM     11  C   UNL     1       8.105   4.090  52.986  1.00  0.00    -0.000 C 
BRANCH  11  12
ATOM     12  C   UNL     1       6.876   4.509  52.152  1.00  0.00    -0.000 C 
BRANCH  12  13
ATOM     13  C   UNL     1       7.265   4.994  50.748  1.00  0.00    -0.000 C 
BRANCH  13  14
ATOM     14  C   UNL     1       6.027   5.413  49.946  1.00  0.00    -0.000 C 
BRANCH  14  15
ATOM     15  C   UNL     1       4.835   5.679  50.872  1.00  0.00    -0.003 C 
ATOM     16  C   UNL     1       4.271   7.080  50.658  1.00  0.00     0.004 C 
ENDBRANCH  14  15
ENDBRANCH  13  14
ENDBRANCH  12  13
ENDBRANCH  11  12
ENDBRANCH  10  11
ENDBRANCH   1  10
TORSDOF 12
ENDMDL
MODEL 5
REMARK VINA RESULT:    -3.296      3.494      5.947
REMARK INTER + INTRA:          -6.982
REMARK INTER:                  -5.718
REMARK INTRA:                  -1.265
REMARK UNBOUND:                -1.374
REMARK SMILES CCCCCCCCCCCCCC(=O)[O-]
REMARK SMILES IDX 8 1 9 2 10 3 11 4 12 5 13 6 14 7 15 8 16 9 7 10 6 11 5 12
REMARK SMILES IDX 4 13 3 14 2 15 1 16
REMARK H PARENT
REMARK Flexibility Score: inf
ROOT
ATOM      1  C   UNL     1       7.205   4.491  52.457  1.00  0.00     0.000 C 
ENDROOT
BRANCH   1   2
ATOM      2  C   UNL     1       7.994   4.681  51.152  1.00  0.00     0.000 C 
BRANCH   2   3
ATOM      3  C   UNL     1       7.686   6.018  50.461  1.00  0.00     0.000 C 
BRANCH   3   4
ATOM      4  C   UNL     1       8.980   6.714  50.014  1.00  0.00     0.000 C 
BRANCH   4   5
ATOM      5  C   UNL     1      10.237   5.882  50.316  1.00  0.00     0.006 C 
BRANCH   5   6
ATOM      6  C   UNL     1      11.300   6.678  51.084  1.00  0.00     0.053 C 
BRANCH   6   7
ATOM      7  C   UNL     1      12.657   6.428  50.505  1.00  0.00     0.041 C 
ATOM      8  O   UNL     1      12.987   5.268  50.142  1.00  0.00    -0.550 OA
ATOM      9  O   UNL     1      13.576   7.466  50.413  1.00  0.00    -0.550 OA
ENDBRANCH   6   7
ENDBRANCH   5   6
ENDBRANCH   4   5
ENDBRANCH   3   4
ENDBRANCH   2   3
ENDBRANCH   1   2
BRANCH   1  10
ATOM     10  C   UNL     1       6.022   3.523  52.296  1.00  0.00     0.000 C 
BRANCH  10  11
ATOM     11  C   UNL     1       5.896   2.965  50.869  1.00  0.00    -0.000 C 
BRANCH  11  12
ATOM     12  C   UNL     1       4.663   3.489  50.104  1.00  0.00    -0.000 C 
BRANCH  12  13
ATOM     13  C   UNL     1       3.699   4.261  51.017  1.00  0.00    -0.000 C 
BRANCH  13  14
ATOM     14  C   UNL     1       3.341   5.625  50.415  1.00  0.00    -0.000 C 
BRANCH  14  15
ATOM     15  C   UNL     1       4.197   6.739  51.029  1.00  0.00    -0.003 C 
ATOM     16  C   UNL     1       4.402   7.884  50.042  1.00  0.00     0.004 C 
ENDBRANCH  14  15
ENDBRANCH  13  14
ENDBRANCH  12  13
ENDBRANCH  11  12
ENDBRANCH  10  11
ENDBRANCH   1  10
TORSDOF 12
ENDMDL
MODEL 6
REMARK VINA RESULT:    -3.206      3.289      5.654
REMARK INTER + INTRA:          -6.829
REMARK INTER:                  -5.626
REMARK INTRA:                  -1.204
REMARK UNBOUND:                -1.374
REMARK SMILES CCCCCCCCCCCCCC(=O)[O-]
REMARK SMILES IDX 8 1 9 2 10 3 11 4 12 5 13 6 14 7 15 8 16 9 7 10 6 11 5 12
REMARK SMILES IDX 4 13 3 14 2 15 1 16
REMARK H PARENT
REMARK Flexibility Score: inf
ROOT
ATOM      1  C   UNL     1       5.895   3.875  52.270  1.00  0.00     0.000 C 
ENDROOT
BRANCH   1   2
ATOM      2  C   UNL     1       5.523   4.850  51.141  1.00  0.00     0.000 C 
BRANCH   2   3
ATOM      3  C   UNL     1       4.339   5.758  51.506  1.00  0.00     0.000 C 
BRANCH   3   4
ATOM      4  C   UNL     1       3.280   5.752  50.393  1.00  0.00     0.000 C 
BRANCH   4   5
ATOM      5  C   UNL     1       2.377   4.509  50.439  1.00  0.00     0.006 C 
BRANCH   5   6
ATOM      6  C   UNL     1       0.889   4.865  50.556  1.00  0.00     0.053 C 
BRANCH   6   7
ATOM      7  C   UNL     1       0.046   3.639  50.403  1.00  0.00     0.041 C 
ATOM      8  O   UNL     1       0.587   2.506  50.298  1.00  0.00    -0.550 OA
ATOM      9  O   UNL     1      -1.337   3.750  50.327  1.00  0.00    -0.550 OA
ENDBRANCH   6   7
ENDBRANCH   5   6
ENDBRANCH   4   5
ENDBRANCH   3   4
ENDBRANCH   2   3
ENDBRANCH   1   2
BRANCH   1  10
ATOM     10  C   UNL     1       6.552   2.588  51.747  1.00  0.00     0.000 C 
BRANCH  10  11
ATOM     11  C   UNL     1       7.369   2.814  50.463  1.00  0.00    -0.000 C 
BRANCH  11  12
ATOM     12  C   UNL     1       8.817   2.287  50.550  1.00  0.00    -0.000 C 
BRANCH  12  13
ATOM     13  C   UNL     1       9.850   3.424  50.530  1.00  0.00    -0.000 C 
BRANCH  13  14
ATOM     14  C   UNL     1       9.166   4.789  50.393  1.00  0.00    -0.000 C 
BRANCH  14  15
ATOM     15  C   UNL     1       9.579   5.729  51.531  1.00  0.00    -0.003 C 
ATOM     16  C   UNL     1       9.206   5.146  52.890  1.00  0.00     0.004 C 
ENDBRANCH  14  15
ENDBRANCH  13  14
ENDBRANCH  12  13
ENDBRANCH  11  12
ENDBRANCH  10  11
ENDBRANCH   1  10
TORSDOF 12
ENDMDL
MODEL 7
REMARK VINA RESULT:    -3.177      4.240      6.999
REMARK INTER + INTRA:          -6.780
REMARK INTER:                  -6.152
REMARK INTRA:                  -0.628
REMARK UNBOUND:                -1.374
REMARK SMILES CCCCCCCCCCCCCC(=O)[O-]
REMARK SMILES IDX 8 1 9 2 10 3 11 4 12 5 13 6 14 7 15 8 16 9 7 10 6 11 5 12
REMARK SMILES IDX 4 13 3 14 2 15 1 16
REMARK H PARENT
REMARK Flexibility Score: inf
ROOT
ATOM      1  C   UNL     1       5.476   4.887  51.772  1.00  0.00     0.000 C 
ENDROOT
BRANCH   1   2
ATOM      2  C   UNL     1       5.715   3.565  51.024  1.00  0.00     0.000 C 
BRANCH   2   3
ATOM      3  C   UNL     1       6.781   2.687  51.697  1.00  0.00     0.000 C 
BRANCH   3   4
ATOM      4  C   UNL     1       8.193   3.204  51.384  1.00  0.00     0.000 C 
BRANCH   4   5
ATOM      5  C   UNL     1       8.907   3.768  52.623  1.00  0.00     0.006 C 
BRANCH   5   6
ATOM      6  C   UNL     1       9.214   5.265  52.496  1.00  0.00     0.053 C 
BRANCH   6   7
ATOM      7  C   UNL     1      10.681   5.483  52.303  1.00  0.00     0.041 C 
ATOM      8  O   UNL     1      11.163   6.645  52.364  1.00  0.00    -0.550 OA
ATOM      9  O   UNL     1      11.510   4.409  52.005  1.00  0.00    -0.550 OA
ENDBRANCH   6   7
ENDBRANCH   5   6
ENDBRANCH   4   5
ENDBRANCH   3   4
ENDBRANCH   2   3
ENDBRANCH   1   2
BRANCH   1  10
ATOM     10  C   UNL     1       4.170   5.578  51.349  1.00  0.00     0.000 C 
BRANCH  10  11
ATOM     11  C   UNL     1       3.309   4.708  50.417  1.00  0.00    -0.000 C 
BRANCH  11  12
ATOM     12  C   UNL     1       1.869   4.492  50.926  1.00  0.00    -0.000 C 
BRANCH  12  13
ATOM     13  C   UNL     1       0.837   5.271  50.096  1.00  0.00    -0.000 C 
BRANCH  13  14
ATOM     14  C   UNL     1      -0.592   4.943  50.544  1.00  0.00    -0.000 C 
BRANCH  14  15
ATOM     15  C   UNL     1      -1.098   3.659  49.877  1.00  0.00    -0.003 C 
ATOM     16  C   UNL     1      -2.339   3.123  50.583  1.00  0.00     0.004 C 
ENDBRANCH  14  15
ENDBRANCH  13  14
ENDBRANCH  12  13
ENDBRANCH  11  12
ENDBRANCH  10  11
ENDBRANCH   1  10
TORSDOF 12
ENDMDL
MODEL 8
REMARK VINA RESULT:    -3.085      2.997      5.645
REMARK INTER + INTRA:          -6.623
REMARK INTER:                  -5.496
REMARK INTRA:                  -1.128
REMARK UNBOUND:                -1.374
REMARK SMILES CCCCCCCCCCCCCC(=O)[O-]
REMARK SMILES IDX 8 1 9 2 10 3 11 4 12 5 13 6 14 7 15 8 16 9 7 10 6 11 5 12
REMARK SMILES IDX 4 13 3 14 2 15 1 16
REMARK H PARENT
REMARK Flexibility Score: inf
ROOT
ATOM      1  C   UNL     1       6.594   4.483  52.183  1.00  0.00     0.000 C 
ENDROOT
BRANCH   1   2
ATOM      2  C   UNL     1       5.283   5.258  51.970  1.00  0.00     0.000 C 
BRANCH   2   3
ATOM      3  C   UNL     1       5.143   5.807  50.542  1.00  0.00     0.000 C 
BRANCH   3   4
ATOM      4  C   UNL     1       3.861   5.283  49.877  1.00  0.00     0.000 C 
BRANCH   4   5
ATOM      5  C   UNL     1       2.781   4.890  50.897  1.00  0.00     0.006 C 
BRANCH   5   6
ATOM      6  C   UNL     1       2.223   3.482  50.654  1.00  0.00     0.053 C 
BRANCH   6   7
ATOM      7  C   UNL     1       0.728   3.511  50.625  1.00  0.00     0.041 C 
ATOM      8  O   UNL     1       0.115   4.612  50.631  1.00  0.00    -0.550 OA
ATOM      9  O   UNL     1       0.009   2.323  50.641  1.00  0.00    -0.550 OA
ENDBRANCH   6   7
ENDBRANCH   5   6
ENDBRANCH   4   5
ENDBRANCH   3   4
ENDBRANCH   2   3
ENDBRANCH   1   2
BRANCH   1  10
ATOM     10  C   UNL     1       6.393   2.960  52.142  1.00  0.00     0.000 C 
BRANCH  10  11
ATOM     11  C   UNL     1       6.540   2.375  50.727  1.00  0.00    -0.000 C 
BRANCH  11  12
ATOM     12  C   UNL     1       7.846   2.790  50.018  1.00  0.00    -0.000 C 
BRANCH  12  13
ATOM     13  C   UNL     1       9.044   1.936  50.462  1.00  0.00    -0.000 C 
BRANCH  13  14
ATOM     14  C   UNL     1      10.345   2.746  50.417  1.00  0.00    -0.000 C 
BRANCH  14  15
ATOM     15  C   UNL     1      10.816   3.111  51.829  1.00  0.00    -0.003 C 
ATOM     16  C   UNL     1      11.780   2.064  52.377  1.00  0.00     0.004 C 
ENDBRANCH  14  15
ENDBRANCH  13  14
ENDBRANCH  12  13
ENDBRANCH  11  12
ENDBRANCH  10  11
ENDBRANCH   1  10
TORSDOF 12
ENDMDL
