MODEL 1
REMARK VINA RESULT:    -4.620      0.000      0.000
REMARK INTER + INTRA:          -6.651
REMARK INTER:                  -6.240
REMARK INTRA:                  -0.411
REMARK UNBOUND:                -0.411
REMARK SMILES CCCCCCCC(=O)[O-]
REMARK SMILES IDX 5 1 6 2 7 3 8 4 9 5 10 6 4 7 3 8 2 9 1 10
REMARK H PARENT
REMARK Flexibility Score: inf
ROOT
ATOM      1  C   UNL     1      44.278  26.423   3.366  1.00  0.00     0.000 C 
ENDROOT
BRANCH   1   2
ATOM      2  C   UNL     1      45.786  26.545   3.112  1.00  0.00     0.006 C 
BRANCH   2   3
ATOM      3  C   UNL     1      46.348  25.259   2.503  1.00  0.00     0.053 C 
BRANCH   3   4
ATOM      4  C   UNL     1      47.398  24.671   3.392  1.00  0.00     0.041 C 
ATOM      5  O   UNL     1      47.229  24.646   4.639  1.00  0.00    -0.550 OA
ATOM      6  O   UNL     1      48.539  24.105   2.840  1.00  0.00    -0.550 OA
ENDBRANCH   3   4
ENDBRANCH   2   3
ENDBRANCH   1   2
BRANCH   1   7
ATOM      7  C   UNL     1      43.891  27.077   4.701  1.00  0.00     0.000 C 
BRANCH   7   8
ATOM      8  C   UNL     1      45.086  27.222   5.657  1.00  0.00    -0.000 C 
BRANCH   8   9
ATOM      9  C   UNL     1      44.922  26.391   6.938  1.00  0.00    -0.003 C 
ATOM     10  C   UNL     1      43.473  26.399   7.417  1.00  0.00     0.004 C 
ENDBRANCH   8   9
ENDBRANCH   7   8
ENDBRANCH   1   7
TORSDOF 6
ENDMDL
MODEL 2
REMARK VINA RESULT:    -4.590      2.237      4.351
REMARK INTER + INTRA:          -6.611
REMARK INTER:                  -6.200
REMARK INTRA:                  -0.410
REMARK UNBOUND:                -0.411
REMARK SMILES CCCCCCCC(=O)[O-]
REMARK SMILES IDX 5 1 6 2 7 3 8 4 9 5 10 6 4 7 3 8 2 9 1 10
REMARK H PARENT
REMARK Flexibility Score: inf
ROOT
ATOM      1  C   UNL     1      44.302  26.405   3.164  1.00  0.00     0.000 C 
ENDROOT
BRANCH   1   2
ATOM      2  C   UNL     1      43.928  27.041   4.508  1.00  0.00     0.006 C 
BRANCH   2   3
ATOM      3  C   UNL     1      45.131  27.082   5.453  1.00  0.00     0.053 C 
BRANCH   3   4
ATOM      4  C   UNL     1      44.749  26.584   6.811  1.00  0.00     0.041 C 
ATOM      5  O   UNL     1      45.603  26.010   7.538  1.00  0.00    -0.550 OA
ATOM      6  O   UNL     1      43.465  26.799   7.295  1.00  0.00    -0.550 OA
ENDBRANCH   3   4
ENDBRANCH   2   3
ENDBRANCH   1   2
BRANCH   1   7
ATOM      7  C   UNL     1      45.815  26.500   2.914  1.00  0.00     0.000 C 
BRANCH   7   8
ATOM      8  C   UNL     1      46.384  25.238   2.246  1.00  0.00    -0.000 C 
BRANCH   8   9
ATOM      9  C   UNL     1      47.732  24.808   2.844  1.00  0.00    -0.003 C 
ATOM     10  C   UNL     1      47.588  24.450   4.321  1.00  0.00     0.004 C 
ENDBRANCH   8   9
ENDBRANCH   7   8
ENDBRANCH   1   7
TORSDOF 6
ENDMDL
MODEL 3
REMARK VINA RESULT:    -4.226     15.217     16.154
REMARK INTER + INTRA:          -6.119
REMARK INTER:                  -5.837
REMARK INTRA:                  -0.282
REMARK UNBOUND:                -0.411
REMARK SMILES CCCCCCCC(=O)[O-]
REMARK SMILES IDX 5 1 6 2 7 3 8 4 9 5 10 6 4 7 3 8 2 9 1 10
REMARK H PARENT
REMARK Flexibility Score: inf
ROOT
ATOM      1  C   UNL     1      40.282  23.682  18.584  1.00  0.00     0.000 C 
ENDROOT
BRANCH   1   2
ATOM      2  C   UNL     1      41.080  23.664  19.894  1.00  0.00     0.006 C 
BRANCH   2   3
ATOM      3  C   UNL     1      42.437  22.984  19.703  1.00  0.00     0.053 C 
BRANCH   3   4
ATOM      4  C   UNL     1      42.839  22.254  20.947  1.00  0.00     0.041 C 
ATOM      5  O   UNL     1      42.804  22.837  22.062  1.00  0.00    -0.550 OA
ATOM      6  O   UNL     1      43.202  20.915  20.880  1.00  0.00    -0.550 OA
ENDBRANCH   3   4
ENDBRANCH   2   3
ENDBRANCH   1   2
BRANCH   1   7
ATOM      7  C   UNL     1      40.725  22.541  17.656  1.00  0.00     0.000 C 
BRANCH   7   8
ATOM      8  C   UNL     1      39.537  21.809  17.010  1.00  0.00    -0.000 C 
BRANCH   8   9
ATOM      9  C   UNL     1      38.335  22.734  16.766  1.00  0.00    -0.003 C 
ATOM     10  C   UNL     1      37.102  22.241  17.518  1.00  0.00     0.004 C 
ENDBRANCH   8   9
ENDBRANCH   7   8
ENDBRANCH   1   7
TORSDOF 6
ENDMDL
MODEL 4
REMARK VINA RESULT:    -4.192     15.328     16.216
REMARK INTER + INTRA:          -6.074
REMARK INTER:                  -5.764
REMARK INTRA:                  -0.310
REMARK UNBOUND:                -0.411
REMARK SMILES CCCCCCCC(=O)[O-]
REMARK SMILES IDX 5 1 6 2 7 3 8 4 9 5 10 6 4 7 3 8 2 9 1 10
REMARK H PARENT
REMARK Flexibility Score: inf
ROOT
ATOM      1  C   UNL     1      40.900  24.519  19.624  1.00  0.00     0.000 C 
ENDROOT
BRANCH   1   2
ATOM      2  C   UNL     1      42.392  24.208  19.797  1.00  0.00     0.006 C 
BRANCH   2   3
ATOM      3  C   UNL     1      42.659  22.707  19.674  1.00  0.00     0.053 C 
BRANCH   3   4
ATOM      4  C   UNL     1      42.913  22.106  21.020  1.00  0.00     0.041 C 
ATOM      5  O   UNL     1      42.819  22.814  22.057  1.00  0.00    -0.550 OA
ATOM      6  O   UNL     1      43.203  20.752  21.134  1.00  0.00    -0.550 OA
ENDBRANCH   3   4
ENDBRANCH   2   3
ENDBRANCH   1   2
BRANCH   1   7
ATOM      7  C   UNL     1      40.213  23.452  18.759  1.00  0.00     0.000 C 
BRANCH   7   8
ATOM      8  C   UNL     1      39.094  24.034  17.879  1.00  0.00    -0.000 C 
BRANCH   8   9
ATOM      9  C   UNL     1      38.523  23.006  16.892  1.00  0.00    -0.003 C 
ATOM     10  C   UNL     1      39.294  21.690  16.962  1.00  0.00     0.004 C 
ENDBRANCH   8   9
ENDBRANCH   7   8
ENDBRANCH   1   7
TORSDOF 6
ENDMDL
MODEL 5
REMARK VINA RESULT:    -4.146     15.240     16.093
REMARK INTER + INTRA:          -6.011
REMARK INTER:                  -5.656
REMARK INTRA:                  -0.355
REMARK UNBOUND:                -0.411
REMARK SMILES CCCCCCCC(=O)[O-]
REMARK SMILES IDX 5 1 6 2 7 3 8 4 9 5 10 6 4 7 3 8 2 9 1 10
REMARK H PARENT
REMARK Flexibility Score: inf
ROOT
ATOM      1  C   UNL     1      41.723  22.128  17.662  1.00  0.00     0.000 C 
ENDROOT
BRANCH   1   2
ATOM      2  C   UNL     1      42.339  22.796  18.898  1.00  0.00     0.006 C 
BRANCH   2   3
ATOM      3  C   UNL     1      41.352  23.772  19.545  1.00  0.00     0.053 C 
BRANCH   3   4
ATOM      4  C   UNL     1      41.727  24.029  20.970  1.00  0.00     0.041 C 
ATOM      5  O   UNL     1      42.294  23.132  21.647  1.00  0.00    -0.550 OA
ATOM      6  O   UNL     1      41.495  25.277  21.536  1.00  0.00    -0.550 OA
ENDBRANCH   3   4
ENDBRANCH   2   3
ENDBRANCH   1   2
BRANCH   1   7
ATOM      7  C   UNL     1      40.335  22.708  17.357  1.00  0.00     0.000 C 
BRANCH   7   8
ATOM      8  C   UNL     1      39.309  21.625  16.985  1.00  0.00    -0.000 C 
BRANCH   8   9
ATOM      9  C   UNL     1      37.872  22.020  17.354  1.00  0.00    -0.003 C 
ATOM     10  C   UNL     1      37.792  23.490  17.755  1.00  0.00     0.004 C 
ENDBRANCH   8   9
ENDBRANCH   7   8
ENDBRANCH   1   7
TORSDOF 6
ENDMDL
MODEL 6
REMARK VINA RESULT:    -3.966     14.560     15.424
REMARK INTER + INTRA:          -5.768
REMARK INTER:                  -5.465
REMARK INTRA:                  -0.303
REMARK UNBOUND:                -0.411
REMARK SMILES CCCCCCCC(=O)[O-]
REMARK SMILES IDX 5 1 6 2 7 3 8 4 9 5 10 6 4 7 3 8 2 9 1 10
REMARK H PARENT
REMARK Flexibility Score: inf
ROOT
ATOM      1  C   UNL     1      40.528  23.658  18.580  1.00  0.00     0.000 C 
ENDROOT
BRANCH   1   2
ATOM      2  C   UNL     1      41.383  23.521  19.846  1.00  0.00     0.006 C 
BRANCH   2   3
ATOM      3  C   UNL     1      42.744  22.898  19.526  1.00  0.00     0.053 C 
BRANCH   3   4
ATOM      4  C   UNL     1      43.833  23.915  19.664  1.00  0.00     0.041 C 
ATOM      5  O   UNL     1      43.736  24.834  20.519  1.00  0.00    -0.550 OA
ATOM      6  O   UNL     1      44.978  23.818  18.884  1.00  0.00    -0.550 OA
ENDBRANCH   3   4
ENDBRANCH   2   3
ENDBRANCH   1   2
BRANCH   1   7
ATOM      7  C   UNL     1      40.810  22.510  17.599  1.00  0.00     0.000 C 
BRANCH   7   8
ATOM      8  C   UNL     1      39.526  21.824  17.106  1.00  0.00    -0.000 C 
BRANCH   8   9
ATOM      9  C   UNL     1      38.417  22.826  16.755  1.00  0.00    -0.003 C 
ATOM     10  C   UNL     1      37.118  22.485  17.480  1.00  0.00     0.004 C 
ENDBRANCH   8   9
ENDBRANCH   7   8
ENDBRANCH   1   7
TORSDOF 6
ENDMDL
MODEL 7
REMARK VINA RESULT:    -3.876      9.777     11.031
REMARK INTER + INTRA:          -5.646
REMARK INTER:                  -5.408
REMARK INTRA:                  -0.239
REMARK UNBOUND:                -0.411
REMARK SMILES CCCCCCCC(=O)[O-]
REMARK SMILES IDX 5 1 6 2 7 3 8 4 9 5 10 6 4 7 3 8 2 9 1 10
REMARK H PARENT
REMARK Flexibility Score: inf
ROOT
ATOM      1  C   UNL     1      46.160  31.953  12.163  1.00  0.00     0.000 C 
ENDROOT
BRANCH   1   2
ATOM      2  C   UNL     1      44.768  31.309  12.167  1.00  0.00     0.006 C 
BRANCH   2   3
ATOM      3  C   UNL     1      44.599  30.369  13.363  1.00  0.00     0.053 C 
BRANCH   3   4
ATOM      4  C   UNL     1      43.208  30.456  13.908  1.00  0.00     0.041 C 
ATOM      5  O   UNL     1      42.758  31.557  14.321  1.00  0.00    -0.550 OA
ATOM      6  O   UNL     1      42.392  29.333  13.911  1.00  0.00    -0.550 OA
ENDBRANCH   3   4
ENDBRANCH   2   3
ENDBRANCH   1   2
BRANCH   1   7
ATOM      7  C   UNL     1      46.627  32.244  10.729  1.00  0.00     0.000 C 
BRANCH   7   8
ATOM      8  C   UNL     1      46.926  33.734  10.496  1.00  0.00    -0.000 C 
BRANCH   8   9
ATOM      9  C   UNL     1      46.363  34.632  11.607  1.00  0.00    -0.003 C 
ATOM     10  C   UNL     1      45.856  35.955  11.040  1.00  0.00     0.004 C 
ENDBRANCH   8   9
ENDBRANCH   7   8
ENDBRANCH   1   7
TORSDOF 6
ENDMDL
MODEL 8
REMARK VINA RESULT:    -3.866     14.823     16.027
REMARK INTER + INTRA:          -5.634
REMARK INTER:                  -5.306
REMARK INTRA:                  -0.328
REMARK UNBOUND:                -0.411
REMARK SMILES CCCCCCCC(=O)[O-]
REMARK SMILES IDX 5 1 6 2 7 3 8 4 9 5 10 6 4 7 3 8 2 9 1 10
REMARK H PARENT
REMARK Flexibility Score: inf
ROOT
ATOM      1  C   UNL     1      41.128  22.855  18.036  1.00  0.00     0.000 C 
ENDROOT
BRANCH   1   2
ATOM      2  C   UNL     1      39.994  23.503  18.840  1.00  0.00     0.006 C 
BRANCH   2   3
ATOM      3  C   UNL     1      39.005  24.220  17.917  1.00  0.00     0.053 C 
BRANCH   3   4
ATOM      4  C   UNL     1      38.072  23.237  17.282  1.00  0.00     0.041 C 
ATOM      5  O   UNL     1      38.269  22.852  16.100  1.00  0.00    -0.550 OA
ATOM      6  O   UNL     1      37.016  22.709  18.013  1.00  0.00    -0.550 OA
ENDBRANCH   3   4
ENDBRANCH   2   3
ENDBRANCH   1   2
BRANCH   1   7
ATOM      7  C   UNL     1      42.437  22.849  18.840  1.00  0.00     0.000 C 
BRANCH   7   8
ATOM      8  C   UNL     1      42.343  23.679  20.130  1.00  0.00    -0.000 C 
BRANCH   8   9
ATOM      9  C   UNL     1      42.578  22.838  21.393  1.00  0.00    -0.003 C 
ATOM     10  C   UNL     1      43.193  21.485  21.045  1.00  0.00     0.004 C 
ENDBRANCH   8   9
ENDBRANCH   7   8
ENDBRANCH   1   7
TORSDOF 6
ENDMDL
MODEL 9
REMARK VINA RESULT:    -3.763     15.136     16.523
REMARK INTER + INTRA:          -5.494
REMARK INTER:                  -5.242
REMARK INTRA:                  -0.252
REMARK UNBOUND:                -0.411
REMARK SMILES CCCCCCCC(=O)[O-]
REMARK SMILES IDX 5 1 6 2 7 3 8 4 9 5 10 6 4 7 3 8 2 9 1 10
REMARK H PARENT
REMARK Flexibility Score: inf
ROOT
ATOM      1  C   UNL     1      42.393  22.975  19.507  1.00  0.00     0.000 C 
ENDROOT
BRANCH   1   2
ATOM      2  C   UNL     1      42.788  22.592  20.939  1.00  0.00     0.006 C 
BRANCH   2   3
ATOM      3  C   UNL     1      43.204  21.121  21.021  1.00  0.00     0.053 C 
BRANCH   3   4
ATOM      4  C   UNL     1      44.644  21.003  21.408  1.00  0.00     0.041 C 
ATOM      5  O   UNL     1      45.058  19.972  22.000  1.00  0.00    -0.550 OA
ATOM      6  O   UNL     1      45.540  22.009  21.068  1.00  0.00    -0.550 OA
ENDBRANCH   3   4
ENDBRANCH   2   3
ENDBRANCH   1   2
BRANCH   1   7
ATOM      7  C   UNL     1      41.304  24.057  19.509  1.00  0.00     0.000 C 
BRANCH   7   8
ATOM      8  C   UNL     1      40.044  23.630  18.739  1.00  0.00    -0.000 C 
BRANCH   8   9
ATOM      9  C   UNL     1      40.357  22.682  17.572  1.00  0.00    -0.003 C 
ATOM     10  C   UNL     1      39.081  22.053  17.018  1.00  0.00     0.004 C 
ENDBRANCH   8   9
ENDBRANCH   7   8
ENDBRANCH   1   7
TORSDOF 6
ENDMDL
