MODEL 1
REMARK VINA RESULT:    -4.565      0.000      0.000
REMARK INTER + INTRA:          -5.998
REMARK INTER:                  -6.434
REMARK INTRA:                   0.435
REMARK UNBOUND:                 0.435
REMARK SMILES CC1=CCC(=C(C)C)C(=O)CC(C)=CCC1
REMARK SMILES IDX 12 1 14 2 13 3 15 4 16 5 2 6 1 7 3 8 11 10 9 11 10 12 5 13
REMARK SMILES IDX 6 14 7 15 8 16 4 17
REMARK H PARENT
REMARK Flexibility Score: 60.00
ROOT
ATOM      1  C   UNL     1      35.576  19.633  25.044  1.00  0.00    -0.070 C 
ATOM      2  C   UNL     1      35.962  20.923  25.180  1.00  0.00    -0.027 C 
ATOM      3  C   UNL     1      34.155  19.273  25.396  1.00  0.00     0.039 C 
ENDROOT
BRANCH   2   4
ATOM      4  C   UNL     1      37.368  21.442  24.997  1.00  0.00     0.032 C 
BRANCH   4   5
ATOM      5  C   UNL     1      37.967  22.159  26.217  1.00  0.00     0.034 C 
BRANCH   5   6
ATOM      6  C   UNL     1      38.347  21.229  27.354  1.00  0.00    -0.077 C 
ATOM      7  C   UNL     1      37.991  21.655  28.758  1.00  0.00     0.039 C 
ATOM      8  C   UNL     1      38.919  20.009  27.197  1.00  0.00    -0.023 CG0
ATOM      9  G   UNL     1      39.501  19.395  25.938  1.00  0.00     0.000 G0
ENDBRANCH   5   6
ENDBRANCH   4   5
ENDBRANCH   2   4
BRANCH   1  10
ATOM     10  C   UNL     1      36.469  18.552  24.477  1.00  0.00     0.111 C 
BRANCH  10  11
ATOM     11  C   UNL     1      37.392  18.000  25.534  1.00  0.00     0.163 C 
ATOM     12  O   UNL     1      36.893  17.430  26.542  1.00  0.00    -0.294 OA
BRANCH  11  13
ATOM     13  C   UNL     1      38.871  18.098  25.422  1.00  0.00    -0.002 C 
ATOM     14  C   UNL     1      39.574  17.150  24.743  1.00  0.00    -0.069 C 
ATOM     15  C   UNL     1      41.058  17.289  24.501  1.00  0.00     0.039 C 
ATOM     16  C   UNL     1      38.888  15.905  24.229  1.00  0.00     0.039 C 
BRANCH  13  17
ATOM     17  C   UNL     1      39.515  19.372  25.937  1.00  0.00     0.066 CG0
ATOM     18  G   UNL     1      38.922  19.990  27.189  1.00  0.00     0.000 G0
ENDBRANCH  13  17
ENDBRANCH  11  13
ENDBRANCH  10  11
ENDBRANCH   1  10
TORSDOF 0
ENDMDL
MODEL 2
REMARK VINA RESULT:    -4.449      1.588      4.394
REMARK INTER + INTRA:          -5.835
REMARK INTER:                  -6.151
REMARK INTRA:                   0.316
REMARK UNBOUND:                 0.435
REMARK SMILES CC1=CCC(=C(C)C)C(=O)CC(C)=CCC1
REMARK SMILES IDX 12 1 14 2 13 3 15 4 16 5 2 6 1 7 3 8 11 10 9 11 10 12 5 13
REMARK SMILES IDX 6 14 7 15 8 16 4 17
REMARK H PARENT
REMARK Flexibility Score: 60.00
ROOT
ATOM      1  C   UNL     1      35.786  19.847  25.055  1.00  0.00    -0.070 C 
ATOM      2  C   UNL     1      36.106  18.560  25.328  1.00  0.00    -0.027 C 
ATOM      3  C   UNL     1      35.249  20.174  23.684  1.00  0.00     0.039 C 
ENDROOT
BRANCH   2   4
ATOM      4  C   UNL     1      36.769  18.069  26.592  1.00  0.00     0.032 C 
BRANCH   4   5
ATOM      5  C   UNL     1      38.145  17.413  26.398  1.00  0.00     0.034 C 
BRANCH   5   6
ATOM      6  C   UNL     1      39.189  18.333  25.796  1.00  0.00    -0.077 C 
ATOM      7  C   UNL     1      39.961  17.832  24.600  1.00  0.00     0.039 C 
ATOM      8  C   UNL     1      39.431  19.603  26.209  1.00  0.00    -0.023 CG0
ATOM      9  G   UNL     1      38.914  20.307  27.449  1.00  0.00     0.000 G0
ENDBRANCH   5   6
ENDBRANCH   4   5
ENDBRANCH   2   4
BRANCH   1  10
ATOM     10  C   UNL     1      35.858  20.957  26.079  1.00  0.00     0.111 C 
BRANCH  10  11
ATOM     11  C   UNL     1      37.206  21.632  26.055  1.00  0.00     0.163 C 
ATOM     12  O   UNL     1      37.560  22.250  25.014  1.00  0.00    -0.294 OA
BRANCH  11  13
ATOM     13  C   UNL     1      38.129  21.602  27.220  1.00  0.00    -0.002 C 
ATOM     14  C   UNL     1      38.133  22.622  28.121  1.00  0.00    -0.069 C 
ATOM     15  C   UNL     1      38.961  22.559  29.382  1.00  0.00     0.039 C 
ATOM     16  C   UNL     1      37.319  23.871  27.872  1.00  0.00     0.039 C 
BRANCH  13  17
ATOM     17  C   UNL     1      38.913  20.321  27.440  1.00  0.00     0.066 CG0
ATOM     18  G   UNL     1      39.426  19.603  26.206  1.00  0.00     0.000 G0
ENDBRANCH  13  17
ENDBRANCH  11  13
ENDBRANCH  10  11
ENDBRANCH   1  10
TORSDOF 0
ENDMDL
MODEL 3
REMARK VINA RESULT:    -4.299      1.508      4.199
REMARK INTER + INTRA:          -5.624
REMARK INTER:                  -5.759
REMARK INTRA:                   0.135
REMARK UNBOUND:                 0.435
REMARK SMILES CC1=CCC(=C(C)C)C(=O)CC(C)=CCC1
REMARK SMILES IDX 12 1 14 2 13 3 15 4 16 5 2 6 1 7 3 8 11 10 9 11 10 12 5 13
REMARK SMILES IDX 6 14 7 15 8 16 4 17
REMARK H PARENT
REMARK Flexibility Score: 60.00
ROOT
ATOM      1  C   UNL     1      39.815  16.078  24.716  1.00  0.00    -0.070 C 
ATOM      2  C   UNL     1      41.046  16.635  24.629  1.00  0.00    -0.027 C 
ATOM      3  C   UNL     1      39.696  14.700  25.316  1.00  0.00     0.039 C 
ENDROOT
BRANCH   2   4
ATOM      4  C   UNL     1      41.372  17.943  23.949  1.00  0.00     0.032 C 
BRANCH   4   5
ATOM      5  C   UNL     1      41.990  19.017  24.857  1.00  0.00     0.034 C 
BRANCH   5   6
ATOM      6  C   UNL     1      41.328  19.132  26.217  1.00  0.00    -0.077 C 
ATOM      7  C   UNL     1      42.128  18.711  27.425  1.00  0.00     0.039 C 
ATOM      8  C   UNL     1      40.094  19.654  26.435  1.00  0.00    -0.023 CG0
ATOM      9  G   UNL     1      39.032  20.021  25.417  1.00  0.00     0.000 G0
ENDBRANCH   5   6
ENDBRANCH   4   5
ENDBRANCH   2   4
BRANCH   1  10
ATOM     10  C   UNL     1      38.546  16.799  24.321  1.00  0.00     0.111 C 
BRANCH  10  11
ATOM     11  C   UNL     1      38.042  17.668  25.445  1.00  0.00     0.163 C 
ATOM     12  O   UNL     1      37.816  17.142  26.569  1.00  0.00    -0.294 OA
BRANCH  11  13
ATOM     13  C   UNL     1      37.812  19.127  25.276  1.00  0.00    -0.002 C 
ATOM     14  C   UNL     1      36.545  19.616  25.165  1.00  0.00    -0.069 C 
ATOM     15  C   UNL     1      36.272  21.100  25.124  1.00  0.00     0.039 C 
ATOM     16  C   UNL     1      35.367  18.676  25.053  1.00  0.00     0.039 C 
BRANCH  13  17
ATOM     17  C   UNL     1      39.022  20.033  25.412  1.00  0.00     0.066 CG0
ATOM     18  G   UNL     1      40.073  19.634  26.430  1.00  0.00     0.000 G0
ENDBRANCH  13  17
ENDBRANCH  11  13
ENDBRANCH  10  11
ENDBRANCH   1  10
TORSDOF 0
ENDMDL
MODEL 4
REMARK VINA RESULT:    -4.259      2.171      3.838
REMARK INTER + INTRA:          -5.567
REMARK INTER:                  -5.404
REMARK INTRA:                  -0.163
REMARK UNBOUND:                 0.435
REMARK SMILES CC1=CCC(=C(C)C)C(=O)CC(C)=CCC1
REMARK SMILES IDX 12 1 14 2 13 3 15 4 16 5 2 6 1 7 3 8 11 10 9 11 10 12 5 13
REMARK SMILES IDX 6 14 7 15 8 16 4 17
REMARK H PARENT
REMARK Flexibility Score: 60.00
ROOT
ATOM      1  C   UNL     1      37.757  22.964  28.217  1.00  0.00    -0.070 C 
ATOM      2  C   UNL     1      38.872  23.207  28.946  1.00  0.00    -0.027 C 
ATOM      3  C   UNL     1      36.955  24.142  27.727  1.00  0.00     0.039 C 
ENDROOT
BRANCH   2   4
ATOM      4  C   UNL     1      39.725  22.160  29.622  1.00  0.00     0.032 C 
BRANCH   4   5
ATOM      5  C   UNL     1      40.900  21.631  28.786  1.00  0.00     0.034 C 
BRANCH   5   6
ATOM      6  C   UNL     1      41.019  20.119  28.776  1.00  0.00    -0.077 C 
ATOM      7  C   UNL     1      41.627  19.455  29.988  1.00  0.00     0.039 C 
ATOM      8  C   UNL     1      40.555  19.313  27.788  1.00  0.00    -0.023 CG0
ATOM      9  G   UNL     1      40.035  19.703  26.417  1.00  0.00     0.000 G0
ENDBRANCH   5   6
ENDBRANCH   4   5
ENDBRANCH   2   4
BRANCH   1  10
ATOM     10  C   UNL     1      37.322  21.577  27.799  1.00  0.00     0.111 C 
BRANCH  10  11
ATOM     11  C   UNL     1      37.944  21.186  26.483  1.00  0.00     0.163 C 
ATOM     12  O   UNL     1      37.981  22.034  25.550  1.00  0.00    -0.294 OA
BRANCH  11  13
ATOM     13  C   UNL     1      38.524  19.837  26.251  1.00  0.00    -0.002 C 
ATOM     14  C   UNL     1      37.750  18.830  25.759  1.00  0.00    -0.069 C 
ATOM     15  C   UNL     1      38.339  17.490  25.390  1.00  0.00     0.039 C 
ATOM     16  C   UNL     1      36.260  19.019  25.591  1.00  0.00     0.039 C 
BRANCH  13  17
ATOM     17  C   UNL     1      40.027  19.699  26.415  1.00  0.00     0.066 CG0
ATOM     18  G   UNL     1      40.539  19.316  27.791  1.00  0.00     0.000 G0
ENDBRANCH  13  17
ENDBRANCH  11  13
ENDBRANCH  10  11
ENDBRANCH   1  10
TORSDOF 0
ENDMDL
MODEL 5
REMARK VINA RESULT:    -4.056      1.769      4.973
REMARK INTER + INTRA:          -5.280
REMARK INTER:                  -6.286
REMARK INTRA:                   1.006
REMARK UNBOUND:                 0.435
REMARK SMILES CC1=CCC(=C(C)C)C(=O)CC(C)=CCC1
REMARK SMILES IDX 12 1 14 2 13 3 15 4 16 5 2 6 1 7 3 8 11 10 9 11 10 12 5 13
REMARK SMILES IDX 6 14 7 15 8 16 4 17
REMARK H PARENT
REMARK Flexibility Score: 60.00
ROOT
ATOM      1  C   UNL     1      39.310  18.550  25.119  1.00  0.00    -0.070 C 
ATOM      2  C   UNL     1      38.274  17.681  25.188  1.00  0.00    -0.027 C 
ATOM      3  C   UNL     1      40.688  17.999  24.852  1.00  0.00     0.039 C 
ENDROOT
BRANCH   2   4
ATOM      4  C   UNL     1      36.857  18.034  25.569  1.00  0.00     0.032 C 
BRANCH   4   5
ATOM      5  C   UNL     1      36.018  18.673  24.452  1.00  0.00     0.034 C 
BRANCH   5   6
ATOM      6  C   UNL     1      34.970  19.651  24.949  1.00  0.00    -0.077 C 
ATOM      7  C   UNL     1      33.531  19.197  24.953  1.00  0.00     0.039 C 
ATOM      8  C   UNL     1      35.239  20.880  25.459  1.00  0.00    -0.023 CG0
ATOM      9  G   UNL     1      36.554  21.638  25.451  1.00  0.00     0.000 G0
ENDBRANCH   5   6
ENDBRANCH   4   5
ENDBRANCH   2   4
BRANCH   1  10
ATOM     10  C   UNL     1      39.146  20.051  25.212  1.00  0.00     0.111 C 
BRANCH  10  11
ATOM     11  C   UNL     1      38.550  20.451  26.538  1.00  0.00     0.163 C 
ATOM     12  O   UNL     1      38.978  19.902  27.590  1.00  0.00    -0.294 OA
BRANCH  11  13
ATOM     13  C   UNL     1      37.481  21.478  26.649  1.00  0.00    -0.002 C 
ATOM     14  C   UNL     1      37.448  22.325  27.714  1.00  0.00    -0.069 C 
ATOM     15  C   UNL     1      36.456  23.461  27.790  1.00  0.00     0.039 C 
ATOM     16  C   UNL     1      38.397  22.136  28.876  1.00  0.00     0.039 C 
BRANCH  13  17
ATOM     17  C   UNL     1      36.562  21.644  25.452  1.00  0.00     0.066 CG0
ATOM     18  G   UNL     1      35.256  20.873  25.471  1.00  0.00     0.000 G0
ENDBRANCH  13  17
ENDBRANCH  11  13
ENDBRANCH  10  11
ENDBRANCH   1  10
TORSDOF 0
ENDMDL
MODEL 6
REMARK VINA RESULT:    -4.025      3.365      5.932
REMARK INTER + INTRA:          -5.237
REMARK INTER:                  -5.223
REMARK INTRA:                  -0.015
REMARK UNBOUND:                 0.435
REMARK SMILES CC1=CCC(=C(C)C)C(=O)CC(C)=CCC1
REMARK SMILES IDX 12 1 14 2 13 3 15 4 16 5 2 6 1 7 3 8 11 10 9 11 10 12 5 13
REMARK SMILES IDX 6 14 7 15 8 16 4 17
REMARK H PARENT
REMARK Flexibility Score: 60.00
ROOT
ATOM      1  C   UNL     1      38.889  16.982  24.957  1.00  0.00    -0.070 C 
ATOM      2  C   UNL     1      38.728  15.740  25.471  1.00  0.00    -0.027 C 
ATOM      3  C   UNL     1      37.799  17.997  25.189  1.00  0.00     0.039 C 
ENDROOT
BRANCH   2   4
ATOM      4  C   UNL     1      39.648  14.567  25.235  1.00  0.00     0.032 C 
BRANCH   4   5
ATOM      5  C   UNL     1      40.729  14.356  26.307  1.00  0.00     0.034 C 
BRANCH   5   6
ATOM      6  C   UNL     1      42.080  13.947  25.749  1.00  0.00    -0.077 C 
ATOM      7  C   UNL     1      42.276  12.498  25.376  1.00  0.00     0.039 C 
ATOM      8  C   UNL     1      43.102  14.803  25.493  1.00  0.00    -0.023 CG0
ATOM      9  G   UNL     1      43.232  16.262  25.889  1.00  0.00     0.000 G0
ENDBRANCH   5   6
ENDBRANCH   4   5
ENDBRANCH   2   4
BRANCH   1  10
ATOM     10  C   UNL     1      40.141  17.429  24.235  1.00  0.00     0.111 C 
BRANCH  10  11
ATOM     11  C   UNL     1      41.255  17.720  25.208  1.00  0.00     0.163 C 
ATOM     12  O   UNL     1      40.986  18.332  26.277  1.00  0.00    -0.294 OA
BRANCH  11  13
ATOM     13  C   UNL     1      42.658  17.301  24.954  1.00  0.00    -0.002 C 
ATOM     14  C   UNL     1      43.412  17.948  24.023  1.00  0.00    -0.069 C 
ATOM     15  C   UNL     1      44.877  17.634  23.835  1.00  0.00     0.039 C 
ATOM     16  C   UNL     1      42.792  18.993  23.124  1.00  0.00     0.039 C 
BRANCH  13  17
ATOM     17  C   UNL     1      43.244  16.261  25.891  1.00  0.00     0.066 CG0
ATOM     18  G   UNL     1      43.081  14.805  25.497  1.00  0.00     0.000 G0
ENDBRANCH  13  17
ENDBRANCH  11  13
ENDBRANCH  10  11
ENDBRANCH   1  10
TORSDOF 0
ENDMDL
MODEL 7
REMARK VINA RESULT:    -4.023      1.739      4.451
REMARK INTER + INTRA:          -5.234
REMARK INTER:                  -5.149
REMARK INTRA:                  -0.085
REMARK UNBOUND:                 0.435
REMARK SMILES CC1=CCC(=C(C)C)C(=O)CC(C)=CCC1
REMARK SMILES IDX 12 1 14 2 13 3 15 4 16 5 2 6 1 7 3 8 11 10 9 11 10 12 5 13
REMARK SMILES IDX 6 14 7 15 8 16 4 17
REMARK H PARENT
REMARK Flexibility Score: 60.00
ROOT
ATOM      1  C   UNL     1      39.530  16.961  24.634  1.00  0.00    -0.070 C 
ATOM      2  C   UNL     1      40.685  16.438  25.110  1.00  0.00    -0.027 C 
ATOM      3  C   UNL     1      38.519  16.022  24.025  1.00  0.00     0.039 C 
ENDROOT
BRANCH   2   4
ATOM      4  C   UNL     1      41.856  17.232  25.635  1.00  0.00     0.032 C 
BRANCH   4   5
ATOM      5  C   UNL     1      41.746  17.669  27.104  1.00  0.00     0.034 C 
BRANCH   5   6
ATOM      6  C   UNL     1      42.060  19.135  27.337  1.00  0.00    -0.077 C 
ATOM      7  C   UNL     1      43.493  19.581  27.170  1.00  0.00     0.039 C 
ATOM      8  C   UNL     1      41.136  20.089  27.616  1.00  0.00    -0.023 CG0
ATOM      9  G   UNL     1      39.673  19.910  27.971  1.00  0.00     0.000 G0
ENDBRANCH   5   6
ENDBRANCH   4   5
ENDBRANCH   2   4
BRANCH   1  10
ATOM     10  C   UNL     1      39.164  18.423  24.759  1.00  0.00     0.111 C 
BRANCH  10  11
ATOM     11  C   UNL     1      38.462  18.698  26.065  1.00  0.00     0.163 C 
ATOM     12  O   UNL     1      37.682  17.825  26.534  1.00  0.00    -0.294 OA
BRANCH  11  13
ATOM     13  C   UNL     1      38.666  19.960  26.823  1.00  0.00    -0.002 C 
ATOM     14  C   UNL     1      37.870  21.040  26.590  1.00  0.00    -0.069 C 
ATOM     15  C   UNL     1      37.966  22.289  27.433  1.00  0.00     0.039 C 
ATOM     16  C   UNL     1      36.875  21.029  25.452  1.00  0.00     0.039 C 
BRANCH  13  17
ATOM     17  C   UNL     1      39.663  19.920  27.967  1.00  0.00     0.066 CG0
ATOM     18  G   UNL     1      41.129  20.081  27.612  1.00  0.00     0.000 G0
ENDBRANCH  13  17
ENDBRANCH  11  13
ENDBRANCH  10  11
ENDBRANCH   1  10
TORSDOF 0
ENDMDL
MODEL 8
REMARK VINA RESULT:    -4.021      2.553      4.631
REMARK INTER + INTRA:          -5.232
REMARK INTER:                  -5.080
REMARK INTRA:                  -0.152
REMARK UNBOUND:                 0.435
REMARK SMILES CC1=CCC(=C(C)C)C(=O)CC(C)=CCC1
REMARK SMILES IDX 12 1 14 2 13 3 15 4 16 5 2 6 1 7 3 8 11 10 9 11 10 12 5 13
REMARK SMILES IDX 6 14 7 15 8 16 4 17
REMARK H PARENT
REMARK Flexibility Score: 60.00
ROOT
ATOM      1  C   UNL     1      40.016  15.582  26.484  1.00  0.00    -0.070 C 
ATOM      2  C   UNL     1      38.729  15.927  26.241  1.00  0.00    -0.027 C 
ATOM      3  C   UNL     1      40.376  14.118  26.475  1.00  0.00     0.039 C 
ENDROOT
BRANCH   2   4
ATOM      4  C   UNL     1      38.162  17.323  26.333  1.00  0.00     0.032 C 
BRANCH   4   5
ATOM      5  C   UNL     1      38.103  18.095  25.005  1.00  0.00     0.034 C 
BRANCH   5   6
ATOM      6  C   UNL     1      38.679  19.496  25.079  1.00  0.00    -0.077 C 
ATOM      7  C   UNL     1      37.791  20.592  25.616  1.00  0.00     0.039 C 
ATOM      8  C   UNL     1      39.958  19.824  24.766  1.00  0.00    -0.023 CG0
ATOM      9  G   UNL     1      41.011  18.972  24.085  1.00  0.00     0.000 G0
ENDBRANCH   5   6
ENDBRANCH   4   5
ENDBRANCH   2   4
BRANCH   1  10
ATOM     10  C   UNL     1      41.125  16.591  26.678  1.00  0.00     0.111 C 
BRANCH  10  11
ATOM     11  C   UNL     1      41.804  16.911  25.370  1.00  0.00     0.163 C 
ATOM     12  O   UNL     1      42.151  15.962  24.615  1.00  0.00    -0.294 OA
BRANCH  11  13
ATOM     13  C   UNL     1      42.070  18.307  24.936  1.00  0.00    -0.002 C 
ATOM     14  C   UNL     1      43.280  18.884  25.178  1.00  0.00    -0.069 C 
ATOM     15  C   UNL     1      43.625  20.251  24.635  1.00  0.00     0.039 C 
ATOM     16  C   UNL     1      44.312  18.178  26.026  1.00  0.00     0.039 C 
BRANCH  13  17
ATOM     17  C   UNL     1      41.013  18.971  24.072  1.00  0.00     0.066 CG0
ATOM     18  G   UNL     1      39.977  19.823  24.780  1.00  0.00     0.000 G0
ENDBRANCH  13  17
ENDBRANCH  11  13
ENDBRANCH  10  11
ENDBRANCH   1  10
TORSDOF 0
ENDMDL
MODEL 9
REMARK VINA RESULT:    -3.919      2.454      4.632
REMARK INTER + INTRA:          -5.087
REMARK INTER:                  -5.021
REMARK INTRA:                  -0.066
REMARK UNBOUND:                 0.435
REMARK SMILES CC1=CCC(=C(C)C)C(=O)CC(C)=CCC1
REMARK SMILES IDX 12 1 14 2 13 3 15 4 16 5 2 6 1 7 3 8 11 10 9 11 10 12 5 13
REMARK SMILES IDX 6 14 7 15 8 16 4 17
REMARK H PARENT
REMARK Flexibility Score: 60.00
ROOT
ATOM      1  C   UNL     1      38.628  19.936  25.361  1.00  0.00    -0.070 C 
ATOM      2  C   UNL     1      37.690  18.977  25.541  1.00  0.00    -0.027 C 
ATOM      3  C   UNL     1      38.270  21.358  25.709  1.00  0.00     0.039 C 
ENDROOT
BRANCH   2   4
ATOM      4  C   UNL     1      37.824  17.529  25.133  1.00  0.00     0.032 C 
BRANCH   4   5
ATOM      5  C   UNL     1      38.588  16.638  26.124  1.00  0.00     0.034 C 
BRANCH   5   6
ATOM      6  C   UNL     1      39.657  15.775  25.481  1.00  0.00    -0.077 C 
ATOM      7  C   UNL     1      39.206  14.651  24.581  1.00  0.00     0.039 C 
ATOM      8  C   UNL     1      40.994  15.984  25.599  1.00  0.00    -0.023 CG0
ATOM      9  G   UNL     1      41.722  16.933  26.531  1.00  0.00     0.000 G0
ENDBRANCH   5   6
ENDBRANCH   4   5
ENDBRANCH   2   4
BRANCH   1  10
ATOM     10  C   UNL     1      40.043  19.642  24.912  1.00  0.00     0.111 C 
BRANCH  10  11
ATOM     11  C   UNL     1      40.932  19.327  26.088  1.00  0.00     0.163 C 
ATOM     12  O   UNL     1      40.733  19.925  27.181  1.00  0.00    -0.294 OA
BRANCH  11  13
ATOM     13  C   UNL     1      42.029  18.328  26.006  1.00  0.00    -0.002 C 
ATOM     14  C   UNL     1      43.279  18.708  25.621  1.00  0.00    -0.069 C 
ATOM     15  C   UNL     1      44.443  17.746  25.654  1.00  0.00     0.039 C 
ATOM     16  C   UNL     1      43.535  20.111  25.121  1.00  0.00     0.039 C 
BRANCH  13  17
ATOM     17  C   UNL     1      41.731  16.936  26.534  1.00  0.00     0.066 CG0
ATOM     18  G   UNL     1      41.000  15.986  25.605  1.00  0.00     0.000 G0
ENDBRANCH  13  17
ENDBRANCH  11  13
ENDBRANCH  10  11
ENDBRANCH   1  10
TORSDOF 0
ENDMDL
