MODEL 1
REMARK VINA RESULT:    -4.755      0.000      0.000
REMARK INTER + INTRA:          -5.721
REMARK INTER:                  -6.423
REMARK INTRA:                   0.702
REMARK UNBOUND:                 0.702
REMARK SMILES O=c1c(-c2ccc(O)cc2)coc2c([C@H]3O[C@@H](CO)[C@@H](O)[C@@H](O)[C@@H]3O)c(O)ccc12
REMARK SMILES IDX 3 1 11 2 12 3 13 4 30 5 2 6 1 7 29 8 28 9 26 10 14 11 4 12
REMARK SMILES IDX 5 13 6 14 7 15 10 16 9 17 8 18 15 20 24 21 16 22 22 23 17 24
REMARK SMILES IDX 20 25 25 26 23 28 18 30 19 31 21 33 27 35
REMARK H PARENT 8 19 25 27 23 29 19 32 21 34 27 36
REMARK Flexibility Score: inf
ROOT
ATOM      1  C   UNL     1      -6.141 -14.708  29.611  1.00  0.00     0.065 A 
ATOM      2  C   UNL     1      -6.251 -13.588  30.449  1.00  0.00     0.208 A 
ATOM      3  O   UNL     1      -6.278 -13.726  31.769  1.00  0.00    -0.463 OA
ATOM      4  C   UNL     1      -6.190 -14.903  32.383  1.00  0.00     0.147 A 
ATOM      5  C   UNL     1      -6.079 -16.084  31.614  1.00  0.00     0.066 A 
ATOM      6  C   UNL     1      -6.064 -15.978  30.210  1.00  0.00     0.200 A 
ATOM      7  O   UNL     1      -5.972 -17.014  29.494  1.00  0.00    -0.288 OA
ATOM      8  C   UNL     1      -5.977 -17.322  32.259  1.00  0.00     0.020 A 
ATOM      9  C   UNL     1      -5.930 -17.382  33.649  1.00  0.00     0.047 A 
ATOM     10  C   UNL     1      -6.006 -16.219  34.427  1.00  0.00     0.125 A 
ATOM     11  C   UNL     1      -6.194 -14.954  33.801  1.00  0.00     0.069 A 
ENDROOT
BRANCH   1  12
ATOM     12  C   UNL     1      -6.075 -14.528  28.141  1.00  0.00    -0.011 A 
ATOM     13  C   UNL     1      -5.988 -13.245  27.570  1.00  0.00     0.013 A 
ATOM     14  C   UNL     1      -5.927 -13.094  26.180  1.00  0.00     0.047 A 
ATOM     15  C   UNL     1      -5.961 -14.221  25.347  1.00  0.00     0.115 A 
ATOM     16  C   UNL     1      -6.096 -15.651  27.297  1.00  0.00     0.013 A 
ATOM     17  C   UNL     1      -6.044 -15.497  25.911  1.00  0.00     0.047 A 
BRANCH  15  18
ATOM     18  O   UNL     1      -5.910 -14.089  23.961  1.00  0.00    -0.508 OA
ATOM     19  H   UNL     1      -6.290 -13.278  23.483  1.00  0.00     0.293 HD
ENDBRANCH  15  18
ENDBRANCH   1  12
BRANCH  11  20
ATOM     20  C   UNL     1      -6.408 -13.620  34.534  1.00  0.00     0.188 C 
ATOM     21  C   UNL     1      -7.721 -13.418  35.322  1.00  0.00     0.179 C 
ATOM     22  O   UNL     1      -6.308 -12.573  33.586  1.00  0.00    -0.362 OA
ATOM     23  C   UNL     1      -7.909 -11.925  35.735  1.00  0.00     0.177 C 
ATOM     24  C   UNL     1      -5.875 -11.370  34.204  1.00  0.00     0.176 C 
ATOM     25  C   UNL     1      -6.634 -11.060  35.542  1.00  0.00     0.177 C 
BRANCH  21  26
ATOM     26  O   UNL     1      -7.701 -14.236  36.465  1.00  0.00    -0.387 OA
ATOM     27  H   UNL     1      -8.601 -14.647  36.542  1.00  0.00     0.211 HD
ENDBRANCH  21  26
BRANCH  23  28
ATOM     28  O   UNL     1      -9.011 -11.353  35.070  1.00  0.00    -0.387 OA
ATOM     29  H   UNL     1      -9.746 -11.258  35.730  1.00  0.00     0.211 HD
ENDBRANCH  23  28
BRANCH  24  30
ATOM     30  C   UNL     1      -5.939 -10.236  33.164  1.00  0.00     0.191 C 
BRANCH  30  31
ATOM     31  O   UNL     1      -7.262  -9.968  32.784  1.00  0.00    -0.394 OA
ATOM     32  H   UNL     1      -7.384 -10.366  31.884  1.00  0.00     0.210 HD
ENDBRANCH  30  31
ENDBRANCH  24  30
BRANCH  25  33
ATOM     33  O   UNL     1      -6.949  -9.691  35.652  1.00  0.00    -0.388 OA
ATOM     34  H   UNL     1      -6.287  -9.196  35.099  1.00  0.00     0.211 HD
ENDBRANCH  25  33
ENDBRANCH  11  20
BRANCH  10  35
ATOM     35  O   UNL     1      -5.875 -16.349  35.806  1.00  0.00    -0.507 OA
ATOM     36  H   UNL     1      -5.396 -17.137  36.225  1.00  0.00     0.293 HD
ENDBRANCH  10  35
TORSDOF 9
ENDMDL
MODEL 2
REMARK VINA RESULT:    -4.636      1.876      4.324
REMARK INTER + INTRA:          -5.560
REMARK INTER:                  -5.410
REMARK INTRA:                  -0.150
REMARK UNBOUND:                 0.702
REMARK SMILES O=c1c(-c2ccc(O)cc2)coc2c([C@H]3O[C@@H](CO)[C@@H](O)[C@@H](O)[C@@H]3O)c(O)ccc12
REMARK SMILES IDX 3 1 11 2 12 3 13 4 30 5 2 6 1 7 29 8 28 9 26 10 14 11 4 12
REMARK SMILES IDX 5 13 6 14 7 15 10 16 9 17 8 18 15 20 24 21 16 22 22 23 17 24
REMARK SMILES IDX 20 25 25 26 23 28 18 30 19 31 21 33 27 35
REMARK H PARENT 8 19 25 27 23 29 19 32 21 34 27 36
REMARK Flexibility Score: inf
ROOT
ATOM      1  C   UNL     1      -6.713 -13.028  30.007  1.00  0.00     0.065 A 
ATOM      2  C   UNL     1      -7.241 -13.969  30.904  1.00  0.00     0.208 A 
ATOM      3  O   UNL     1      -7.406 -13.669  32.186  1.00  0.00    -0.463 OA
ATOM      4  C   UNL     1      -7.107 -12.481  32.704  1.00  0.00     0.147 A 
ATOM      5  C   UNL     1      -6.566 -11.474  31.871  1.00  0.00     0.066 A 
ATOM      6  C   UNL     1      -6.361 -11.762  30.508  1.00  0.00     0.200 A 
ATOM      7  O   UNL     1      -5.875 -10.887  29.738  1.00  0.00    -0.288 OA
ATOM      8  C   UNL     1      -6.259 -10.220  32.412  1.00  0.00     0.020 A 
ATOM      9  C   UNL     1      -6.535  -9.953  33.750  1.00  0.00     0.047 A 
ATOM     10  C   UNL     1      -7.101 -10.928  34.582  1.00  0.00     0.125 A 
ATOM     11  C   UNL     1      -7.347 -12.237  34.081  1.00  0.00     0.069 A 
ENDROOT
BRANCH   1  12
ATOM     12  C   UNL     1      -6.572 -13.372  28.572  1.00  0.00    -0.011 A 
ATOM     13  C   UNL     1      -6.244 -14.678  28.167  1.00  0.00     0.013 A 
ATOM     14  C   UNL     1      -6.115 -14.985  26.807  1.00  0.00     0.047 A 
ATOM     15  C   UNL     1      -6.304 -13.987  25.840  1.00  0.00     0.115 A 
ATOM     16  C   UNL     1      -6.771 -12.383  27.593  1.00  0.00     0.013 A 
ATOM     17  C   UNL     1      -6.633 -12.688  26.239  1.00  0.00     0.047 A 
BRANCH  15  18
ATOM     18  O   UNL     1      -6.170 -14.271  24.483  1.00  0.00    -0.508 OA
ATOM     19  H   UNL     1      -6.488 -13.629  23.764  1.00  0.00     0.293 HD
ENDBRANCH  15  18
ENDBRANCH   1  12
BRANCH  11  20
ATOM     20  C   UNL     1      -7.854 -13.429  34.909  1.00  0.00     0.188 C 
ATOM     21  C   UNL     1      -8.716 -13.140  36.158  1.00  0.00     0.179 C 
ATOM     22  O   UNL     1      -6.733 -14.188  35.325  1.00  0.00    -0.362 OA
ATOM     23  C   UNL     1      -8.880 -14.417  37.040  1.00  0.00     0.177 C 
ATOM     24  C   UNL     1      -7.089 -15.548  35.523  1.00  0.00     0.176 C 
ATOM     25  C   UNL     1      -8.418 -15.722  36.338  1.00  0.00     0.177 C 
BRANCH  21  26
ATOM     26  O   UNL     1      -9.977 -12.673  35.747  1.00  0.00    -0.387 OA
ATOM     27  H   UNL     1     -10.625 -12.932  36.452  1.00  0.00     0.211 HD
ENDBRANCH  21  26
BRANCH  23  28
ATOM     28  O   UNL     1      -8.234 -14.257  38.281  1.00  0.00    -0.387 OA
ATOM     29  H   UNL     1      -7.263 -14.149  38.104  1.00  0.00     0.211 HD
ENDBRANCH  23  28
BRANCH  24  30
ATOM     30  C   UNL     1      -5.879 -16.287  36.125  1.00  0.00     0.191 C 
BRANCH  30  31
ATOM     31  O   UNL     1      -5.894 -17.647  35.784  1.00  0.00    -0.394 OA
ATOM     32  H   UNL     1      -5.146 -17.788  35.148  1.00  0.00     0.210 HD
ENDBRANCH  30  31
ENDBRANCH  24  30
BRANCH  25  33
ATOM     33  O   UNL     1      -8.319 -16.772  37.271  1.00  0.00    -0.388 OA
ATOM     34  H   UNL     1      -9.238 -16.946  37.611  1.00  0.00     0.211 HD
ENDBRANCH  25  33
ENDBRANCH  11  20
BRANCH  10  35
ATOM     35  O   UNL     1      -7.421 -10.564  35.887  1.00  0.00    -0.507 OA
ATOM     36  H   UNL     1      -8.332 -10.754  36.287  1.00  0.00     0.293 HD
ENDBRANCH  10  35
TORSDOF 9
ENDMDL
MODEL 3
REMARK VINA RESULT:    -2.817      1.907      3.332
REMARK INTER + INTRA:          -3.103
REMARK INTER:                  -2.339
REMARK INTRA:                  -0.764
REMARK UNBOUND:                 0.702
REMARK SMILES O=c1c(-c2ccc(O)cc2)coc2c([C@H]3O[C@@H](CO)[C@@H](O)[C@@H](O)[C@@H]3O)c(O)ccc12
REMARK SMILES IDX 3 1 11 2 12 3 13 4 30 5 2 6 1 7 29 8 28 9 26 10 14 11 4 12
REMARK SMILES IDX 5 13 6 14 7 15 10 16 9 17 8 18 15 20 24 21 16 22 22 23 17 24
REMARK SMILES IDX 20 25 25 26 23 28 18 30 19 31 21 33 27 35
REMARK H PARENT 8 19 25 27 23 29 19 32 21 34 27 36
REMARK Flexibility Score: inf
ROOT
ATOM      1  C   UNL     1      -6.709 -12.804  27.580  1.00  0.00     0.065 A 
ATOM      2  C   UNL     1      -7.046 -11.941  28.634  1.00  0.00     0.208 A 
ATOM      3  O   UNL     1      -7.026 -12.363  29.892  1.00  0.00    -0.463 OA
ATOM      4  C   UNL     1      -6.679 -13.598  30.244  1.00  0.00     0.147 A 
ATOM      5  C   UNL     1      -6.327 -14.534  29.244  1.00  0.00     0.066 A 
ATOM      6  C   UNL     1      -6.354 -14.127  27.897  1.00  0.00     0.200 A 
ATOM      7  O   UNL     1      -6.050 -14.940  26.979  1.00  0.00    -0.288 OA
ATOM      8  C   UNL     1      -5.953 -15.832  29.613  1.00  0.00     0.020 A 
ATOM      9  C   UNL     1      -5.877 -16.179  30.959  1.00  0.00     0.047 A 
ATOM     10  C   UNL     1      -6.190 -15.254  31.964  1.00  0.00     0.125 A 
ATOM     11  C   UNL     1      -6.654 -13.953  31.617  1.00  0.00     0.069 A 
ENDROOT
BRANCH   1  12
ATOM     12  C   UNL     1      -6.702 -12.301  26.185  1.00  0.00    -0.011 A 
ATOM     13  C   UNL     1      -7.480 -12.915  25.188  1.00  0.00     0.013 A 
ATOM     14  C   UNL     1      -7.461 -12.427  23.876  1.00  0.00     0.047 A 
ATOM     15  C   UNL     1      -6.657 -11.326  23.547  1.00  0.00     0.115 A 
ATOM     16  C   UNL     1      -5.909 -11.191  25.847  1.00  0.00     0.013 A 
ATOM     17  C   UNL     1      -5.884 -10.712  24.536  1.00  0.00     0.047 A 
BRANCH  15  18
ATOM     18  O   UNL     1      -6.618 -10.833  22.245  1.00  0.00    -0.508 OA
ATOM     19  H   UNL     1      -7.362 -10.257  21.865  1.00  0.00     0.293 HD
ENDBRANCH  15  18
ENDBRANCH   1  12
BRANCH  11  20
ATOM     20  C   UNL     1      -7.139 -12.885  32.610  1.00  0.00     0.188 C 
ATOM     21  C   UNL     1      -6.155 -11.769  33.026  1.00  0.00     0.179 C 
ATOM     22  O   UNL     1      -7.572 -13.539  33.788  1.00  0.00    -0.362 OA
ATOM     23  C   UNL     1      -6.693 -10.967  34.251  1.00  0.00     0.177 C 
ATOM     24  C   UNL     1      -8.561 -12.771  34.459  1.00  0.00     0.176 C 
ATOM     25  C   UNL     1      -8.185 -11.253  34.576  1.00  0.00     0.177 C 
BRANCH  21  26
ATOM     26  O   UNL     1      -5.952 -10.905  31.935  1.00  0.00    -0.387 OA
ATOM     27  H   UNL     1      -6.409 -10.052  32.154  1.00  0.00     0.211 HD
ENDBRANCH  21  26
BRANCH  23  28
ATOM     28  O   UNL     1      -5.883 -11.174  35.384  1.00  0.00    -0.387 OA
ATOM     29  H   UNL     1      -5.858 -12.150  35.563  1.00  0.00     0.211 HD
ENDBRANCH  23  28
BRANCH  24  30
ATOM     30  C   UNL     1      -8.877 -13.449  35.805  1.00  0.00     0.191 C 
BRANCH  30  31
ATOM     31  O   UNL     1     -10.226 -13.820  35.883  1.00  0.00    -0.394 OA
ATOM     32  H   UNL     1     -10.242 -14.778  36.142  1.00  0.00     0.210 HD
ENDBRANCH  30  31
ENDBRANCH  24  30
BRANCH  25  33
ATOM     33  O   UNL     1      -8.519 -10.733  35.841  1.00  0.00    -0.388 OA
ATOM     34  H   UNL     1      -8.260  -9.773  35.838  1.00  0.00     0.211 HD
ENDBRANCH  25  33
ENDBRANCH  11  20
BRANCH  10  35
ATOM     35  O   UNL     1      -6.017 -15.648  33.288  1.00  0.00    -0.507 OA
ATOM     36  H   UNL     1      -6.804 -15.831  33.898  1.00  0.00     0.293 HD
ENDBRANCH  10  35
TORSDOF 9
ENDMDL
MODEL 4
REMARK VINA RESULT:    -2.759      2.494      4.700
REMARK INTER + INTRA:          -3.025
REMARK INTER:                  -4.695
REMARK INTRA:                   1.670
REMARK UNBOUND:                 0.702
REMARK SMILES O=c1c(-c2ccc(O)cc2)coc2c([C@H]3O[C@@H](CO)[C@@H](O)[C@@H](O)[C@@H]3O)c(O)ccc12
REMARK SMILES IDX 3 1 11 2 12 3 13 4 30 5 2 6 1 7 29 8 28 9 26 10 14 11 4 12
REMARK SMILES IDX 5 13 6 14 7 15 10 16 9 17 8 18 15 20 24 21 16 22 22 23 17 24
REMARK SMILES IDX 20 25 25 26 23 28 18 30 19 31 21 33 27 35
REMARK H PARENT 8 19 25 27 23 29 19 32 21 34 27 36
REMARK Flexibility Score: inf
ROOT
ATOM      1  C   UNL     1      -6.981 -12.659  25.735  1.00  0.00     0.065 A 
ATOM      2  C   UNL     1      -7.226 -12.029  26.965  1.00  0.00     0.208 A 
ATOM      3  O   UNL     1      -7.111 -12.696  28.106  1.00  0.00    -0.463 OA
ATOM      4  C   UNL     1      -6.751 -13.975  28.173  1.00  0.00     0.147 A 
ATOM      5  C   UNL     1      -6.489 -14.688  26.981  1.00  0.00     0.066 A 
ATOM      6  C   UNL     1      -6.616 -14.017  25.750  1.00  0.00     0.200 A 
ATOM      7  O   UNL     1      -6.394 -14.626  24.666  1.00  0.00    -0.288 OA
ATOM      8  C   UNL     1      -6.101 -16.031  27.050  1.00  0.00     0.020 A 
ATOM      9  C   UNL     1      -5.923 -16.642  28.288  1.00  0.00     0.047 A 
ATOM     10  C   UNL     1      -6.147 -15.942  29.480  1.00  0.00     0.125 A 
ATOM     11  C   UNL     1      -6.623 -14.600  29.440  1.00  0.00     0.069 A 
ENDROOT
BRANCH   1  12
ATOM     12  C   UNL     1      -7.078 -11.885  24.475  1.00  0.00    -0.011 A 
ATOM     13  C   UNL     1      -8.304 -11.747  23.799  1.00  0.00     0.013 A 
ATOM     14  C   UNL     1      -8.376 -11.013  22.610  1.00  0.00     0.047 A 
ATOM     15  C   UNL     1      -7.223 -10.416  22.080  1.00  0.00     0.115 A 
ATOM     16  C   UNL     1      -5.931 -11.273  23.941  1.00  0.00     0.013 A 
ATOM     17  C   UNL     1      -6.004 -10.549  22.750  1.00  0.00     0.047 A 
BRANCH  15  18
ATOM     18  O   UNL     1      -7.275  -9.690  20.893  1.00  0.00    -0.508 OA
ATOM     19  H   UNL     1      -6.475  -9.170  20.544  1.00  0.00     0.293 HD
ENDBRANCH  15  18
ENDBRANCH   1  12
BRANCH  11  20
ATOM     20  C   UNL     1      -7.018 -13.757  30.663  1.00  0.00     0.188 C 
ATOM     21  C   UNL     1      -6.944 -12.218  30.547  1.00  0.00     0.179 C 
ATOM     22  O   UNL     1      -6.202 -14.147  31.752  1.00  0.00    -0.362 OA
ATOM     23  C   UNL     1      -7.075 -11.538  31.946  1.00  0.00     0.177 C 
ATOM     24  C   UNL     1      -6.863 -13.917  32.988  1.00  0.00     0.176 C 
ATOM     25  C   UNL     1      -7.543 -12.506  33.067  1.00  0.00     0.177 C 
BRANCH  21  26
ATOM     26  O   UNL     1      -7.971 -11.772  29.697  1.00  0.00    -0.387 OA
ATOM     27  H   UNL     1      -7.563 -11.125  29.065  1.00  0.00     0.211 HD
ENDBRANCH  21  26
BRANCH  23  28
ATOM     28  O   UNL     1      -5.876 -10.894  32.307  1.00  0.00    -0.387 OA
ATOM     29  H   UNL     1      -6.016  -9.917  32.204  1.00  0.00     0.211 HD
ENDBRANCH  23  28
BRANCH  24  30
ATOM     30  C   UNL     1      -5.875 -14.207  34.133  1.00  0.00     0.191 C 
BRANCH  30  31
ATOM     31  O   UNL     1      -6.550 -14.433  35.341  1.00  0.00    -0.394 OA
ATOM     32  H   UNL     1      -7.007 -13.584  35.573  1.00  0.00     0.210 HD
ENDBRANCH  30  31
ENDBRANCH  24  30
BRANCH  25  33
ATOM     33  O   UNL     1      -7.361 -11.914  34.332  1.00  0.00    -0.388 OA
ATOM     34  H   UNL     1      -8.261 -11.647  34.660  1.00  0.00     0.211 HD
ENDBRANCH  25  33
ENDBRANCH  11  20
BRANCH  10  35
ATOM     35  O   UNL     1      -5.875 -16.594  30.679  1.00  0.00    -0.507 OA
ATOM     36  H   UNL     1      -5.132 -16.289  31.297  1.00  0.00     0.293 HD
ENDBRANCH  10  35
TORSDOF 9
ENDMDL
MODEL 5
REMARK VINA RESULT:    -2.570      2.033      7.349
REMARK INTER + INTRA:          -2.770
REMARK INTER:                  -4.426
REMARK INTRA:                   1.656
REMARK UNBOUND:                 0.702
REMARK SMILES O=c1c(-c2ccc(O)cc2)coc2c([C@H]3O[C@@H](CO)[C@@H](O)[C@@H](O)[C@@H]3O)c(O)ccc12
REMARK SMILES IDX 3 1 11 2 12 3 13 4 30 5 2 6 1 7 29 8 28 9 26 10 14 11 4 12
REMARK SMILES IDX 5 13 6 14 7 15 10 16 9 17 8 18 15 20 24 21 16 22 22 23 17 24
REMARK SMILES IDX 20 25 25 26 23 28 18 30 19 31 21 33 27 35
REMARK H PARENT 8 19 25 27 23 29 19 32 21 34 27 36
REMARK Flexibility Score: inf
ROOT
ATOM      1  C   UNL     1      -6.296 -15.952  33.388  1.00  0.00     0.065 A 
ATOM      2  C   UNL     1      -6.129 -15.866  31.998  1.00  0.00     0.208 A 
ATOM      3  O   UNL     1      -6.106 -14.688  31.387  1.00  0.00    -0.463 OA
ATOM      4  C   UNL     1      -6.223 -13.529  32.028  1.00  0.00     0.147 A 
ATOM      5  C   UNL     1      -6.398 -13.523  33.432  1.00  0.00     0.066 A 
ATOM      6  C   UNL     1      -6.444 -14.755  34.112  1.00  0.00     0.200 A 
ATOM      7  O   UNL     1      -6.604 -14.785  35.364  1.00  0.00    -0.288 OA
ATOM      8  C   UNL     1      -6.511 -12.304  34.109  1.00  0.00     0.020 A 
ATOM      9  C   UNL     1      -6.398 -11.105  33.410  1.00  0.00     0.047 A 
ATOM     10  C   UNL     1      -6.191 -11.091  32.025  1.00  0.00     0.125 A 
ATOM     11  C   UNL     1      -6.155 -12.315  31.297  1.00  0.00     0.069 A 
ENDROOT
BRANCH   1  12
ATOM     12  C   UNL     1      -6.280 -17.276  34.055  1.00  0.00    -0.011 A 
ATOM     13  C   UNL     1      -6.492 -17.394  35.441  1.00  0.00     0.013 A 
ATOM     14  C   UNL     1      -6.473 -18.652  36.053  1.00  0.00     0.047 A 
ATOM     15  C   UNL     1      -6.233 -19.803  35.290  1.00  0.00     0.115 A 
ATOM     16  C   UNL     1      -6.053 -18.437  33.297  1.00  0.00     0.013 A 
ATOM     17  C   UNL     1      -6.025 -19.690  33.912  1.00  0.00     0.047 A 
BRANCH  15  18
ATOM     18  O   UNL     1      -6.201 -21.062  35.884  1.00  0.00    -0.508 OA
ATOM     19  H   UNL     1      -6.097 -21.913  35.339  1.00  0.00     0.293 HD
ENDBRANCH  15  18
ENDBRANCH   1  12
BRANCH  11  20
ATOM     20  C   UNL     1      -6.051 -12.441  29.769  1.00  0.00     0.188 C 
ATOM     21  C   UNL     1      -6.715 -11.352  28.896  1.00  0.00     0.179 C 
ATOM     22  O   UNL     1      -6.597 -13.690  29.389  1.00  0.00    -0.362 OA
ATOM     23  C   UNL     1      -6.783 -11.790  27.400  1.00  0.00     0.177 C 
ATOM     24  C   UNL     1      -6.011 -14.153  28.181  1.00  0.00     0.176 C 
ATOM     25  C   UNL     1      -5.922 -13.041  27.077  1.00  0.00     0.177 C 
BRANCH  21  26
ATOM     26  O   UNL     1      -5.983 -10.158  29.016  1.00  0.00    -0.387 OA
ATOM     27  H   UNL     1      -6.635  -9.439  29.226  1.00  0.00     0.211 HD
ENDBRANCH  21  26
BRANCH  23  28
ATOM     28  O   UNL     1      -8.117 -11.978  26.990  1.00  0.00    -0.387 OA
ATOM     29  H   UNL     1      -8.566 -12.541  27.673  1.00  0.00     0.211 HD
ENDBRANCH  23  28
BRANCH  24  30
ATOM     30  C   UNL     1      -6.751 -15.427  27.735  1.00  0.00     0.191 C 
BRANCH  30  31
ATOM     31  O   UNL     1      -6.319 -16.546  28.460  1.00  0.00    -0.394 OA
ATOM     32  H   UNL     1      -5.815 -17.118  27.826  1.00  0.00     0.210 HD
ENDBRANCH  30  31
ENDBRANCH  24  30
BRANCH  25  33
ATOM     33  O   UNL     1      -6.251 -13.548  25.805  1.00  0.00    -0.388 OA
ATOM     34  H   UNL     1      -7.241 -13.498  25.721  1.00  0.00     0.211 HD
ENDBRANCH  25  33
ENDBRANCH  11  20
BRANCH  10  35
ATOM     35  O   UNL     1      -6.009  -9.858  31.406  1.00  0.00    -0.507 OA
ATOM     36  H   UNL     1      -6.398  -9.005  31.790  1.00  0.00     0.293 HD
ENDBRANCH  10  35
TORSDOF 9
ENDMDL
