MODEL 1
REMARK VINA RESULT:     6.998      0.000      0.000
REMARK INTER + INTRA:           9.820
REMARK INTER:                  10.680
REMARK INTRA:                  -0.860
REMARK UNBOUND:                -0.860
REMARK SMILES CC(=O)CCC=C(C)CCC=C(C)CCC=C(C)C
REMARK SMILES IDX 10 1 11 2 12 3 13 4 14 5 15 6 16 7 18 8 17 9 19 10 9 11 7 12
REMARK SMILES IDX 6 13 8 14 5 15 4 16 2 17 3 18 1 19
REMARK H PARENT
REMARK Flexibility Score: inf
ROOT
ATOM      1  C   UNL     1     -17.091  26.972 -13.122  1.00  0.00     0.032 C 
ENDROOT
BRANCH   1   2
ATOM      2  C   UNL     1     -17.943  27.295 -11.918  1.00  0.00    -0.028 C 
ATOM      3  C   UNL     1     -19.182  26.806 -11.685  1.00  0.00    -0.077 C 
ATOM      4  C   UNL     1     -19.913  27.275 -10.453  1.00  0.00     0.039 C 
BRANCH   3   5
ATOM      5  C   UNL     1     -19.852  25.784 -12.585  1.00  0.00     0.034 C 
BRANCH   5   6
ATOM      6  C   UNL     1     -21.307  26.162 -12.902  1.00  0.00     0.032 C 
BRANCH   6   7
ATOM      7  C   UNL     1     -21.395  27.443 -13.696  1.00  0.00    -0.028 C 
ATOM      8  C   UNL     1     -23.787  27.860 -13.081  1.00  0.00     0.039 C 
ATOM      9  C   UNL     1     -22.509  28.198 -13.812  1.00  0.00    -0.080 C 
ATOM     10  C   UNL     1     -22.455  29.425 -14.686  1.00  0.00     0.039 C 
ENDBRANCH   6   7
ENDBRANCH   5   6
ENDBRANCH   3   5
ENDBRANCH   1   2
BRANCH   1  11
ATOM     11  C   UNL     1     -16.007  28.037 -13.329  1.00  0.00     0.034 C 
BRANCH  11  12
ATOM     12  C   UNL     1     -14.619  27.439 -13.186  1.00  0.00    -0.077 C 
ATOM     13  C   UNL     1     -13.482  28.149 -13.370  1.00  0.00    -0.028 C 
ATOM     14  C   UNL     1     -14.495  25.980 -12.831  1.00  0.00     0.039 C 
BRANCH  13  15
ATOM     15  C   UNL     1     -13.406  29.628 -13.669  1.00  0.00     0.035 C 
BRANCH  15  16
ATOM     16  C   UNL     1     -11.981  30.043 -14.054  1.00  0.00     0.079 C 
BRANCH  16  17
ATOM     17  C   UNL     1     -11.961  31.383 -14.740  1.00  0.00     0.130 C 
ATOM     18  O   UNL     1     -12.008  32.404 -14.070  1.00  0.00    -0.300 OA
ATOM     19  C   UNL     1     -11.875  31.492 -16.233  1.00  0.00     0.087 C 
ENDBRANCH  16  17
ENDBRANCH  15  16
ENDBRANCH  13  15
ENDBRANCH  11  12
ENDBRANCH   1  11
TORSDOF 9
ENDMDL
MODEL 2
REMARK VINA RESULT:     7.973      2.702      8.374
REMARK INTER + INTRA:          11.308
REMARK INTER:                  11.489
REMARK INTRA:                  -0.181
REMARK UNBOUND:                -0.860
REMARK SMILES CC(=O)CCC=C(C)CCC=C(C)CCC=C(C)C
REMARK SMILES IDX 10 1 11 2 12 3 13 4 14 5 15 6 16 7 18 8 17 9 19 10 9 11 7 12
REMARK SMILES IDX 6 13 8 14 5 15 4 16 2 17 3 18 1 19
REMARK H PARENT
REMARK Flexibility Score: inf
ROOT
ATOM      1  C   UNL     1     -17.516  27.367 -12.120  1.00  0.00     0.032 C 
ENDROOT
BRANCH   1   2
ATOM      2  C   UNL     1     -16.150  26.775 -12.373  1.00  0.00    -0.028 C 
ATOM      3  C   UNL     1     -15.163  27.366 -13.083  1.00  0.00    -0.077 C 
ATOM      4  C   UNL     1     -13.875  26.608 -13.280  1.00  0.00     0.039 C 
BRANCH   3   5
ATOM      5  C   UNL     1     -15.280  28.767 -13.658  1.00  0.00     0.034 C 
BRANCH   5   6
ATOM      6  C   UNL     1     -14.003  29.590 -13.433  1.00  0.00     0.032 C 
BRANCH   6   7
ATOM      7  C   UNL     1     -13.352  29.984 -14.738  1.00  0.00    -0.028 C 
ATOM      8  C   UNL     1     -11.881  31.713 -13.677  1.00  0.00     0.039 C 
ATOM      9  C   UNL     1     -12.423  30.956 -14.868  1.00  0.00    -0.080 C 
ATOM     10  C   UNL     1     -11.904  31.272 -16.247  1.00  0.00     0.039 C 
ENDBRANCH   6   7
ENDBRANCH   5   6
ENDBRANCH   3   5
ENDBRANCH   1   2
BRANCH   1  11
ATOM     11  C   UNL     1     -18.419  26.369 -11.384  1.00  0.00     0.034 C 
BRANCH  11  12
ATOM     12  C   UNL     1     -19.758  26.994 -11.041  1.00  0.00    -0.077 C 
ATOM     13  C   UNL     1     -20.815  26.997 -11.886  1.00  0.00    -0.028 C 
ATOM     14  C   UNL     1     -19.924  27.654  -9.697  1.00  0.00     0.039 C 
BRANCH  13  15
ATOM     15  C   UNL     1     -20.858  26.336 -13.245  1.00  0.00     0.035 C 
BRANCH  15  16
ATOM     16  C   UNL     1     -21.328  27.319 -14.324  1.00  0.00     0.079 C 
BRANCH  16  17
ATOM     17  C   UNL     1     -22.494  28.145 -13.852  1.00  0.00     0.130 C 
ATOM     18  O   UNL     1     -22.664  29.265 -14.309  1.00  0.00    -0.300 OA
ATOM     19  C   UNL     1     -23.461  27.617 -12.834  1.00  0.00     0.087 C 
ENDBRANCH  16  17
ENDBRANCH  15  16
ENDBRANCH  13  15
ENDBRANCH  11  12
ENDBRANCH   1  11
TORSDOF 9
ENDMDL
MODEL 3
REMARK VINA RESULT:     9.426      1.062      1.459
REMARK INTER + INTRA:          13.525
REMARK INTER:                  13.840
REMARK INTRA:                  -0.315
REMARK UNBOUND:                -0.860
REMARK SMILES CC(=O)CCC=C(C)CCC=C(C)CCC=C(C)C
REMARK SMILES IDX 10 1 11 2 12 3 13 4 14 5 15 6 16 7 18 8 17 9 19 10 9 11 7 12
REMARK SMILES IDX 6 13 8 14 5 15 4 16 2 17 3 18 1 19
REMARK H PARENT
REMARK Flexibility Score: inf
ROOT
ATOM      1  C   UNL     1     -17.300  27.375 -12.551  1.00  0.00     0.032 C 
ENDROOT
BRANCH   1   2
ATOM      2  C   UNL     1     -18.410  26.624 -13.245  1.00  0.00    -0.028 C 
ATOM      3  C   UNL     1     -19.579  26.255 -12.673  1.00  0.00    -0.077 C 
ATOM      4  C   UNL     1     -20.558  25.462 -13.501  1.00  0.00     0.039 C 
BRANCH   3   5
ATOM      5  C   UNL     1     -19.962  26.632 -11.254  1.00  0.00     0.034 C 
BRANCH   5   6
ATOM      6  C   UNL     1     -21.353  27.281 -11.186  1.00  0.00     0.032 C 
BRANCH   6   7
ATOM      7  C   UNL     1     -21.643  28.117 -12.410  1.00  0.00    -0.028 C 
ATOM      8  C   UNL     1     -23.752  26.883 -12.962  1.00  0.00     0.039 C 
ATOM      9  C   UNL     1     -22.698  27.930 -13.234  1.00  0.00    -0.080 C 
ATOM     10  C   UNL     1     -22.824  28.814 -14.448  1.00  0.00     0.039 C 
ENDBRANCH   6   7
ENDBRANCH   5   6
ENDBRANCH   3   5
ENDBRANCH   1   2
BRANCH   1  11
ATOM     11  C   UNL     1     -16.200  27.769 -13.544  1.00  0.00     0.034 C 
BRANCH  11  12
ATOM     12  C   UNL     1     -14.847  27.246 -13.097  1.00  0.00    -0.077 C 
ATOM     13  C   UNL     1     -13.701  27.957 -13.208  1.00  0.00    -0.028 C 
ATOM     14  C   UNL     1     -14.767  25.861 -12.507  1.00  0.00     0.039 C 
BRANCH  13  15
ATOM     15  C   UNL     1     -13.592  29.377 -13.715  1.00  0.00     0.035 C 
BRANCH  15  16
ATOM     16  C   UNL     1     -12.127  29.787 -13.902  1.00  0.00     0.079 C 
BRANCH  16  17
ATOM     17  C   UNL     1     -11.981  30.855 -14.953  1.00  0.00     0.130 C 
ATOM     18  O   UNL     1     -11.938  30.537 -16.133  1.00  0.00    -0.300 OA
ATOM     19  C   UNL     1     -11.894  32.305 -14.583  1.00  0.00     0.087 C 
ENDBRANCH  16  17
ENDBRANCH  15  16
ENDBRANCH  13  15
ENDBRANCH  11  12
ENDBRANCH   1  11
TORSDOF 9
ENDMDL
