MODEL 1
REMARK VINA RESULT:    -3.845      0.000      0.000
REMARK INTER + INTRA:          -6.174
REMARK INTER:                  -5.867
REMARK INTRA:                  -0.307
REMARK UNBOUND:                -0.307
REMARK SMILES CC(=O)CCC=C(C)CCC=C(C)CCC=C(C)C
REMARK SMILES IDX 10 1 11 2 12 3 13 4 14 5 15 6 16 7 18 8 17 9 19 10 9 11 7 12
REMARK SMILES IDX 6 13 8 14 5 15 4 16 2 17 3 18 1 19
REMARK H PARENT
REMARK Flexibility Score: inf
ROOT
ATOM      1  C   UNL     1      27.169  26.580  25.423  1.00  0.00     0.032 C 
ENDROOT
BRANCH   1   2
ATOM      2  C   UNL     1      27.165  25.293  26.208  1.00  0.00    -0.028 C 
ATOM      3  C   UNL     1      26.762  24.100  25.714  1.00  0.00    -0.077 C 
ATOM      4  C   UNL     1      26.224  23.957  24.308  1.00  0.00     0.039 C 
BRANCH   3   5
ATOM      5  C   UNL     1      26.812  22.879  26.608  1.00  0.00     0.034 C 
BRANCH   5   6
ATOM      6  C   UNL     1      25.668  22.875  27.629  1.00  0.00     0.032 C 
BRANCH   6   7
ATOM      7  C   UNL     1      25.030  24.242  27.736  1.00  0.00    -0.028 C 
ATOM      8  C   UNL     1      22.707  23.395  27.323  1.00  0.00     0.039 C 
ATOM      9  C   UNL     1      23.704  24.485  27.623  1.00  0.00    -0.080 C 
ATOM     10  C   UNL     1      23.181  25.886  27.814  1.00  0.00     0.039 C 
ENDBRANCH   6   7
ENDBRANCH   5   6
ENDBRANCH   3   5
ENDBRANCH   1   2
BRANCH   1  11
ATOM     11  C   UNL     1      28.595  27.121  25.271  1.00  0.00     0.034 C 
BRANCH  11  12
ATOM     12  C   UNL     1      28.614  28.631  25.370  1.00  0.00    -0.077 C 
ATOM     13  C   UNL     1      29.043  29.354  24.312  1.00  0.00    -0.028 C 
ATOM     14  C   UNL     1      28.168  29.297  26.650  1.00  0.00     0.039 C 
BRANCH  13  15
ATOM     15  C   UNL     1      29.106  30.864  24.313  1.00  0.00     0.035 C 
BRANCH  15  16
ATOM     16  C   UNL     1      29.064  31.441  22.892  1.00  0.00     0.079 C 
BRANCH  16  17
ATOM     17  C   UNL     1      28.911  32.942  22.904  1.00  0.00     0.130 C 
ATOM     18  O   UNL     1      28.672  33.515  23.956  1.00  0.00    -0.300 OA
ATOM     19  C   UNL     1      29.038  33.749  21.646  1.00  0.00     0.087 C 
ENDBRANCH  16  17
ENDBRANCH  15  16
ENDBRANCH  13  15
ENDBRANCH  11  12
ENDBRANCH   1  11
TORSDOF 9
ENDMDL
MODEL 2
REMARK VINA RESULT:    -3.841      1.861      3.195
REMARK INTER + INTRA:          -6.168
REMARK INTER:                  -5.293
REMARK INTRA:                  -0.876
REMARK UNBOUND:                -0.307
REMARK SMILES CC(=O)CCC=C(C)CCC=C(C)CCC=C(C)C
REMARK SMILES IDX 10 1 11 2 12 3 13 4 14 5 15 6 16 7 18 8 17 9 19 10 9 11 7 12
REMARK SMILES IDX 6 13 8 14 5 15 4 16 2 17 3 18 1 19
REMARK H PARENT
REMARK Flexibility Score: inf
ROOT
ATOM      1  C   UNL     1      27.182  23.244  25.339  1.00  0.00     0.032 C 
ENDROOT
BRANCH   1   2
ATOM      2  C   UNL     1      26.221  23.239  26.501  1.00  0.00    -0.028 C 
ATOM      3  C   UNL     1      24.887  23.054  26.386  1.00  0.00    -0.077 C 
ATOM      4  C   UNL     1      24.217  22.876  25.042  1.00  0.00     0.039 C 
BRANCH   3   5
ATOM      5  C   UNL     1      24.032  23.068  27.635  1.00  0.00     0.034 C 
BRANCH   5   6
ATOM      6  C   UNL     1      22.834  24.016  27.495  1.00  0.00     0.032 C 
BRANCH   6   7
ATOM      7  C   UNL     1      23.258  25.457  27.672  1.00  0.00    -0.028 C 
ATOM      8  C   UNL     1      21.018  26.206  28.511  1.00  0.00     0.039 C 
ATOM      9  C   UNL     1      22.462  26.442  28.146  1.00  0.00    -0.080 C 
ATOM     10  C   UNL     1      23.020  27.829  28.338  1.00  0.00     0.039 C 
ENDBRANCH   6   7
ENDBRANCH   5   6
ENDBRANCH   3   5
ENDBRANCH   1   2
BRANCH   1  11
ATOM     11  C   UNL     1      27.174  24.603  24.630  1.00  0.00     0.034 C 
BRANCH  11  12
ATOM     12  C   UNL     1      27.791  25.672  25.505  1.00  0.00    -0.077 C 
ATOM     13  C   UNL     1      27.247  26.909  25.513  1.00  0.00    -0.028 C 
ATOM     14  C   UNL     1      29.007  25.342  26.337  1.00  0.00     0.039 C 
BRANCH  13  15
ATOM     15  C   UNL     1      27.792  28.046  26.345  1.00  0.00     0.035 C 
BRANCH  15  16
ATOM     16  C   UNL     1      28.787  28.910  25.558  1.00  0.00     0.079 C 
BRANCH  16  17
ATOM     17  C   UNL     1      28.156  29.501  24.322  1.00  0.00     0.130 C 
ATOM     18  O   UNL     1      26.974  29.809  24.338  1.00  0.00    -0.300 OA
ATOM     19  C   UNL     1      28.948  29.713  23.066  1.00  0.00     0.087 C 
ENDBRANCH  16  17
ENDBRANCH  15  16
ENDBRANCH  13  15
ENDBRANCH  11  12
ENDBRANCH   1  11
TORSDOF 9
ENDMDL
MODEL 3
REMARK VINA RESULT:    -3.780      2.497      7.045
REMARK INTER + INTRA:          -6.075
REMARK INTER:                  -5.091
REMARK INTRA:                  -0.984
REMARK UNBOUND:                -0.307
REMARK SMILES CC(=O)CCC=C(C)CCC=C(C)CCC=C(C)C
REMARK SMILES IDX 10 1 11 2 12 3 13 4 14 5 15 6 16 7 18 8 17 9 19 10 9 11 7 12
REMARK SMILES IDX 6 13 8 14 5 15 4 16 2 17 3 18 1 19
REMARK H PARENT
REMARK Flexibility Score: inf
ROOT
ATOM      1  C   UNL     1      26.377  23.478  26.509  1.00  0.00     0.032 C 
ENDROOT
BRANCH   1   2
ATOM      2  C   UNL     1      27.076  24.796  26.291  1.00  0.00    -0.028 C 
ATOM      3  C   UNL     1      28.149  24.966  25.485  1.00  0.00    -0.077 C 
ATOM      4  C   UNL     1      28.786  23.811  24.747  1.00  0.00     0.039 C 
BRANCH   3   5
ATOM      5  C   UNL     1      28.755  26.347  25.349  1.00  0.00     0.034 C 
BRANCH   5   6
ATOM      6  C   UNL     1      27.925  27.407  26.084  1.00  0.00     0.032 C 
BRANCH   6   7
ATOM      7  C   UNL     1      28.637  28.741  26.098  1.00  0.00    -0.028 C 
ATOM      8  C   UNL     1      27.389  29.639  24.119  1.00  0.00     0.039 C 
ATOM      9  C   UNL     1      28.391  29.756  25.239  1.00  0.00    -0.080 C 
ATOM     10  C   UNL     1      29.124  31.064  25.396  1.00  0.00     0.039 C 
ENDBRANCH   6   7
ENDBRANCH   5   6
ENDBRANCH   3   5
ENDBRANCH   1   2
BRANCH   1  11
ATOM     11  C   UNL     1      25.591  23.489  27.825  1.00  0.00     0.034 C 
BRANCH  11  12
ATOM     12  C   UNL     1      24.176  23.978  27.605  1.00  0.00    -0.077 C 
ATOM     13  C   UNL     1      23.845  25.229  27.997  1.00  0.00    -0.028 C 
ATOM     14  C   UNL     1      23.162  23.058  26.970  1.00  0.00     0.039 C 
BRANCH  13  15
ATOM     15  C   UNL     1      22.460  25.808  27.827  1.00  0.00     0.035 C 
BRANCH  15  16
ATOM     16  C   UNL     1      22.215  26.995  28.769  1.00  0.00     0.079 C 
BRANCH  16  17
ATOM     17  C   UNL     1      23.146  28.143  28.473  1.00  0.00     0.130 C 
ATOM     18  O   UNL     1      23.309  28.505  27.318  1.00  0.00    -0.300 OA
ATOM     19  C   UNL     1      23.886  28.850  29.570  1.00  0.00     0.087 C 
ENDBRANCH  16  17
ENDBRANCH  15  16
ENDBRANCH  13  15
ENDBRANCH  11  12
ENDBRANCH   1  11
TORSDOF 9
ENDMDL
MODEL 4
REMARK VINA RESULT:    -2.999      1.995      4.198
REMARK INTER + INTRA:          -4.883
REMARK INTER:                  -3.551
REMARK INTRA:                  -1.333
REMARK UNBOUND:                -0.307
REMARK SMILES CC(=O)CCC=C(C)CCC=C(C)CCC=C(C)C
REMARK SMILES IDX 10 1 11 2 12 3 13 4 14 5 15 6 16 7 18 8 17 9 19 10 9 11 7 12
REMARK SMILES IDX 6 13 8 14 5 15 4 16 2 17 3 18 1 19
REMARK H PARENT
REMARK Flexibility Score: inf
ROOT
ATOM      1  C   UNL     1      26.098  23.677  26.958  1.00  0.00     0.032 C 
ENDROOT
BRANCH   1   2
ATOM      2  C   UNL     1      24.936  24.378  27.614  1.00  0.00    -0.028 C 
ATOM      3  C   UNL     1      23.640  24.030  27.442  1.00  0.00    -0.077 C 
ATOM      4  C   UNL     1      23.229  22.906  26.519  1.00  0.00     0.039 C 
BRANCH   3   5
ATOM      5  C   UNL     1      22.566  24.816  28.164  1.00  0.00     0.034 C 
BRANCH   5   6
ATOM      6  C   UNL     1      22.321  26.180  27.507  1.00  0.00     0.032 C 
BRANCH   6   7
ATOM      7  C   UNL     1      22.489  27.302  28.505  1.00  0.00    -0.028 C 
ATOM      8  C   UNL     1      24.714  28.021  27.603  1.00  0.00     0.039 C 
ATOM      9  C   UNL     1      23.544  28.147  28.545  1.00  0.00    -0.080 C 
ATOM     10  C   UNL     1      23.567  29.270  29.551  1.00  0.00     0.039 C 
ENDBRANCH   6   7
ENDBRANCH   5   6
ENDBRANCH   3   5
ENDBRANCH   1   2
BRANCH   1  11
ATOM     11  C   UNL     1      26.306  24.187  25.527  1.00  0.00     0.034 C 
BRANCH  11  12
ATOM     12  C   UNL     1      27.601  24.962  25.413  1.00  0.00    -0.077 C 
ATOM     13  C   UNL     1      27.604  26.282  25.706  1.00  0.00    -0.028 C 
ATOM     14  C   UNL     1      28.855  24.253  24.961  1.00  0.00     0.039 C 
BRANCH  13  15
ATOM     15  C   UNL     1      28.842  27.145  25.618  1.00  0.00     0.035 C 
BRANCH  15  16
ATOM     16  C   UNL     1      28.799  28.313  26.612  1.00  0.00     0.079 C 
BRANCH  16  17
ATOM     17  C   UNL     1      28.610  29.635  25.912  1.00  0.00     0.130 C 
ATOM     18  O   UNL     1      28.972  30.664  26.460  1.00  0.00    -0.300 OA
ATOM     19  C   UNL     1      27.977  29.716  24.554  1.00  0.00     0.087 C 
ENDBRANCH  16  17
ENDBRANCH  15  16
ENDBRANCH  13  15
ENDBRANCH  11  12
ENDBRANCH   1  11
TORSDOF 9
ENDMDL
MODEL 5
REMARK VINA RESULT:    -2.085      2.808      6.606
REMARK INTER + INTRA:          -3.489
REMARK INTER:                  -2.488
REMARK INTRA:                  -1.001
REMARK UNBOUND:                -0.307
REMARK SMILES CC(=O)CCC=C(C)CCC=C(C)CCC=C(C)C
REMARK SMILES IDX 10 1 11 2 12 3 13 4 14 5 15 6 16 7 18 8 17 9 19 10 9 11 7 12
REMARK SMILES IDX 6 13 8 14 5 15 4 16 2 17 3 18 1 19
REMARK H PARENT
REMARK Flexibility Score: inf
ROOT
ATOM      1  C   UNL     1      24.582  24.080  26.826  1.00  0.00     0.032 C 
ENDROOT
BRANCH   1   2
ATOM      2  C   UNL     1      26.039  24.466  26.874  1.00  0.00    -0.028 C 
ATOM      3  C   UNL     1      26.833  24.584  25.785  1.00  0.00    -0.077 C 
ATOM      4  C   UNL     1      26.329  24.287  24.391  1.00  0.00     0.039 C 
BRANCH   3   5
ATOM      5  C   UNL     1      28.281  24.984  25.972  1.00  0.00     0.034 C 
BRANCH   5   6
ATOM      6  C   UNL     1      28.610  26.289  25.235  1.00  0.00     0.032 C 
BRANCH   6   7
ATOM      7  C   UNL     1      28.943  27.394  26.212  1.00  0.00    -0.028 C 
ATOM      8  C   UNL     1      27.556  29.112  25.026  1.00  0.00     0.039 C 
ATOM      9  C   UNL     1      28.461  28.656  26.142  1.00  0.00    -0.080 C 
ATOM     10  C   UNL     1      28.817  29.654  27.214  1.00  0.00     0.039 C 
ENDBRANCH   6   7
ENDBRANCH   5   6
ENDBRANCH   3   5
ENDBRANCH   1   2
BRANCH   1  11
ATOM     11  C   UNL     1      23.879  24.440  28.139  1.00  0.00     0.034 C 
BRANCH  11  12
ATOM     12  C   UNL     1      23.261  25.819  28.061  1.00  0.00    -0.077 C 
ATOM     13  C   UNL     1      24.048  26.903  28.243  1.00  0.00    -0.028 C 
ATOM     14  C   UNL     1      21.781  25.957  27.797  1.00  0.00     0.039 C 
BRANCH  13  15
ATOM     15  C   UNL     1      23.527  28.321  28.190  1.00  0.00     0.035 C 
BRANCH  15  16
ATOM     16  C   UNL     1      23.318  28.907  29.593  1.00  0.00     0.079 C 
BRANCH  16  17
ATOM     17  C   UNL     1      24.628  29.263  30.250  1.00  0.00     0.130 C 
ATOM     18  O   UNL     1      25.576  29.602  29.559  1.00  0.00    -0.300 OA
ATOM     19  C   UNL     1      24.795  29.201  31.740  1.00  0.00     0.087 C 
ENDBRANCH  16  17
ENDBRANCH  15  16
ENDBRANCH  13  15
ENDBRANCH  11  12
ENDBRANCH   1  11
TORSDOF 9
ENDMDL
MODEL 6
REMARK VINA RESULT:    -1.981      1.690      3.553
REMARK INTER + INTRA:          -3.330
REMARK INTER:                  -3.596
REMARK INTRA:                   0.266
REMARK UNBOUND:                -0.307
REMARK SMILES CC(=O)CCC=C(C)CCC=C(C)CCC=C(C)C
REMARK SMILES IDX 10 1 11 2 12 3 13 4 14 5 15 6 16 7 18 8 17 9 19 10 9 11 7 12
REMARK SMILES IDX 6 13 8 14 5 15 4 16 2 17 3 18 1 19
REMARK H PARENT
REMARK Flexibility Score: inf
ROOT
ATOM      1  C   UNL     1      26.133  25.023  26.780  1.00  0.00     0.032 C 
ENDROOT
BRANCH   1   2
ATOM      2  C   UNL     1      24.770  24.383  26.872  1.00  0.00    -0.028 C 
ATOM      3  C   UNL     1      24.431  23.439  27.779  1.00  0.00    -0.077 C 
ATOM      4  C   UNL     1      25.427  22.893  28.777  1.00  0.00     0.039 C 
BRANCH   3   5
ATOM      5  C   UNL     1      23.024  22.880  27.767  1.00  0.00     0.034 C 
BRANCH   5   6
ATOM      6  C   UNL     1      21.974  23.987  27.611  1.00  0.00     0.032 C 
BRANCH   6   7
ATOM      7  C   UNL     1      22.620  25.354  27.621  1.00  0.00    -0.028 C 
ATOM      8  C   UNL     1      20.850  26.385  29.065  1.00  0.00     0.039 C 
ATOM      9  C   UNL     1      22.139  26.429  28.285  1.00  0.00    -0.080 C 
ATOM     10  C   UNL     1      22.910  27.725  28.270  1.00  0.00     0.039 C 
ENDBRANCH   6   7
ENDBRANCH   5   6
ENDBRANCH   3   5
ENDBRANCH   1   2
BRANCH   1  11
ATOM     11  C   UNL     1      27.019  24.276  25.777  1.00  0.00     0.034 C 
BRANCH  11  12
ATOM     12  C   UNL     1      28.093  25.186  25.223  1.00  0.00    -0.077 C 
ATOM     13  C   UNL     1      28.100  26.489  25.581  1.00  0.00    -0.028 C 
ATOM     14  C   UNL     1      29.125  24.626  24.273  1.00  0.00     0.039 C 
BRANCH  13  15
ATOM     15  C   UNL     1      29.124  27.479  25.079  1.00  0.00     0.035 C 
BRANCH  15  16
ATOM     16  C   UNL     1      28.802  28.913  25.520  1.00  0.00     0.079 C 
BRANCH  16  17
ATOM     17  C   UNL     1      28.234  29.732  24.387  1.00  0.00     0.130 C 
ATOM     18  O   UNL     1      27.141  29.444  23.926  1.00  0.00    -0.300 OA
ATOM     19  C   UNL     1      28.990  30.890  23.807  1.00  0.00     0.087 C 
ENDBRANCH  16  17
ENDBRANCH  15  16
ENDBRANCH  13  15
ENDBRANCH  11  12
ENDBRANCH   1  11
TORSDOF 9
ENDMDL
MODEL 7
REMARK VINA RESULT:    -1.686      2.656      5.633
REMARK INTER + INTRA:          -2.880
REMARK INTER:                  -1.775
REMARK INTRA:                  -1.106
REMARK UNBOUND:                -0.307
REMARK SMILES CC(=O)CCC=C(C)CCC=C(C)CCC=C(C)C
REMARK SMILES IDX 10 1 11 2 12 3 13 4 14 5 15 6 16 7 18 8 17 9 19 10 9 11 7 12
REMARK SMILES IDX 6 13 8 14 5 15 4 16 2 17 3 18 1 19
REMARK H PARENT
REMARK Flexibility Score: inf
ROOT
ATOM      1  C   UNL     1      24.004  24.130  27.645  1.00  0.00     0.032 C 
ENDROOT
BRANCH   1   2
ATOM      2  C   UNL     1      23.763  25.604  27.850  1.00  0.00    -0.028 C 
ATOM      3  C   UNL     1      22.538  26.168  27.956  1.00  0.00    -0.077 C 
ATOM      4  C   UNL     1      21.269  25.356  27.830  1.00  0.00     0.039 C 
BRANCH   3   5
ATOM      5  C   UNL     1      22.434  27.664  28.165  1.00  0.00     0.034 C 
BRANCH   5   6
ATOM      6  C   UNL     1      23.800  28.293  28.468  1.00  0.00     0.032 C 
BRANCH   6   7
ATOM      7  C   UNL     1      23.914  28.665  29.930  1.00  0.00    -0.028 C 
ATOM      8  C   UNL     1      26.169  29.728  29.674  1.00  0.00     0.039 C 
ATOM      9  C   UNL     1      24.958  29.326  30.478  1.00  0.00    -0.080 C 
ATOM     10  C   UNL     1      24.927  29.697  31.938  1.00  0.00     0.039 C 
ENDBRANCH   6   7
ENDBRANCH   5   6
ENDBRANCH   3   5
ENDBRANCH   1   2
BRANCH   1  11
ATOM     11  C   UNL     1      25.504  23.813  27.681  1.00  0.00     0.034 C 
BRANCH  11  12
ATOM     12  C   UNL     1      26.186  24.290  26.417  1.00  0.00    -0.077 C 
ATOM     13  C   UNL     1      27.078  25.303  26.494  1.00  0.00    -0.028 C 
ATOM     14  C   UNL     1      25.848  23.638  25.098  1.00  0.00     0.039 C 
BRANCH  13  15
ATOM     15  C   UNL     1      27.807  25.854  25.291  1.00  0.00     0.035 C 
BRANCH  15  16
ATOM     16  C   UNL     1      28.814  26.945  25.680  1.00  0.00     0.079 C 
BRANCH  16  17
ATOM     17  C   UNL     1      28.189  28.318  25.649  1.00  0.00     0.130 C 
ATOM     18  O   UNL     1      27.252  28.536  24.897  1.00  0.00    -0.300 OA
ATOM     19  C   UNL     1      28.701  29.428  26.518  1.00  0.00     0.087 C 
ENDBRANCH  16  17
ENDBRANCH  15  16
ENDBRANCH  13  15
ENDBRANCH  11  12
ENDBRANCH   1  11
TORSDOF 9
ENDMDL
MODEL 8
REMARK VINA RESULT:    -1.123      2.452      4.900
REMARK INTER + INTRA:          -2.020
REMARK INTER:                  -1.495
REMARK INTRA:                  -0.525
REMARK UNBOUND:                -0.307
REMARK SMILES CC(=O)CCC=C(C)CCC=C(C)CCC=C(C)C
REMARK SMILES IDX 10 1 11 2 12 3 13 4 14 5 15 6 16 7 18 8 17 9 19 10 9 11 7 12
REMARK SMILES IDX 6 13 8 14 5 15 4 16 2 17 3 18 1 19
REMARK H PARENT
REMARK Flexibility Score: inf
ROOT
ATOM      1  C   UNL     1      22.482  26.014  27.692  1.00  0.00     0.032 C 
ENDROOT
BRANCH   1   2
ATOM      2  C   UNL     1      23.779  25.325  28.034  1.00  0.00    -0.028 C 
ATOM      3  C   UNL     1      24.094  24.064  27.660  1.00  0.00    -0.077 C 
ATOM      4  C   UNL     1      23.130  23.195  26.884  1.00  0.00     0.039 C 
BRANCH   3   5
ATOM      5  C   UNL     1      25.435  23.490  28.065  1.00  0.00     0.034 C 
BRANCH   5   6
ATOM      6  C   UNL     1      26.175  22.875  26.871  1.00  0.00     0.032 C 
BRANCH   6   7
ATOM      7  C   UNL     1      27.408  23.679  26.523  1.00  0.00    -0.028 C 
ATOM      8  C   UNL     1      26.929  23.695  24.063  1.00  0.00     0.039 C 
ATOM      9  C   UNL     1      27.745  24.072  25.274  1.00  0.00    -0.080 C 
ATOM     10  C   UNL     1      28.968  24.927  25.062  1.00  0.00     0.039 C 
ENDBRANCH   6   7
ENDBRANCH   5   6
ENDBRANCH   3   5
ENDBRANCH   1   2
BRANCH   1  11
ATOM     11  C   UNL     1      22.357  27.345  28.443  1.00  0.00     0.034 C 
BRANCH  11  12
ATOM     12  C   UNL     1      23.659  28.115  28.397  1.00  0.00    -0.077 C 
ATOM     13  C   UNL     1      24.596  27.767  27.487  1.00  0.00    -0.028 C 
ATOM     14  C   UNL     1      23.891  29.242  29.374  1.00  0.00     0.039 C 
BRANCH  13  15
ATOM     15  C   UNL     1      25.929  28.468  27.365  1.00  0.00     0.035 C 
BRANCH  15  16
ATOM     16  C   UNL     1      26.899  27.704  26.454  1.00  0.00     0.079 C 
BRANCH  16  17
ATOM     17  C   UNL     1      27.650  28.633  25.533  1.00  0.00     0.130 C 
ATOM     18  O   UNL     1      28.816  28.906  25.774  1.00  0.00    -0.300 OA
ATOM     19  C   UNL     1      26.992  29.237  24.329  1.00  0.00     0.087 C 
ENDBRANCH  16  17
ENDBRANCH  15  16
ENDBRANCH  13  15
ENDBRANCH  11  12
ENDBRANCH   1  11
TORSDOF 9
ENDMDL
