MODEL 1
REMARK VINA RESULT:    -3.315      0.000      0.000
REMARK INTER + INTRA:          -8.014
REMARK INTER:                  -5.834
REMARK INTRA:                  -2.180
REMARK UNBOUND:                -2.180
REMARK SMILES CCCCCCC=CCCCCCCCC(=O)[O-]
REMARK SMILES IDX 10 1 11 2 12 3 13 4 14 5 15 6 16 7 17 8 18 9 9 10 8 11 7 12
REMARK SMILES IDX 6 13 5 14 4 15 3 16 2 17 1 18
REMARK H PARENT
REMARK Flexibility Score: inf
ROOT
ATOM      1  C   UNL     1      61.237  32.067  59.437  1.00  0.00     0.004 C 
ENDROOT
BRANCH   1   2
ATOM      2  C   UNL     1      61.566  31.815  60.918  1.00  0.00     0.000 C 
BRANCH   2   3
ATOM      3  C   UNL     1      61.090  30.439  61.412  1.00  0.00     0.000 C 
BRANCH   3   4
ATOM      4  C   UNL     1      62.204  29.519  61.955  1.00  0.00     0.000 C 
BRANCH   4   5
ATOM      5  C   UNL     1      63.615  29.807  61.403  1.00  0.00     0.006 C 
BRANCH   5   6
ATOM      6  C   UNL     1      64.253  28.625  60.657  1.00  0.00     0.053 C 
BRANCH   6   7
ATOM      7  C   UNL     1      65.692  28.876  60.322  1.00  0.00     0.041 C 
ATOM      8  O   UNL     1      66.021  29.223  59.158  1.00  0.00    -0.550 OA
ATOM      9  O   UNL     1      66.670  28.721  61.295  1.00  0.00    -0.550 OA
ENDBRANCH   6   7
ENDBRANCH   5   6
ENDBRANCH   4   5
ENDBRANCH   3   4
ENDBRANCH   2   3
ENDBRANCH   1   2
BRANCH   1  10
ATOM     10  C   UNL     1      61.182  33.565  59.102  1.00  0.00     0.027 C 
BRANCH  10  11
ATOM     11  C   UNL     1      60.660  34.392  60.250  1.00  0.00    -0.031 C 
ATOM     12  C   UNL     1      61.316  35.415  60.828  1.00  0.00    -0.031 C 
BRANCH  12  13
ATOM     13  C   UNL     1      62.691  35.902  60.435  1.00  0.00     0.027 C 
BRANCH  13  14
ATOM     14  C   UNL     1      63.735  35.611  61.525  1.00  0.00     0.004 C 
BRANCH  14  15
ATOM     15  C   UNL     1      64.546  34.326  61.276  1.00  0.00     0.000 C 
BRANCH  15  16
ATOM     16  C   UNL     1      64.793  34.052  59.782  1.00  0.00    -0.000 C 
BRANCH  16  17
ATOM     17  C   UNL     1      64.899  32.551  59.470  1.00  0.00    -0.003 C 
ATOM     18  C   UNL     1      64.673  32.242  57.990  1.00  0.00     0.004 C 
ENDBRANCH  16  17
ENDBRANCH  15  16
ENDBRANCH  14  15
ENDBRANCH  13  14
ENDBRANCH  12  13
ENDBRANCH  10  11
ENDBRANCH   1  10
TORSDOF 13
ENDMDL
MODEL 2
REMARK VINA RESULT:    -3.304     11.587     13.612
REMARK INTER + INTRA:          -7.994
REMARK INTER:                  -5.980
REMARK INTRA:                  -2.013
REMARK UNBOUND:                -2.180
REMARK SMILES CCCCCCC=CCCCCCCCC(=O)[O-]
REMARK SMILES IDX 10 1 11 2 12 3 13 4 14 5 15 6 16 7 17 8 18 9 9 10 8 11 7 12
REMARK SMILES IDX 6 13 5 14 4 15 3 16 2 17 1 18
REMARK H PARENT
REMARK Flexibility Score: inf
ROOT
ATOM      1  C   UNL     1      55.864  28.811  52.040  1.00  0.00     0.004 C 
ENDROOT
BRANCH   1   2
ATOM      2  C   UNL     1      57.364  29.032  52.296  1.00  0.00     0.000 C 
BRANCH   2   3
ATOM      3  C   UNL     1      58.249  27.966  51.629  1.00  0.00     0.000 C 
BRANCH   3   4
ATOM      4  C   UNL     1      59.180  28.493  50.517  1.00  0.00     0.000 C 
BRANCH   4   5
ATOM      5  C   UNL     1      59.701  27.421  49.538  1.00  0.00     0.006 C 
BRANCH   5   6
ATOM      6  C   UNL     1      59.079  26.031  49.736  1.00  0.00     0.053 C 
BRANCH   6   7
ATOM      7  C   UNL     1      60.063  25.041  50.282  1.00  0.00     0.041 C 
ATOM      8  O   UNL     1      61.283  25.340  50.365  1.00  0.00    -0.550 OA
ATOM      9  O   UNL     1      59.633  23.788  50.696  1.00  0.00    -0.550 OA
ENDBRANCH   6   7
ENDBRANCH   5   6
ENDBRANCH   4   5
ENDBRANCH   3   4
ENDBRANCH   2   3
ENDBRANCH   1   2
BRANCH   1  10
ATOM     10  C   UNL     1      55.604  28.073  50.718  1.00  0.00     0.027 C 
BRANCH  10  11
ATOM     11  C   UNL     1      54.131  27.908  50.433  1.00  0.00    -0.031 C 
ATOM     12  C   UNL     1      53.555  26.785  49.966  1.00  0.00    -0.031 C 
BRANCH  12  13
ATOM     13  C   UNL     1      54.284  25.504  49.637  1.00  0.00     0.027 C 
BRANCH  13  14
ATOM     14  C   UNL     1      53.642  24.287  50.325  1.00  0.00     0.004 C 
BRANCH  14  15
ATOM     15  C   UNL     1      53.204  24.558  51.776  1.00  0.00     0.000 C 
BRANCH  15  16
ATOM     16  C   UNL     1      54.236  24.084  52.814  1.00  0.00    -0.000 C 
BRANCH  16  17
ATOM     17  C   UNL     1      55.321  25.138  53.087  1.00  0.00    -0.003 C 
ATOM     18  C   UNL     1      56.667  24.771  52.463  1.00  0.00     0.004 C 
ENDBRANCH  16  17
ENDBRANCH  15  16
ENDBRANCH  14  15
ENDBRANCH  13  14
ENDBRANCH  12  13
ENDBRANCH  10  11
ENDBRANCH   1  10
TORSDOF 13
ENDMDL
MODEL 3
REMARK VINA RESULT:    -3.238     11.410     13.263
REMARK INTER + INTRA:          -7.878
REMARK INTER:                  -5.544
REMARK INTRA:                  -2.333
REMARK UNBOUND:                -2.180
REMARK SMILES CCCCCCC=CCCCCCCCC(=O)[O-]
REMARK SMILES IDX 10 1 11 2 12 3 13 4 14 5 15 6 16 7 17 8 18 9 9 10 8 11 7 12
REMARK SMILES IDX 6 13 5 14 4 15 3 16 2 17 1 18
REMARK H PARENT
REMARK Flexibility Score: inf
ROOT
ATOM      1  C   UNL     1      57.765  28.688  51.392  1.00  0.00     0.004 C 
ENDROOT
BRANCH   1   2
ATOM      2  C   UNL     1      56.444  27.958  51.685  1.00  0.00     0.000 C 
BRANCH   2   3
ATOM      3  C   UNL     1      55.265  28.497  50.858  1.00  0.00     0.000 C 
BRANCH   3   4
ATOM      4  C   UNL     1      54.368  27.416  50.218  1.00  0.00     0.000 C 
BRANCH   4   5
ATOM      5  C   UNL     1      55.031  26.034  50.050  1.00  0.00     0.006 C 
BRANCH   5   6
ATOM      6  C   UNL     1      54.094  24.847  50.322  1.00  0.00     0.053 C 
BRANCH   6   7
ATOM      7  C   UNL     1      54.041  24.487  51.776  1.00  0.00     0.041 C 
ATOM      8  O   UNL     1      53.002  23.970  52.263  1.00  0.00    -0.550 OA
ATOM      9  O   UNL     1      55.137  24.727  52.593  1.00  0.00    -0.550 OA
ENDBRANCH   6   7
ENDBRANCH   5   6
ENDBRANCH   4   5
ENDBRANCH   3   4
ENDBRANCH   2   3
ENDBRANCH   1   2
BRANCH   1  10
ATOM     10  C   UNL     1      58.178  28.570  49.917  1.00  0.00     0.027 C 
BRANCH  10  11
ATOM     11  C   UNL     1      59.507  27.877  49.746  1.00  0.00    -0.031 C 
ATOM     12  C   UNL     1      59.686  26.544  49.721  1.00  0.00    -0.031 C 
BRANCH  12  13
ATOM     13  C   UNL     1      58.592  25.514  49.871  1.00  0.00     0.027 C 
BRANCH  13  14
ATOM     14  C   UNL     1      58.881  24.533  51.019  1.00  0.00     0.004 C 
BRANCH  14  15
ATOM     15  C   UNL     1      59.833  25.099  52.090  1.00  0.00     0.000 C 
BRANCH  15  16
ATOM     16  C   UNL     1      59.107  25.510  53.382  1.00  0.00    -0.000 C 
BRANCH  16  17
ATOM     17  C   UNL     1      59.587  26.867  53.919  1.00  0.00    -0.003 C 
ATOM     18  C   UNL     1      60.867  27.349  53.238  1.00  0.00     0.004 C 
ENDBRANCH  16  17
ENDBRANCH  15  16
ENDBRANCH  14  15
ENDBRANCH  13  14
ENDBRANCH  12  13
ENDBRANCH  10  11
ENDBRANCH   1  10
TORSDOF 13
ENDMDL
MODEL 4
REMARK VINA RESULT:    -3.215     11.434     13.633
REMARK INTER + INTRA:          -7.838
REMARK INTER:                  -5.459
REMARK INTRA:                  -2.379
REMARK UNBOUND:                -2.180
REMARK SMILES CCCCCCC=CCCCCCCCC(=O)[O-]
REMARK SMILES IDX 10 1 11 2 12 3 13 4 14 5 15 6 16 7 17 8 18 9 9 10 8 11 7 12
REMARK SMILES IDX 6 13 5 14 4 15 3 16 2 17 1 18
REMARK H PARENT
REMARK Flexibility Score: inf
ROOT
ATOM      1  C   UNL     1      55.924  26.005  53.338  1.00  0.00     0.004 C 
ENDROOT
BRANCH   1   2
ATOM      2  C   UNL     1      57.136  26.542  52.559  1.00  0.00     0.000 C 
BRANCH   2   3
ATOM      3  C   UNL     1      57.540  27.963  52.985  1.00  0.00     0.000 C 
BRANCH   3   4
ATOM      4  C   UNL     1      57.924  28.907  51.827  1.00  0.00     0.000 C 
BRANCH   4   5
ATOM      5  C   UNL     1      57.671  28.343  50.414  1.00  0.00     0.006 C 
BRANCH   5   6
ATOM      6  C   UNL     1      58.896  28.385  49.489  1.00  0.00     0.053 C 
BRANCH   6   7
ATOM      7  C   UNL     1      59.768  27.176  49.646  1.00  0.00     0.041 C 
ATOM      8  O   UNL     1      59.264  26.023  49.614  1.00  0.00    -0.550 OA
ATOM      9  O   UNL     1      61.136  27.323  49.832  1.00  0.00    -0.550 OA
ENDBRANCH   6   7
ENDBRANCH   5   6
ENDBRANCH   4   5
ENDBRANCH   3   4
ENDBRANCH   2   3
ENDBRANCH   1   2
BRANCH   1  10
ATOM     10  C   UNL     1      55.453  24.641  52.811  1.00  0.00     0.027 C 
BRANCH  10  11
ATOM     11  C   UNL     1      53.955  24.480  52.890  1.00  0.00    -0.031 C 
ATOM     12  C   UNL     1      53.127  24.424  51.831  1.00  0.00    -0.031 C 
BRANCH  12  13
ATOM     13  C   UNL     1      53.552  24.523  50.385  1.00  0.00     0.027 C 
BRANCH  13  14
ATOM     14  C   UNL     1      53.278  25.919  49.802  1.00  0.00     0.004 C 
BRANCH  14  15
ATOM     15  C   UNL     1      54.419  26.925  50.045  1.00  0.00     0.000 C 
BRANCH  15  16
ATOM     16  C   UNL     1      53.914  28.319  50.454  1.00  0.00    -0.000 C 
BRANCH  16  17
ATOM     17  C   UNL     1      53.618  28.419  51.959  1.00  0.00    -0.003 C 
ATOM     18  C   UNL     1      54.214  29.674  52.593  1.00  0.00     0.004 C 
ENDBRANCH  16  17
ENDBRANCH  15  16
ENDBRANCH  14  15
ENDBRANCH  13  14
ENDBRANCH  12  13
ENDBRANCH  10  11
ENDBRANCH   1  10
TORSDOF 13
ENDMDL
MODEL 5
REMARK VINA RESULT:    -3.191      3.168      6.118
REMARK INTER + INTRA:          -7.795
REMARK INTER:                  -5.711
REMARK INTRA:                  -2.084
REMARK UNBOUND:                -2.180
REMARK SMILES CCCCCCC=CCCCCCCCC(=O)[O-]
REMARK SMILES IDX 10 1 11 2 12 3 13 4 14 5 15 6 16 7 17 8 18 9 9 10 8 11 7 12
REMARK SMILES IDX 6 13 5 14 4 15 3 16 2 17 1 18
REMARK H PARENT
REMARK Flexibility Score: inf
ROOT
ATOM      1  C   UNL     1      64.811  33.929  59.271  1.00  0.00     0.004 C 
ENDROOT
BRANCH   1   2
ATOM      2  C   UNL     1      64.730  35.127  60.232  1.00  0.00     0.000 C 
BRANCH   2   3
ATOM      3  C   UNL     1      63.676  34.938  61.337  1.00  0.00     0.000 C 
BRANCH   3   4
ATOM      4  C   UNL     1      62.397  35.785  61.170  1.00  0.00     0.000 C 
BRANCH   4   5
ATOM      5  C   UNL     1      61.476  35.354  60.011  1.00  0.00     0.006 C 
BRANCH   5   6
ATOM      6  C   UNL     1      60.039  35.017  60.439  1.00  0.00     0.053 C 
BRANCH   6   7
ATOM      7  C   UNL     1      59.169  34.656  59.273  1.00  0.00     0.041 C 
ATOM      8  O   UNL     1      58.899  33.451  59.034  1.00  0.00    -0.550 OA
ATOM      9  O   UNL     1      58.661  35.651  58.450  1.00  0.00    -0.550 OA
ENDBRANCH   6   7
ENDBRANCH   5   6
ENDBRANCH   4   5
ENDBRANCH   3   4
ENDBRANCH   2   3
ENDBRANCH   1   2
BRANCH   1  10
ATOM     10  C   UNL     1      64.338  32.624  59.929  1.00  0.00     0.027 C 
BRANCH  10  11
ATOM     11  C   UNL     1      63.305  31.904  59.098  1.00  0.00    -0.031 C 
ATOM     12  C   UNL     1      62.079  31.549  59.526  1.00  0.00    -0.031 C 
BRANCH  12  13
ATOM     13  C   UNL     1      61.532  31.799  60.911  1.00  0.00     0.027 C 
BRANCH  13  14
ATOM     14  C   UNL     1      61.251  30.487  61.662  1.00  0.00     0.004 C 
BRANCH  14  15
ATOM     15  C   UNL     1      62.500  29.609  61.860  1.00  0.00     0.000 C 
BRANCH  15  16
ATOM     16  C   UNL     1      62.401  28.254  61.139  1.00  0.00    -0.000 C 
BRANCH  16  17
ATOM     17  C   UNL     1      63.772  27.727  60.687  1.00  0.00    -0.003 C 
ATOM     18  C   UNL     1      64.852  28.809  60.702  1.00  0.00     0.004 C 
ENDBRANCH  16  17
ENDBRANCH  15  16
ENDBRANCH  14  15
ENDBRANCH  13  14
ENDBRANCH  12  13
ENDBRANCH  10  11
ENDBRANCH   1  10
TORSDOF 13
ENDMDL
MODEL 6
REMARK VINA RESULT:    -3.155      2.148      3.949
REMARK INTER + INTRA:          -7.733
REMARK INTER:                  -5.688
REMARK INTRA:                  -2.045
REMARK UNBOUND:                -2.180
REMARK SMILES CCCCCCC=CCCCCCCCC(=O)[O-]
REMARK SMILES IDX 10 1 11 2 12 3 13 4 14 5 15 6 16 7 17 8 18 9 9 10 8 11 7 12
REMARK SMILES IDX 6 13 5 14 4 15 3 16 2 17 1 18
REMARK H PARENT
REMARK Flexibility Score: inf
ROOT
ATOM      1  C   UNL     1      64.357  33.688  60.904  1.00  0.00     0.004 C 
ENDROOT
BRANCH   1   2
ATOM      2  C   UNL     1      64.467  32.710  59.722  1.00  0.00     0.000 C 
BRANCH   2   3
ATOM      3  C   UNL     1      64.872  31.291  60.154  1.00  0.00     0.000 C 
BRANCH   3   4
ATOM      4  C   UNL     1      64.052  30.706  61.323  1.00  0.00     0.000 C 
BRANCH   4   5
ATOM      5  C   UNL     1      63.649  29.226  61.163  1.00  0.00     0.006 C 
BRANCH   5   6
ATOM      6  C   UNL     1      62.227  28.904  61.648  1.00  0.00     0.053 C 
BRANCH   6   7
ATOM      7  C   UNL     1      61.281  28.662  60.512  1.00  0.00     0.041 C 
ATOM      8  O   UNL     1      61.615  28.954  59.335  1.00  0.00    -0.550 OA
ATOM      9  O   UNL     1      60.026  28.118  60.755  1.00  0.00    -0.550 OA
ENDBRANCH   6   7
ENDBRANCH   5   6
ENDBRANCH   4   5
ENDBRANCH   3   4
ENDBRANCH   2   3
ENDBRANCH   1   2
BRANCH   1  10
ATOM     10  C   UNL     1      63.916  35.090  60.458  1.00  0.00     0.027 C 
BRANCH  10  11
ATOM     11  C   UNL     1      62.833  35.659  61.341  1.00  0.00    -0.031 C 
ATOM     12  C   UNL     1      61.639  36.106  60.909  1.00  0.00    -0.031 C 
BRANCH  12  13
ATOM     13  C   UNL     1      61.184  36.125  59.469  1.00  0.00     0.027 C 
BRANCH  13  14
ATOM     14  C   UNL     1      59.683  35.815  59.339  1.00  0.00     0.004 C 
BRANCH  14  15
ATOM     15  C   UNL     1      59.269  34.480  59.984  1.00  0.00     0.000 C 
BRANCH  15  16
ATOM     16  C   UNL     1      59.431  33.279  59.036  1.00  0.00    -0.000 C 
BRANCH  16  17
ATOM     17  C   UNL     1      60.656  32.419  59.381  1.00  0.00    -0.003 C 
ATOM     18  C   UNL     1      60.909  32.332  60.886  1.00  0.00     0.004 C 
ENDBRANCH  16  17
ENDBRANCH  15  16
ENDBRANCH  14  15
ENDBRANCH  13  14
ENDBRANCH  12  13
ENDBRANCH  10  11
ENDBRANCH   1  10
TORSDOF 13
ENDMDL
MODEL 7
REMARK VINA RESULT:    -3.123     11.147     13.162
REMARK INTER + INTRA:          -7.676
REMARK INTER:                  -5.353
REMARK INTRA:                  -2.323
REMARK UNBOUND:                -2.180
REMARK SMILES CCCCCCC=CCCCCCCCC(=O)[O-]
REMARK SMILES IDX 10 1 11 2 12 3 13 4 14 5 15 6 16 7 17 8 18 9 9 10 8 11 7 12
REMARK SMILES IDX 6 13 5 14 4 15 3 16 2 17 1 18
REMARK H PARENT
REMARK Flexibility Score: inf
ROOT
ATOM      1  C   UNL     1      55.860  25.660  50.382  1.00  0.00     0.004 C 
ENDROOT
BRANCH   1   2
ATOM      2  C   UNL     1      54.396  25.460  49.956  1.00  0.00     0.000 C 
BRANCH   2   3
ATOM      3  C   UNL     1      53.588  26.769  49.955  1.00  0.00     0.000 C 
BRANCH   3   4
ATOM      4  C   UNL     1      54.384  28.027  50.360  1.00  0.00     0.000 C 
BRANCH   4   5
ATOM      5  C   UNL     1      53.960  28.665  51.698  1.00  0.00     0.006 C 
BRANCH   5   6
ATOM      6  C   UNL     1      55.093  29.396  52.435  1.00  0.00     0.053 C 
BRANCH   6   7
ATOM      7  C   UNL     1      55.267  28.904  53.840  1.00  0.00     0.041 C 
ATOM      8  O   UNL     1      54.628  27.898  54.243  1.00  0.00    -0.550 OA
ATOM      9  O   UNL     1      56.132  29.560  54.705  1.00  0.00    -0.550 OA
ENDBRANCH   6   7
ENDBRANCH   5   6
ENDBRANCH   4   5
ENDBRANCH   3   4
ENDBRANCH   2   3
ENDBRANCH   1   2
BRANCH   1  10
ATOM     10  C   UNL     1      56.163  25.007  51.739  1.00  0.00     0.027 C 
BRANCH  10  11
ATOM     11  C   UNL     1      57.059  25.862  52.601  1.00  0.00    -0.031 C 
ATOM     12  C   UNL     1      58.397  25.738  52.687  1.00  0.00    -0.031 C 
BRANCH  12  13
ATOM     13  C   UNL     1      59.227  24.716  51.947  1.00  0.00     0.027 C 
BRANCH  13  14
ATOM     14  C   UNL     1      60.151  25.373  50.908  1.00  0.00     0.004 C 
BRANCH  14  15
ATOM     15  C   UNL     1      59.400  25.975  49.707  1.00  0.00     0.000 C 
BRANCH  15  16
ATOM     16  C   UNL     1      59.644  27.484  49.541  1.00  0.00    -0.000 C 
BRANCH  16  17
ATOM     17  C   UNL     1      58.413  28.323  49.921  1.00  0.00    -0.003 C 
ATOM     18  C   UNL     1      58.595  29.069  51.242  1.00  0.00     0.004 C 
ENDBRANCH  16  17
ENDBRANCH  15  16
ENDBRANCH  14  15
ENDBRANCH  13  14
ENDBRANCH  12  13
ENDBRANCH  10  11
ENDBRANCH   1  10
TORSDOF 13
ENDMDL
MODEL 8
REMARK VINA RESULT:    -3.102      2.710      4.600
REMARK INTER + INTRA:          -7.639
REMARK INTER:                  -5.465
REMARK INTRA:                  -2.174
REMARK UNBOUND:                -2.180
REMARK SMILES CCCCCCC=CCCCCCCCC(=O)[O-]
REMARK SMILES IDX 10 1 11 2 12 3 13 4 14 5 15 6 16 7 17 8 18 9 9 10 8 11 7 12
REMARK SMILES IDX 6 13 5 14 4 15 3 16 2 17 1 18
REMARK H PARENT
REMARK Flexibility Score: inf
ROOT
ATOM      1  C   UNL     1      63.154  29.163  61.049  1.00  0.00     0.004 C 
ENDROOT
BRANCH   1   2
ATOM      2  C   UNL     1      62.103  29.847  61.938  1.00  0.00     0.000 C 
BRANCH   2   3
ATOM      3  C   UNL     1      61.194  30.812  61.158  1.00  0.00     0.000 C 
BRANCH   3   4
ATOM      4  C   UNL     1      61.297  30.707  59.623  1.00  0.00     0.000 C 
BRANCH   4   5
ATOM      5  C   UNL     1      60.017  30.220  58.914  1.00  0.00     0.006 C 
BRANCH   5   6
ATOM      6  C   UNL     1      60.071  28.758  58.446  1.00  0.00     0.053 C 
BRANCH   6   7
ATOM      7  C   UNL     1      59.952  27.792  59.586  1.00  0.00     0.041 C 
ATOM      8  O   UNL     1      58.983  27.872  60.385  1.00  0.00    -0.550 OA
ATOM      9  O   UNL     1      60.913  26.807  59.768  1.00  0.00    -0.550 OA
ENDBRANCH   6   7
ENDBRANCH   5   6
ENDBRANCH   4   5
ENDBRANCH   3   4
ENDBRANCH   2   3
ENDBRANCH   1   2
BRANCH   1  10
ATOM     10  C   UNL     1      64.557  29.755  61.250  1.00  0.00     0.027 C 
BRANCH  10  11
ATOM     11  C   UNL     1      64.991  30.613  60.087  1.00  0.00    -0.031 C 
ATOM     12  C   UNL     1      64.825  31.946  60.005  1.00  0.00    -0.031 C 
BRANCH  12  13
ATOM     13  C   UNL     1      64.169  32.809  61.057  1.00  0.00     0.027 C 
BRANCH  13  14
ATOM     14  C   UNL     1      63.963  34.252  60.568  1.00  0.00     0.004 C 
BRANCH  14  15
ATOM     15  C   UNL     1      62.564  34.815  60.877  1.00  0.00     0.000 C 
BRANCH  15  16
ATOM     16  C   UNL     1      61.496  34.357  59.870  1.00  0.00    -0.000 C 
BRANCH  16  17
ATOM     17  C   UNL     1      60.083  34.350  60.474  1.00  0.00    -0.003 C 
ATOM     18  C   UNL     1      58.990  34.247  59.411  1.00  0.00     0.004 C 
ENDBRANCH  16  17
ENDBRANCH  15  16
ENDBRANCH  14  15
ENDBRANCH  13  14
ENDBRANCH  12  13
ENDBRANCH  10  11
ENDBRANCH   1  10
TORSDOF 13
ENDMDL
MODEL 9
REMARK VINA RESULT:    -3.094     11.539     13.381
REMARK INTER + INTRA:          -7.625
REMARK INTER:                  -5.203
REMARK INTRA:                  -2.422
REMARK UNBOUND:                -2.180
REMARK SMILES CCCCCCC=CCCCCCCCC(=O)[O-]
REMARK SMILES IDX 10 1 11 2 12 3 13 4 14 5 15 6 16 7 17 8 18 9 9 10 8 11 7 12
REMARK SMILES IDX 6 13 5 14 4 15 3 16 2 17 1 18
REMARK H PARENT
REMARK Flexibility Score: inf
ROOT
ATOM      1  C   UNL     1      58.517  25.003  51.816  1.00  0.00     0.004 C 
ENDROOT
BRANCH   1   2
ATOM      2  C   UNL     1      57.009  25.033  51.515  1.00  0.00     0.000 C 
BRANCH   2   3
ATOM      3  C   UNL     1      56.395  26.435  51.670  1.00  0.00     0.000 C 
BRANCH   3   4
ATOM      4  C   UNL     1      55.816  27.039  50.374  1.00  0.00     0.000 C 
BRANCH   4   5
ATOM      5  C   UNL     1      54.318  27.402  50.436  1.00  0.00     0.006 C 
BRANCH   5   6
ATOM      6  C   UNL     1      53.421  26.286  50.993  1.00  0.00     0.053 C 
BRANCH   6   7
ATOM      7  C   UNL     1      53.323  25.117  50.061  1.00  0.00     0.041 C 
ATOM      8  O   UNL     1      53.023  25.294  48.852  1.00  0.00    -0.550 OA
ATOM      9  O   UNL     1      53.559  23.832  50.529  1.00  0.00    -0.550 OA
ENDBRANCH   6   7
ENDBRANCH   5   6
ENDBRANCH   4   5
ENDBRANCH   3   4
ENDBRANCH   2   3
ENDBRANCH   1   2
BRANCH   1  10
ATOM     10  C   UNL     1      59.360  24.856  50.540  1.00  0.00     0.027 C 
BRANCH  10  11
ATOM     11  C   UNL     1      60.537  25.799  50.518  1.00  0.00    -0.031 C 
ATOM     12  C   UNL     1      60.537  27.022  49.955  1.00  0.00    -0.031 C 
BRANCH  12  13
ATOM     13  C   UNL     1      59.366  27.653  49.241  1.00  0.00     0.027 C 
BRANCH  13  14
ATOM     14  C   UNL     1      58.883  28.929  49.949  1.00  0.00     0.004 C 
BRANCH  14  15
ATOM     15  C   UNL     1      59.450  29.100  51.370  1.00  0.00     0.000 C 
BRANCH  15  16
ATOM     16  C   UNL     1      58.383  29.519  52.396  1.00  0.00    -0.000 C 
BRANCH  16  17
ATOM     17  C   UNL     1      58.522  28.768  53.729  1.00  0.00    -0.003 C 
ATOM     18  C   UNL     1      59.710  27.807  53.741  1.00  0.00     0.004 C 
ENDBRANCH  16  17
ENDBRANCH  15  16
ENDBRANCH  14  15
ENDBRANCH  13  14
ENDBRANCH  12  13
ENDBRANCH  10  11
ENDBRANCH   1  10
TORSDOF 13
ENDMDL
