MODEL 1
REMARK VINA RESULT:    -6.274      0.000      0.000
REMARK INTER + INTRA:          -7.475
REMARK INTER:                  -7.191
REMARK INTRA:                  -0.285
REMARK UNBOUND:                -0.285
REMARK SMILES O=C1C[C@H](c2ccc(O)cc2)Oc2cc(O)cc(O)c21
REMARK SMILES IDX 3 1 4 2 12 3 13 4 14 5 15 6 17 7 18 8 20 9 2 10 1 11 5 12
REMARK SMILES IDX 6 13 11 14 7 15 10 16 8 17 9 18 19 20 16 22
REMARK H PARENT 9 19 19 21 16 23
REMARK Flexibility Score: inf
ROOT
ATOM      1  C   UNL     1      13.629   9.027  29.792  1.00  0.00     0.131 C 
ATOM      2  C   UNL     1      12.683   7.837  29.571  1.00  0.00     0.211 C 
ATOM      3  O   UNL     1      11.454   8.273  28.982  1.00  0.00    -0.484 OA
ATOM      4  C   UNL     1      10.798   9.434  29.407  1.00  0.00     0.138 A 
ATOM      5  C   UNL     1       9.468   9.646  29.036  1.00  0.00     0.093 A 
ATOM      6  C   UNL     1       8.789  10.787  29.470  1.00  0.00     0.123 A 
ATOM      7  C   UNL     1       9.447  11.725  30.275  1.00  0.00     0.093 A 
ATOM      8  C   UNL     1      10.788  11.534  30.639  1.00  0.00     0.133 A 
ATOM      9  C   UNL     1      11.475  10.383  30.197  1.00  0.00     0.102 A 
ATOM     10  C   UNL     1      12.906  10.137  30.499  1.00  0.00     0.174 C 
ATOM     11  O   UNL     1      13.542  10.876  31.299  1.00  0.00    -0.294 OA
ENDROOT
BRANCH   2  12
ATOM     12  C   UNL     1      13.333   6.791  28.699  1.00  0.00    -0.007 A 
ATOM     13  C   UNL     1      13.436   5.458  29.134  1.00  0.00     0.011 A 
ATOM     14  C   UNL     1      13.794   7.129  27.415  1.00  0.00     0.011 A 
ATOM     15  C   UNL     1      14.010   4.487  28.309  1.00  0.00     0.046 A 
ATOM     16  C   UNL     1      14.369   6.155  26.592  1.00  0.00     0.046 A 
ATOM     17  C   UNL     1      14.481   4.834  27.036  1.00  0.00     0.115 A 
BRANCH  17  18
ATOM     18  O   UNL     1      15.056   3.875  26.206  1.00  0.00    -0.508 OA
ATOM     19  H   UNL     1      16.054   3.700  26.209  1.00  0.00     0.293 HD
ENDBRANCH  17  18
ENDBRANCH   2  12
BRANCH   8  20
ATOM     20  O   UNL     1      11.431  12.489  31.426  1.00  0.00    -0.507 OA
ATOM     21  H   UNL     1      11.702  13.392  31.054  1.00  0.00     0.293 HD
ENDBRANCH   8  20
BRANCH   6  22
ATOM     22  O   UNL     1       7.459  10.977  29.099  1.00  0.00    -0.508 OA
ATOM     23  H   UNL     1       6.696  10.748  29.725  1.00  0.00     0.293 HD
ENDBRANCH   6  22
TORSDOF 4
ENDMDL
