MODEL 1
REMARK VINA RESULT:    -3.840      0.000      0.000
REMARK INTER + INTRA:          -6.845
REMARK INTER:                  -5.861
REMARK INTRA:                  -0.984
REMARK UNBOUND:                -0.984
REMARK SMILES CCCCCCCCCCC(=O)[O-]
REMARK SMILES IDX 7 1 8 2 9 3 10 4 11 5 12 6 13 7 6 8 5 9 4 10 3 11 2 12 1 13
REMARK H PARENT
REMARK Flexibility Score: inf
ROOT
ATOM      1  C   UNL     1      30.345   5.928 -23.231  1.00  0.00     0.000 C 
ENDROOT
BRANCH   1   2
ATOM      2  C   UNL     1      29.664   4.586 -23.555  1.00  0.00     0.000 C 
BRANCH   2   3
ATOM      3  C   UNL     1      29.587   4.241 -25.053  1.00  0.00     0.006 C 
BRANCH   3   4
ATOM      4  C   UNL     1      30.958   3.924 -25.665  1.00  0.00     0.053 C 
BRANCH   4   5
ATOM      5  C   UNL     1      31.240   4.838 -26.816  1.00  0.00     0.041 C 
ATOM      6  O   UNL     1      31.401   4.368 -27.973  1.00  0.00    -0.550 OA
ATOM      7  O   UNL     1      31.376   6.203 -26.603  1.00  0.00    -0.550 OA
ENDBRANCH   4   5
ENDBRANCH   3   4
ENDBRANCH   2   3
ENDBRANCH   1   2
BRANCH   1   8
ATOM      8  C   UNL     1      31.723   5.757 -22.574  1.00  0.00     0.000 C 
BRANCH   8   9
ATOM      9  C   UNL     1      31.659   4.753 -21.416  1.00  0.00    -0.000 C 
BRANCH   9  10
ATOM     10  C   UNL     1      31.258   5.448 -20.106  1.00  0.00    -0.000 C 
BRANCH  10  11
ATOM     11  C   UNL     1      29.828   5.101 -19.665  1.00  0.00    -0.000 C 
BRANCH  11  12
ATOM     12  C   UNL     1      28.875   6.301 -19.750  1.00  0.00    -0.003 C 
ATOM     13  C   UNL     1      27.640   5.965 -20.581  1.00  0.00     0.004 C 
ENDBRANCH  11  12
ENDBRANCH  10  11
ENDBRANCH   9  10
ENDBRANCH   8   9
ENDBRANCH   1   8
TORSDOF 9
ENDMDL
MODEL 2
REMARK VINA RESULT:    -3.831     21.572     24.015
REMARK INTER + INTRA:          -6.831
REMARK INTER:                  -6.366
REMARK INTRA:                  -0.466
REMARK UNBOUND:                -0.984
REMARK SMILES CCCCCCCCCCC(=O)[O-]
REMARK SMILES IDX 7 1 8 2 9 3 10 4 11 5 12 6 13 7 6 8 5 9 4 10 3 11 2 12 1 13
REMARK H PARENT
REMARK Flexibility Score: inf
ROOT
ATOM      1  C   UNL     1      12.467  22.077 -18.914  1.00  0.00     0.000 C 
ENDROOT
BRANCH   1   2
ATOM      2  C   UNL     1      13.561  21.053 -19.269  1.00  0.00     0.000 C 
BRANCH   2   3
ATOM      3  C   UNL     1      14.652  20.870 -18.199  1.00  0.00     0.006 C 
BRANCH   3   4
ATOM      4  C   UNL     1      15.970  21.563 -18.565  1.00  0.00     0.053 C 
BRANCH   4   5
ATOM      5  C   UNL     1      17.100  20.990 -17.769  1.00  0.00     0.041 C 
ATOM      6  O   UNL     1      18.247  21.505 -17.835  1.00  0.00    -0.550 OA
ATOM      7  O   UNL     1      16.899  19.856 -16.993  1.00  0.00    -0.550 OA
ENDBRANCH   4   5
ENDBRANCH   3   4
ENDBRANCH   2   3
ENDBRANCH   1   2
BRANCH   1   8
ATOM      8  C   UNL     1      12.024  22.923 -20.117  1.00  0.00     0.000 C 
BRANCH   8   9
ATOM      9  C   UNL     1      13.177  23.113 -21.110  1.00  0.00    -0.000 C 
BRANCH   9  10
ATOM     10  C   UNL     1      12.683  22.989 -22.558  1.00  0.00    -0.000 C 
BRANCH  10  11
ATOM     11  C   UNL     1      13.662  22.216 -23.455  1.00  0.00    -0.000 C 
BRANCH  11  12
ATOM     12  C   UNL     1      13.783  22.824 -24.860  1.00  0.00    -0.003 C 
ATOM     13  C   UNL     1      13.107  21.938 -25.902  1.00  0.00     0.004 C 
ENDBRANCH  11  12
ENDBRANCH  10  11
ENDBRANCH   9  10
ENDBRANCH   8   9
ENDBRANCH   1   8
TORSDOF 9
ENDMDL
MODEL 3
REMARK VINA RESULT:    -3.749      3.394      6.040
REMARK INTER + INTRA:          -6.705
REMARK INTER:                  -5.870
REMARK INTRA:                  -0.835
REMARK UNBOUND:                -0.984
REMARK SMILES CCCCCCCCCCC(=O)[O-]
REMARK SMILES IDX 7 1 8 2 9 3 10 4 11 5 12 6 13 7 6 8 5 9 4 10 3 11 2 12 1 13
REMARK H PARENT
REMARK Flexibility Score: inf
ROOT
ATOM      1  C   UNL     1      29.590   4.983 -22.845  1.00  0.00     0.000 C 
ENDROOT
BRANCH   1   2
ATOM      2  C   UNL     1      30.569   5.549 -21.801  1.00  0.00     0.000 C 
BRANCH   2   3
ATOM      3  C   UNL     1      30.228   5.209 -20.339  1.00  0.00     0.006 C 
BRANCH   3   4
ATOM      4  C   UNL     1      28.718   5.140 -20.078  1.00  0.00     0.053 C 
BRANCH   4   5
ATOM      5  C   UNL     1      28.179   6.500 -19.766  1.00  0.00     0.041 C 
ATOM      6  O   UNL     1      27.243   6.984 -20.454  1.00  0.00    -0.550 OA
ATOM      7  O   UNL     1      28.744   7.255 -18.746  1.00  0.00    -0.550 OA
ENDBRANCH   4   5
ENDBRANCH   3   4
ENDBRANCH   2   3
ENDBRANCH   1   2
BRANCH   1   8
ATOM      8  C   UNL     1      30.298   4.273 -24.008  1.00  0.00     0.000 C 
BRANCH   8   9
ATOM      9  C   UNL     1      29.512   4.438 -25.314  1.00  0.00    -0.000 C 
BRANCH   9  10
ATOM     10  C   UNL     1      30.325   5.227 -26.351  1.00  0.00    -0.000 C 
BRANCH  10  11
ATOM     11  C   UNL     1      31.764   5.504 -25.890  1.00  0.00    -0.000 C 
BRANCH  11  12
ATOM     12  C   UNL     1      32.116   6.998 -25.916  1.00  0.00    -0.003 C 
ATOM     13  C   UNL     1      31.877   7.643 -24.553  1.00  0.00     0.004 C 
ENDBRANCH  11  12
ENDBRANCH  10  11
ENDBRANCH   9  10
ENDBRANCH   8   9
ENDBRANCH   1   8
TORSDOF 9
ENDMDL
MODEL 4
REMARK VINA RESULT:    -3.743     21.665     23.769
REMARK INTER + INTRA:          -6.696
REMARK INTER:                  -6.121
REMARK INTRA:                  -0.576
REMARK UNBOUND:                -0.984
REMARK SMILES CCCCCCCCCCC(=O)[O-]
REMARK SMILES IDX 7 1 8 2 9 3 10 4 11 5 12 6 13 7 6 8 5 9 4 10 3 11 2 12 1 13
REMARK H PARENT
REMARK Flexibility Score: inf
ROOT
ATOM      1  C   UNL     1      13.016  23.217 -20.891  1.00  0.00     0.000 C 
ENDROOT
BRANCH   1   2
ATOM      2  C   UNL     1      12.585  22.891 -22.332  1.00  0.00     0.000 C 
BRANCH   2   3
ATOM      3  C   UNL     1      13.666  22.220 -23.198  1.00  0.00     0.006 C 
BRANCH   3   4
ATOM      4  C   UNL     1      13.784  22.841 -24.595  1.00  0.00     0.053 C 
BRANCH   4   5
ATOM      5  C   UNL     1      13.287  21.887 -25.635  1.00  0.00     0.041 C 
ATOM      6  O   UNL     1      13.166  22.261 -26.831  1.00  0.00    -0.550 OA
ATOM      7  O   UNL     1      12.910  20.600 -25.275  1.00  0.00    -0.550 OA
ENDBRANCH   4   5
ENDBRANCH   3   4
ENDBRANCH   2   3
ENDBRANCH   1   2
BRANCH   1   8
ATOM      8  C   UNL     1      12.027  22.700 -19.837  1.00  0.00     0.000 C 
BRANCH   8   9
ATOM      9  C   UNL     1      12.737  21.824 -18.798  1.00  0.00    -0.000 C 
BRANCH   9  10
ATOM     10  C   UNL     1      14.195  21.562 -19.204  1.00  0.00    -0.000 C 
BRANCH  10  11
ATOM     11  C   UNL     1      14.494  20.070 -19.412  1.00  0.00    -0.000 C 
BRANCH  11  12
ATOM     12  C   UNL     1      15.666  19.575 -18.552  1.00  0.00    -0.003 C 
ATOM     13  C   UNL     1      16.128  20.656 -17.579  1.00  0.00     0.004 C 
ENDBRANCH  11  12
ENDBRANCH  10  11
ENDBRANCH   9  10
ENDBRANCH   8   9
ENDBRANCH   1   8
TORSDOF 9
ENDMDL
MODEL 5
REMARK VINA RESULT:    -3.728     23.363     24.999
REMARK INTER + INTRA:          -6.674
REMARK INTER:                  -6.093
REMARK INTRA:                  -0.581
REMARK UNBOUND:                -0.984
REMARK SMILES CCCCCCCCCCC(=O)[O-]
REMARK SMILES IDX 7 1 8 2 9 3 10 4 11 5 12 6 13 7 6 8 5 9 4 10 3 11 2 12 1 13
REMARK H PARENT
REMARK Flexibility Score: inf
ROOT
ATOM      1  C   UNL     1      12.402  22.889 -24.357  1.00  0.00     0.000 C 
ENDROOT
BRANCH   1   2
ATOM      2  C   UNL     1      12.645  23.284 -22.888  1.00  0.00     0.000 C 
BRANCH   2   3
ATOM      3  C   UNL     1      12.466  22.142 -21.871  1.00  0.00     0.006 C 
BRANCH   3   4
ATOM      4  C   UNL     1      12.017  22.636 -20.491  1.00  0.00     0.053 C 
BRANCH   4   5
ATOM      5  C   UNL     1      13.096  22.412 -19.479  1.00  0.00     0.041 C 
ATOM      6  O   UNL     1      14.289  22.710 -19.748  1.00  0.00    -0.550 OA
ATOM      7  O   UNL     1      12.792  21.827 -18.256  1.00  0.00    -0.550 OA
ENDBRANCH   4   5
ENDBRANCH   3   4
ENDBRANCH   2   3
ENDBRANCH   1   2
BRANCH   1   8
ATOM      8  C   UNL     1      13.701  22.774 -25.168  1.00  0.00     0.000 C 
BRANCH   8   9
ATOM      9  C   UNL     1      13.402  22.520 -26.651  1.00  0.00    -0.000 C 
BRANCH   9  10
ATOM     10  C   UNL     1      12.235  21.536 -26.817  1.00  0.00    -0.000 C 
BRANCH  10  11
ATOM     11  C   UNL     1      12.592  20.337 -27.708  1.00  0.00    -0.000 C 
BRANCH  11  12
ATOM     12  C   UNL     1      12.480  18.996 -26.968  1.00  0.00    -0.003 C 
ATOM     13  C   UNL     1      12.528  19.196 -25.456  1.00  0.00     0.004 C 
ENDBRANCH  11  12
ENDBRANCH  10  11
ENDBRANCH   9  10
ENDBRANCH   8   9
ENDBRANCH   1   8
TORSDOF 9
ENDMDL
MODEL 6
REMARK VINA RESULT:    -3.689      3.165      6.093
REMARK INTER + INTRA:          -6.614
REMARK INTER:                  -6.019
REMARK INTRA:                  -0.595
REMARK UNBOUND:                -0.984
REMARK SMILES CCCCCCCCCCC(=O)[O-]
REMARK SMILES IDX 7 1 8 2 9 3 10 4 11 5 12 6 13 7 6 8 5 9 4 10 3 11 2 12 1 13
REMARK H PARENT
REMARK Flexibility Score: inf
ROOT
ATOM      1  C   UNL     1      30.873   5.891 -21.734  1.00  0.00     0.000 C 
ENDROOT
BRANCH   1   2
ATOM      2  C   UNL     1      31.068   5.557 -20.243  1.00  0.00     0.000 C 
BRANCH   2   3
ATOM      3  C   UNL     1      29.822   4.997 -19.534  1.00  0.00     0.006 C 
BRANCH   3   4
ATOM      4  C   UNL     1      28.891   6.095 -19.005  1.00  0.00     0.053 C 
BRANCH   4   5
ATOM      5  C   UNL     1      27.785   6.357 -19.977  1.00  0.00     0.041 C 
ATOM      6  O   UNL     1      27.338   5.423 -20.694  1.00  0.00    -0.550 OA
ATOM      7  O   UNL     1      27.281   7.642 -20.128  1.00  0.00    -0.550 OA
ENDBRANCH   4   5
ENDBRANCH   3   4
ENDBRANCH   2   3
ENDBRANCH   1   2
BRANCH   1   8
ATOM      8  C   UNL     1      30.799   4.642 -22.623  1.00  0.00     0.000 C 
BRANCH   8   9
ATOM      9  C   UNL     1      29.491   4.611 -23.423  1.00  0.00    -0.000 C 
BRANCH   9  10
ATOM     10  C   UNL     1      29.752   4.246 -24.892  1.00  0.00    -0.000 C 
BRANCH  10  11
ATOM     11  C   UNL     1      31.245   4.069 -25.203  1.00  0.00    -0.000 C 
BRANCH  11  12
ATOM     12  C   UNL     1      31.716   4.952 -26.368  1.00  0.00    -0.003 C 
ATOM     13  C   UNL     1      31.087   4.507 -27.684  1.00  0.00     0.004 C 
ENDBRANCH  11  12
ENDBRANCH  10  11
ENDBRANCH   9  10
ENDBRANCH   8   9
ENDBRANCH   1   8
TORSDOF 9
ENDMDL
MODEL 7
REMARK VINA RESULT:    -3.672     21.007     23.271
REMARK INTER + INTRA:          -6.589
REMARK INTER:                  -5.983
REMARK INTRA:                  -0.606
REMARK UNBOUND:                -0.984
REMARK SMILES CCCCCCCCCCC(=O)[O-]
REMARK SMILES IDX 7 1 8 2 9 3 10 4 11 5 12 6 13 7 6 8 5 9 4 10 3 11 2 12 1 13
REMARK H PARENT
REMARK Flexibility Score: inf
ROOT
ATOM      1  C   UNL     1      12.824  21.888 -18.700  1.00  0.00     0.000 C 
ENDROOT
BRANCH   1   2
ATOM      2  C   UNL     1      12.016  22.715 -19.718  1.00  0.00     0.000 C 
BRANCH   2   3
ATOM      3  C   UNL     1      12.808  23.178 -20.953  1.00  0.00     0.006 C 
BRANCH   3   4
ATOM      4  C   UNL     1      12.286  22.569 -22.261  1.00  0.00     0.053 C 
BRANCH   4   5
ATOM      5  C   UNL     1      13.395  21.886 -22.998  1.00  0.00     0.041 C 
ATOM      6  O   UNL     1      13.970  22.466 -23.956  1.00  0.00    -0.550 OA
ATOM      7  O   UNL     1      13.758  20.589 -22.661  1.00  0.00    -0.550 OA
ENDBRANCH   4   5
ENDBRANCH   3   4
ENDBRANCH   2   3
ENDBRANCH   1   2
BRANCH   1   8
ATOM      8  C   UNL     1      14.292  21.702 -19.110  1.00  0.00     0.000 C 
BRANCH   8   9
ATOM      9  C   UNL     1      14.688  20.221 -19.081  1.00  0.00    -0.000 C 
BRANCH   9  10
ATOM     10  C   UNL     1      15.913  19.995 -18.182  1.00  0.00    -0.000 C 
BRANCH  10  11
ATOM     11  C   UNL     1      16.592  21.308 -17.765  1.00  0.00    -0.000 C 
BRANCH  11  12
ATOM     12  C   UNL     1      18.118  21.177 -17.660  1.00  0.00    -0.003 C 
ATOM     13  C   UNL     1      18.509  20.066 -16.690  1.00  0.00     0.004 C 
ENDBRANCH  11  12
ENDBRANCH  10  11
ENDBRANCH   9  10
ENDBRANCH   8   9
ENDBRANCH   1   8
TORSDOF 9
ENDMDL
MODEL 8
REMARK VINA RESULT:    -3.634      1.935      2.493
REMARK INTER + INTRA:          -6.530
REMARK INTER:                  -6.029
REMARK INTRA:                  -0.501
REMARK UNBOUND:                -0.984
REMARK SMILES CCCCCCCCCCC(=O)[O-]
REMARK SMILES IDX 7 1 8 2 9 3 10 4 11 5 12 6 13 7 6 8 5 9 4 10 3 11 2 12 1 13
REMARK H PARENT
REMARK Flexibility Score: inf
ROOT
ATOM      1  C   UNL     1      31.015   6.003 -25.262  1.00  0.00     0.000 C 
ENDROOT
BRANCH   1   2
ATOM      2  C   UNL     1      31.433   5.452 -26.638  1.00  0.00     0.000 C 
BRANCH   2   3
ATOM      3  C   UNL     1      31.010   3.998 -26.911  1.00  0.00     0.006 C 
BRANCH   3   4
ATOM      4  C   UNL     1      29.996   3.875 -28.055  1.00  0.00     0.053 C 
BRANCH   4   5
ATOM      5  C   UNL     1      28.599   3.886 -27.518  1.00  0.00     0.041 C 
ATOM      6  O   UNL     1      27.618   3.946 -28.304  1.00  0.00    -0.550 OA
ATOM      7  O   UNL     1      28.381   3.880 -26.146  1.00  0.00    -0.550 OA
ENDBRANCH   4   5
ENDBRANCH   3   4
ENDBRANCH   2   3
ENDBRANCH   1   2
BRANCH   1   8
ATOM      8  C   UNL     1      31.128   4.961 -24.140  1.00  0.00     0.000 C 
BRANCH   8   9
ATOM      9  C   UNL     1      31.254   5.638 -22.770  1.00  0.00    -0.000 C 
BRANCH   9  10
ATOM     10  C   UNL     1      31.127   4.613 -21.634  1.00  0.00    -0.000 C 
BRANCH  10  11
ATOM     11  C   UNL     1      30.448   5.193 -20.385  1.00  0.00    -0.000 C 
BRANCH  11  12
ATOM     12  C   UNL     1      28.996   4.718 -20.226  1.00  0.00    -0.003 C 
ATOM     13  C   UNL     1      28.016   5.760 -20.758  1.00  0.00     0.004 C 
ENDBRANCH  11  12
ENDBRANCH  10  11
ENDBRANCH   9  10
ENDBRANCH   8   9
ENDBRANCH   1   8
TORSDOF 9
ENDMDL
MODEL 9
REMARK VINA RESULT:    -3.620     22.648     24.315
REMARK INTER + INTRA:          -6.509
REMARK INTER:                  -6.113
REMARK INTRA:                  -0.395
REMARK UNBOUND:                -0.984
REMARK SMILES CCCCCCCCCCC(=O)[O-]
REMARK SMILES IDX 7 1 8 2 9 3 10 4 11 5 12 6 13 7 6 8 5 9 4 10 3 11 2 12 1 13
REMARK H PARENT
REMARK Flexibility Score: inf
ROOT
ATOM      1  C   UNL     1      13.223  22.539 -23.078  1.00  0.00     0.000 C 
ENDROOT
BRANCH   1   2
ATOM      2  C   UNL     1      12.736  23.366 -24.282  1.00  0.00     0.000 C 
BRANCH   2   3
ATOM      3  C   UNL     1      11.943  22.573 -25.337  1.00  0.00     0.006 C 
BRANCH   3   4
ATOM      4  C   UNL     1      12.710  22.395 -26.653  1.00  0.00     0.053 C 
BRANCH   4   5
ATOM      5  C   UNL     1      12.594  20.985 -27.139  1.00  0.00     0.041 C 
ATOM      6  O   UNL     1      12.634  20.028 -26.322  1.00  0.00    -0.550 OA
ATOM      7  O   UNL     1      12.491  20.725 -28.500  1.00  0.00    -0.550 OA
ENDBRANCH   4   5
ENDBRANCH   3   4
ENDBRANCH   2   3
ENDBRANCH   1   2
BRANCH   1   8
ATOM      8  C   UNL     1      12.270  22.611 -21.877  1.00  0.00     0.000 C 
BRANCH   8   9
ATOM      9  C   UNL     1      13.012  23.059 -20.612  1.00  0.00    -0.000 C 
BRANCH   9  10
ATOM     10  C   UNL     1      12.254  22.628 -19.347  1.00  0.00    -0.000 C 
BRANCH  10  11
ATOM     11  C   UNL     1      12.939  21.465 -18.614  1.00  0.00    -0.000 C 
BRANCH  11  12
ATOM     12  C   UNL     1      14.371  21.215 -19.108  1.00  0.00    -0.003 C 
ATOM     13  C   UNL     1      15.323  20.982 -17.938  1.00  0.00     0.004 C 
ENDBRANCH  11  12
ENDBRANCH  10  11
ENDBRANCH   9  10
ENDBRANCH   8   9
ENDBRANCH   1   8
TORSDOF 9
ENDMDL
