MODEL 1
REMARK VINA RESULT:    -3.601      0.000      0.000
REMARK INTER + INTRA:          -7.939
REMARK INTER:                  -6.337
REMARK INTRA:                  -1.602
REMARK UNBOUND:                -1.602
REMARK SMILES CCCCCCC=CCCCCCCCC(=O)[O-]
REMARK SMILES IDX 10 1 11 2 12 3 13 4 14 5 15 6 16 7 17 8 18 9 9 10 8 11 7 12
REMARK SMILES IDX 6 13 5 14 4 15 3 16 2 17 1 18
REMARK H PARENT
REMARK Flexibility Score: inf
ROOT
ATOM      1  C   UNL     1      59.515  28.375  49.245  1.00  0.00     0.004 C 
ENDROOT
BRANCH   1   2
ATOM      2  C   UNL     1      60.897  28.129  49.868  1.00  0.00     0.000 C 
BRANCH   2   3
ATOM      3  C   UNL     1      61.252  26.637  49.953  1.00  0.00     0.000 C 
BRANCH   3   4
ATOM      4  C   UNL     1      60.466  25.950  51.079  1.00  0.00     0.000 C 
BRANCH   4   5
ATOM      5  C   UNL     1      59.699  24.703  50.599  1.00  0.00     0.006 C 
BRANCH   5   6
ATOM      6  C   UNL     1      60.586  23.613  49.977  1.00  0.00     0.053 C 
BRANCH   6   7
ATOM      7  C   UNL     1      61.275  22.785  51.018  1.00  0.00     0.041 C 
ATOM      8  O   UNL     1      60.608  22.023  51.765  1.00  0.00    -0.550 OA
ATOM      9  O   UNL     1      62.651  22.883  51.185  1.00  0.00    -0.550 OA
ENDBRANCH   6   7
ENDBRANCH   5   6
ENDBRANCH   4   5
ENDBRANCH   3   4
ENDBRANCH   2   3
ENDBRANCH   1   2
BRANCH   1  10
ATOM     10  C   UNL     1      58.628  29.283  50.109  1.00  0.00     0.027 C 
BRANCH  10  11
ATOM     11  C   UNL     1      57.266  28.676  50.311  1.00  0.00    -0.031 C 
ATOM     12  C   UNL     1      57.137  27.439  50.811  1.00  0.00    -0.031 C 
BRANCH  12  13
ATOM     13  C   UNL     1      55.787  26.811  51.026  1.00  0.00     0.027 C 
BRANCH  13  14
ATOM     14  C   UNL     1      55.203  26.209  49.736  1.00  0.00     0.004 C 
BRANCH  14  15
ATOM     15  C   UNL     1      53.779  26.694  49.396  1.00  0.00     0.000 C 
BRANCH  15  16
ATOM     16  C   UNL     1      53.119  27.584  50.469  1.00  0.00    -0.000 C 
BRANCH  16  17
ATOM     17  C   UNL     1      52.875  29.041  50.040  1.00  0.00    -0.003 C 
ATOM     18  C   UNL     1      53.866  30.021  50.667  1.00  0.00     0.004 C 
ENDBRANCH  16  17
ENDBRANCH  15  16
ENDBRANCH  14  15
ENDBRANCH  13  14
ENDBRANCH  12  13
ENDBRANCH  10  11
ENDBRANCH   1  10
TORSDOF 13
ENDMDL
MODEL 2
REMARK VINA RESULT:    -3.566     11.401     12.860
REMARK INTER + INTRA:          -7.879
REMARK INTER:                  -5.501
REMARK INTRA:                  -2.377
REMARK UNBOUND:                -1.602
REMARK SMILES CCCCCCC=CCCCCCCCC(=O)[O-]
REMARK SMILES IDX 10 1 11 2 12 3 13 4 14 5 15 6 16 7 17 8 18 9 9 10 8 11 7 12
REMARK SMILES IDX 6 13 5 14 4 15 3 16 2 17 1 18
REMARK H PARENT
REMARK Flexibility Score: inf
ROOT
ATOM      1  C   UNL     1      62.563  31.731  57.830  1.00  0.00     0.004 C 
ENDROOT
BRANCH   1   2
ATOM      2  C   UNL     1      61.381  32.492  58.451  1.00  0.00     0.000 C 
BRANCH   2   3
ATOM      3  C   UNL     1      60.550  31.619  59.403  1.00  0.00     0.000 C 
BRANCH   3   4
ATOM      4  C   UNL     1      60.887  31.930  60.868  1.00  0.00     0.000 C 
BRANCH   4   5
ATOM      5  C   UNL     1      61.332  30.684  61.657  1.00  0.00     0.006 C 
BRANCH   5   6
ATOM      6  C   UNL     1      61.708  29.479  60.779  1.00  0.00     0.053 C 
BRANCH   6   7
ATOM      7  C   UNL     1      63.144  29.086  60.946  1.00  0.00     0.041 C 
ATOM      8  O   UNL     1      63.488  27.880  60.836  1.00  0.00    -0.550 OA
ATOM      9  O   UNL     1      64.096  30.048  61.259  1.00  0.00    -0.550 OA
ENDBRANCH   6   7
ENDBRANCH   5   6
ENDBRANCH   4   5
ENDBRANCH   3   4
ENDBRANCH   2   3
ENDBRANCH   1   2
BRANCH   1  10
ATOM     10  C   UNL     1      63.921  32.214  58.360  1.00  0.00     0.027 C 
BRANCH  10  11
ATOM     11  C   UNL     1      63.771  33.475  59.167  1.00  0.00    -0.031 C 
ATOM     12  C   UNL     1      64.195  33.525  60.439  1.00  0.00    -0.031 C 
BRANCH  12  13
ATOM     13  C   UNL     1      64.059  34.774  61.267  1.00  0.00     0.027 C 
BRANCH  13  14
ATOM     14  C   UNL     1      63.713  36.011  60.420  1.00  0.00     0.004 C 
BRANCH  14  15
ATOM     15  C   UNL     1      62.324  36.613  60.712  1.00  0.00     0.000 C 
BRANCH  15  16
ATOM     16  C   UNL     1      61.138  35.645  60.521  1.00  0.00    -0.000 C 
BRANCH  16  17
ATOM     17  C   UNL     1      60.213  35.981  59.338  1.00  0.00    -0.003 C 
ATOM     18  C   UNL     1      60.973  36.211  58.033  1.00  0.00     0.004 C 
ENDBRANCH  16  17
ENDBRANCH  15  16
ENDBRANCH  14  15
ENDBRANCH  13  14
ENDBRANCH  12  13
ENDBRANCH  10  11
ENDBRANCH   1  10
TORSDOF 13
ENDMDL
MODEL 3
REMARK VINA RESULT:    -3.563      1.827      3.654
REMARK INTER + INTRA:          -7.874
REMARK INTER:                  -5.885
REMARK INTRA:                  -1.988
REMARK UNBOUND:                -1.602
REMARK SMILES CCCCCCC=CCCCCCCCC(=O)[O-]
REMARK SMILES IDX 10 1 11 2 12 3 13 4 14 5 15 6 16 7 17 8 18 9 9 10 8 11 7 12
REMARK SMILES IDX 6 13 5 14 4 15 3 16 2 17 1 18
REMARK H PARENT
REMARK Flexibility Score: inf
ROOT
ATOM      1  C   UNL     1      57.453  29.210  52.622  1.00  0.00     0.004 C 
ENDROOT
BRANCH   1   2
ATOM      2  C   UNL     1      58.249  29.828  51.462  1.00  0.00     0.000 C 
BRANCH   2   3
ATOM      3  C   UNL     1      57.878  29.223  50.100  1.00  0.00     0.000 C 
BRANCH   3   4
ATOM      4  C   UNL     1      59.080  29.241  49.145  1.00  0.00     0.000 C 
BRANCH   4   5
ATOM      5  C   UNL     1      60.010  28.027  49.331  1.00  0.00     0.006 C 
BRANCH   5   6
ATOM      6  C   UNL     1      59.277  26.701  49.591  1.00  0.00     0.053 C 
BRANCH   6   7
ATOM      7  C   UNL     1      60.198  25.639  50.107  1.00  0.00     0.041 C 
ATOM      8  O   UNL     1      61.423  25.884  50.264  1.00  0.00    -0.550 OA
ATOM      9  O   UNL     1      59.710  24.368  50.381  1.00  0.00    -0.550 OA
ENDBRANCH   6   7
ENDBRANCH   5   6
ENDBRANCH   4   5
ENDBRANCH   3   4
ENDBRANCH   2   3
ENDBRANCH   1   2
BRANCH   1  10
ATOM     10  C   UNL     1      56.313  30.117  53.107  1.00  0.00     0.027 C 
BRANCH  10  11
ATOM     11  C   UNL     1      54.973  29.569  52.697  1.00  0.00    -0.031 C 
ATOM     12  C   UNL     1      54.579  29.618  51.416  1.00  0.00    -0.031 C 
BRANCH  12  13
ATOM     13  C   UNL     1      53.246  29.074  50.979  1.00  0.00     0.027 C 
BRANCH  13  14
ATOM     14  C   UNL     1      53.376  27.971  49.915  1.00  0.00     0.004 C 
BRANCH  14  15
ATOM     15  C   UNL     1      54.789  27.365  49.798  1.00  0.00     0.000 C 
BRANCH  15  16
ATOM     16  C   UNL     1      54.947  25.953  50.398  1.00  0.00    -0.000 C 
BRANCH  16  17
ATOM     17  C   UNL     1      55.332  25.922  51.887  1.00  0.00    -0.003 C 
ATOM     18  C   UNL     1      56.816  25.636  52.113  1.00  0.00     0.004 C 
ENDBRANCH  16  17
ENDBRANCH  15  16
ENDBRANCH  14  15
ENDBRANCH  13  14
ENDBRANCH  12  13
ENDBRANCH  10  11
ENDBRANCH   1  10
TORSDOF 13
ENDMDL
MODEL 4
REMARK VINA RESULT:    -3.526      2.398      3.790
REMARK INTER + INTRA:          -7.808
REMARK INTER:                  -6.857
REMARK INTRA:                  -0.951
REMARK UNBOUND:                -1.602
REMARK SMILES CCCCCCC=CCCCCCCCC(=O)[O-]
REMARK SMILES IDX 10 1 11 2 12 3 13 4 14 5 15 6 16 7 17 8 18 9 9 10 8 11 7 12
REMARK SMILES IDX 6 13 5 14 4 15 3 16 2 17 1 18
REMARK H PARENT
REMARK Flexibility Score: inf
ROOT
ATOM      1  C   UNL     1      59.352  24.979  50.462  1.00  0.00     0.004 C 
ENDROOT
BRANCH   1   2
ATOM      2  C   UNL     1      60.082  23.724  50.965  1.00  0.00     0.000 C 
BRANCH   2   3
ATOM      3  C   UNL     1      61.196  23.266  50.012  1.00  0.00     0.000 C 
BRANCH   3   4
ATOM      4  C   UNL     1      60.785  21.991  49.260  1.00  0.00     0.000 C 
BRANCH   4   5
ATOM      5  C   UNL     1      60.346  20.856  50.203  1.00  0.00     0.006 C 
BRANCH   5   6
ATOM      6  C   UNL     1      59.335  19.875  49.588  1.00  0.00     0.053 C 
BRANCH   6   7
ATOM      7  C   UNL     1      59.728  18.447  49.809  1.00  0.00     0.041 C 
ATOM      8  O   UNL     1      59.192  17.530  49.134  1.00  0.00    -0.550 OA
ATOM      9  O   UNL     1      60.663  18.126  50.786  1.00  0.00    -0.550 OA
ENDBRANCH   6   7
ENDBRANCH   5   6
ENDBRANCH   4   5
ENDBRANCH   3   4
ENDBRANCH   2   3
ENDBRANCH   1   2
BRANCH   1  10
ATOM     10  C   UNL     1      60.313  26.037  49.900  1.00  0.00     0.027 C 
BRANCH  10  11
ATOM     11  C   UNL     1      59.578  27.302  49.545  1.00  0.00    -0.031 C 
ATOM     12  C   UNL     1      58.627  27.788  50.355  1.00  0.00    -0.031 C 
BRANCH  12  13
ATOM     13  C   UNL     1      57.879  29.052  50.025  1.00  0.00     0.027 C 
BRANCH  13  14
ATOM     14  C   UNL     1      56.494  29.111  50.691  1.00  0.00     0.004 C 
BRANCH  14  15
ATOM     15  C   UNL     1      56.127  27.855  51.507  1.00  0.00     0.000 C 
BRANCH  15  16
ATOM     16  C   UNL     1      54.689  27.338  51.300  1.00  0.00    -0.000 C 
BRANCH  16  17
ATOM     17  C   UNL     1      54.231  27.269  49.834  1.00  0.00    -0.003 C 
ATOM     18  C   UNL     1      54.514  25.916  49.184  1.00  0.00     0.004 C 
ENDBRANCH  16  17
ENDBRANCH  15  16
ENDBRANCH  14  15
ENDBRANCH  13  14
ENDBRANCH  12  13
ENDBRANCH  10  11
ENDBRANCH   1  10
TORSDOF 13
ENDMDL
MODEL 5
REMARK VINA RESULT:    -3.495      3.053      4.829
REMARK INTER + INTRA:          -7.754
REMARK INTER:                  -5.609
REMARK INTRA:                  -2.145
REMARK UNBOUND:                -1.602
REMARK SMILES CCCCCCC=CCCCCCCCC(=O)[O-]
REMARK SMILES IDX 10 1 11 2 12 3 13 4 14 5 15 6 16 7 17 8 18 9 9 10 8 11 7 12
REMARK SMILES IDX 6 13 5 14 4 15 3 16 2 17 1 18
REMARK H PARENT
REMARK Flexibility Score: inf
ROOT
ATOM      1  C   UNL     1      60.899  24.966  51.452  1.00  0.00     0.004 C 
ENDROOT
BRANCH   1   2
ATOM      2  C   UNL     1      62.190  24.448  50.799  1.00  0.00     0.000 C 
BRANCH   2   3
ATOM      3  C   UNL     1      63.172  25.578  50.453  1.00  0.00     0.000 C 
BRANCH   3   4
ATOM      4  C   UNL     1      62.963  26.788  51.376  1.00  0.00     0.000 C 
BRANCH   4   5
ATOM      5  C   UNL     1      63.235  28.131  50.672  1.00  0.00     0.006 C 
BRANCH   5   6
ATOM      6  C   UNL     1      63.197  28.061  49.137  1.00  0.00     0.053 C 
BRANCH   6   7
ATOM      7  C   UNL     1      64.473  28.545  48.519  1.00  0.00     0.041 C 
ATOM      8  O   UNL     1      64.475  29.005  47.347  1.00  0.00    -0.550 OA
ATOM      9  O   UNL     1      65.665  28.457  49.227  1.00  0.00    -0.550 OA
ENDBRANCH   6   7
ENDBRANCH   5   6
ENDBRANCH   4   5
ENDBRANCH   3   4
ENDBRANCH   2   3
ENDBRANCH   1   2
BRANCH   1  10
ATOM     10  C   UNL     1      59.689  24.894  50.510  1.00  0.00     0.027 C 
BRANCH  10  11
ATOM     11  C   UNL     1      59.606  26.119  49.640  1.00  0.00    -0.031 C 
ATOM     12  C   UNL     1      59.621  27.344  50.184  1.00  0.00    -0.031 C 
BRANCH  12  13
ATOM     13  C   UNL     1      59.543  28.585  49.336  1.00  0.00     0.027 C 
BRANCH  13  14
ATOM     14  C   UNL     1      58.264  29.399  49.595  1.00  0.00     0.004 C 
BRANCH  14  15
ATOM     15  C   UNL     1      57.626  29.157  50.979  1.00  0.00     0.000 C 
BRANCH  15  16
ATOM     16  C   UNL     1      56.140  28.748  50.952  1.00  0.00    -0.000 C 
BRANCH  16  17
ATOM     17  C   UNL     1      55.843  27.438  50.202  1.00  0.00    -0.003 C 
ATOM     18  C   UNL     1      56.148  26.193  51.033  1.00  0.00     0.004 C 
ENDBRANCH  16  17
ENDBRANCH  15  16
ENDBRANCH  14  15
ENDBRANCH  13  14
ENDBRANCH  12  13
ENDBRANCH  10  11
ENDBRANCH   1  10
TORSDOF 13
ENDMDL
MODEL 6
REMARK VINA RESULT:    -3.459      3.899      7.622
REMARK INTER + INTRA:          -7.691
REMARK INTER:                  -5.800
REMARK INTRA:                  -1.891
REMARK UNBOUND:                -1.602
REMARK SMILES CCCCCCC=CCCCCCCCC(=O)[O-]
REMARK SMILES IDX 10 1 11 2 12 3 13 4 14 5 15 6 16 7 17 8 18 9 9 10 8 11 7 12
REMARK SMILES IDX 6 13 5 14 4 15 3 16 2 17 1 18
REMARK H PARENT
REMARK Flexibility Score: inf
ROOT
ATOM      1  C   UNL     1      55.099  26.047  49.552  1.00  0.00     0.004 C 
ENDROOT
BRANCH   1   2
ATOM      2  C   UNL     1      53.643  26.531  49.474  1.00  0.00     0.000 C 
BRANCH   2   3
ATOM      3  C   UNL     1      53.300  27.555  50.567  1.00  0.00     0.000 C 
BRANCH   3   4
ATOM      4  C   UNL     1      53.006  28.932  49.955  1.00  0.00     0.000 C 
BRANCH   4   5
ATOM      5  C   UNL     1      53.773  30.072  50.651  1.00  0.00     0.006 C 
BRANCH   5   6
ATOM      6  C   UNL     1      54.155  29.780  52.111  1.00  0.00     0.053 C 
BRANCH   6   7
ATOM      7  C   UNL     1      54.463  31.031  52.875  1.00  0.00     0.041 C 
ATOM      8  O   UNL     1      53.904  32.116  52.567  1.00  0.00    -0.550 OA
ATOM      9  O   UNL     1      55.395  31.004  53.905  1.00  0.00    -0.550 OA
ENDBRANCH   6   7
ENDBRANCH   5   6
ENDBRANCH   4   5
ENDBRANCH   3   4
ENDBRANCH   2   3
ENDBRANCH   1   2
BRANCH   1  10
ATOM     10  C   UNL     1      55.849  26.620  50.763  1.00  0.00     0.027 C 
BRANCH  10  11
ATOM     11  C   UNL     1      57.110  27.323  50.337  1.00  0.00    -0.031 C 
ATOM     12  C   UNL     1      57.232  28.651  50.481  1.00  0.00    -0.031 C 
BRANCH  12  13
ATOM     13  C   UNL     1      58.483  29.377  50.065  1.00  0.00     0.027 C 
BRANCH  13  14
ATOM     14  C   UNL     1      59.389  28.526  49.159  1.00  0.00     0.004 C 
BRANCH  14  15
ATOM     15  C   UNL     1      60.707  28.077  49.820  1.00  0.00     0.000 C 
BRANCH  15  16
ATOM     16  C   UNL     1      60.768  28.262  51.350  1.00  0.00    -0.000 C 
BRANCH  16  17
ATOM     17  C   UNL     1      60.498  26.986  52.167  1.00  0.00    -0.003 C 
ATOM     18  C   UNL     1      60.472  25.723  51.309  1.00  0.00     0.004 C 
ENDBRANCH  16  17
ENDBRANCH  15  16
ENDBRANCH  14  15
ENDBRANCH  13  14
ENDBRANCH  12  13
ENDBRANCH  10  11
ENDBRANCH   1  10
TORSDOF 13
ENDMDL
MODEL 7
REMARK VINA RESULT:    -3.449     11.550     12.792
REMARK INTER + INTRA:          -7.673
REMARK INTER:                  -5.817
REMARK INTRA:                  -1.856
REMARK UNBOUND:                -1.602
REMARK SMILES CCCCCCC=CCCCCCCCC(=O)[O-]
REMARK SMILES IDX 10 1 11 2 12 3 13 4 14 5 15 6 16 7 17 8 18 9 9 10 8 11 7 12
REMARK SMILES IDX 6 13 5 14 4 15 3 16 2 17 1 18
REMARK H PARENT
REMARK Flexibility Score: inf
ROOT
ATOM      1  C   UNL     1      63.777  33.432  60.888  1.00  0.00     0.004 C 
ENDROOT
BRANCH   1   2
ATOM      2  C   UNL     1      63.708  32.769  59.504  1.00  0.00     0.000 C 
BRANCH   2   3
ATOM      3  C   UNL     1      62.265  32.524  59.038  1.00  0.00     0.000 C 
BRANCH   3   4
ATOM      4  C   UNL     1      61.278  32.670  60.206  1.00  0.00     0.000 C 
BRANCH   4   5
ATOM      5  C   UNL     1      60.686  31.323  60.661  1.00  0.00     0.006 C 
BRANCH   5   6
ATOM      6  C   UNL     1      61.408  30.685  61.859  1.00  0.00     0.053 C 
BRANCH   6   7
ATOM      7  C   UNL     1      62.339  29.590  61.439  1.00  0.00     0.041 C 
ATOM      8  O   UNL     1      61.889  28.449  61.157  1.00  0.00    -0.550 OA
ATOM      9  O   UNL     1      63.708  29.822  61.392  1.00  0.00    -0.550 OA
ENDBRANCH   6   7
ENDBRANCH   5   6
ENDBRANCH   4   5
ENDBRANCH   3   4
ENDBRANCH   2   3
ENDBRANCH   1   2
BRANCH   1  10
ATOM     10  C   UNL     1      64.516  34.778  60.863  1.00  0.00     0.027 C 
BRANCH  10  11
ATOM     11  C   UNL     1      63.573  35.908  60.549  1.00  0.00    -0.031 C 
ATOM     12  C   UNL     1      62.312  35.890  61.002  1.00  0.00    -0.031 C 
BRANCH  12  13
ATOM     13  C   UNL     1      61.350  37.008  60.704  1.00  0.00     0.027 C 
BRANCH  13  14
ATOM     14  C   UNL     1      60.995  37.102  59.210  1.00  0.00     0.004 C 
BRANCH  14  15
ATOM     15  C   UNL     1      59.724  36.327  58.809  1.00  0.00     0.000 C 
BRANCH  15  16
ATOM     16  C   UNL     1      59.965  35.097  57.911  1.00  0.00    -0.000 C 
BRANCH  16  17
ATOM     17  C   UNL     1      58.710  34.558  57.203  1.00  0.00    -0.003 C 
ATOM     18  C   UNL     1      58.488  33.065  57.437  1.00  0.00     0.004 C 
ENDBRANCH  16  17
ENDBRANCH  15  16
ENDBRANCH  14  15
ENDBRANCH  13  14
ENDBRANCH  12  13
ENDBRANCH  10  11
ENDBRANCH   1  10
TORSDOF 13
ENDMDL
MODEL 8
REMARK VINA RESULT:    -3.438      2.960      6.240
REMARK INTER + INTRA:          -7.654
REMARK INTER:                  -5.698
REMARK INTRA:                  -1.955
REMARK UNBOUND:                -1.602
REMARK SMILES CCCCCCC=CCCCCCCCC(=O)[O-]
REMARK SMILES IDX 10 1 11 2 12 3 13 4 14 5 15 6 16 7 17 8 18 9 9 10 8 11 7 12
REMARK SMILES IDX 6 13 5 14 4 15 3 16 2 17 1 18
REMARK H PARENT
REMARK Flexibility Score: inf
ROOT
ATOM      1  C   UNL     1      56.862  29.441  52.816  1.00  0.00     0.004 C 
ENDROOT
BRANCH   1   2
ATOM      2  C   UNL     1      55.494  30.116  52.999  1.00  0.00     0.000 C 
BRANCH   2   3
ATOM      3  C   UNL     1      54.343  29.293  52.400  1.00  0.00     0.000 C 
BRANCH   3   4
ATOM      4  C   UNL     1      54.113  29.662  50.927  1.00  0.00     0.000 C 
BRANCH   4   5
ATOM      5  C   UNL     1      53.972  28.428  50.016  1.00  0.00     0.006 C 
BRANCH   5   6
ATOM      6  C   UNL     1      55.114  27.407  50.150  1.00  0.00     0.053 C 
BRANCH   6   7
ATOM      7  C   UNL     1      54.604  26.011  50.327  1.00  0.00     0.041 C 
ATOM      8  O   UNL     1      54.163  25.367  49.339  1.00  0.00    -0.550 OA
ATOM      9  O   UNL     1      54.582  25.434  51.590  1.00  0.00    -0.550 OA
ENDBRANCH   6   7
ENDBRANCH   5   6
ENDBRANCH   4   5
ENDBRANCH   3   4
ENDBRANCH   2   3
ENDBRANCH   1   2
BRANCH   1  10
ATOM     10  C   UNL     1      57.920  30.393  52.240  1.00  0.00     0.027 C 
BRANCH  10  11
ATOM     11  C   UNL     1      58.821  29.678  51.270  1.00  0.00    -0.031 C 
ATOM     12  C   UNL     1      58.376  29.327  50.055  1.00  0.00    -0.031 C 
BRANCH  12  13
ATOM     13  C   UNL     1      59.258  28.614  49.067  1.00  0.00     0.027 C 
BRANCH  13  14
ATOM     14  C   UNL     1      60.617  28.214  49.667  1.00  0.00     0.004 C 
BRANCH  14  15
ATOM     15  C   UNL     1      60.641  26.812  50.307  1.00  0.00     0.000 C 
BRANCH  15  16
ATOM     16  C   UNL     1      59.584  25.828  49.766  1.00  0.00    -0.000 C 
BRANCH  16  17
ATOM     17  C   UNL     1      58.349  25.646  50.665  1.00  0.00    -0.003 C 
ATOM     18  C   UNL     1      58.620  25.998  52.127  1.00  0.00     0.004 C 
ENDBRANCH  16  17
ENDBRANCH  15  16
ENDBRANCH  14  15
ENDBRANCH  13  14
ENDBRANCH  12  13
ENDBRANCH  10  11
ENDBRANCH   1  10
TORSDOF 13
ENDMDL
MODEL 9
REMARK VINA RESULT:    -3.360      2.998      6.201
REMARK INTER + INTRA:          -7.515
REMARK INTER:                  -5.255
REMARK INTRA:                  -2.261
REMARK UNBOUND:                -1.602
REMARK SMILES CCCCCCC=CCCCCCCCC(=O)[O-]
REMARK SMILES IDX 10 1 11 2 12 3 13 4 14 5 15 6 16 7 17 8 18 9 9 10 8 11 7 12
REMARK SMILES IDX 6 13 5 14 4 15 3 16 2 17 1 18
REMARK H PARENT
REMARK Flexibility Score: inf
ROOT
ATOM      1  C   UNL     1      53.677  26.989  49.406  1.00  0.00     0.004 C 
ENDROOT
BRANCH   1   2
ATOM      2  C   UNL     1      53.282  27.928  50.557  1.00  0.00     0.000 C 
BRANCH   2   3
ATOM      3  C   UNL     1      53.805  29.359  50.360  1.00  0.00     0.000 C 
BRANCH   3   4
ATOM      4  C   UNL     1      55.095  29.586  51.161  1.00  0.00     0.000 C 
BRANCH   4   5
ATOM      5  C   UNL     1      54.908  29.361  52.673  1.00  0.00     0.006 C 
BRANCH   5   6
ATOM      6  C   UNL     1      56.062  28.604  53.350  1.00  0.00     0.053 C 
BRANCH   6   7
ATOM      7  C   UNL     1      55.635  27.261  53.855  1.00  0.00     0.041 C 
ATOM      8  O   UNL     1      54.434  26.899  53.757  1.00  0.00    -0.550 OA
ATOM      9  O   UNL     1      56.559  26.423  54.467  1.00  0.00    -0.550 OA
ENDBRANCH   6   7
ENDBRANCH   5   6
ENDBRANCH   4   5
ENDBRANCH   3   4
ENDBRANCH   2   3
ENDBRANCH   1   2
BRANCH   1  10
ATOM     10  C   UNL     1      54.604  25.853  49.860  1.00  0.00     0.027 C 
BRANCH  10  11
ATOM     11  C   UNL     1      56.030  26.323  49.959  1.00  0.00    -0.031 C 
ATOM     12  C   UNL     1      56.845  25.835  50.905  1.00  0.00    -0.031 C 
BRANCH  12  13
ATOM     13  C   UNL     1      58.275  26.286  51.024  1.00  0.00     0.027 C 
BRANCH  13  14
ATOM     14  C   UNL     1      58.921  26.573  49.657  1.00  0.00     0.004 C 
BRANCH  14  15
ATOM     15  C   UNL     1      59.519  27.988  49.522  1.00  0.00     0.000 C 
BRANCH  15  16
ATOM     16  C   UNL     1      58.528  29.143  49.771  1.00  0.00    -0.000 C 
BRANCH  16  17
ATOM     17  C   UNL     1      58.749  29.911  51.086  1.00  0.00    -0.003 C 
ATOM     18  C   UNL     1      59.979  29.434  51.856  1.00  0.00     0.004 C 
ENDBRANCH  16  17
ENDBRANCH  15  16
ENDBRANCH  14  15
ENDBRANCH  13  14
ENDBRANCH  12  13
ENDBRANCH  10  11
ENDBRANCH   1  10
TORSDOF 13
ENDMDL
