MODEL 1
REMARK VINA RESULT:    -4.154      0.000      0.000
REMARK INTER + INTRA:          -4.154
REMARK INTER:                  -4.154
REMARK INTRA:                   0.000
REMARK UNBOUND:                 0.000
REMARK SMILES CC(C)=C1CC[C@H](C)CC1=O
REMARK SMILES IDX 8 1 7 2 6 3 5 4 4 5 2 6 1 7 3 8 10 9 11 10 9 11
REMARK H PARENT
REMARK Flexibility Score: inf
ROOT
ATOM      1  C   UNL     1       3.622  -1.880  13.946  1.00  0.00     0.008 C 
ATOM      2  C   UNL     1       2.853  -2.110  15.252  1.00  0.00    -0.006 C 
ATOM      3  C   UNL     1       1.514  -2.811  14.975  1.00  0.00     0.008 C 
ATOM      4  C   UNL     1       0.685  -2.959  16.258  1.00  0.00     0.039 C 
ATOM      5  C   UNL     1       1.469  -3.617  17.386  1.00  0.00    -0.006 C 
ATOM      6  C   UNL     1       0.848  -4.400  18.317  1.00  0.00    -0.070 C 
ATOM      7  C   UNL     1       1.621  -5.105  19.408  1.00  0.00     0.039 C 
ATOM      8  C   UNL     1      -0.646  -4.633  18.277  1.00  0.00     0.039 C 
ATOM      9  C   UNL     1       2.915  -3.260  17.476  1.00  0.00     0.159 C 
ATOM     10  O   UNL     1       3.509  -3.207  18.586  1.00  0.00    -0.295 OA
ATOM     11  C   UNL     1       3.691  -2.947  16.230  1.00  0.00     0.084 C 
ENDROOT
TORSDOF 0
ENDMDL
MODEL 2
REMARK VINA RESULT:    -4.074      1.626      4.334
REMARK INTER + INTRA:          -4.074
REMARK INTER:                  -4.074
REMARK INTRA:                   0.000
REMARK UNBOUND:                 0.000
REMARK SMILES CC(C)=C1CC[C@H](C)CC1=O
REMARK SMILES IDX 8 1 7 2 6 3 5 4 4 5 2 6 1 7 3 8 10 9 11 10 9 11
REMARK H PARENT
REMARK Flexibility Score: inf
ROOT
ATOM      1  C   UNL     1      -1.235  -4.853  17.870  1.00  0.00     0.008 C 
ATOM      2  C   UNL     1       0.011  -3.978  17.697  1.00  0.00    -0.006 C 
ATOM      3  C   UNL     1       1.196  -4.563  18.482  1.00  0.00     0.008 C 
ATOM      4  C   UNL     1       2.425  -3.646  18.403  1.00  0.00     0.039 C 
ATOM      5  C   UNL     1       2.792  -3.286  16.970  1.00  0.00    -0.006 C 
ATOM      6  C   UNL     1       4.090  -3.066  16.605  1.00  0.00    -0.070 C 
ATOM      7  C   UNL     1       4.475  -2.764  15.175  1.00  0.00     0.039 C 
ATOM      8  C   UNL     1       5.214  -3.155  17.612  1.00  0.00     0.039 C 
ATOM      9  C   UNL     1       1.650  -3.075  16.033  1.00  0.00     0.159 C 
ATOM     10  O   UNL     1       1.724  -2.247  15.086  1.00  0.00    -0.295 OA
ATOM     11  C   UNL     1       0.377  -3.851  16.211  1.00  0.00     0.084 C 
ENDROOT
TORSDOF 0
ENDMDL
MODEL 3
REMARK VINA RESULT:    -3.990      1.691      4.644
REMARK INTER + INTRA:          -3.990
REMARK INTER:                  -3.990
REMARK INTRA:                   0.000
REMARK UNBOUND:                 0.000
REMARK SMILES CC(C)=C1CC[C@H](C)CC1=O
REMARK SMILES IDX 8 1 7 2 6 3 5 4 4 5 2 6 1 7 3 8 10 9 11 10 9 11
REMARK H PARENT
REMARK Flexibility Score: inf
ROOT
ATOM      1  C   UNL     1      -1.159  -4.131  21.996  1.00  0.00     0.008 C 
ATOM      2  C   UNL     1      -0.443  -4.481  20.687  1.00  0.00    -0.006 C 
ATOM      3  C   UNL     1      -1.200  -3.899  19.483  1.00  0.00     0.008 C 
ATOM      4  C   UNL     1      -0.554  -4.325  18.158  1.00  0.00     0.039 C 
ATOM      5  C   UNL     1       0.938  -4.023  18.113  1.00  0.00    -0.006 C 
ATOM      6  C   UNL     1       1.562  -3.709  16.940  1.00  0.00    -0.070 C 
ATOM      7  C   UNL     1       3.031  -3.351  16.890  1.00  0.00     0.039 C 
ATOM      8  C   UNL     1       0.802  -3.664  15.634  1.00  0.00     0.039 C 
ATOM      9  C   UNL     1       1.684  -4.207  19.393  1.00  0.00     0.159 C 
ATOM     10  O   UNL     1       2.887  -4.579  19.403  1.00  0.00    -0.295 OA
ATOM     11  C   UNL     1       0.999  -3.954  20.705  1.00  0.00     0.084 C 
ENDROOT
TORSDOF 0
ENDMDL
MODEL 4
REMARK VINA RESULT:    -3.954      2.427      4.616
REMARK INTER + INTRA:          -3.954
REMARK INTER:                  -3.954
REMARK INTRA:                   0.000
REMARK UNBOUND:                 0.000
REMARK SMILES CC(C)=C1CC[C@H](C)CC1=O
REMARK SMILES IDX 8 1 7 2 6 3 5 4 4 5 2 6 1 7 3 8 10 9 11 10 9 11
REMARK H PARENT
REMARK Flexibility Score: inf
ROOT
ATOM      1  C   UNL     1       4.068  -4.885  21.948  1.00  0.00     0.008 C 
ATOM      2  C   UNL     1       3.030  -4.285  20.993  1.00  0.00    -0.006 C 
ATOM      3  C   UNL     1       3.521  -4.366  19.540  1.00  0.00     0.008 C 
ATOM      4  C   UNL     1       2.540  -3.679  18.580  1.00  0.00     0.039 C 
ATOM      5  C   UNL     1       1.112  -4.185  18.745  1.00  0.00    -0.006 C 
ATOM      6  C   UNL     1       0.253  -4.237  17.685  1.00  0.00    -0.070 C 
ATOM      7  C   UNL     1      -1.148  -4.790  17.823  1.00  0.00     0.039 C 
ATOM      8  C   UNL     1       0.676  -3.781  16.307  1.00  0.00     0.039 C 
ATOM      9  C   UNL     1       0.685  -4.501  20.140  1.00  0.00     0.159 C 
ATOM     10  O   UNL     1      -0.508  -4.340  20.512  1.00  0.00    -0.295 OA
ATOM     11  C   UNL     1       1.685  -5.014  21.135  1.00  0.00     0.084 C 
ENDROOT
TORSDOF 0
ENDMDL
MODEL 5
REMARK VINA RESULT:    -3.854      1.053      4.055
REMARK INTER + INTRA:          -3.854
REMARK INTER:                  -3.854
REMARK INTRA:                   0.000
REMARK UNBOUND:                 0.000
REMARK SMILES CC(C)=C1CC[C@H](C)CC1=O
REMARK SMILES IDX 8 1 7 2 6 3 5 4 4 5 2 6 1 7 3 8 10 9 11 10 9 11
REMARK H PARENT
REMARK Flexibility Score: inf
ROOT
ATOM      1  C   UNL     1      -0.167  -4.502  19.401  1.00  0.00     0.008 C 
ATOM      2  C   UNL     1       0.869  -4.376  18.279  1.00  0.00    -0.006 C 
ATOM      3  C   UNL     1       0.319  -3.518  17.128  1.00  0.00     0.008 C 
ATOM      4  C   UNL     1       1.304  -3.465  15.952  1.00  0.00     0.039 C 
ATOM      5  C   UNL     1       2.703  -3.041  16.381  1.00  0.00    -0.006 C 
ATOM      6  C   UNL     1       3.517  -2.334  15.544  1.00  0.00    -0.070 C 
ATOM      7  C   UNL     1       4.885  -1.858  15.977  1.00  0.00     0.039 C 
ATOM      8  C   UNL     1       3.071  -1.955  14.150  1.00  0.00     0.039 C 
ATOM      9  C   UNL     1       3.162  -3.545  17.709  1.00  0.00     0.159 C 
ATOM     10  O   UNL     1       4.376  -3.802  17.928  1.00  0.00    -0.295 OA
ATOM     11  C   UNL     1       2.171  -3.762  18.816  1.00  0.00     0.084 C 
ENDROOT
TORSDOF 0
ENDMDL
MODEL 6
REMARK VINA RESULT:    -3.846      2.872      5.456
REMARK INTER + INTRA:          -3.846
REMARK INTER:                  -3.846
REMARK INTRA:                   0.000
REMARK UNBOUND:                 0.000
REMARK SMILES CC(C)=C1CC[C@H](C)CC1=O
REMARK SMILES IDX 8 1 7 2 6 3 5 4 4 5 2 6 1 7 3 8 10 9 11 10 9 11
REMARK H PARENT
REMARK Flexibility Score: inf
ROOT
ATOM      1  C   UNL     1       0.994  -3.598  16.267  1.00  0.00     0.008 C 
ATOM      2  C   UNL     1       1.335  -2.550  15.202  1.00  0.00    -0.006 C 
ATOM      3  C   UNL     1       0.664  -1.206  15.530  1.00  0.00     0.008 C 
ATOM      4  C   UNL     1       0.911  -0.173  14.422  1.00  0.00     0.039 C 
ATOM      5  C   UNL     1       2.389  -0.023  14.084  1.00  0.00    -0.006 C 
ATOM      6  C   UNL     1       2.902   1.171  13.665  1.00  0.00    -0.070 C 
ATOM      7  C   UNL     1       4.376   1.349  13.382  1.00  0.00     0.039 C 
ATOM      8  C   UNL     1       2.022   2.390  13.503  1.00  0.00     0.039 C 
ATOM      9  C   UNL     1       3.202  -1.274  14.125  1.00  0.00     0.159 C 
ATOM     10  O   UNL     1       4.181  -1.444  13.351  1.00  0.00    -0.295 OA
ATOM     11  C   UNL     1       2.856  -2.365  15.097  1.00  0.00     0.084 C 
ENDROOT
TORSDOF 0
ENDMDL
MODEL 7
REMARK VINA RESULT:    -3.809      2.576      3.982
REMARK INTER + INTRA:          -3.809
REMARK INTER:                  -3.809
REMARK INTRA:                   0.000
REMARK UNBOUND:                 0.000
REMARK SMILES CC(C)=C1CC[C@H](C)CC1=O
REMARK SMILES IDX 8 1 7 2 6 3 5 4 4 5 2 6 1 7 3 8 10 9 11 10 9 11
REMARK H PARENT
REMARK Flexibility Score: inf
ROOT
ATOM      1  C   UNL     1       1.299  -3.128  16.010  1.00  0.00     0.008 C 
ATOM      2  C   UNL     1       0.757  -3.894  17.222  1.00  0.00    -0.006 C 
ATOM      3  C   UNL     1       1.881  -4.176  18.231  1.00  0.00     0.008 C 
ATOM      4  C   UNL     1       1.378  -5.030  19.403  1.00  0.00     0.039 C 
ATOM      5  C   UNL     1       0.135  -4.444  20.060  1.00  0.00    -0.006 C 
ATOM      6  C   UNL     1      -0.105  -4.609  21.394  1.00  0.00    -0.070 C 
ATOM      7  C   UNL     1      -1.305  -3.985  22.070  1.00  0.00     0.039 C 
ATOM      8  C   UNL     1       0.844  -5.392  22.272  1.00  0.00     0.039 C 
ATOM      9  C   UNL     1      -0.847  -3.793  19.143  1.00  0.00     0.159 C 
ATOM     10  O   UNL     1      -2.083  -3.815  19.385  1.00  0.00    -0.295 OA
ATOM     11  C   UNL     1      -0.370  -3.100  17.900  1.00  0.00     0.084 C 
ENDROOT
TORSDOF 0
ENDMDL
MODEL 8
REMARK VINA RESULT:    -3.742      7.868      8.896
REMARK INTER + INTRA:          -3.742
REMARK INTER:                  -3.742
REMARK INTRA:                   0.000
REMARK UNBOUND:                 0.000
REMARK SMILES CC(C)=C1CC[C@H](C)CC1=O
REMARK SMILES IDX 8 1 7 2 6 3 5 4 4 5 2 6 1 7 3 8 10 9 11 10 9 11
REMARK H PARENT
REMARK Flexibility Score: inf
ROOT
ATOM      1  C   UNL     1       0.254   4.392  22.373  1.00  0.00     0.008 C 
ATOM      2  C   UNL     1       1.744   4.034  22.429  1.00  0.00    -0.006 C 
ATOM      3  C   UNL     1       1.976   2.828  23.352  1.00  0.00     0.008 C 
ATOM      4  C   UNL     1       3.472   2.519  23.501  1.00  0.00     0.039 C 
ATOM      5  C   UNL     1       4.174   2.372  22.157  1.00  0.00    -0.006 C 
ATOM      6  C   UNL     1       5.234   1.526  22.001  1.00  0.00    -0.070 C 
ATOM      7  C   UNL     1       5.903   1.328  20.660  1.00  0.00     0.039 C 
ATOM      8  C   UNL     1       5.767   0.712  23.158  1.00  0.00     0.039 C 
ATOM      9  C   UNL     1       3.711   3.286  21.072  1.00  0.00     0.159 C 
ATOM     10  O   UNL     1       4.504   3.707  20.187  1.00  0.00    -0.295 OA
ATOM     11  C   UNL     1       2.277   3.729  21.022  1.00  0.00     0.084 C 
ENDROOT
TORSDOF 0
ENDMDL
MODEL 9
REMARK VINA RESULT:    -3.741      8.930      9.211
REMARK INTER + INTRA:          -3.741
REMARK INTER:                  -3.741
REMARK INTRA:                   0.000
REMARK UNBOUND:                 0.000
REMARK SMILES CC(C)=C1CC[C@H](C)CC1=O
REMARK SMILES IDX 8 1 7 2 6 3 5 4 4 5 2 6 1 7 3 8 10 9 11 10 9 11
REMARK H PARENT
REMARK Flexibility Score: inf
ROOT
ATOM      1  C   UNL     1       2.625   3.336  23.486  1.00  0.00     0.008 C 
ATOM      2  C   UNL     1       3.238   2.240  24.364  1.00  0.00    -0.006 C 
ATOM      3  C   UNL     1       2.334   0.998  24.390  1.00  0.00     0.008 C 
ATOM      4  C   UNL     1       2.881  -0.072  25.345  1.00  0.00     0.039 C 
ATOM      5  C   UNL     1       4.339  -0.414  25.064  1.00  0.00    -0.006 C 
ATOM      6  C   UNL     1       4.828  -1.669  25.289  1.00  0.00    -0.070 C 
ATOM      7  C   UNL     1       6.257  -2.037  24.961  1.00  0.00     0.039 C 
ATOM      8  C   UNL     1       3.948  -2.767  25.841  1.00  0.00     0.039 C 
ATOM      9  C   UNL     1       5.211   0.724  24.648  1.00  0.00     0.159 C 
ATOM     10  O   UNL     1       6.433   0.758  24.954  1.00  0.00    -0.295 OA
ATOM     11  C   UNL     1       4.637   1.861  23.854  1.00  0.00     0.084 C 
ENDROOT
TORSDOF 0
ENDMDL
