MODEL 1
REMARK VINA RESULT:    -5.517      0.000      0.000
REMARK INTER + INTRA:          -6.375
REMARK INTER:                  -6.323
REMARK INTRA:                  -0.052
REMARK UNBOUND:                -0.052
REMARK SMILES O=C([O-])c1cc(O)c(O)c(O)c1
REMARK SMILES IDX 4 1 5 2 12 3 6 4 10 5 8 6 2 7 1 8 3 9 7 10 11 12 9 14
REMARK H PARENT 7 11 11 13 9 15
REMARK Flexibility Score: inf
ROOT
ATOM      1  C   UNL     1     -30.934  -3.187 -18.734  1.00  0.00     0.005 A 
ATOM      2  C   UNL     1     -30.236  -2.677 -19.839  1.00  0.00     0.060 A 
ATOM      3  C   UNL     1     -32.331  -3.300 -18.804  1.00  0.00     0.060 A 
ATOM      4  C   UNL     1     -30.918  -2.285 -20.995  1.00  0.00     0.162 A 
ATOM      5  C   UNL     1     -33.030  -2.913 -19.954  1.00  0.00     0.162 A 
ATOM      6  C   UNL     1     -32.319  -2.398 -21.065  1.00  0.00     0.200 A 
ENDROOT
BRANCH   1   7
ATOM      7  C   UNL     1     -30.211  -3.602 -17.511  1.00  0.00     0.072 C 
ATOM      8  O   UNL     1     -30.806  -3.659 -16.403  1.00  0.00    -0.545 OA
ATOM      9  O   UNL     1     -28.863  -3.936 -17.569  1.00  0.00    -0.545 OA
ENDBRANCH   1   7
BRANCH   4  10
ATOM     10  O   UNL     1     -30.182  -1.782 -22.068  1.00  0.00    -0.504 OA
ATOM     11  H   UNL     1     -30.568  -1.708 -23.002  1.00  0.00     0.293 HD
ENDBRANCH   4  10
BRANCH   5  12
ATOM     12  O   UNL     1     -34.419  -3.056 -19.947  1.00  0.00    -0.504 OA
ATOM     13  H   UNL     1     -34.904  -3.881 -19.626  1.00  0.00     0.293 HD
ENDBRANCH   5  12
BRANCH   6  14
ATOM     14  O   UNL     1     -32.961  -1.995 -22.239  1.00  0.00    -0.502 OA
ATOM     15  H   UNL     1     -33.644  -2.552 -22.732  1.00  0.00     0.293 HD
ENDBRANCH   6  14
TORSDOF 4
ENDMDL
MODEL 2
REMARK VINA RESULT:    -5.476      0.433      2.471
REMARK INTER + INTRA:          -6.328
REMARK INTER:                  -6.279
REMARK INTRA:                  -0.048
REMARK UNBOUND:                -0.052
REMARK SMILES O=C([O-])c1cc(O)c(O)c(O)c1
REMARK SMILES IDX 4 1 5 2 12 3 6 4 10 5 8 6 2 7 1 8 3 9 7 10 11 12 9 14
REMARK H PARENT 7 11 11 13 9 15
REMARK Flexibility Score: inf
ROOT
ATOM      1  C   UNL     1     -31.209  -3.358 -18.539  1.00  0.00     0.005 A 
ATOM      2  C   UNL     1     -32.587  -3.459 -18.777  1.00  0.00     0.060 A 
ATOM      3  C   UNL     1     -30.391  -2.757 -19.508  1.00  0.00     0.060 A 
ATOM      4  C   UNL     1     -33.143  -2.970 -19.964  1.00  0.00     0.162 A 
ATOM      5  C   UNL     1     -30.932  -2.262 -20.701  1.00  0.00     0.162 A 
ATOM      6  C   UNL     1     -32.324  -2.368 -20.936  1.00  0.00     0.200 A 
ENDROOT
BRANCH   1   7
ATOM      7  C   UNL     1     -30.621  -3.876 -17.282  1.00  0.00     0.072 C 
ATOM      8  O   UNL     1     -31.148  -3.609 -16.170  1.00  0.00    -0.545 OA
ATOM      9  O   UNL     1     -29.477  -4.665 -17.313  1.00  0.00    -0.545 OA
ENDBRANCH   1   7
BRANCH   4  10
ATOM     10  O   UNL     1     -34.520  -3.093 -20.158  1.00  0.00    -0.504 OA
ATOM     11  H   UNL     1     -35.171  -3.161 -19.385  1.00  0.00     0.293 HD
ENDBRANCH   4  10
BRANCH   5  12
ATOM     12  O   UNL     1     -30.054  -1.678 -21.617  1.00  0.00    -0.504 OA
ATOM     13  H   UNL     1     -29.482  -2.199 -22.267  1.00  0.00     0.293 HD
ENDBRANCH   5  12
BRANCH   6  14
ATOM     14  O   UNL     1     -32.921  -1.892 -22.107  1.00  0.00    -0.502 OA
ATOM     15  H   UNL     1     -32.933  -2.395 -22.982  1.00  0.00     0.293 HD
ENDBRANCH   6  14
TORSDOF 4
ENDMDL
MODEL 3
REMARK VINA RESULT:    -5.325      1.247      3.636
REMARK INTER + INTRA:          -6.155
REMARK INTER:                  -6.103
REMARK INTRA:                  -0.052
REMARK UNBOUND:                -0.052
REMARK SMILES O=C([O-])c1cc(O)c(O)c(O)c1
REMARK SMILES IDX 4 1 5 2 12 3 6 4 10 5 8 6 2 7 1 8 3 9 7 10 11 12 9 14
REMARK H PARENT 7 11 11 13 9 15
REMARK Flexibility Score: inf
ROOT
ATOM      1  C   UNL     1     -30.979  -2.494 -20.446  1.00  0.00     0.005 A 
ATOM      2  C   UNL     1     -30.614  -2.727 -19.112  1.00  0.00     0.060 A 
ATOM      3  C   UNL     1     -32.299  -2.750 -20.846  1.00  0.00     0.060 A 
ATOM      4  C   UNL     1     -31.549  -3.209 -18.191  1.00  0.00     0.162 A 
ATOM      5  C   UNL     1     -33.248  -3.231 -19.936  1.00  0.00     0.162 A 
ATOM      6  C   UNL     1     -32.873  -3.465 -18.592  1.00  0.00     0.200 A 
ENDROOT
BRANCH   1   7
ATOM      7  C   UNL     1     -29.988  -1.984 -21.422  1.00  0.00     0.072 C 
ATOM      8  O   UNL     1     -30.361  -1.506 -22.525  1.00  0.00    -0.545 OA
ATOM      9  O   UNL     1     -28.629  -2.028 -21.132  1.00  0.00    -0.545 OA
ENDBRANCH   1   7
BRANCH   4  10
ATOM     10  O   UNL     1     -31.139  -3.426 -16.874  1.00  0.00    -0.504 OA
ATOM     11  H   UNL     1     -30.350  -2.940 -16.465  1.00  0.00     0.293 HD
ENDBRANCH   4  10
BRANCH   5  12
ATOM     12  O   UNL     1     -34.542  -3.462 -20.410  1.00  0.00    -0.504 OA
ATOM     13  H   UNL     1     -35.365  -2.991 -20.064  1.00  0.00     0.293 HD
ENDBRANCH   5  12
BRANCH   6  14
ATOM     14  O   UNL     1     -33.775  -3.945 -17.638  1.00  0.00    -0.502 OA
ATOM     15  H   UNL     1     -33.890  -3.549 -16.716  1.00  0.00     0.293 HD
ENDBRANCH   6  14
TORSDOF 4
ENDMDL
MODEL 4
REMARK VINA RESULT:    -5.310      1.837      3.747
REMARK INTER + INTRA:          -6.138
REMARK INTER:                  -6.093
REMARK INTRA:                  -0.045
REMARK UNBOUND:                -0.052
REMARK SMILES O=C([O-])c1cc(O)c(O)c(O)c1
REMARK SMILES IDX 4 1 5 2 12 3 6 4 10 5 8 6 2 7 1 8 3 9 7 10 11 12 9 14
REMARK H PARENT 7 11 11 13 9 15
REMARK Flexibility Score: inf
ROOT
ATOM      1  C   UNL     1     -33.865  -3.689 -18.673  1.00  0.00     0.005 A 
ATOM      2  C   UNL     1     -33.889  -3.248 -20.005  1.00  0.00     0.060 A 
ATOM      3  C   UNL     1     -32.667  -3.601 -17.948  1.00  0.00     0.060 A 
ATOM      4  C   UNL     1     -32.738  -2.727 -20.604  1.00  0.00     0.162 A 
ATOM      5  C   UNL     1     -31.506  -3.081 -18.532  1.00  0.00     0.162 A 
ATOM      6  C   UNL     1     -31.537  -2.638 -19.877  1.00  0.00     0.200 A 
ENDROOT
BRANCH   1   7
ATOM      7  C   UNL     1     -35.084  -4.241 -18.039  1.00  0.00     0.072 C 
ATOM      8  O   UNL     1     -35.779  -3.533 -17.264  1.00  0.00    -0.545 OA
ATOM      9  O   UNL     1     -35.478  -5.549 -18.291  1.00  0.00    -0.545 OA
ENDBRANCH   1   7
BRANCH   4  10
ATOM     10  O   UNL     1     -32.810  -2.301 -21.932  1.00  0.00    -0.504 OA
ATOM     11  H   UNL     1     -32.063  -2.472 -22.595  1.00  0.00     0.293 HD
ENDBRANCH   4  10
BRANCH   5  12
ATOM     12  O   UNL     1     -30.353  -3.026 -17.746  1.00  0.00    -0.504 OA
ATOM     13  H   UNL     1     -29.844  -2.178 -17.543  1.00  0.00     0.293 HD
ENDBRANCH   5  12
BRANCH   6  14
ATOM     14  O   UNL     1     -30.411  -2.111 -20.514  1.00  0.00    -0.502 OA
ATOM     15  H   UNL     1     -30.102  -1.154 -20.421  1.00  0.00     0.293 HD
ENDBRANCH   6  14
TORSDOF 4
ENDMDL
MODEL 5
REMARK VINA RESULT:    -5.298      1.788      3.627
REMARK INTER + INTRA:          -6.123
REMARK INTER:                  -6.078
REMARK INTRA:                  -0.045
REMARK UNBOUND:                -0.052
REMARK SMILES O=C([O-])c1cc(O)c(O)c(O)c1
REMARK SMILES IDX 4 1 5 2 12 3 6 4 10 5 8 6 2 7 1 8 3 9 7 10 11 12 9 14
REMARK H PARENT 7 11 11 13 9 15
REMARK Flexibility Score: inf
ROOT
ATOM      1  C   UNL     1     -33.711  -3.648 -18.595  1.00  0.00     0.005 A 
ATOM      2  C   UNL     1     -32.471  -3.632 -17.940  1.00  0.00     0.060 A 
ATOM      3  C   UNL     1     -33.795  -3.160 -19.908  1.00  0.00     0.060 A 
ATOM      4  C   UNL     1     -31.332  -3.136 -18.581  1.00  0.00     0.162 A 
ATOM      5  C   UNL     1     -32.664  -2.662 -20.566  1.00  0.00     0.162 A 
ATOM      6  C   UNL     1     -31.416  -2.647 -19.898  1.00  0.00     0.200 A 
ENDROOT
BRANCH   1   7
ATOM      7  C   UNL     1     -34.917  -4.173 -17.915  1.00  0.00     0.072 C 
ATOM      8  O   UNL     1     -35.499  -3.495 -17.028  1.00  0.00    -0.545 OA
ATOM      9  O   UNL     1     -35.424  -5.424 -18.246  1.00  0.00    -0.545 OA
ENDBRANCH   1   7
BRANCH   4  10
ATOM     10  O   UNL     1     -30.120  -3.139 -17.889  1.00  0.00    -0.504 OA
ATOM     11  H   UNL     1     -29.769  -3.964 -17.416  1.00  0.00     0.293 HD
ENDBRANCH   4  10
BRANCH   5  12
ATOM     12  O   UNL     1     -32.827  -2.193 -21.872  1.00  0.00    -0.504 OA
ATOM     13  H   UNL     1     -32.254  -2.479 -22.653  1.00  0.00     0.293 HD
ENDBRANCH   5  12
BRANCH   6  14
ATOM     14  O   UNL     1     -30.252  -2.162 -20.502  1.00  0.00    -0.502 OA
ATOM     15  H   UNL     1     -29.363  -2.640 -20.488  1.00  0.00     0.293 HD
ENDBRANCH   6  14
TORSDOF 4
ENDMDL
MODEL 6
REMARK VINA RESULT:    -5.057      7.746      9.136
REMARK INTER + INTRA:          -5.848
REMARK INTER:                  -5.800
REMARK INTRA:                  -0.048
REMARK UNBOUND:                -0.052
REMARK SMILES O=C([O-])c1cc(O)c(O)c(O)c1
REMARK SMILES IDX 4 1 5 2 12 3 6 4 10 5 8 6 2 7 1 8 3 9 7 10 11 12 9 14
REMARK H PARENT 7 11 11 13 9 15
REMARK Flexibility Score: inf
ROOT
ATOM      1  C   UNL     1     -36.886  -5.941 -14.137  1.00  0.00     0.005 A 
ATOM      2  C   UNL     1     -36.275  -7.020 -14.793  1.00  0.00     0.060 A 
ATOM      3  C   UNL     1     -38.283  -5.925 -14.009  1.00  0.00     0.060 A 
ATOM      4  C   UNL     1     -37.042  -8.065 -15.315  1.00  0.00     0.162 A 
ATOM      5  C   UNL     1     -39.067  -6.964 -14.524  1.00  0.00     0.162 A 
ATOM      6  C   UNL     1     -38.443  -8.049 -15.186  1.00  0.00     0.200 A 
ENDROOT
BRANCH   1   7
ATOM      7  C   UNL     1     -36.072  -4.834 -13.585  1.00  0.00     0.072 C 
ATOM      8  O   UNL     1     -35.217  -4.249 -14.301  1.00  0.00    -0.545 OA
ATOM      9  O   UNL     1     -36.241  -4.425 -12.268  1.00  0.00    -0.545 OA
ENDBRANCH   1   7
BRANCH   4  10
ATOM     10  O   UNL     1     -36.390  -9.117 -15.960  1.00  0.00    -0.504 OA
ATOM     11  H   UNL     1     -36.860  -9.716 -16.629  1.00  0.00     0.293 HD
ENDBRANCH   4  10
BRANCH   5  12
ATOM     12  O   UNL     1     -40.451  -6.876 -14.358  1.00  0.00    -0.504 OA
ATOM     13  H   UNL     1     -40.989  -7.476 -13.749  1.00  0.00     0.293 HD
ENDBRANCH   5  12
BRANCH   6  14
ATOM     14  O   UNL     1     -39.173  -9.115 -15.721  1.00  0.00    -0.502 OA
ATOM     15  H   UNL     1     -40.179  -9.129 -15.804  1.00  0.00     0.293 HD
ENDBRANCH   6  14
TORSDOF 4
ENDMDL
MODEL 7
REMARK VINA RESULT:    -4.866      3.018      4.513
REMARK INTER + INTRA:          -5.628
REMARK INTER:                  -5.583
REMARK INTRA:                  -0.046
REMARK UNBOUND:                -0.052
REMARK SMILES O=C([O-])c1cc(O)c(O)c(O)c1
REMARK SMILES IDX 4 1 5 2 12 3 6 4 10 5 8 6 2 7 1 8 3 9 7 10 11 12 9 14
REMARK H PARENT 7 11 11 13 9 15
REMARK Flexibility Score: inf
ROOT
ATOM      1  C   UNL     1     -34.825  -4.100 -17.750  1.00  0.00     0.005 A 
ATOM      2  C   UNL     1     -35.464  -4.678 -18.857  1.00  0.00     0.060 A 
ATOM      3  C   UNL     1     -33.544  -3.554 -17.911  1.00  0.00     0.060 A 
ATOM      4  C   UNL     1     -34.836  -4.712 -20.106  1.00  0.00     0.162 A 
ATOM      5  C   UNL     1     -32.900  -3.578 -19.155  1.00  0.00     0.162 A 
ATOM      6  C   UNL     1     -33.550  -4.163 -20.268  1.00  0.00     0.200 A 
ENDROOT
BRANCH   1   7
ATOM      7  C   UNL     1     -35.492  -4.066 -16.428  1.00  0.00     0.072 C 
ATOM      8  O   UNL     1     -35.736  -5.132 -15.805  1.00  0.00    -0.545 OA
ATOM      9  O   UNL     1     -35.857  -2.853 -15.856  1.00  0.00    -0.545 OA
ENDBRANCH   1   7
BRANCH   4  10
ATOM     10  O   UNL     1     -35.509  -5.298 -21.178  1.00  0.00    -0.504 OA
ATOM     11  H   UNL     1     -36.028  -6.163 -21.083  1.00  0.00     0.293 HD
ENDBRANCH   4  10
BRANCH   5  12
ATOM     12  O   UNL     1     -31.625  -3.014 -19.236  1.00  0.00    -0.504 OA
ATOM     13  H   UNL     1     -31.083  -2.957 -20.086  1.00  0.00     0.293 HD
ENDBRANCH   5  12
BRANCH   6  14
ATOM     14  O   UNL     1     -32.959  -4.218 -21.533  1.00  0.00    -0.502 OA
ATOM     15  H   UNL     1     -31.978  -4.396 -21.694  1.00  0.00     0.293 HD
ENDBRANCH   6  14
TORSDOF 4
ENDMDL
MODEL 8
REMARK VINA RESULT:    -4.864      3.006      4.076
REMARK INTER + INTRA:          -5.626
REMARK INTER:                  -5.581
REMARK INTRA:                  -0.045
REMARK UNBOUND:                -0.052
REMARK SMILES O=C([O-])c1cc(O)c(O)c(O)c1
REMARK SMILES IDX 4 1 5 2 12 3 6 4 10 5 8 6 2 7 1 8 3 9 7 10 11 12 9 14
REMARK H PARENT 7 11 11 13 9 15
REMARK Flexibility Score: inf
ROOT
ATOM      1  C   UNL     1     -34.859  -4.010 -17.778  1.00  0.00     0.005 A 
ATOM      2  C   UNL     1     -33.570  -3.491 -17.969  1.00  0.00     0.060 A 
ATOM      3  C   UNL     1     -35.521  -4.607 -18.862  1.00  0.00     0.060 A 
ATOM      4  C   UNL     1     -32.950  -3.565 -19.220  1.00  0.00     0.162 A 
ATOM      5  C   UNL     1     -34.914  -4.690 -20.121  1.00  0.00     0.162 A 
ATOM      6  C   UNL     1     -33.613  -4.164 -20.307  1.00  0.00     0.200 A 
ENDROOT
BRANCH   1   7
ATOM      7  C   UNL     1     -35.515  -3.931 -16.453  1.00  0.00     0.072 C 
ATOM      8  O   UNL     1     -35.669  -4.965 -15.751  1.00  0.00    -0.545 OA
ATOM      9  O   UNL     1     -35.971  -2.713 -15.965  1.00  0.00    -0.545 OA
ENDBRANCH   1   7
BRANCH   4  10
ATOM     10  O   UNL     1     -31.667  -3.034 -19.363  1.00  0.00    -0.504 OA
ATOM     11  H   UNL     1     -31.492  -2.165 -19.854  1.00  0.00     0.293 HD
ENDBRANCH   4  10
BRANCH   5  12
ATOM     12  O   UNL     1     -35.637  -5.298 -21.150  1.00  0.00    -0.504 OA
ATOM     13  H   UNL     1     -35.424  -6.209 -21.531  1.00  0.00     0.293 HD
ENDBRANCH   5  12
BRANCH   6  14
ATOM     14  O   UNL     1     -32.956  -4.217 -21.540  1.00  0.00    -0.502 OA
ATOM     15  H   UNL     1     -32.663  -3.404 -22.062  1.00  0.00     0.293 HD
ENDBRANCH   6  14
TORSDOF 4
ENDMDL
