MODEL 1
REMARK VINA RESULT:     5.494      0.000      0.000
REMARK INTER + INTRA:           8.117
REMARK INTER:                   8.385
REMARK INTRA:                  -0.268
REMARK UNBOUND:                -0.268
REMARK SMILES CCCCCCCCCCC(=O)[O-]
REMARK SMILES IDX 7 1 8 2 9 3 10 4 11 5 12 6 13 7 6 8 5 9 4 10 3 11 2 12 1 13
REMARK H PARENT
REMARK Flexibility Score: inf
ROOT
ATOM      1  C   UNL     1       9.617  47.896   9.449  1.00  0.00     0.000 C 
ENDROOT
BRANCH   1   2
ATOM      2  C   UNL     1      10.809  47.105   8.880  1.00  0.00     0.000 C 
BRANCH   2   3
ATOM      3  C   UNL     1      12.201  47.650   9.262  1.00  0.00     0.006 C 
BRANCH   3   4
ATOM      4  C   UNL     1      13.373  46.736   8.875  1.00  0.00     0.053 C 
BRANCH   4   5
ATOM      5  C   UNL     1      14.452  46.740   9.914  1.00  0.00     0.041 C 
ATOM      6  O   UNL     1      15.375  45.885   9.872  1.00  0.00    -0.550 OA
ATOM      7  O   UNL     1      14.419  47.668  10.947  1.00  0.00    -0.550 OA
ENDBRANCH   4   5
ENDBRANCH   3   4
ENDBRANCH   2   3
ENDBRANCH   1   2
BRANCH   1   8
ATOM      8  C   UNL     1       8.265  47.435   8.878  1.00  0.00     0.000 C 
BRANCH   8   9
ATOM      9  C   UNL     1       7.071  47.945   9.701  1.00  0.00    -0.000 C 
BRANCH   9  10
ATOM     10  C   UNL     1       6.266  49.030   8.969  1.00  0.00    -0.000 C 
BRANCH  10  11
ATOM     11  C   UNL     1       4.884  49.215   9.615  1.00  0.00    -0.000 C 
BRANCH  11  12
ATOM     12  C   UNL     1       4.485  48.028  10.506  1.00  0.00    -0.003 C 
ATOM     13  C   UNL     1       4.110  48.453  11.926  1.00  0.00     0.004 C 
ENDBRANCH  11  12
ENDBRANCH  10  11
ENDBRANCH   9  10
ENDBRANCH   8   9
ENDBRANCH   1   8
TORSDOF 9
ENDMDL
MODEL 2
REMARK VINA RESULT:     6.137      6.045      7.897
REMARK INTER + INTRA:           9.098
REMARK INTER:                   9.264
REMARK INTRA:                  -0.166
REMARK UNBOUND:                -0.268
REMARK SMILES CCCCCCCCCCC(=O)[O-]
REMARK SMILES IDX 7 1 8 2 9 3 10 4 11 5 12 6 13 7 6 8 5 9 4 10 3 11 2 12 1 13
REMARK H PARENT
REMARK Flexibility Score: inf
ROOT
ATOM      1  C   UNL     1      13.590  43.354   9.682  1.00  0.00     0.000 C 
ENDROOT
BRANCH   1   2
ATOM      2  C   UNL     1      13.980  44.616   8.891  1.00  0.00     0.000 C 
BRANCH   2   3
ATOM      3  C   UNL     1      15.487  44.945   8.880  1.00  0.00     0.006 C 
BRANCH   3   4
ATOM      4  C   UNL     1      15.844  46.326   9.452  1.00  0.00     0.053 C 
BRANCH   4   5
ATOM      5  C   UNL     1      14.632  47.066   9.926  1.00  0.00     0.041 C 
ATOM      6  O   UNL     1      14.268  46.983  11.128  1.00  0.00    -0.550 OA
ATOM      7  O   UNL     1      13.884  47.821   9.031  1.00  0.00    -0.550 OA
ENDBRANCH   4   5
ENDBRANCH   3   4
ENDBRANCH   2   3
ENDBRANCH   1   2
BRANCH   1   8
ATOM      8  C   UNL     1      12.070  43.117   9.721  1.00  0.00     0.000 C 
BRANCH   8   9
ATOM      9  C   UNL     1      11.641  41.906   8.877  1.00  0.00    -0.000 C 
BRANCH   9  10
ATOM     10  C   UNL     1      12.685  40.779   8.883  1.00  0.00    -0.000 C 
BRANCH  10  11
ATOM     11  C   UNL     1      12.005  39.405   8.980  1.00  0.00    -0.000 C 
BRANCH  11  12
ATOM     12  C   UNL     1      12.826  38.396   9.798  1.00  0.00    -0.003 C 
ATOM     13  C   UNL     1      12.745  36.975   9.239  1.00  0.00     0.004 C 
ENDBRANCH  11  12
ENDBRANCH  10  11
ENDBRANCH   9  10
ENDBRANCH   8   9
ENDBRANCH   1   8
TORSDOF 9
ENDMDL
MODEL 3
REMARK VINA RESULT:     6.984      5.912      8.002
REMARK INTER + INTRA:          10.390
REMARK INTER:                  11.128
REMARK INTRA:                  -0.738
REMARK UNBOUND:                -0.268
REMARK SMILES CCCCCCCCCCC(=O)[O-]
REMARK SMILES IDX 7 1 8 2 9 3 10 4 11 5 12 6 13 7 6 8 5 9 4 10 3 11 2 12 1 13
REMARK H PARENT
REMARK Flexibility Score: inf
ROOT
ATOM      1  C   UNL     1       4.216  49.002  10.450  1.00  0.00     0.000 C 
ENDROOT
BRANCH   1   2
ATOM      2  C   UNL     1       4.409  47.725  11.287  1.00  0.00     0.000 C 
BRANCH   2   3
ATOM      3  C   UNL     1       4.285  47.915  12.813  1.00  0.00     0.006 C 
BRANCH   3   4
ATOM      4  C   UNL     1       3.060  47.236  13.444  1.00  0.00     0.053 C 
BRANCH   4   5
ATOM      5  C   UNL     1       3.109  47.270  14.940  1.00  0.00     0.041 C 
ATOM      6  O   UNL     1       3.157  48.372  15.548  1.00  0.00    -0.550 OA
ATOM      7  O   UNL     1       3.135  46.084  15.662  1.00  0.00    -0.550 OA
ENDBRANCH   4   5
ENDBRANCH   3   4
ENDBRANCH   2   3
ENDBRANCH   1   2
BRANCH   1   8
ATOM      8  C   UNL     1       4.884  48.918   9.066  1.00  0.00     0.000 C 
BRANCH   8   9
ATOM      9  C   UNL     1       5.981  49.978   8.875  1.00  0.00    -0.000 C 
BRANCH   9  10
ATOM     10  C   UNL     1       7.377  49.463   9.258  1.00  0.00    -0.000 C 
BRANCH  10  11
ATOM     11  C   UNL     1       7.527  47.976   8.902  1.00  0.00    -0.000 C 
BRANCH  11  12
ATOM     12  C   UNL     1       7.645  47.080  10.145  1.00  0.00    -0.003 C 
ATOM     13  C   UNL     1       8.005  47.863  11.407  1.00  0.00     0.004 C 
ENDBRANCH  11  12
ENDBRANCH  10  11
ENDBRANCH   9  10
ENDBRANCH   8   9
ENDBRANCH   1   8
TORSDOF 9
ENDMDL
