MODEL 1
REMARK VINA RESULT:    -2.033      0.000      0.000
REMARK INTER + INTRA:          -2.033
REMARK INTER:                  -2.033
REMARK INTRA:                   0.000
REMARK UNBOUND:                 0.000
REMARK SMILES CC(=O)[O-]
REMARK SMILES IDX 1 1 2 2 3 3 4 4
REMARK H PARENT
REMARK Flexibility Score: inf
ROOT
ATOM      1  C   UNL     1     -26.960 -46.030 119.829  1.00  0.00     0.063 C 
ATOM      2  C   UNL     1     -25.811 -46.547 119.032  1.00  0.00     0.038 C 
ATOM      3  O   UNL     1     -25.438 -47.743 119.162  1.00  0.00    -0.550 OA
ATOM      4  O   UNL     1     -25.113 -45.696 118.184  1.00  0.00    -0.550 OA
ENDROOT
TORSDOF 0
ENDMDL
MODEL 2
REMARK VINA RESULT:    -2.022     11.278     11.727
REMARK INTER + INTRA:          -2.022
REMARK INTER:                  -2.022
REMARK INTRA:                   0.000
REMARK UNBOUND:                 0.000
REMARK SMILES CC(=O)[O-]
REMARK SMILES IDX 1 1 2 2 3 3 4 4
REMARK H PARENT
REMARK Flexibility Score: inf
ROOT
ATOM      1  C   UNL     1     -21.877 -34.278 117.123  1.00  0.00     0.063 C 
ATOM      2  C   UNL     1     -21.983 -35.711 117.521  1.00  0.00     0.038 C 
ATOM      3  O   UNL     1     -21.891 -36.617 116.651  1.00  0.00    -0.550 OA
ATOM      4  O   UNL     1     -22.236 -36.049 118.844  1.00  0.00    -0.550 OA
ENDROOT
TORSDOF 0
ENDMDL
MODEL 3
REMARK VINA RESULT:    -2.016     11.260     11.737
REMARK INTER + INTRA:          -2.016
REMARK INTER:                  -2.016
REMARK INTRA:                   0.000
REMARK UNBOUND:                 0.000
REMARK SMILES CC(=O)[O-]
REMARK SMILES IDX 1 1 2 2 3 3 4 4
REMARK H PARENT
REMARK Flexibility Score: inf
ROOT
ATOM      1  C   UNL     1     -21.869 -34.248 117.107  1.00  0.00     0.063 C 
ATOM      2  C   UNL     1     -22.020 -35.664 117.548  1.00  0.00     0.038 C 
ATOM      3  O   UNL     1     -22.243 -35.928 118.759  1.00  0.00    -0.550 OA
ATOM      4  O   UNL     1     -21.861 -36.698 116.634  1.00  0.00    -0.550 OA
ENDROOT
TORSDOF 0
ENDMDL
MODEL 4
REMARK VINA RESULT:    -2.012     11.661     12.108
REMARK INTER + INTRA:          -2.012
REMARK INTER:                  -2.012
REMARK INTRA:                   0.000
REMARK UNBOUND:                 0.000
REMARK SMILES CC(=O)[O-]
REMARK SMILES IDX 1 1 2 2 3 3 4 4
REMARK H PARENT
REMARK Flexibility Score: inf
ROOT
ATOM      1  C   UNL     1     -22.169 -36.484 118.245  1.00  0.00     0.063 C 
ATOM      2  C   UNL     1     -22.232 -35.133 117.618  1.00  0.00     0.038 C 
ATOM      3  O   UNL     1     -21.177 -34.570 117.223  1.00  0.00    -0.550 OA
ATOM      4  O   UNL     1     -23.447 -34.468 117.517  1.00  0.00    -0.550 OA
ENDROOT
TORSDOF 0
ENDMDL
MODEL 5
REMARK VINA RESULT:    -1.995     11.598     12.063
REMARK INTER + INTRA:          -1.995
REMARK INTER:                  -1.995
REMARK INTRA:                   0.000
REMARK UNBOUND:                 0.000
REMARK SMILES CC(=O)[O-]
REMARK SMILES IDX 1 1 2 2 3 3 4 4
REMARK H PARENT
REMARK Flexibility Score: inf
ROOT
ATOM      1  C   UNL     1     -22.262 -36.500 118.252  1.00  0.00     0.063 C 
ATOM      2  C   UNL     1     -22.331 -35.127 117.675  1.00  0.00     0.038 C 
ATOM      3  O   UNL     1     -23.440 -34.538 117.577  1.00  0.00    -0.550 OA
ATOM      4  O   UNL     1     -21.180 -34.515 117.195  1.00  0.00    -0.550 OA
ENDROOT
TORSDOF 0
ENDMDL
MODEL 6
REMARK VINA RESULT:    -1.991     10.764     11.108
REMARK INTER + INTRA:          -1.991
REMARK INTER:                  -1.991
REMARK INTRA:                   0.000
REMARK UNBOUND:                 0.000
REMARK SMILES CC(=O)[O-]
REMARK SMILES IDX 1 1 2 2 3 3 4 4
REMARK H PARENT
REMARK Flexibility Score: inf
ROOT
ATOM      1  C   UNL     1     -21.177 -36.922 118.985  1.00  0.00     0.063 C 
ATOM      2  C   UNL     1     -21.980 -36.296 117.896  1.00  0.00     0.038 C 
ATOM      3  O   UNL     1     -21.903 -36.739 116.720  1.00  0.00    -0.550 OA
ATOM      4  O   UNL     1     -22.773 -35.187 118.165  1.00  0.00    -0.550 OA
ENDROOT
TORSDOF 0
ENDMDL
MODEL 7
REMARK VINA RESULT:    -1.932     12.743     13.027
REMARK INTER + INTRA:          -1.932
REMARK INTER:                  -1.932
REMARK INTRA:                   0.000
REMARK UNBOUND:                 0.000
REMARK SMILES CC(=O)[O-]
REMARK SMILES IDX 1 1 2 2 3 3 4 4
REMARK H PARENT
REMARK Flexibility Score: inf
ROOT
ATOM      1  C   UNL     1     -21.532 -33.162 118.523  1.00  0.00     0.063 C 
ATOM      2  C   UNL     1     -22.012 -34.266 117.644  1.00  0.00     0.038 C 
ATOM      3  O   UNL     1     -21.185 -35.025 117.074  1.00  0.00    -0.550 OA
ATOM      4  O   UNL     1     -23.372 -34.426 117.408  1.00  0.00    -0.550 OA
ENDROOT
TORSDOF 0
ENDMDL
MODEL 8
REMARK VINA RESULT:    -1.928      1.364      1.693
REMARK INTER + INTRA:          -1.928
REMARK INTER:                  -1.928
REMARK INTRA:                   0.000
REMARK UNBOUND:                 0.000
REMARK SMILES CC(=O)[O-]
REMARK SMILES IDX 1 1 2 2 3 3 4 4
REMARK H PARENT
REMARK Flexibility Score: inf
ROOT
ATOM      1  C   UNL     1     -25.664 -47.903 118.991  1.00  0.00     0.063 C 
ATOM      2  C   UNL     1     -25.944 -46.443 119.105  1.00  0.00     0.038 C 
ATOM      3  O   UNL     1     -26.896 -46.036 119.821  1.00  0.00    -0.550 OA
ATOM      4  O   UNL     1     -25.189 -45.531 118.379  1.00  0.00    -0.550 OA
ENDROOT
TORSDOF 0
ENDMDL
MODEL 9
REMARK VINA RESULT:    -1.857     11.465     12.091
REMARK INTER + INTRA:          -1.857
REMARK INTER:                  -1.857
REMARK INTRA:                   0.000
REMARK UNBOUND:                 0.000
REMARK SMILES CC(=O)[O-]
REMARK SMILES IDX 1 1 2 2 3 3 4 4
REMARK H PARENT
REMARK Flexibility Score: inf
ROOT
ATOM      1  C   UNL     1     -16.985 -38.221 116.433  1.00  0.00     0.063 C 
ATOM      2  C   UNL     1     -18.131 -37.610 117.164  1.00  0.00     0.038 C 
ATOM      3  O   UNL     1     -19.164 -38.290 117.402  1.00  0.00    -0.550 OA
ATOM      4  O   UNL     1     -18.084 -36.273 117.538  1.00  0.00    -0.550 OA
ENDROOT
TORSDOF 0
ENDMDL
