MODEL 1
REMARK VINA RESULT:    -4.701      0.000      0.000
REMARK INTER + INTRA:          -5.033
REMARK INTER:                  -5.113
REMARK INTRA:                   0.080
REMARK UNBOUND:                 0.080
REMARK SMILES C=C(C)[C@H]1CC[C@@H](C)C[C@H]1O
REMARK SMILES IDX 8 1 7 2 6 3 5 4 4 5 10 6 9 7 11 8 2 10 1 11 3 12
REMARK H PARENT 11 9
REMARK Flexibility Score: inf
ROOT
ATOM      1  C   UNL     1     131.822 131.592 137.736  1.00  0.00     0.008 C 
ATOM      2  C   UNL     1     132.691 132.823 137.451  1.00  0.00    -0.012 C 
ATOM      3  C   UNL     1     134.123 132.396 137.081  1.00  0.00     0.004 C 
ATOM      4  C   UNL     1     135.001 133.618 136.786  1.00  0.00     0.011 C 
ATOM      5  C   UNL     1     135.046 134.609 137.968  1.00  0.00     0.043 C 
ATOM      6  C   UNL     1     133.611 134.992 138.423  1.00  0.00     0.121 C 
ATOM      7  C   UNL     1     132.698 133.772 138.663  1.00  0.00     0.035 C 
ENDROOT
BRANCH   6   8
ATOM      8  O   UNL     1     133.664 135.807 139.566  1.00  0.00    -0.392 OA
ATOM      9  H   UNL     1     132.900 135.546 140.143  1.00  0.00     0.210 HD
ENDBRANCH   6   8
BRANCH   5  10
ATOM     10  C   UNL     1     136.013 134.136 139.062  1.00  0.00    -0.075 C 
ATOM     11  C   UNL     1     137.338 134.223 138.857  1.00  0.00     0.008 C 
ATOM     12  C   UNL     1     135.560 133.494 140.351  1.00  0.00     0.039 C 
ENDBRANCH   5  10
TORSDOF 2
ENDMDL
MODEL 2
REMARK VINA RESULT:    -3.944      1.758      3.215
REMARK INTER + INTRA:          -4.210
REMARK INTER:                  -4.652
REMARK INTRA:                   0.443
REMARK UNBOUND:                 0.080
REMARK SMILES C=C(C)[C@H]1CC[C@@H](C)C[C@H]1O
REMARK SMILES IDX 8 1 7 2 6 3 5 4 4 5 10 6 9 7 11 8 2 10 1 11 3 12
REMARK H PARENT 11 9
REMARK Flexibility Score: inf
ROOT
ATOM      1  C   UNL     1     134.124 131.777 134.343  1.00  0.00     0.008 C 
ATOM      2  C   UNL     1     134.371 131.982 135.843  1.00  0.00    -0.012 C 
ATOM      3  C   UNL     1     133.035 132.051 136.604  1.00  0.00     0.004 C 
ATOM      4  C   UNL     1     133.268 132.249 138.106  1.00  0.00     0.011 C 
ATOM      5  C   UNL     1     134.103 133.511 138.410  1.00  0.00     0.043 C 
ATOM      6  C   UNL     1     135.421 133.513 137.589  1.00  0.00     0.121 C 
ATOM      7  C   UNL     1     135.205 133.253 136.083  1.00  0.00     0.035 C 
ENDROOT
BRANCH   6   8
ATOM      8  O   UNL     1     136.119 134.715 137.791  1.00  0.00    -0.392 OA
ATOM      9  H   UNL     1     137.083 134.515 137.665  1.00  0.00     0.210 HD
ENDBRANCH   6   8
BRANCH   5  10
ATOM     10  C   UNL     1     133.246 134.782 138.342  1.00  0.00    -0.075 C 
ATOM     11  C   UNL     1     132.056 134.746 137.720  1.00  0.00     0.008 C 
ATOM     12  C   UNL     1     133.700 136.119 138.876  1.00  0.00     0.039 C 
ENDBRANCH   5  10
TORSDOF 2
ENDMDL
MODEL 3
REMARK VINA RESULT:    -3.875      0.992      1.465
REMARK INTER + INTRA:          -4.134
REMARK INTER:                  -4.579
REMARK INTRA:                   0.445
REMARK UNBOUND:                 0.080
REMARK SMILES C=C(C)[C@H]1CC[C@@H](C)C[C@H]1O
REMARK SMILES IDX 8 1 7 2 6 3 5 4 4 5 10 6 9 7 11 8 2 10 1 11 3 12
REMARK H PARENT 11 9
REMARK Flexibility Score: inf
ROOT
ATOM      1  C   UNL     1     131.609 130.642 137.965  1.00  0.00     0.008 C 
ATOM      2  C   UNL     1     132.271 131.891 137.371  1.00  0.00    -0.012 C 
ATOM      3  C   UNL     1     133.770 131.640 137.126  1.00  0.00     0.004 C 
ATOM      4  C   UNL     1     134.442 132.879 136.524  1.00  0.00     0.011 C 
ATOM      5  C   UNL     1     134.265 134.132 137.408  1.00  0.00     0.043 C 
ATOM      6  C   UNL     1     132.767 134.362 137.747  1.00  0.00     0.121 C 
ATOM      7  C   UNL     1     132.062 133.104 138.295  1.00  0.00     0.035 C 
ENDROOT
BRANCH   6   8
ATOM      8  O   UNL     1     132.629 135.439 138.639  1.00  0.00    -0.392 OA
ATOM      9  H   UNL     1     131.736 135.350 139.064  1.00  0.00     0.210 HD
ENDBRANCH   6   8
BRANCH   5  10
ATOM     10  C   UNL     1     135.247 134.131 138.589  1.00  0.00    -0.075 C 
ATOM     11  C   UNL     1     134.777 134.003 139.841  1.00  0.00     0.008 C 
ATOM     12  C   UNL     1     136.733 134.347 138.433  1.00  0.00     0.039 C 
ENDBRANCH   5  10
TORSDOF 2
ENDMDL
MODEL 4
REMARK VINA RESULT:    -3.776      1.784      4.126
REMARK INTER + INTRA:          -4.027
REMARK INTER:                  -4.462
REMARK INTRA:                   0.436
REMARK UNBOUND:                 0.080
REMARK SMILES C=C(C)[C@H]1CC[C@@H](C)C[C@H]1O
REMARK SMILES IDX 8 1 7 2 6 3 5 4 4 5 10 6 9 7 11 8 2 10 1 11 3 12
REMARK H PARENT 11 9
REMARK Flexibility Score: inf
ROOT
ATOM      1  C   UNL     1     136.838 133.865 140.300  1.00  0.00     0.008 C 
ATOM      2  C   UNL     1     135.833 134.323 139.235  1.00  0.00    -0.012 C 
ATOM      3  C   UNL     1     134.395 134.207 139.770  1.00  0.00     0.004 C 
ATOM      4  C   UNL     1     133.380 134.669 138.718  1.00  0.00     0.011 C 
ATOM      5  C   UNL     1     133.505 133.884 137.395  1.00  0.00     0.043 C 
ATOM      6  C   UNL     1     134.968 133.908 136.874  1.00  0.00     0.121 C 
ATOM      7  C   UNL     1     136.006 133.504 137.943  1.00  0.00     0.035 C 
ENDROOT
BRANCH   6   8
ATOM      8  O   UNL     1     135.092 133.100 135.731  1.00  0.00    -0.392 OA
ATOM      9  H   UNL     1     135.157 132.161 136.046  1.00  0.00     0.210 HD
ENDBRANCH   6   8
BRANCH   5  10
ATOM     10  C   UNL     1     132.830 132.508 137.491  1.00  0.00    -0.075 C 
ATOM     11  C   UNL     1     131.818 132.327 138.356  1.00  0.00     0.008 C 
ATOM     12  C   UNL     1     133.291 131.300 136.713  1.00  0.00     0.039 C 
ENDBRANCH   5  10
TORSDOF 2
ENDMDL
MODEL 5
REMARK VINA RESULT:    -3.386      2.058      3.848
REMARK INTER + INTRA:          -3.603
REMARK INTER:                  -3.901
REMARK INTRA:                   0.298
REMARK UNBOUND:                 0.080
REMARK SMILES C=C(C)[C@H]1CC[C@@H](C)C[C@H]1O
REMARK SMILES IDX 8 1 7 2 6 3 5 4 4 5 10 6 9 7 11 8 2 10 1 11 3 12
REMARK H PARENT 11 9
REMARK Flexibility Score: inf
ROOT
ATOM      1  C   UNL     1     133.342 136.125 138.875  1.00  0.00     0.008 C 
ATOM      2  C   UNL     1     133.373 134.594 138.799  1.00  0.00    -0.012 C 
ATOM      3  C   UNL     1     134.765 134.105 138.361  1.00  0.00     0.004 C 
ATOM      4  C   UNL     1     134.811 132.574 138.290  1.00  0.00     0.011 C 
ATOM      5  C   UNL     1     133.738 131.997 137.342  1.00  0.00     0.043 C 
ATOM      6  C   UNL     1     132.330 132.542 137.704  1.00  0.00     0.121 C 
ATOM      7  C   UNL     1     132.284 134.078 137.841  1.00  0.00     0.035 C 
ENDROOT
BRANCH   6   8
ATOM      8  O   UNL     1     131.380 132.097 136.770  1.00  0.00    -0.392 OA
ATOM      9  H   UNL     1     131.883 131.700 136.012  1.00  0.00     0.210 HD
ENDBRANCH   6   8
BRANCH   5  10
ATOM     10  C   UNL     1     134.165 132.112 135.872  1.00  0.00    -0.075 C 
ATOM     11  C   UNL     1     133.674 131.247 134.970  1.00  0.00     0.008 C 
ATOM     12  C   UNL     1     135.185 133.110 135.379  1.00  0.00     0.039 C 
ENDBRANCH   5  10
TORSDOF 2
ENDMDL
