MODEL 1
REMARK VINA RESULT:    -2.992      0.000      0.000
REMARK INTER + INTRA:          -4.739
REMARK INTER:                  -4.566
REMARK INTRA:                  -0.173
REMARK UNBOUND:                -0.173
REMARK SMILES CC1=CCC[C@@H](C)C(=O)C[C@H](C(C)C)C(=O)C1
REMARK SMILES IDX 8 1 9 2 6 3 7 4 5 5 4 6 3 7 2 8 1 9 10 11 11 12 15 13 16 14
REMARK SMILES IDX 17 15 12 17 13 18 14 19
REMARK H PARENT
REMARK Flexibility Score: 70.00
ROOT
ATOM      1  C   UNL     1      -5.612  28.918  46.535  1.00  0.00     0.136 C 
ATOM      2  O   UNL     1      -4.425  29.048  46.793  1.00  0.00    -0.299 OA
ENDROOT
BRANCH   1   3
ATOM      3  C   UNL     1      -6.076  27.766  45.666  1.00  0.00     0.053 C 
ATOM      4  C   UNL     1      -5.900  26.451  46.430  1.00  0.00     0.016 C 
BRANCH   3   5
ATOM      5  C   UNL     1      -5.310  27.713  44.324  1.00  0.00     0.015 C 
BRANCH   5   6
ATOM      6  C   UNL     1      -5.696  28.843  43.358  1.00  0.00     0.028 C 
BRANCH   6   7
ATOM      7  C   UNL     1      -7.138  28.729  42.928  1.00  0.00    -0.028 C 
ATOM      8  C   UNL     1      -8.093  29.670  43.106  1.00  0.00    -0.070 CG0
ATOM      9  C   UNL     1      -9.486  29.367  42.612  1.00  0.00     0.039 C 
ATOM     10  G   UNL     1      -7.844  30.991  43.810  1.00  0.00     0.000 G0
ENDBRANCH   6   7
ENDBRANCH   5   6
ENDBRANCH   3   5
ENDBRANCH   1   3
BRANCH   1  11
ATOM     11  C   UNL     1      -6.599  29.891  47.128  1.00  0.00     0.087 C 
BRANCH  11  12
ATOM     12  C   UNL     1      -6.803  31.131  46.219  1.00  0.00     0.066 C 
BRANCH  12  13
ATOM     13  C   UNL     1      -7.985  30.882  45.295  1.00  0.00     0.140 C 
ATOM     14  O   UNL     1      -9.084  30.643  45.776  1.00  0.00    -0.299 OA
BRANCH  13  15
ATOM     15  C   UNL     1      -7.856  31.017  43.799  1.00  0.00     0.106 CG0
ATOM     16  G   UNL     1      -8.086  29.684  43.110  1.00  0.00     0.000 G0
ENDBRANCH  13  15
ENDBRANCH  12  13
BRANCH  12  17
ATOM     17  C   UNL     1      -7.023  32.442  47.044  1.00  0.00    -0.006 C 
ATOM     18  C   UNL     1      -6.846  33.697  46.166  1.00  0.00     0.008 C 
ATOM     19  C   UNL     1      -6.059  32.545  48.242  1.00  0.00     0.008 C 
ENDBRANCH  12  17
ENDBRANCH  11  12
ENDBRANCH   1  11
TORSDOF 1
ENDMDL
MODEL 2
REMARK VINA RESULT:    -2.905      1.853      4.838
REMARK INTER + INTRA:          -4.607
REMARK INTER:                  -4.641
REMARK INTRA:                   0.035
REMARK UNBOUND:                -0.173
REMARK SMILES CC1=CCC[C@@H](C)C(=O)C[C@H](C(C)C)C(=O)C1
REMARK SMILES IDX 8 1 9 2 6 3 7 4 5 5 4 6 3 7 2 8 1 9 10 11 11 12 15 13 16 14
REMARK SMILES IDX 17 15 12 17 13 18 14 19
REMARK H PARENT
REMARK Flexibility Score: 70.00
ROOT
ATOM      1  C   UNL     1      -8.289  28.129  43.961  1.00  0.00     0.136 C 
ATOM      2  O   UNL     1      -8.140  27.252  43.123  1.00  0.00    -0.299 OA
ENDROOT
BRANCH   1   3
ATOM      3  C   UNL     1      -9.023  29.404  43.601  1.00  0.00     0.053 C 
ATOM      4  C   UNL     1      -9.678  29.241  42.226  1.00  0.00     0.016 C 
BRANCH   3   5
ATOM      5  C   UNL     1      -8.082  30.631  43.604  1.00  0.00     0.015 C 
BRANCH   5   6
ATOM      6  C   UNL     1      -8.472  31.694  44.641  1.00  0.00     0.028 C 
BRANCH   6   7
ATOM      7  C   UNL     1      -7.259  32.225  45.366  1.00  0.00    -0.028 C 
ATOM      8  C   UNL     1      -6.597  31.597  46.364  1.00  0.00    -0.070 CG0
ATOM      9  C   UNL     1      -5.406  32.296  46.971  1.00  0.00     0.039 C 
ATOM     10  G   UNL     1      -7.014  30.250  46.926  1.00  0.00     0.000 G0
ENDBRANCH   6   7
ENDBRANCH   5   6
ENDBRANCH   3   5
ENDBRANCH   1   3
BRANCH   1  11
ATOM     11  C   UNL     1      -7.769  27.899  45.357  1.00  0.00     0.087 C 
BRANCH  11  12
ATOM     12  C   UNL     1      -6.252  28.202  45.466  1.00  0.00     0.066 C 
BRANCH  12  13
ATOM     13  C   UNL     1      -6.020  29.177  46.610  1.00  0.00     0.140 C 
ATOM     14  O   UNL     1      -4.960  29.145  47.220  1.00  0.00    -0.299 OA
BRANCH  13  15
ATOM     15  C   UNL     1      -7.028  30.245  46.950  1.00  0.00     0.106 CG0
ATOM     16  G   UNL     1      -6.626  31.582  46.355  1.00  0.00     0.000 G0
ENDBRANCH  13  15
ENDBRANCH  12  13
BRANCH  12  17
ATOM     17  C   UNL     1      -5.400  26.906  45.672  1.00  0.00    -0.006 C 
ATOM     18  C   UNL     1      -4.957  26.302  44.325  1.00  0.00     0.008 C 
ATOM     19  C   UNL     1      -6.165  25.826  46.463  1.00  0.00     0.008 C 
ENDBRANCH  12  17
ENDBRANCH  11  12
ENDBRANCH   1  11
TORSDOF 1
ENDMDL
MODEL 3
REMARK VINA RESULT:    -2.764      1.836      4.280
REMARK INTER + INTRA:          -4.391
REMARK INTER:                  -4.163
REMARK INTRA:                  -0.228
REMARK UNBOUND:                -0.173
REMARK SMILES CC1=CCC[C@@H](C)C(=O)C[C@H](C(C)C)C(=O)C1
REMARK SMILES IDX 8 1 9 2 6 3 7 4 5 5 4 6 3 7 2 8 1 9 10 11 11 12 15 13 16 14
REMARK SMILES IDX 17 15 12 17 13 18 14 19
REMARK H PARENT
REMARK Flexibility Score: 70.00
ROOT
ATOM      1  C   UNL     1      -6.818  28.446  45.136  1.00  0.00     0.136 C 
ATOM      2  O   UNL     1      -7.274  27.411  45.598  1.00  0.00    -0.299 OA
ENDROOT
BRANCH   1   3
ATOM      3  C   UNL     1      -5.879  29.296  45.967  1.00  0.00     0.053 C 
ATOM      4  C   UNL     1      -4.649  28.467  46.350  1.00  0.00     0.016 C 
BRANCH   3   5
ATOM      5  C   UNL     1      -6.571  29.845  47.236  1.00  0.00     0.015 C 
BRANCH   5   6
ATOM      6  C   UNL     1      -7.385  31.122  46.980  1.00  0.00     0.028 C 
BRANCH   6   7
ATOM      7  C   UNL     1      -6.766  31.958  45.886  1.00  0.00    -0.028 C 
ATOM      8  C   UNL     1      -7.352  32.281  44.711  1.00  0.00    -0.070 CG0
ATOM      9  C   UNL     1      -6.566  33.124  43.737  1.00  0.00     0.039 C 
ATOM     10  G   UNL     1      -8.737  31.809  44.309  1.00  0.00     0.000 G0
ENDBRANCH   6   7
ENDBRANCH   5   6
ENDBRANCH   3   5
ENDBRANCH   1   3
BRANCH   1  11
ATOM     11  C   UNL     1      -7.170  28.832  43.722  1.00  0.00     0.087 C 
BRANCH  11  12
ATOM     12  C   UNL     1      -8.651  29.276  43.597  1.00  0.00     0.066 C 
BRANCH  12  13
ATOM     13  C   UNL     1      -8.699  30.752  43.235  1.00  0.00     0.140 C 
ATOM     14  O   UNL     1      -8.785  31.080  42.060  1.00  0.00    -0.299 OA
BRANCH  13  15
ATOM     15  C   UNL     1      -8.739  31.822  44.297  1.00  0.00     0.106 CG0
ATOM     16  G   UNL     1      -7.338  32.262  44.679  1.00  0.00     0.000 G0
ENDBRANCH  13  15
ENDBRANCH  12  13
BRANCH  12  17
ATOM     17  C   UNL     1      -9.438  28.430  42.542  1.00  0.00    -0.006 C 
ATOM     18  C   UNL     1     -10.450  27.484  43.220  1.00  0.00     0.008 C 
ATOM     19  C   UNL     1      -8.501  27.587  41.655  1.00  0.00     0.008 C 
ENDBRANCH  12  17
ENDBRANCH  11  12
ENDBRANCH   1  11
TORSDOF 1
ENDMDL
MODEL 4
REMARK VINA RESULT:    -2.713      2.091      3.577
REMARK INTER + INTRA:          -4.313
REMARK INTER:                  -4.060
REMARK INTRA:                  -0.253
REMARK UNBOUND:                -0.173
REMARK SMILES CC1=CCC[C@@H](C)C(=O)C[C@H](C(C)C)C(=O)C1
REMARK SMILES IDX 8 1 9 2 6 3 7 4 5 5 4 6 3 7 2 8 1 9 10 11 11 12 15 13 16 14
REMARK SMILES IDX 17 15 12 17 13 18 14 19
REMARK H PARENT
REMARK Flexibility Score: 70.00
ROOT
ATOM      1  C   UNL     1      -8.099  29.926  45.045  1.00  0.00     0.136 C 
ATOM      2  O   UNL     1      -9.094  30.172  45.710  1.00  0.00    -0.299 OA
ENDROOT
BRANCH   1   3
ATOM      3  C   UNL     1      -7.847  28.515  44.554  1.00  0.00     0.053 C 
ATOM      4  C   UNL     1      -9.099  27.995  43.841  1.00  0.00     0.016 C 
BRANCH   3   5
ATOM      5  C   UNL     1      -7.455  27.565  45.709  1.00  0.00     0.015 C 
BRANCH   5   6
ATOM      6  C   UNL     1      -5.963  27.199  45.716  1.00  0.00     0.028 C 
BRANCH   6   7
ATOM      7  C   UNL     1      -5.352  27.360  44.345  1.00  0.00    -0.028 C 
ATOM      8  C   UNL     1      -4.454  28.306  43.986  1.00  0.00    -0.070 CG0
ATOM      9  C   UNL     1      -3.963  28.308  42.559  1.00  0.00     0.039 C 
ATOM     10  G   UNL     1      -3.949  29.381  44.930  1.00  0.00     0.000 G0
ENDBRANCH   6   7
ENDBRANCH   5   6
ENDBRANCH   3   5
ENDBRANCH   1   3
BRANCH   1  11
ATOM     11  C   UNL     1      -7.160  31.051  44.691  1.00  0.00     0.087 C 
BRANCH  11  12
ATOM     12  C   UNL     1      -5.893  31.048  45.585  1.00  0.00     0.066 C 
BRANCH  12  13
ATOM     13  C   UNL     1      -4.685  30.682  44.737  1.00  0.00     0.140 C 
ATOM     14  O   UNL     1      -4.251  31.492  43.930  1.00  0.00    -0.299 OA
BRANCH  13  15
ATOM     15  C   UNL     1      -3.952  29.380  44.934  1.00  0.00     0.106 CG0
ATOM     16  G   UNL     1      -4.468  28.315  43.985  1.00  0.00     0.000 G0
ENDBRANCH  13  15
ENDBRANCH  12  13
BRANCH  12  17
ATOM     17  C   UNL     1      -5.664  32.424  46.295  1.00  0.00    -0.006 C 
ATOM     18  C   UNL     1      -4.822  32.264  47.576  1.00  0.00     0.008 C 
ATOM     19  C   UNL     1      -6.990  33.116  46.666  1.00  0.00     0.008 C 
ENDBRANCH  12  17
ENDBRANCH  11  12
ENDBRANCH   1  11
TORSDOF 1
ENDMDL
MODEL 5
REMARK VINA RESULT:    -2.685     13.759     16.270
REMARK INTER + INTRA:          -4.271
REMARK INTER:                  -4.481
REMARK INTRA:                   0.210
REMARK UNBOUND:                -0.173
REMARK SMILES CC1=CCC[C@@H](C)C(=O)C[C@H](C(C)C)C(=O)C1
REMARK SMILES IDX 8 1 9 2 6 3 7 4 5 5 4 6 3 7 2 8 1 9 10 11 11 12 15 13 16 14
REMARK SMILES IDX 17 15 12 17 13 18 14 19
REMARK H PARENT
REMARK Flexibility Score: 70.00
ROOT
ATOM      1  C   UNL     1     -21.058  22.883  38.668  1.00  0.00     0.136 C 
ATOM      2  O   UNL     1     -21.181  22.959  37.455  1.00  0.00    -0.299 OA
ENDROOT
BRANCH   1   3
ATOM      3  C   UNL     1     -22.053  22.080  39.480  1.00  0.00     0.053 C 
ATOM      4  C   UNL     1     -22.936  21.261  38.534  1.00  0.00     0.016 C 
BRANCH   3   5
ATOM      5  C   UNL     1     -22.926  22.985  40.379  1.00  0.00     0.015 C 
BRANCH   5   6
ATOM      6  C   UNL     1     -22.396  23.110  41.815  1.00  0.00     0.028 C 
BRANCH   6   7
ATOM      7  C   UNL     1     -22.514  24.527  42.323  1.00  0.00    -0.028 C 
ATOM      8  C   UNL     1     -21.568  25.487  42.214  1.00  0.00    -0.070 CG0
ATOM      9  C   UNL     1     -21.871  26.847  42.794  1.00  0.00     0.039 C 
ATOM     10  G   UNL     1     -20.211  25.255  41.575  1.00  0.00     0.000 G0
ENDBRANCH   6   7
ENDBRANCH   5   6
ENDBRANCH   3   5
ENDBRANCH   1   3
BRANCH   1  11
ATOM     11  C   UNL     1     -19.884  23.562  39.327  1.00  0.00     0.087 C 
BRANCH  11  12
ATOM     12  C   UNL     1     -19.811  25.068  38.964  1.00  0.00     0.066 C 
BRANCH  12  13
ATOM     13  C   UNL     1     -20.136  25.895  40.198  1.00  0.00     0.140 C 
ATOM     14  O   UNL     1     -20.428  27.076  40.070  1.00  0.00    -0.299 OA
BRANCH  13  15
ATOM     15  C   UNL     1     -20.199  25.271  41.569  1.00  0.00     0.106 CG0
ATOM     16  G   UNL     1     -21.566  25.471  42.196  1.00  0.00     0.000 G0
ENDBRANCH  13  15
ENDBRANCH  12  13
BRANCH  12  17
ATOM     17  C   UNL     1     -18.413  25.473  38.389  1.00  0.00    -0.006 C 
ATOM     18  C   UNL     1     -18.363  25.306  36.858  1.00  0.00     0.008 C 
ATOM     19  C   UNL     1     -17.268  24.648  39.008  1.00  0.00     0.008 C 
ENDBRANCH  12  17
ENDBRANCH  11  12
ENDBRANCH   1  11
TORSDOF 1
ENDMDL
MODEL 6
REMARK VINA RESULT:    -2.666      2.124      4.365
REMARK INTER + INTRA:          -4.241
REMARK INTER:                  -4.043
REMARK INTRA:                  -0.198
REMARK UNBOUND:                -0.173
REMARK SMILES CC1=CCC[C@@H](C)C(=O)C[C@H](C(C)C)C(=O)C1
REMARK SMILES IDX 8 1 9 2 6 3 7 4 5 5 4 6 3 7 2 8 1 9 10 11 11 12 15 13 16 14
REMARK SMILES IDX 17 15 12 17 13 18 14 19
REMARK H PARENT
REMARK Flexibility Score: 70.00
ROOT
ATOM      1  C   UNL     1      -5.461  28.932  43.236  1.00  0.00     0.136 C 
ATOM      2  O   UNL     1      -5.605  28.135  42.320  1.00  0.00    -0.299 OA
ENDROOT
BRANCH   1   3
ATOM      3  C   UNL     1      -4.194  28.909  44.066  1.00  0.00     0.053 C 
ATOM      4  C   UNL     1      -4.229  27.706  45.013  1.00  0.00     0.016 C 
BRANCH   3   5
ATOM      5  C   UNL     1      -4.008  30.218  44.868  1.00  0.00     0.015 C 
BRANCH   5   6
ATOM      6  C   UNL     1      -4.169  30.030  46.384  1.00  0.00     0.028 C 
BRANCH   6   7
ATOM      7  C   UNL     1      -4.740  31.268  47.032  1.00  0.00    -0.028 C 
ATOM      8  C   UNL     1      -6.041  31.472  47.339  1.00  0.00    -0.070 CG0
ATOM      9  C   UNL     1      -6.420  32.784  47.980  1.00  0.00     0.039 C 
ATOM     10  G   UNL     1      -7.138  30.468  47.036  1.00  0.00     0.000 G0
ENDBRANCH   6   7
ENDBRANCH   5   6
ENDBRANCH   3   5
ENDBRANCH   1   3
BRANCH   1  11
ATOM     11  C   UNL     1      -6.540  29.952  43.492  1.00  0.00     0.087 C 
BRANCH  11  12
ATOM     12  C   UNL     1      -7.517  29.493  44.606  1.00  0.00     0.066 C 
BRANCH  12  13
ATOM     13  C   UNL     1      -7.666  30.608  45.629  1.00  0.00     0.140 C 
ATOM     14  O   UNL     1      -8.293  31.615  45.333  1.00  0.00    -0.299 OA
BRANCH  13  15
ATOM     15  C   UNL     1      -7.139  30.461  47.034  1.00  0.00     0.106 CG0
ATOM     16  G   UNL     1      -6.049  31.480  47.316  1.00  0.00     0.000 G0
ENDBRANCH  13  15
ENDBRANCH  12  13
BRANCH  12  17
ATOM     17  C   UNL     1      -8.916  29.084  44.037  1.00  0.00    -0.006 C 
ATOM     18  C   UNL     1      -9.086  27.552  44.005  1.00  0.00     0.008 C 
ATOM     19  C   UNL     1      -9.150  29.631  42.616  1.00  0.00     0.008 C 
ENDBRANCH  12  17
ENDBRANCH  11  12
ENDBRANCH   1  11
TORSDOF 1
ENDMDL
MODEL 7
REMARK VINA RESULT:    -2.625      2.412      5.644
REMARK INTER + INTRA:          -4.180
REMARK INTER:                  -3.910
REMARK INTRA:                  -0.269
REMARK UNBOUND:                -0.173
REMARK SMILES CC1=CCC[C@@H](C)C(=O)C[C@H](C(C)C)C(=O)C1
REMARK SMILES IDX 8 1 9 2 6 3 7 4 5 5 4 6 3 7 2 8 1 9 10 11 11 12 15 13 16 14
REMARK SMILES IDX 17 15 12 17 13 18 14 19
REMARK H PARENT
REMARK Flexibility Score: 70.00
ROOT
ATOM      1  C   UNL     1      -8.643  32.622  44.607  1.00  0.00     0.136 C 
ATOM      2  O   UNL     1      -9.113  32.463  43.490  1.00  0.00    -0.299 OA
ENDROOT
BRANCH   1   3
ATOM      3  C   UNL     1      -8.308  34.017  45.095  1.00  0.00     0.053 C 
ATOM      4  C   UNL     1      -9.512  34.937  44.868  1.00  0.00     0.016 C 
BRANCH   3   5
ATOM      5  C   UNL     1      -7.057  34.588  44.390  1.00  0.00     0.015 C 
BRANCH   5   6
ATOM      6  C   UNL     1      -5.740  34.195  45.075  1.00  0.00     0.028 C 
BRANCH   6   7
ATOM      7  C   UNL     1      -5.870  34.232  46.578  1.00  0.00    -0.028 C 
ATOM      8  C   UNL     1      -5.609  33.206  47.420  1.00  0.00    -0.070 CG0
ATOM      9  C   UNL     1      -5.807  33.437  48.898  1.00  0.00     0.039 C 
ATOM     10  G   UNL     1      -5.166  31.833  46.952  1.00  0.00     0.000 G0
ENDBRANCH   6   7
ENDBRANCH   5   6
ENDBRANCH   3   5
ENDBRANCH   1   3
BRANCH   1  11
ATOM     11  C   UNL     1      -8.446  31.420  45.494  1.00  0.00     0.087 C 
BRANCH  11  12
ATOM     12  C   UNL     1      -7.014  30.839  45.368  1.00  0.00     0.066 C 
BRANCH  12  13
ATOM     13  C   UNL     1      -6.327  30.908  46.723  1.00  0.00     0.140 C 
ATOM     14  O   UNL     1      -6.684  30.153  47.617  1.00  0.00    -0.299 OA
BRANCH  13  15
ATOM     15  C   UNL     1      -5.152  31.822  46.964  1.00  0.00     0.106 CG0
ATOM     16  G   UNL     1      -5.613  33.193  47.422  1.00  0.00     0.000 G0
ENDBRANCH  13  15
ENDBRANCH  12  13
BRANCH  12  17
ATOM     17  C   UNL     1      -7.015  29.368  44.832  1.00  0.00    -0.006 C 
ATOM     18  C   UNL     1      -6.711  29.319  43.322  1.00  0.00     0.008 C 
ATOM     19  C   UNL     1      -8.359  28.658  45.084  1.00  0.00     0.008 C 
ENDBRANCH  12  17
ENDBRANCH  11  12
ENDBRANCH   1  11
TORSDOF 1
ENDMDL
MODEL 8
REMARK VINA RESULT:    -2.562      2.179      4.519
REMARK INTER + INTRA:          -4.082
REMARK INTER:                  -4.022
REMARK INTRA:                  -0.060
REMARK UNBOUND:                -0.173
REMARK SMILES CC1=CCC[C@@H](C)C(=O)C[C@H](C(C)C)C(=O)C1
REMARK SMILES IDX 8 1 9 2 6 3 7 4 5 5 4 6 3 7 2 8 1 9 10 11 11 12 15 13 16 14
REMARK SMILES IDX 17 15 12 17 13 18 14 19
REMARK H PARENT
REMARK Flexibility Score: 70.00
ROOT
ATOM      1  C   UNL     1      -5.854  26.285  43.999  1.00  0.00     0.136 C 
ATOM      2  O   UNL     1      -5.866  25.223  43.394  1.00  0.00    -0.299 OA
ENDROOT
BRANCH   1   3
ATOM      3  C   UNL     1      -5.251  26.357  45.387  1.00  0.00     0.053 C 
ATOM      4  C   UNL     1      -6.350  26.134  46.431  1.00  0.00     0.016 C 
BRANCH   3   5
ATOM      5  C   UNL     1      -4.541  27.708  45.637  1.00  0.00     0.015 C 
BRANCH   5   6
ATOM      6  C   UNL     1      -5.254  28.587  46.674  1.00  0.00     0.028 C 
BRANCH   6   7
ATOM      7  C   UNL     1      -5.717  29.889  46.065  1.00  0.00    -0.028 C 
ATOM      8  C   UNL     1      -6.941  30.126  45.541  1.00  0.00    -0.070 CG0
ATOM      9  C   UNL     1      -7.213  31.495  44.970  1.00  0.00     0.039 C 
ATOM     10  G   UNL     1      -8.035  29.077  45.465  1.00  0.00     0.000 G0
ENDBRANCH   6   7
ENDBRANCH   5   6
ENDBRANCH   3   5
ENDBRANCH   1   3
BRANCH   1  11
ATOM     11  C   UNL     1      -6.407  27.515  43.327  1.00  0.00     0.087 C 
BRANCH  11  12
ATOM     12  C   UNL     1      -7.958  27.531  43.339  1.00  0.00     0.066 C 
BRANCH  12  13
ATOM     13  C   UNL     1      -8.438  28.782  44.059  1.00  0.00     0.140 C 
ATOM     14  O   UNL     1      -9.226  29.532  43.500  1.00  0.00    -0.299 OA
BRANCH  13  15
ATOM     15  C   UNL     1      -8.038  29.072  45.483  1.00  0.00     0.106 CG0
ATOM     16  G   UNL     1      -6.934  30.111  45.539  1.00  0.00     0.000 G0
ENDBRANCH  13  15
ENDBRANCH  12  13
BRANCH  12  17
ATOM     17  C   UNL     1      -8.565  27.464  41.898  1.00  0.00    -0.006 C 
ATOM     18  C   UNL     1      -9.171  26.078  41.605  1.00  0.00     0.008 C 
ATOM     19  C   UNL     1      -7.519  27.780  40.811  1.00  0.00     0.008 C 
ENDBRANCH  12  17
ENDBRANCH  11  12
ENDBRANCH   1  11
TORSDOF 1
ENDMDL
MODEL 9
REMARK VINA RESULT:    -2.535     12.064     14.271
REMARK INTER + INTRA:          -4.041
REMARK INTER:                  -4.219
REMARK INTRA:                   0.178
REMARK UNBOUND:                -0.173
REMARK SMILES CC1=CCC[C@@H](C)C(=O)C[C@H](C(C)C)C(=O)C1
REMARK SMILES IDX 8 1 9 2 6 3 7 4 5 5 4 6 3 7 2 8 1 9 10 11 11 12 15 13 16 14
REMARK SMILES IDX 17 15 12 17 13 18 14 19
REMARK H PARENT
REMARK Flexibility Score: 70.00
ROOT
ATOM      1  C   UNL     1      -9.347  19.890  34.845  1.00  0.00     0.136 C 
ATOM      2  O   UNL     1      -8.235  19.981  35.345  1.00  0.00    -0.299 OA
ENDROOT
BRANCH   1   3
ATOM      3  C   UNL     1      -9.504  19.331  33.446  1.00  0.00     0.053 C 
ATOM      4  C   UNL     1      -8.651  20.152  32.473  1.00  0.00     0.016 C 
BRANCH   3   5
ATOM      5  C   UNL     1     -10.981  19.326  32.990  1.00  0.00     0.015 C 
BRANCH   5   6
ATOM      6  C   UNL     1     -11.306  20.422  31.965  1.00  0.00     0.028 C 
BRANCH   6   7
ATOM      7  C   UNL     1     -12.493  21.246  32.400  1.00  0.00    -0.028 C 
ATOM      8  C   UNL     1     -12.456  22.300  33.247  1.00  0.00    -0.070 CG0
ATOM      9  C   UNL     1     -13.757  22.995  33.568  1.00  0.00     0.039 C 
ATOM     10  G   UNL     1     -11.186  22.791  33.916  1.00  0.00     0.000 G0
ENDBRANCH   6   7
ENDBRANCH   5   6
ENDBRANCH   3   5
ENDBRANCH   1   3
BRANCH   1  11
ATOM     11  C   UNL     1     -10.548  20.300  35.658  1.00  0.00     0.087 C 
BRANCH  11  12
ATOM     12  C   UNL     1     -10.401  21.737  36.220  1.00  0.00     0.066 C 
BRANCH  12  13
ATOM     13  C   UNL     1     -11.295  22.677  35.427  1.00  0.00     0.140 C 
ATOM     14  O   UNL     1     -12.074  23.410  36.021  1.00  0.00    -0.299 OA
BRANCH  13  15
ATOM     15  C   UNL     1     -11.180  22.795  33.928  1.00  0.00     0.106 CG0
ATOM     16  G   UNL     1     -12.440  22.299  33.244  1.00  0.00     0.000 G0
ENDBRANCH  13  15
ENDBRANCH  12  13
BRANCH  12  17
ATOM     17  C   UNL     1     -10.743  21.817  37.745  1.00  0.00    -0.006 C 
ATOM     18  C   UNL     1      -9.671  22.605  38.523  1.00  0.00     0.008 C 
ATOM     19  C   UNL     1     -10.883  20.422  38.384  1.00  0.00     0.008 C 
ENDBRANCH  12  17
ENDBRANCH  11  12
ENDBRANCH   1  11
TORSDOF 1
ENDMDL
