MODEL 1
REMARK VINA RESULT:    -3.665      0.000      0.000
REMARK INTER + INTRA:          -4.357
REMARK INTER:                  -4.308
REMARK INTRA:                  -0.050
REMARK UNBOUND:                -0.050
REMARK SMILES CCCCC(=O)[O-]
REMARK SMILES IDX 4 1 5 2 6 3 7 4 3 5 2 6 1 7
REMARK H PARENT
REMARK Flexibility Score: inf
ROOT
ATOM      1  C   UNL     1       3.364 -36.525  17.054  1.00  0.00     0.053 C 
ENDROOT
BRANCH   1   2
ATOM      2  C   UNL     1       3.183 -37.395  18.257  1.00  0.00     0.041 C 
ATOM      3  O   UNL     1       2.049 -37.867  18.534  1.00  0.00    -0.550 OA
ATOM      4  O   UNL     1       4.258 -37.645  19.102  1.00  0.00    -0.550 OA
ENDBRANCH   1   2
BRANCH   1   5
ATOM      5  C   UNL     1       2.254 -36.792  16.030  1.00  0.00     0.006 C 
BRANCH   5   6
ATOM      6  C   UNL     1       2.771 -36.782  14.583  1.00  0.00    -0.003 C 
ATOM      7  C   UNL     1       3.858 -37.827  14.337  1.00  0.00     0.004 C 
ENDBRANCH   5   6
ENDBRANCH   1   5
TORSDOF 3
ENDMDL
MODEL 2
REMARK VINA RESULT:    -3.493      1.446      1.934
REMARK INTER + INTRA:          -4.155
REMARK INTER:                  -4.133
REMARK INTRA:                  -0.022
REMARK UNBOUND:                -0.050
REMARK SMILES CCCCC(=O)[O-]
REMARK SMILES IDX 4 1 5 2 6 3 7 4 3 5 2 6 1 7
REMARK H PARENT
REMARK Flexibility Score: inf
ROOT
ATOM      1  C   UNL     1       2.986 -37.490  18.415  1.00  0.00     0.053 C 
ENDROOT
BRANCH   1   2
ATOM      2  C   UNL     1       4.010 -37.137  19.446  1.00  0.00     0.041 C 
ATOM      3  O   UNL     1       4.988 -37.901  19.657  1.00  0.00    -0.550 OA
ATOM      4  O   UNL     1       3.858 -35.986  20.210  1.00  0.00    -0.550 OA
ENDBRANCH   1   2
BRANCH   1   5
ATOM      5  C   UNL     1       3.191 -36.649  17.148  1.00  0.00     0.006 C 
BRANCH   5   6
ATOM      6  C   UNL     1       3.193 -37.500  15.869  1.00  0.00    -0.003 C 
ATOM      7  C   UNL     1       2.749 -36.714  14.636  1.00  0.00     0.004 C 
ENDBRANCH   5   6
ENDBRANCH   1   5
TORSDOF 3
ENDMDL
MODEL 3
REMARK VINA RESULT:    -3.479      2.085      2.775
REMARK INTER + INTRA:          -4.139
REMARK INTER:                  -4.078
REMARK INTRA:                  -0.061
REMARK UNBOUND:                -0.050
REMARK SMILES CCCCC(=O)[O-]
REMARK SMILES IDX 4 1 5 2 6 3 7 4 3 5 2 6 1 7
REMARK H PARENT
REMARK Flexibility Score: inf
ROOT
ATOM      1  C   UNL     1       4.091 -37.454  19.168  1.00  0.00     0.053 C 
ENDROOT
BRANCH   1   2
ATOM      2  C   UNL     1       4.296 -36.069  19.692  1.00  0.00     0.041 C 
ATOM      3  O   UNL     1       5.021 -35.253  19.064  1.00  0.00    -0.550 OA
ATOM      4  O   UNL     1       3.726 -35.692  20.903  1.00  0.00    -0.550 OA
ENDBRANCH   1   2
BRANCH   1   5
ATOM      5  C   UNL     1       2.826 -37.515  18.301  1.00  0.00     0.006 C 
BRANCH   5   6
ATOM      6  C   UNL     1       3.118 -37.265  16.814  1.00  0.00    -0.003 C 
ATOM      7  C   UNL     1       1.983 -36.525  16.106  1.00  0.00     0.004 C 
ENDBRANCH   5   6
ENDBRANCH   1   5
TORSDOF 3
ENDMDL
MODEL 4
REMARK VINA RESULT:    -3.415      2.206      3.730
REMARK INTER + INTRA:          -4.063
REMARK INTER:                  -4.044
REMARK INTRA:                  -0.020
REMARK UNBOUND:                -0.050
REMARK SMILES CCCCC(=O)[O-]
REMARK SMILES IDX 4 1 5 2 6 3 7 4 3 5 2 6 1 7
REMARK H PARENT
REMARK Flexibility Score: inf
ROOT
ATOM      1  C   UNL     1       3.383 -36.638  17.224  1.00  0.00     0.053 C 
ENDROOT
BRANCH   1   2
ATOM      2  C   UNL     1       2.855 -37.028  15.881  1.00  0.00     0.041 C 
ATOM      3  O   UNL     1       1.721 -36.631  15.504  1.00  0.00    -0.550 OA
ATOM      4  O   UNL     1       3.595 -37.873  15.062  1.00  0.00    -0.550 OA
ENDBRANCH   1   2
BRANCH   1   5
ATOM      5  C   UNL     1       2.786 -37.535  18.315  1.00  0.00     0.006 C 
BRANCH   5   6
ATOM      6  C   UNL     1       3.370 -37.241  19.706  1.00  0.00    -0.003 C 
ATOM      7  C   UNL     1       4.857 -37.579  19.805  1.00  0.00     0.004 C 
ENDBRANCH   5   6
ENDBRANCH   1   5
TORSDOF 3
ENDMDL
MODEL 5
REMARK VINA RESULT:    -3.408      2.181      3.645
REMARK INTER + INTRA:          -4.056
REMARK INTER:                  -3.975
REMARK INTRA:                  -0.080
REMARK UNBOUND:                -0.050
REMARK SMILES CCCCC(=O)[O-]
REMARK SMILES IDX 4 1 5 2 6 3 7 4 3 5 2 6 1 7
REMARK H PARENT
REMARK Flexibility Score: inf
ROOT
ATOM      1  C   UNL     1       3.385 -36.408  17.301  1.00  0.00     0.053 C 
ENDROOT
BRANCH   1   2
ATOM      2  C   UNL     1       2.805 -36.881  16.007  1.00  0.00     0.041 C 
ATOM      3  O   UNL     1       1.640 -36.539  15.671  1.00  0.00    -0.550 OA
ATOM      4  O   UNL     1       3.532 -37.740  15.192  1.00  0.00    -0.550 OA
ENDBRANCH   1   2
BRANCH   1   5
ATOM      5  C   UNL     1       3.509 -37.574  18.290  1.00  0.00     0.006 C 
BRANCH   5   6
ATOM      6  C   UNL     1       2.507 -37.473  19.450  1.00  0.00    -0.003 C 
ATOM      7  C   UNL     1       1.114 -37.977  19.073  1.00  0.00     0.004 C 
ENDBRANCH   5   6
ENDBRANCH   1   5
TORSDOF 3
ENDMDL
MODEL 6
REMARK VINA RESULT:    -3.328      3.290      5.294
REMARK INTER + INTRA:          -3.962
REMARK INTER:                  -3.942
REMARK INTRA:                  -0.019
REMARK UNBOUND:                -0.050
REMARK SMILES CCCCC(=O)[O-]
REMARK SMILES IDX 4 1 5 2 6 3 7 4 3 5 2 6 1 7
REMARK H PARENT
REMARK Flexibility Score: inf
ROOT
ATOM      1  C   UNL     1       4.843 -37.120  19.779  1.00  0.00     0.053 C 
ENDROOT
BRANCH   1   2
ATOM      2  C   UNL     1       3.554 -37.385  19.068  1.00  0.00     0.041 C 
ATOM      3  O   UNL     1       3.520 -37.426  17.810  1.00  0.00    -0.550 OA
ATOM      4  O   UNL     1       2.379 -37.540  19.794  1.00  0.00    -0.550 OA
ENDBRANCH   1   2
BRANCH   1   5
ATOM      5  C   UNL     1       4.663 -36.000  20.812  1.00  0.00     0.006 C 
BRANCH   5   6
ATOM      6  C   UNL     1       5.786 -35.979  21.861  1.00  0.00    -0.003 C 
ATOM      7  C   UNL     1       5.386 -35.243  23.140  1.00  0.00     0.004 C 
ENDBRANCH   5   6
ENDBRANCH   1   5
TORSDOF 3
ENDMDL
MODEL 7
REMARK VINA RESULT:    -3.318      4.006      6.054
REMARK INTER + INTRA:          -3.949
REMARK INTER:                  -3.902
REMARK INTRA:                  -0.047
REMARK UNBOUND:                -0.050
REMARK SMILES CCCCC(=O)[O-]
REMARK SMILES IDX 4 1 5 2 6 3 7 4 3 5 2 6 1 7
REMARK H PARENT
REMARK Flexibility Score: inf
ROOT
ATOM      1  C   UNL     1       4.537 -35.993  20.656  1.00  0.00     0.053 C 
ENDROOT
BRANCH   1   2
ATOM      2  C   UNL     1       4.594 -37.258  19.860  1.00  0.00     0.041 C 
ATOM      3  O   UNL     1       5.353 -38.198  20.215  1.00  0.00    -0.550 OA
ATOM      4  O   UNL     1       3.844 -37.381  18.696  1.00  0.00    -0.550 OA
ENDBRANCH   1   2
BRANCH   1   5
ATOM      5  C   UNL     1       5.875 -35.746  21.363  1.00  0.00     0.006 C 
BRANCH   5   6
ATOM      6  C   UNL     1       5.770 -35.880  22.890  1.00  0.00    -0.003 C 
ATOM      7  C   UNL     1       6.051 -34.567  23.619  1.00  0.00     0.004 C 
ENDBRANCH   5   6
ENDBRANCH   1   5
TORSDOF 3
ENDMDL
MODEL 8
REMARK VINA RESULT:    -3.298      2.709      4.425
REMARK INTER + INTRA:          -3.927
REMARK INTER:                  -3.910
REMARK INTRA:                  -0.016
REMARK UNBOUND:                -0.050
REMARK SMILES CCCCC(=O)[O-]
REMARK SMILES IDX 4 1 5 2 6 3 7 4 3 5 2 6 1 7
REMARK H PARENT
REMARK Flexibility Score: inf
ROOT
ATOM      1  C   UNL     1       3.865 -37.390  18.814  1.00  0.00     0.053 C 
ENDROOT
BRANCH   1   2
ATOM      2  C   UNL     1       2.444 -37.530  18.367  1.00  0.00     0.041 C 
ATOM      3  O   UNL     1       1.602 -38.110  19.102  1.00  0.00    -0.550 OA
ATOM      4  O   UNL     1       2.060 -37.062  17.116  1.00  0.00    -0.550 OA
ENDBRANCH   1   2
BRANCH   1   5
ATOM      5  C   UNL     1       3.953 -36.464  20.033  1.00  0.00     0.006 C 
BRANCH   5   6
ATOM      6  C   UNL     1       5.394 -36.027  20.339  1.00  0.00    -0.003 C 
ATOM      7  C   UNL     1       5.689 -35.972  21.838  1.00  0.00     0.004 C 
ENDBRANCH   5   6
ENDBRANCH   1   5
TORSDOF 3
ENDMDL
MODEL 9
REMARK VINA RESULT:    -3.014      4.175      5.537
REMARK INTER + INTRA:          -3.592
REMARK INTER:                  -3.543
REMARK INTRA:                  -0.049
REMARK UNBOUND:                -0.050
REMARK SMILES CCCCC(=O)[O-]
REMARK SMILES IDX 4 1 5 2 6 3 7 4 3 5 2 6 1 7
REMARK H PARENT
REMARK Flexibility Score: inf
ROOT
ATOM      1  C   UNL     1       4.693 -35.620  21.678  1.00  0.00     0.053 C 
ENDROOT
BRANCH   1   2
ATOM      2  C   UNL     1       5.571 -35.575  22.887  1.00  0.00     0.041 C 
ATOM      3  O   UNL     1       6.125 -36.625  23.309  1.00  0.00    -0.550 OA
ATOM      4  O   UNL     1       5.739 -34.383  23.581  1.00  0.00    -0.550 OA
ENDBRANCH   1   2
BRANCH   1   5
ATOM      5  C   UNL     1       5.482 -36.121  20.462  1.00  0.00     0.006 C 
BRANCH   5   6
ATOM      6  C   UNL     1       4.995 -37.492  19.967  1.00  0.00    -0.003 C 
ATOM      7  C   UNL     1       3.868 -37.383  18.940  1.00  0.00     0.004 C 
ENDBRANCH   5   6
ENDBRANCH   1   5
TORSDOF 3
ENDMDL
