MODEL 1
REMARK VINA RESULT:    -5.814      0.000      0.000
REMARK INTER + INTRA:          -6.248
REMARK INTER:                  -6.154
REMARK INTRA:                  -0.095
REMARK UNBOUND:                -0.095
REMARK SMILES C=C(C)[C@@H]1CC=C(C)C(=O)C1
REMARK SMILES IDX 8 1 7 2 6 3 5 4 4 5 11 6 9 7 10 8 2 9 1 10 3 11
REMARK H PARENT
REMARK Flexibility Score: inf
ROOT
ATOM      1  C   UNL     1      25.310  22.248  27.234  1.00  0.00     0.048 C 
ATOM      2  C   UNL     1      26.418  21.249  27.419  1.00  0.00    -0.012 C 
ATOM      3  C   UNL     1      26.838  20.506  26.380  1.00  0.00    -0.019 C 
ATOM      4  C   UNL     1      27.998  19.552  26.497  1.00  0.00     0.036 C 
ATOM      5  C   UNL     1      28.108  18.983  27.924  1.00  0.00     0.025 C 
ATOM      6  C   UNL     1      28.188  20.126  28.953  1.00  0.00     0.089 C 
ATOM      7  C   UNL     1      27.064  21.103  28.748  1.00  0.00     0.158 C 
ATOM      8  O   UNL     1      26.702  21.834  29.709  1.00  0.00    -0.295 OA
ENDROOT
BRANCH   5   9
ATOM      9  C   UNL     1      29.290  18.033  28.055  1.00  0.00    -0.077 C 
ATOM     10  C   UNL     1      29.476  17.340  29.190  1.00  0.00     0.008 C 
ATOM     11  C   UNL     1      30.278  17.846  26.929  1.00  0.00     0.039 C 
ENDBRANCH   5   9
TORSDOF 1
ENDMDL
MODEL 2
REMARK VINA RESULT:    -5.599     11.004     12.463
REMARK INTER + INTRA:          -6.021
REMARK INTER:                  -5.927
REMARK INTRA:                  -0.094
REMARK UNBOUND:                -0.095
REMARK SMILES C=C(C)[C@@H]1CC=C(C)C(=O)C1
REMARK SMILES IDX 8 1 7 2 6 3 5 4 4 5 11 6 9 7 10 8 2 9 1 10 3 11
REMARK H PARENT
REMARK Flexibility Score: inf
ROOT
ATOM      1  C   UNL     1      30.812  17.408  15.411  1.00  0.00     0.048 C 
ATOM      2  C   UNL     1      31.674  18.268  16.291  1.00  0.00    -0.012 C 
ATOM      3  C   UNL     1      31.134  18.925  17.332  1.00  0.00    -0.019 C 
ATOM      4  C   UNL     1      31.970  19.733  18.290  1.00  0.00     0.036 C 
ATOM      5  C   UNL     1      33.208  20.322  17.586  1.00  0.00     0.025 C 
ATOM      6  C   UNL     1      34.019  19.206  16.902  1.00  0.00     0.089 C 
ATOM      7  C   UNL     1      33.131  18.369  16.023  1.00  0.00     0.158 C 
ATOM      8  O   UNL     1      33.645  17.713  15.076  1.00  0.00    -0.295 OA
ENDROOT
BRANCH   5   9
ATOM      9  C   UNL     1      34.070  21.123  18.552  1.00  0.00    -0.077 C 
ATOM     10  C   UNL     1      35.094  21.858  18.091  1.00  0.00     0.008 C 
ATOM     11  C   UNL     1      33.803  21.112  20.037  1.00  0.00     0.039 C 
ENDBRANCH   5   9
TORSDOF 1
ENDMDL
MODEL 3
REMARK VINA RESULT:    -5.359      1.864      4.303
REMARK INTER + INTRA:          -5.767
REMARK INTER:                  -5.671
REMARK INTRA:                  -0.096
REMARK UNBOUND:                -0.095
REMARK SMILES C=C(C)[C@@H]1CC=C(C)C(=O)C1
REMARK SMILES IDX 8 1 7 2 6 3 5 4 4 5 11 6 9 7 10 8 2 9 1 10 3 11
REMARK H PARENT
REMARK Flexibility Score: inf
ROOT
ATOM      1  C   UNL     1      30.834  17.613  26.241  1.00  0.00     0.048 C 
ATOM      2  C   UNL     1      29.747  18.478  26.815  1.00  0.00    -0.012 C 
ATOM      3  C   UNL     1      29.164  19.423  26.057  1.00  0.00    -0.019 C 
ATOM      4  C   UNL     1      28.016  20.258  26.562  1.00  0.00     0.036 C 
ATOM      5  C   UNL     1      28.107  20.464  28.087  1.00  0.00     0.025 C 
ATOM      6  C   UNL     1      28.201  19.105  28.806  1.00  0.00     0.089 C 
ATOM      7  C   UNL     1      29.301  18.267  28.216  1.00  0.00     0.158 C 
ATOM      8  O   UNL     1      29.815  17.349  28.910  1.00  0.00    -0.295 OA
ENDROOT
BRANCH   5   9
ATOM      9  C   UNL     1      26.939  21.289  28.608  1.00  0.00    -0.077 C 
ATOM     10  C   UNL     1      26.797  21.498  29.926  1.00  0.00     0.008 C 
ATOM     11  C   UNL     1      25.919  21.888  27.671  1.00  0.00     0.039 C 
ENDBRANCH   5   9
TORSDOF 1
ENDMDL
MODEL 4
REMARK VINA RESULT:    -5.180      9.892     11.247
REMARK INTER + INTRA:          -5.577
REMARK INTER:                  -5.480
REMARK INTRA:                  -0.097
REMARK UNBOUND:                -0.095
REMARK SMILES C=C(C)[C@@H]1CC=C(C)C(=O)C1
REMARK SMILES IDX 8 1 7 2 6 3 5 4 4 5 11 6 9 7 10 8 2 9 1 10 3 11
REMARK H PARENT
REMARK Flexibility Score: inf
ROOT
ATOM      1  C   UNL     1      30.450  18.894  20.421  1.00  0.00     0.048 C 
ATOM      2  C   UNL     1      31.478  19.406  19.451  1.00  0.00    -0.012 C 
ATOM      3  C   UNL     1      31.249  19.343  18.127  1.00  0.00    -0.019 C 
ATOM      4  C   UNL     1      32.211  19.917  17.121  1.00  0.00     0.036 C 
ATOM      5  C   UNL     1      33.661  19.854  17.639  1.00  0.00     0.025 C 
ATOM      6  C   UNL     1      33.770  20.545  19.010  1.00  0.00     0.089 C 
ATOM      7  C   UNL     1      32.736  20.006  19.960  1.00  0.00     0.158 C 
ATOM      8  O   UNL     1      32.929  20.110  21.202  1.00  0.00    -0.295 OA
ENDROOT
BRANCH   5   9
ATOM      9  C   UNL     1      34.638  20.451  16.635  1.00  0.00    -0.077 C 
ATOM     10  C   UNL     1      34.953  21.754  16.696  1.00  0.00     0.008 C 
ATOM     11  C   UNL     1      35.270  19.608  15.555  1.00  0.00     0.039 C 
ENDBRANCH   5   9
TORSDOF 1
ENDMDL
MODEL 5
REMARK VINA RESULT:    -5.176      2.277      4.433
REMARK INTER + INTRA:          -5.573
REMARK INTER:                  -5.476
REMARK INTRA:                  -0.096
REMARK UNBOUND:                -0.095
REMARK SMILES C=C(C)[C@@H]1CC=C(C)C(=O)C1
REMARK SMILES IDX 8 1 7 2 6 3 5 4 4 5 11 6 9 7 10 8 2 9 1 10 3 11
REMARK H PARENT
REMARK Flexibility Score: inf
ROOT
ATOM      1  C   UNL     1      30.983  17.673  26.067  1.00  0.00     0.048 C 
ATOM      2  C   UNL     1      29.845  18.212  26.889  1.00  0.00    -0.012 C 
ATOM      3  C   UNL     1      29.633  17.751  28.134  1.00  0.00    -0.019 C 
ATOM      4  C   UNL     1      28.558  18.318  29.024  1.00  0.00     0.036 C 
ATOM      5  C   UNL     1      27.364  18.830  28.196  1.00  0.00     0.025 C 
ATOM      6  C   UNL     1      27.840  19.844  27.140  1.00  0.00     0.089 C 
ATOM      7  C   UNL     1      28.971  19.274  26.329  1.00  0.00     0.158 C 
ATOM      8  O   UNL     1      29.200  19.740  25.180  1.00  0.00    -0.295 OA
ENDROOT
BRANCH   5   9
ATOM      9  C   UNL     1      26.282  19.423  29.088  1.00  0.00    -0.077 C 
ATOM     10  C   UNL     1      26.565  20.458  29.894  1.00  0.00     0.008 C 
ATOM     11  C   UNL     1      24.877  18.870  29.094  1.00  0.00     0.039 C 
ENDBRANCH   5   9
TORSDOF 1
ENDMDL
MODEL 6
REMARK VINA RESULT:    -5.119      3.025      4.201
REMARK INTER + INTRA:          -5.513
REMARK INTER:                  -5.415
REMARK INTRA:                  -0.098
REMARK UNBOUND:                -0.095
REMARK SMILES C=C(C)[C@@H]1CC=C(C)C(=O)C1
REMARK SMILES IDX 8 1 7 2 6 3 5 4 4 5 11 6 9 7 10 8 2 9 1 10 3 11
REMARK H PARENT
REMARK Flexibility Score: inf
ROOT
ATOM      1  C   UNL     1      30.540  20.077  23.426  1.00  0.00     0.048 C 
ATOM      2  C   UNL     1      29.923  19.529  24.683  1.00  0.00    -0.012 C 
ATOM      3  C   UNL     1      28.635  19.785  24.970  1.00  0.00    -0.019 C 
ATOM      4  C   UNL     1      27.951  19.191  26.174  1.00  0.00     0.036 C 
ATOM      5  C   UNL     1      28.950  18.964  27.325  1.00  0.00     0.025 C 
ATOM      6  C   UNL     1      30.134  18.105  26.845  1.00  0.00     0.089 C 
ATOM      7  C   UNL     1      30.735  18.683  25.593  1.00  0.00     0.158 C 
ATOM      8  O   UNL     1      31.929  18.403  25.299  1.00  0.00    -0.295 OA
ENDROOT
BRANCH   5   9
ATOM      9  C   UNL     1      28.270  18.345  28.538  1.00  0.00    -0.077 C 
ATOM     10  C   UNL     1      28.999  17.705  29.466  1.00  0.00     0.008 C 
ATOM     11  C   UNL     1      26.775  18.428  28.730  1.00  0.00     0.039 C 
ENDBRANCH   5   9
TORSDOF 1
ENDMDL
MODEL 7
REMARK VINA RESULT:    -5.113      9.917     11.409
REMARK INTER + INTRA:          -5.506
REMARK INTER:                  -5.418
REMARK INTRA:                  -0.088
REMARK UNBOUND:                -0.095
REMARK SMILES C=C(C)[C@@H]1CC=C(C)C(=O)C1
REMARK SMILES IDX 8 1 7 2 6 3 5 4 4 5 11 6 9 7 10 8 2 9 1 10 3 11
REMARK H PARENT
REMARK Flexibility Score: inf
ROOT
ATOM      1  C   UNL     1      33.509  20.551  21.455  1.00  0.00     0.048 C 
ATOM      2  C   UNL     1      33.148  20.456  19.999  1.00  0.00    -0.012 C 
ATOM      3  C   UNL     1      33.874  21.115  19.079  1.00  0.00    -0.019 C 
ATOM      4  C   UNL     1      33.602  20.985  17.603  1.00  0.00     0.036 C 
ATOM      5  C   UNL     1      32.108  20.715  17.335  1.00  0.00     0.025 C 
ATOM      6  C   UNL     1      31.636  19.481  18.125  1.00  0.00     0.089 C 
ATOM      7  C   UNL     1      32.003  19.610  19.578  1.00  0.00     0.158 C 
ATOM      8  O   UNL     1      31.354  18.953  20.437  1.00  0.00    -0.295 OA
ENDROOT
BRANCH   5   9
ATOM      9  C   UNL     1      31.828  20.563  15.846  1.00  0.00    -0.077 C 
ATOM     10  C   UNL     1      30.777  21.185  15.291  1.00  0.00     0.008 C 
ATOM     11  C   UNL     1      32.712  19.716  14.963  1.00  0.00     0.039 C 
ENDBRANCH   5   9
TORSDOF 1
ENDMDL
MODEL 8
REMARK VINA RESULT:    -5.066     11.719     13.416
REMARK INTER + INTRA:          -5.457
REMARK INTER:                  -5.360
REMARK INTRA:                  -0.097
REMARK UNBOUND:                -0.095
REMARK SMILES C=C(C)[C@@H]1CC=C(C)C(=O)C1
REMARK SMILES IDX 8 1 7 2 6 3 5 4 4 5 11 6 9 7 10 8 2 9 1 10 3 11
REMARK H PARENT
REMARK Flexibility Score: inf
ROOT
ATOM      1  C   UNL     1      36.901  19.602  15.514  1.00  0.00     0.048 C 
ATOM      2  C   UNL     1      35.476  19.748  15.970  1.00  0.00    -0.012 C 
ATOM      3  C   UNL     1      35.061  20.898  16.531  1.00  0.00    -0.019 C 
ATOM      4  C   UNL     1      33.625  21.120  16.929  1.00  0.00     0.036 C 
ATOM      5  C   UNL     1      32.948  19.796  17.333  1.00  0.00     0.025 C 
ATOM      6  C   UNL     1      33.086  18.758  16.204  1.00  0.00     0.089 C 
ATOM      7  C   UNL     1      34.522  18.628  15.775  1.00  0.00     0.158 C 
ATOM      8  O   UNL     1      34.899  17.569  15.205  1.00  0.00    -0.295 OA
ENDROOT
BRANCH   5   9
ATOM      9  C   UNL     1      31.490  20.010  17.716  1.00  0.00    -0.077 C 
ATOM     10  C   UNL     1      30.730  20.869  17.020  1.00  0.00     0.008 C 
ATOM     11  C   UNL     1      30.866  19.275  18.877  1.00  0.00     0.039 C 
ENDBRANCH   5   9
TORSDOF 1
ENDMDL
