MODEL 1
REMARK VINA RESULT:    -3.467      0.000      0.000
REMARK INTER + INTRA:          -5.967
REMARK INTER:                  -5.291
REMARK INTRA:                  -0.676
REMARK UNBOUND:                -0.676
REMARK SMILES O=C([O-])CCCCCCCCC(=O)[O-]
REMARK SMILES IDX 7 1 6 2 5 3 4 4 2 5 1 6 3 7 8 8 9 9 10 10 11 11 12 12 13 13
REMARK SMILES IDX 14 14
REMARK H PARENT
REMARK Flexibility Score: inf
ROOT
ATOM      1  C   UNL     1      -5.236  -6.381  -7.208  1.00  0.00     0.000 C 
ENDROOT
BRANCH   1   2
ATOM      2  C   UNL     1      -4.094  -7.162  -7.876  1.00  0.00     0.000 C 
BRANCH   2   3
ATOM      3  C   UNL     1      -4.619  -8.448  -8.527  1.00  0.00     0.006 C 
BRANCH   3   4
ATOM      4  C   UNL     1      -3.837  -9.671  -8.037  1.00  0.00     0.053 C 
BRANCH   4   5
ATOM      5  C   UNL     1      -4.019  -9.853  -6.563  1.00  0.00     0.041 C 
ATOM      6  O   UNL     1      -5.169 -10.045  -6.086  1.00  0.00    -0.550 OA
ATOM      7  O   UNL     1      -2.915  -9.860  -5.721  1.00  0.00    -0.550 OA
ENDBRANCH   4   5
ENDBRANCH   3   4
ENDBRANCH   2   3
ENDBRANCH   1   2
BRANCH   1   8
ATOM      8  C   UNL     1      -6.599  -7.073  -7.365  1.00  0.00     0.000 C 
BRANCH   8   9
ATOM      9  C   UNL     1      -7.446  -7.009  -6.082  1.00  0.00     0.000 C 
BRANCH   9  10
ATOM     10  C   UNL     1      -8.954  -6.887  -6.370  1.00  0.00     0.006 C 
BRANCH  10  11
ATOM     11  C   UNL     1      -9.468  -5.442  -6.462  1.00  0.00     0.053 C 
BRANCH  11  12
ATOM     12  C   UNL     1      -9.647  -5.000  -7.882  1.00  0.00     0.041 C 
ATOM     13  O   UNL     1      -9.701  -5.850  -8.809  1.00  0.00    -0.550 OA
ATOM     14  O   UNL     1      -9.722  -3.646  -8.185  1.00  0.00    -0.550 OA
ENDBRANCH  11  12
ENDBRANCH  10  11
ENDBRANCH   9  10
ENDBRANCH   8   9
ENDBRANCH   1   8
TORSDOF 9
ENDMDL
MODEL 2
REMARK VINA RESULT:    -3.408      1.636      2.302
REMARK INTER + INTRA:          -5.877
REMARK INTER:                  -5.170
REMARK INTRA:                  -0.707
REMARK UNBOUND:                -0.676
REMARK SMILES O=C([O-])CCCCCCCCC(=O)[O-]
REMARK SMILES IDX 7 1 6 2 5 3 4 4 2 5 1 6 3 7 8 8 9 9 10 10 11 11 12 12 13 13
REMARK SMILES IDX 14 14
REMARK H PARENT
REMARK Flexibility Score: inf
ROOT
ATOM      1  C   UNL     1      -7.787  -8.492  -8.285  1.00  0.00     0.000 C 
ENDROOT
BRANCH   1   2
ATOM      2  C   UNL     1      -6.525  -9.037  -8.971  1.00  0.00     0.000 C 
BRANCH   2   3
ATOM      3  C   UNL     1      -5.794  -7.926  -9.735  1.00  0.00     0.006 C 
BRANCH   3   4
ATOM      4  C   UNL     1      -4.299  -7.922  -9.403  1.00  0.00     0.053 C 
BRANCH   4   5
ATOM      5  C   UNL     1      -4.077  -7.474  -7.993  1.00  0.00     0.041 C 
ATOM      6  O   UNL     1      -4.558  -6.382  -7.592  1.00  0.00    -0.550 OA
ATOM      7  O   UNL     1      -3.381  -8.286  -7.106  1.00  0.00    -0.550 OA
ENDBRANCH   4   5
ENDBRANCH   3   4
ENDBRANCH   2   3
ENDBRANCH   1   2
BRANCH   1   8
ATOM      8  C   UNL     1      -7.550  -8.134  -6.808  1.00  0.00     0.000 C 
BRANCH   8   9
ATOM      9  C   UNL     1      -7.871  -6.661  -6.500  1.00  0.00     0.000 C 
BRANCH   9  10
ATOM     10  C   UNL     1      -9.384  -6.380  -6.446  1.00  0.00     0.006 C 
BRANCH  10  11
ATOM     11  C   UNL     1      -9.769  -4.920  -6.737  1.00  0.00     0.053 C 
BRANCH  11  12
ATOM     12  C   UNL     1      -9.879  -4.653  -8.207  1.00  0.00     0.041 C 
ATOM     13  O   UNL     1      -9.782  -3.477  -8.646  1.00  0.00    -0.550 OA
ATOM     14  O   UNL     1     -10.119  -5.699  -9.089  1.00  0.00    -0.550 OA
ENDBRANCH  11  12
ENDBRANCH  10  11
ENDBRANCH   9  10
ENDBRANCH   8   9
ENDBRANCH   1   8
TORSDOF 9
ENDMDL
MODEL 3
REMARK VINA RESULT:    -3.315      2.060      2.669
REMARK INTER + INTRA:          -5.735
REMARK INTER:                  -5.105
REMARK INTRA:                  -0.630
REMARK UNBOUND:                -0.676
REMARK SMILES O=C([O-])CCCCCCCCC(=O)[O-]
REMARK SMILES IDX 7 1 6 2 5 3 4 4 2 5 1 6 3 7 8 8 9 9 10 10 11 11 12 12 13 13
REMARK SMILES IDX 14 14
REMARK H PARENT
REMARK Flexibility Score: inf
ROOT
ATOM      1  C   UNL     1      -6.231  -7.174  -6.053  1.00  0.00     0.000 C 
ENDROOT
BRANCH   1   2
ATOM      2  C   UNL     1      -5.613  -8.563  -5.827  1.00  0.00     0.000 C 
BRANCH   2   3
ATOM      3  C   UNL     1      -4.615  -8.906  -6.940  1.00  0.00     0.006 C 
BRANCH   3   4
ATOM      4  C   UNL     1      -4.123  -7.640  -7.647  1.00  0.00     0.053 C 
BRANCH   4   5
ATOM      5  C   UNL     1      -4.128  -7.833  -9.131  1.00  0.00     0.041 C 
ATOM      6  O   UNL     1      -3.091  -8.239  -9.720  1.00  0.00    -0.550 OA
ATOM      7  O   UNL     1      -5.290  -7.613  -9.858  1.00  0.00    -0.550 OA
ENDBRANCH   4   5
ENDBRANCH   3   4
ENDBRANCH   2   3
ENDBRANCH   1   2
BRANCH   1   8
ATOM      8  C   UNL     1      -7.757  -7.167  -5.868  1.00  0.00     0.000 C 
BRANCH   8   9
ATOM      9  C   UNL     1      -8.504  -7.692  -7.106  1.00  0.00     0.000 C 
BRANCH   9  10
ATOM     10  C   UNL     1      -8.683  -6.615  -8.193  1.00  0.00     0.006 C 
BRANCH  10  11
ATOM     11  C   UNL     1     -10.055  -5.923  -8.182  1.00  0.00     0.053 C 
BRANCH  11  12
ATOM     12  C   UNL     1      -9.959  -4.497  -7.733  1.00  0.00     0.041 C 
ATOM     13  O   UNL     1      -9.909  -4.220  -6.506  1.00  0.00    -0.550 OA
ATOM     14  O   UNL     1      -9.957  -3.471  -8.670  1.00  0.00    -0.550 OA
ENDBRANCH  11  12
ENDBRANCH  10  11
ENDBRANCH   9  10
ENDBRANCH   8   9
ENDBRANCH   1   8
TORSDOF 9
ENDMDL
MODEL 4
REMARK VINA RESULT:    -3.126      2.164      2.425
REMARK INTER + INTRA:          -5.447
REMARK INTER:                  -4.695
REMARK INTRA:                  -0.751
REMARK UNBOUND:                -0.676
REMARK SMILES O=C([O-])CCCCCCCCC(=O)[O-]
REMARK SMILES IDX 7 1 6 2 5 3 4 4 2 5 1 6 3 7 8 8 9 9 10 10 11 11 12 12 13 13
REMARK SMILES IDX 14 14
REMARK H PARENT
REMARK Flexibility Score: inf
ROOT
ATOM      1  C   UNL     1      -5.240  -6.437  -7.184  1.00  0.00     0.000 C 
ENDROOT
BRANCH   1   2
ATOM      2  C   UNL     1      -4.171  -7.347  -7.809  1.00  0.00     0.000 C 
BRANCH   2   3
ATOM      3  C   UNL     1      -4.530  -7.697  -9.258  1.00  0.00     0.006 C 
BRANCH   3   4
ATOM      4  C   UNL     1      -5.129  -9.103  -9.352  1.00  0.00     0.053 C 
BRANCH   4   5
ATOM      5  C   UNL     1      -6.615  -9.030  -9.509  1.00  0.00     0.041 C 
ATOM      6  O   UNL     1      -7.331 -10.031  -9.242  1.00  0.00    -0.550 OA
ATOM      7  O   UNL     1      -7.216  -7.841  -9.902  1.00  0.00    -0.550 OA
ENDBRANCH   4   5
ENDBRANCH   3   4
ENDBRANCH   2   3
ENDBRANCH   1   2
BRANCH   1   8
ATOM      8  C   UNL     1      -5.944  -7.088  -5.982  1.00  0.00     0.000 C 
BRANCH   8   9
ATOM      9  C   UNL     1      -7.382  -7.529  -6.308  1.00  0.00     0.000 C 
BRANCH   9  10
ATOM     10  C   UNL     1      -8.364  -6.345  -6.384  1.00  0.00     0.006 C 
BRANCH  10  11
ATOM     11  C   UNL     1      -9.527  -6.547  -7.369  1.00  0.00     0.053 C 
BRANCH  11  12
ATOM     12  C   UNL     1      -9.669  -5.392  -8.312  1.00  0.00     0.041 C 
ATOM     13  O   UNL     1      -9.859  -5.595  -9.540  1.00  0.00    -0.550 OA
ATOM     14  O   UNL     1      -9.558  -4.090  -7.839  1.00  0.00    -0.550 OA
ENDBRANCH  11  12
ENDBRANCH  10  11
ENDBRANCH   9  10
ENDBRANCH   8   9
ENDBRANCH   1   8
TORSDOF 9
ENDMDL
MODEL 5
REMARK VINA RESULT:    -2.999      2.661      5.100
REMARK INTER + INTRA:          -5.253
REMARK INTER:                  -4.259
REMARK INTRA:                  -0.994
REMARK UNBOUND:                -0.676
REMARK SMILES O=C([O-])CCCCCCCCC(=O)[O-]
REMARK SMILES IDX 7 1 6 2 5 3 4 4 2 5 1 6 3 7 8 8 9 9 10 10 11 11 12 12 13 13
REMARK SMILES IDX 14 14
REMARK H PARENT
REMARK Flexibility Score: inf
ROOT
ATOM      1  C   UNL     1      -6.931  -7.270  -5.574  1.00  0.00     0.000 C 
ENDROOT
BRANCH   1   2
ATOM      2  C   UNL     1      -7.809  -6.632  -6.661  1.00  0.00     0.000 C 
BRANCH   2   3
ATOM      3  C   UNL     1      -8.942  -7.579  -7.076  1.00  0.00     0.006 C 
BRANCH   3   4
ATOM      4  C   UNL     1      -9.093  -7.622  -8.599  1.00  0.00     0.053 C 
BRANCH   4   5
ATOM      5  C   UNL     1      -8.028  -8.478  -9.207  1.00  0.00     0.041 C 
ATOM      6  O   UNL     1      -8.103  -9.733  -9.130  1.00  0.00    -0.550 OA
ATOM      7  O   UNL     1      -6.977  -7.894  -9.903  1.00  0.00    -0.550 OA
ENDBRANCH   4   5
ENDBRANCH   3   4
ENDBRANCH   2   3
ENDBRANCH   1   2
BRANCH   1   8
ATOM      8  C   UNL     1      -7.173  -8.782  -5.429  1.00  0.00     0.000 C 
BRANCH   8   9
ATOM      9  C   UNL     1      -5.881  -9.603  -5.578  1.00  0.00     0.000 C 
BRANCH   9  10
ATOM     10  C   UNL     1      -5.255  -9.478  -6.980  1.00  0.00     0.006 C 
BRANCH  10  11
ATOM     11  C   UNL     1      -3.938  -8.686  -7.018  1.00  0.00     0.053 C 
BRANCH  11  12
ATOM     12  C   UNL     1      -3.928  -7.668  -8.118  1.00  0.00     0.041 C 
ATOM     13  O   UNL     1      -4.494  -6.555  -7.957  1.00  0.00    -0.550 OA
ATOM     14  O   UNL     1      -3.320  -7.962  -9.332  1.00  0.00    -0.550 OA
ENDBRANCH  11  12
ENDBRANCH  10  11
ENDBRANCH   9  10
ENDBRANCH   8   9
ENDBRANCH   1   8
TORSDOF 9
ENDMDL
MODEL 6
REMARK VINA RESULT:    -2.767      2.467      3.199
REMARK INTER + INTRA:          -4.898
REMARK INTER:                  -4.036
REMARK INTRA:                  -0.863
REMARK UNBOUND:                -0.676
REMARK SMILES O=C([O-])CCCCCCCCC(=O)[O-]
REMARK SMILES IDX 7 1 6 2 5 3 4 4 2 5 1 6 3 7 8 8 9 9 10 10 11 11 12 12 13 13
REMARK SMILES IDX 14 14
REMARK H PARENT
REMARK Flexibility Score: inf
ROOT
ATOM      1  C   UNL     1      -6.940  -7.218  -5.867  1.00  0.00     0.000 C 
ENDROOT
BRANCH   1   2
ATOM      2  C   UNL     1      -7.131  -8.722  -5.614  1.00  0.00     0.000 C 
BRANCH   2   3
ATOM      3  C   UNL     1      -6.070  -9.542  -6.358  1.00  0.00     0.006 C 
BRANCH   3   4
ATOM      4  C   UNL     1      -4.663  -9.207  -5.853  1.00  0.00     0.053 C 
BRANCH   4   5
ATOM      5  C   UNL     1      -3.721  -9.034  -7.003  1.00  0.00     0.041 C 
ATOM      6  O   UNL     1      -3.532  -7.893  -7.500  1.00  0.00    -0.550 OA
ATOM      7  O   UNL     1      -3.014 -10.124  -7.493  1.00  0.00    -0.550 OA
ENDBRANCH   4   5
ENDBRANCH   3   4
ENDBRANCH   2   3
ENDBRANCH   1   2
BRANCH   1   8
ATOM      8  C   UNL     1      -8.222  -6.535  -6.372  1.00  0.00     0.000 C 
BRANCH   8   9
ATOM      9  C   UNL     1      -9.357  -7.537  -6.644  1.00  0.00     0.000 C 
BRANCH   9  10
ATOM     10  C   UNL     1      -9.811  -7.536  -8.116  1.00  0.00     0.006 C 
BRANCH  10  11
ATOM     11  C   UNL     1      -8.713  -7.148  -9.119  1.00  0.00     0.053 C 
BRANCH  11  12
ATOM     12  C   UNL     1      -7.778  -8.285  -9.395  1.00  0.00     0.041 C 
ATOM     13  O   UNL     1      -6.551  -8.068  -9.578  1.00  0.00    -0.550 OA
ATOM     14  O   UNL     1      -8.267  -9.583  -9.481  1.00  0.00    -0.550 OA
ENDBRANCH  11  12
ENDBRANCH  10  11
ENDBRANCH   9  10
ENDBRANCH   8   9
ENDBRANCH   1   8
TORSDOF 9
ENDMDL
MODEL 7
REMARK VINA RESULT:    -2.473      2.502      3.179
REMARK INTER + INTRA:          -4.450
REMARK INTER:                  -4.006
REMARK INTRA:                  -0.444
REMARK UNBOUND:                -0.676
REMARK SMILES O=C([O-])CCCCCCCCC(=O)[O-]
REMARK SMILES IDX 7 1 6 2 5 3 4 4 2 5 1 6 3 7 8 8 9 9 10 10 11 11 12 12 13 13
REMARK SMILES IDX 14 14
REMARK H PARENT
REMARK Flexibility Score: inf
ROOT
ATOM      1  C   UNL     1      -5.866  -7.174  -6.044  1.00  0.00     0.000 C 
ENDROOT
BRANCH   1   2
ATOM      2  C   UNL     1      -5.197  -8.556  -6.008  1.00  0.00     0.000 C 
BRANCH   2   3
ATOM      3  C   UNL     1      -3.996  -8.607  -6.960  1.00  0.00     0.006 C 
BRANCH   3   4
ATOM      4  C   UNL     1      -4.053  -7.465  -7.979  1.00  0.00     0.053 C 
BRANCH   4   5
ATOM      5  C   UNL     1      -4.194  -8.007  -9.366  1.00  0.00     0.041 C 
ATOM      6  O   UNL     1      -5.105  -7.580 -10.124  1.00  0.00    -0.550 OA
ATOM      7  O   UNL     1      -3.289  -8.948  -9.841  1.00  0.00    -0.550 OA
ENDBRANCH   4   5
ENDBRANCH   3   4
ENDBRANCH   2   3
ENDBRANCH   1   2
BRANCH   1   8
ATOM      8  C   UNL     1      -7.355  -7.226  -5.662  1.00  0.00     0.000 C 
BRANCH   8   9
ATOM      9  C   UNL     1      -8.031  -8.536  -6.103  1.00  0.00     0.000 C 
BRANCH   9  10
ATOM     10  C   UNL     1      -9.542  -8.372  -6.352  1.00  0.00     0.006 C 
BRANCH  10  11
ATOM     11  C   UNL     1      -9.954  -8.451  -7.831  1.00  0.00     0.053 C 
BRANCH  11  12
ATOM     12  C   UNL     1      -8.778  -8.313  -8.748  1.00  0.00     0.041 C 
ATOM     13  O   UNL     1      -8.445  -7.181  -9.187  1.00  0.00    -0.550 OA
ATOM     14  O   UNL     1      -8.068  -9.440  -9.144  1.00  0.00    -0.550 OA
ENDBRANCH  11  12
ENDBRANCH  10  11
ENDBRANCH   9  10
ENDBRANCH   8   9
ENDBRANCH   1   8
TORSDOF 9
ENDMDL
