MODEL 1
REMARK VINA RESULT:    -4.842      0.000      0.000
REMARK INTER + INTRA:         -10.010
REMARK INTER:                  -8.804
REMARK INTRA:                  -1.205
REMARK UNBOUND:                -1.205
REMARK SMILES CCCCCCCCCCCCCC[C@H](C)C(=O)[O-]
REMARK SMILES IDX 9 1 10 2 11 3 12 4 13 5 14 6 15 7 16 8 17 9 18 10 19 11 8 12
REMARK SMILES IDX 7 13 6 14 5 15 4 16 3 17 2 18 1 19
REMARK H PARENT
REMARK Flexibility Score: inf
ROOT
ATOM      1  C   UNL     1      23.725   7.317  15.969  1.00  0.00     0.000 C 
ENDROOT
BRANCH   1   2
ATOM      2  C   UNL     1      23.364   7.238  14.478  1.00  0.00     0.000 C 
BRANCH   2   3
ATOM      3  C   UNL     1      23.028   5.808  14.018  1.00  0.00     0.000 C 
BRANCH   3   4
ATOM      4  C   UNL     1      23.128   4.736  15.119  1.00  0.00     0.000 C 
BRANCH   4   5
ATOM      5  C   UNL     1      24.212   3.682  14.826  1.00  0.00     0.001 C 
BRANCH   5   6
ATOM      6  C   UNL     1      24.927   3.912  13.475  1.00  0.00     0.009 C 
BRANCH   6   7
ATOM      7  C   UNL     1      26.467   3.798  13.559  1.00  0.00     0.032 C 
ATOM      8  C   UNL     1      27.114   5.187  13.492  1.00  0.00     0.014 C 
BRANCH   7   9
ATOM      9  C   UNL     1      27.019   2.927  12.466  1.00  0.00     0.044 C 
ATOM     10  O   UNL     1      28.057   2.240  12.667  1.00  0.00    -0.550 OA
ATOM     11  O   UNL     1      26.387   2.867  11.228  1.00  0.00    -0.550 OA
ENDBRANCH   7   9
ENDBRANCH   6   7
ENDBRANCH   5   6
ENDBRANCH   4   5
ENDBRANCH   3   4
ENDBRANCH   2   3
ENDBRANCH   1   2
BRANCH   1  12
ATOM     12  C   UNL     1      23.249   8.648  16.569  1.00  0.00     0.000 C 
BRANCH  12  13
ATOM     13  C   UNL     1      22.326   8.461  17.782  1.00  0.00    -0.000 C 
BRANCH  13  14
ATOM     14  C   UNL     1      21.227   9.537  17.858  1.00  0.00    -0.000 C 
BRANCH  14  15
ATOM     15  C   UNL     1      21.548  10.769  16.996  1.00  0.00    -0.000 C 
BRANCH  15  16
ATOM     16  C   UNL     1      20.388  11.146  16.060  1.00  0.00    -0.000 C 
BRANCH  16  17
ATOM     17  C   UNL     1      20.732  12.390  15.228  1.00  0.00    -0.000 C 
BRANCH  17  18
ATOM     18  C   UNL     1      21.178  12.040  13.799  1.00  0.00    -0.003 C 
ATOM     19  C   UNL     1      20.819  10.607  13.401  1.00  0.00     0.004 C 
ENDBRANCH  17  18
ENDBRANCH  16  17
ENDBRANCH  15  16
ENDBRANCH  14  15
ENDBRANCH  13  14
ENDBRANCH  12  13
ENDBRANCH   1  12
TORSDOF 14
ENDMDL
MODEL 2
REMARK VINA RESULT:    -4.826      3.009      5.344
REMARK INTER + INTRA:          -9.981
REMARK INTER:                  -8.288
REMARK INTRA:                  -1.692
REMARK UNBOUND:                -1.205
REMARK SMILES CCCCCCCCCCCCCC[C@H](C)C(=O)[O-]
REMARK SMILES IDX 9 1 10 2 11 3 12 4 13 5 14 6 15 7 16 8 17 9 18 10 19 11 8 12
REMARK SMILES IDX 7 13 6 14 5 15 4 16 3 17 2 18 1 19
REMARK H PARENT
REMARK Flexibility Score: inf
ROOT
ATOM      1  C   UNL     1      24.626   8.001  14.115  1.00  0.00     0.000 C 
ENDROOT
BRANCH   1   2
ATOM      2  C   UNL     1      23.468   7.271  14.812  1.00  0.00     0.000 C 
BRANCH   2   3
ATOM      3  C   UNL     1      23.131   5.919  14.157  1.00  0.00     0.000 C 
BRANCH   3   4
ATOM      4  C   UNL     1      23.213   4.707  15.102  1.00  0.00     0.000 C 
BRANCH   4   5
ATOM      5  C   UNL     1      24.320   3.714  14.701  1.00  0.00     0.001 C 
BRANCH   5   6
ATOM      6  C   UNL     1      25.142   4.188  13.479  1.00  0.00     0.009 C 
BRANCH   6   7
ATOM      7  C   UNL     1      26.637   3.799  13.547  1.00  0.00     0.032 C 
ATOM      8  C   UNL     1      27.522   5.028  13.302  1.00  0.00     0.014 C 
BRANCH   7   9
ATOM      9  C   UNL     1      26.976   2.722  12.556  1.00  0.00     0.044 C 
ATOM     10  O   UNL     1      28.163   2.583  12.154  1.00  0.00    -0.550 OA
ATOM     11  O   UNL     1      25.987   1.869  12.079  1.00  0.00    -0.550 OA
ENDBRANCH   7   9
ENDBRANCH   6   7
ENDBRANCH   5   6
ENDBRANCH   4   5
ENDBRANCH   3   4
ENDBRANCH   2   3
ENDBRANCH   1   2
BRANCH   1  12
ATOM     12  C   UNL     1      25.952   7.720  14.835  1.00  0.00     0.000 C 
BRANCH  12  13
ATOM     13  C   UNL     1      27.122   8.543  14.276  1.00  0.00    -0.000 C 
BRANCH  13  14
ATOM     14  C   UNL     1      26.652   9.686  13.359  1.00  0.00    -0.000 C 
BRANCH  14  15
ATOM     15  C   UNL     1      27.010   9.443  11.883  1.00  0.00    -0.000 C 
BRANCH  15  16
ATOM     16  C   UNL     1      28.480   9.031  11.699  1.00  0.00    -0.000 C 
BRANCH  16  17
ATOM     17  C   UNL     1      29.426  10.193  12.036  1.00  0.00    -0.000 C 
BRANCH  17  18
ATOM     18  C   UNL     1      30.772   9.715  12.602  1.00  0.00    -0.003 C 
ATOM     19  C   UNL     1      30.689   8.323  13.230  1.00  0.00     0.004 C 
ENDBRANCH  17  18
ENDBRANCH  16  17
ENDBRANCH  15  16
ENDBRANCH  14  15
ENDBRANCH  13  14
ENDBRANCH  12  13
ENDBRANCH   1  12
TORSDOF 14
ENDMDL
MODEL 3
REMARK VINA RESULT:    -4.802      9.100     12.293
REMARK INTER + INTRA:          -9.937
REMARK INTER:                  -8.268
REMARK INTRA:                  -1.669
REMARK UNBOUND:                -1.205
REMARK SMILES CCCCCCCCCCCCCC[C@H](C)C(=O)[O-]
REMARK SMILES IDX 9 1 10 2 11 3 12 4 13 5 14 6 15 7 16 8 17 9 18 10 19 11 8 12
REMARK SMILES IDX 7 13 6 14 5 15 4 16 3 17 2 18 1 19
REMARK H PARENT
REMARK Flexibility Score: inf
ROOT
ATOM      1  C   UNL     1      20.768   4.815   3.674  1.00  0.00     0.000 C 
ENDROOT
BRANCH   1   2
ATOM      2  C   UNL     1      20.694   6.346   3.593  1.00  0.00     0.000 C 
BRANCH   2   3
ATOM      3  C   UNL     1      19.809   6.843   2.435  1.00  0.00     0.000 C 
BRANCH   3   4
ATOM      4  C   UNL     1      18.662   7.779   2.855  1.00  0.00     0.000 C 
BRANCH   4   5
ATOM      5  C   UNL     1      17.848   7.226   4.040  1.00  0.00     0.001 C 
BRANCH   5   6
ATOM      6  C   UNL     1      18.057   8.030   5.343  1.00  0.00     0.009 C 
BRANCH   6   7
ATOM      7  C   UNL     1      17.766   7.220   6.627  1.00  0.00     0.032 C 
ATOM      8  C   UNL     1      17.236   5.824   6.273  1.00  0.00     0.014 C 
BRANCH   7   9
ATOM      9  C   UNL     1      16.783   7.925   7.518  1.00  0.00     0.044 C 
ATOM     10  O   UNL     1      15.548   7.697   7.405  1.00  0.00    -0.550 OA
ATOM     11  O   UNL     1      17.227   8.828   8.479  1.00  0.00    -0.550 OA
ENDBRANCH   7   9
ENDBRANCH   6   7
ENDBRANCH   5   6
ENDBRANCH   4   5
ENDBRANCH   3   4
ENDBRANCH   2   3
ENDBRANCH   1   2
BRANCH   1  12
ATOM     12  C   UNL     1      20.930   4.359   5.132  1.00  0.00     0.000 C 
BRANCH  12  13
ATOM     13  C   UNL     1      21.121   5.530   6.106  1.00  0.00    -0.000 C 
BRANCH  13  14
ATOM     14  C   UNL     1      22.510   5.525   6.769  1.00  0.00    -0.000 C 
BRANCH  14  15
ATOM     15  C   UNL     1      23.625   5.965   5.805  1.00  0.00    -0.000 C 
BRANCH  15  16
ATOM     16  C   UNL     1      24.754   4.926   5.705  1.00  0.00    -0.000 C 
BRANCH  16  17
ATOM     17  C   UNL     1      24.861   4.102   6.996  1.00  0.00    -0.000 C 
BRANCH  17  18
ATOM     18  C   UNL     1      26.173   3.304   7.080  1.00  0.00    -0.003 C 
ATOM     19  C   UNL     1      26.683   3.153   8.513  1.00  0.00     0.004 C 
ENDBRANCH  17  18
ENDBRANCH  16  17
ENDBRANCH  15  16
ENDBRANCH  14  15
ENDBRANCH  13  14
ENDBRANCH  12  13
ENDBRANCH   1  12
TORSDOF 14
ENDMDL
MODEL 4
REMARK VINA RESULT:    -4.795      8.536     11.967
REMARK INTER + INTRA:          -9.925
REMARK INTER:                  -8.807
REMARK INTRA:                  -1.118
REMARK UNBOUND:                -1.205
REMARK SMILES CCCCCCCCCCCCCC[C@H](C)C(=O)[O-]
REMARK SMILES IDX 9 1 10 2 11 3 12 4 13 5 14 6 15 7 16 8 17 9 18 10 19 11 8 12
REMARK SMILES IDX 7 13 6 14 5 15 4 16 3 17 2 18 1 19
REMARK H PARENT
REMARK Flexibility Score: inf
ROOT
ATOM      1  C   UNL     1      17.646   7.119   5.099  1.00  0.00     0.000 C 
ENDROOT
BRANCH   1   2
ATOM      2  C   UNL     1      18.165   7.384   6.520  1.00  0.00     0.000 C 
BRANCH   2   3
ATOM      3  C   UNL     1      17.234   8.300   7.336  1.00  0.00     0.000 C 
BRANCH   3   4
ATOM      4  C   UNL     1      17.932   9.097   8.453  1.00  0.00     0.000 C 
BRANCH   4   5
ATOM      5  C   UNL     1      16.984   9.443   9.617  1.00  0.00     0.001 C 
BRANCH   5   6
ATOM      6  C   UNL     1      17.264  10.834  10.231  1.00  0.00     0.009 C 
BRANCH   6   7
ATOM      7  C   UNL     1      18.748  11.062  10.603  1.00  0.00     0.032 C 
ATOM      8  C   UNL     1      19.158  10.144  11.761  1.00  0.00     0.014 C 
BRANCH   7   9
ATOM      9  C   UNL     1      19.014  12.494  10.971  1.00  0.00     0.044 C 
ATOM     10  O   UNL     1      18.213  13.399  10.611  1.00  0.00    -0.550 OA
ATOM     11  O   UNL     1      20.139  12.831  11.716  1.00  0.00    -0.550 OA
ENDBRANCH   7   9
ENDBRANCH   6   7
ENDBRANCH   5   6
ENDBRANCH   4   5
ENDBRANCH   3   4
ENDBRANCH   2   3
ENDBRANCH   1   2
BRANCH   1  12
ATOM     12  C   UNL     1      18.323   8.062   4.094  1.00  0.00     0.000 C 
BRANCH  12  13
ATOM     13  C   UNL     1      18.993   7.315   2.931  1.00  0.00    -0.000 C 
BRANCH  13  14
ATOM     14  C   UNL     1      20.407   6.820   3.286  1.00  0.00    -0.000 C 
BRANCH  14  15
ATOM     15  C   UNL     1      20.492   5.286   3.362  1.00  0.00    -0.000 C 
BRANCH  15  16
ATOM     16  C   UNL     1      20.974   4.796   4.737  1.00  0.00    -0.000 C 
BRANCH  16  17
ATOM     17  C   UNL     1      22.434   5.203   4.987  1.00  0.00    -0.000 C 
BRANCH  17  18
ATOM     18  C   UNL     1      22.642   5.833   6.374  1.00  0.00    -0.003 C 
ATOM     19  C   UNL     1      21.432   5.657   7.292  1.00  0.00     0.004 C 
ENDBRANCH  17  18
ENDBRANCH  16  17
ENDBRANCH  15  16
ENDBRANCH  14  15
ENDBRANCH  13  14
ENDBRANCH  12  13
ENDBRANCH   1  12
TORSDOF 14
ENDMDL
MODEL 5
REMARK VINA RESULT:    -4.720      1.582      2.381
REMARK INTER + INTRA:          -9.788
REMARK INTER:                  -8.940
REMARK INTRA:                  -0.849
REMARK UNBOUND:                -1.205
REMARK SMILES CCCCCCCCCCCCCC[C@H](C)C(=O)[O-]
REMARK SMILES IDX 9 1 10 2 11 3 12 4 13 5 14 6 15 7 16 8 17 9 18 10 19 11 8 12
REMARK SMILES IDX 7 13 6 14 5 15 4 16 3 17 2 18 1 19
REMARK H PARENT
REMARK Flexibility Score: inf
ROOT
ATOM      1  C   UNL     1      24.074   8.395  17.181  1.00  0.00     0.000 C 
ENDROOT
BRANCH   1   2
ATOM      2  C   UNL     1      23.215   7.564  16.216  1.00  0.00     0.000 C 
BRANCH   2   3
ATOM      3  C   UNL     1      24.045   6.578  15.373  1.00  0.00     0.000 C 
BRANCH   3   4
ATOM      4  C   UNL     1      23.244   5.404  14.781  1.00  0.00     0.000 C 
BRANCH   4   5
ATOM      5  C   UNL     1      24.012   4.071  14.843  1.00  0.00     0.001 C 
BRANCH   5   6
ATOM      6  C   UNL     1      24.701   3.709  13.507  1.00  0.00     0.009 C 
BRANCH   6   7
ATOM      7  C   UNL     1      26.205   3.378  13.653  1.00  0.00     0.032 C 
ATOM      8  C   UNL     1      27.059   4.613  13.337  1.00  0.00     0.014 C 
BRANCH   7   9
ATOM      9  C   UNL     1      26.611   2.238  12.763  1.00  0.00     0.044 C 
ATOM     10  O   UNL     1      25.803   1.781  11.910  1.00  0.00    -0.550 OA
ATOM     11  O   UNL     1      27.883   1.684  12.867  1.00  0.00    -0.550 OA
ENDBRANCH   7   9
ENDBRANCH   6   7
ENDBRANCH   5   6
ENDBRANCH   4   5
ENDBRANCH   3   4
ENDBRANCH   2   3
ENDBRANCH   1   2
BRANCH   1  12
ATOM     12  C   UNL     1      23.279   8.737  18.450  1.00  0.00     0.000 C 
BRANCH  12  13
ATOM     13  C   UNL     1      21.762   8.764  18.216  1.00  0.00    -0.000 C 
BRANCH  13  14
ATOM     14  C   UNL     1      21.206  10.196  18.114  1.00  0.00    -0.000 C 
BRANCH  14  15
ATOM     15  C   UNL     1      21.076  10.675  16.658  1.00  0.00    -0.000 C 
BRANCH  15  16
ATOM     16  C   UNL     1      20.186  11.923  16.532  1.00  0.00    -0.000 C 
BRANCH  16  17
ATOM     17  C   UNL     1      19.733  12.419  17.912  1.00  0.00    -0.000 C 
BRANCH  17  18
ATOM     18  C   UNL     1      18.678  13.535  17.822  1.00  0.00    -0.003 C 
ATOM     19  C   UNL     1      17.394  13.198  18.580  1.00  0.00     0.004 C 
ENDBRANCH  17  18
ENDBRANCH  16  17
ENDBRANCH  15  16
ENDBRANCH  14  15
ENDBRANCH  13  14
ENDBRANCH  12  13
ENDBRANCH   1  12
TORSDOF 14
ENDMDL
MODEL 6
REMARK VINA RESULT:    -4.685      4.005      8.648
REMARK INTER + INTRA:          -9.726
REMARK INTER:                  -8.757
REMARK INTRA:                  -0.968
REMARK UNBOUND:                -1.205
REMARK SMILES CCCCCCCCCCCCCC[C@H](C)C(=O)[O-]
REMARK SMILES IDX 9 1 10 2 11 3 12 4 13 5 14 6 15 7 16 8 17 9 18 10 19 11 8 12
REMARK SMILES IDX 7 13 6 14 5 15 4 16 3 17 2 18 1 19
REMARK H PARENT
REMARK Flexibility Score: inf
ROOT
ATOM      1  C   UNL     1      23.224   8.694  16.379  1.00  0.00     0.000 C 
ENDROOT
BRANCH   1   2
ATOM      2  C   UNL     1      22.602   8.432  17.759  1.00  0.00     0.000 C 
BRANCH   2   3
ATOM      3  C   UNL     1      21.279   9.189  17.973  1.00  0.00     0.000 C 
BRANCH   3   4
ATOM      4  C   UNL     1      21.315  10.676  17.574  1.00  0.00     0.000 C 
BRANCH   4   5
ATOM      5  C   UNL     1      20.287  11.022  16.480  1.00  0.00     0.001 C 
BRANCH   5   6
ATOM      6  C   UNL     1      20.928  11.200  15.084  1.00  0.00     0.009 C 
BRANCH   6   7
ATOM      7  C   UNL     1      20.858  12.648  14.548  1.00  0.00     0.032 C 
ATOM      8  C   UNL     1      20.258  13.585  15.606  1.00  0.00     0.014 C 
BRANCH   7   9
ATOM      9  C   UNL     1      20.054  12.733  13.281  1.00  0.00     0.044 C 
ATOM     10  O   UNL     1      20.362  12.020  12.288  1.00  0.00    -0.550 OA
ATOM     11  O   UNL     1      18.963  13.591  13.196  1.00  0.00    -0.550 OA
ENDBRANCH   7   9
ENDBRANCH   6   7
ENDBRANCH   5   6
ENDBRANCH   4   5
ENDBRANCH   3   4
ENDBRANCH   2   3
ENDBRANCH   1   2
BRANCH   1  12
ATOM     12  C   UNL     1      23.805   7.398  15.795  1.00  0.00     0.000 C 
BRANCH  12  13
ATOM     13  C   UNL     1      23.307   7.108  14.372  1.00  0.00    -0.000 C 
BRANCH  13  14
ATOM     14  C   UNL     1      22.965   5.622  14.159  1.00  0.00    -0.000 C 
BRANCH  14  15
ATOM     15  C   UNL     1      23.514   4.724  15.280  1.00  0.00    -0.000 C 
BRANCH  15  16
ATOM     16  C   UNL     1      24.248   3.489  14.732  1.00  0.00    -0.000 C 
BRANCH  16  17
ATOM     17  C   UNL     1      25.078   3.846  13.490  1.00  0.00    -0.000 C 
BRANCH  17  18
ATOM     18  C   UNL     1      25.756   2.619  12.859  1.00  0.00    -0.003 C 
ATOM     19  C   UNL     1      27.217   2.466  13.284  1.00  0.00     0.004 C 
ENDBRANCH  17  18
ENDBRANCH  16  17
ENDBRANCH  15  16
ENDBRANCH  14  15
ENDBRANCH  13  14
ENDBRANCH  12  13
ENDBRANCH   1  12
TORSDOF 14
ENDMDL
MODEL 7
REMARK VINA RESULT:    -4.680      8.347     10.034
REMARK INTER + INTRA:          -9.715
REMARK INTER:                  -8.506
REMARK INTRA:                  -1.209
REMARK UNBOUND:                -1.205
REMARK SMILES CCCCCCCCCCCCCC[C@H](C)C(=O)[O-]
REMARK SMILES IDX 9 1 10 2 11 3 12 4 13 5 14 6 15 7 16 8 17 9 18 10 19 11 8 12
REMARK SMILES IDX 7 13 6 14 5 15 4 16 3 17 2 18 1 19
REMARK H PARENT
REMARK Flexibility Score: inf
ROOT
ATOM      1  C   UNL     1      17.994   8.158   4.039  1.00  0.00     0.000 C 
ENDROOT
BRANCH   1   2
ATOM      2  C   UNL     1      18.436   7.632   2.666  1.00  0.00     0.000 C 
BRANCH   2   3
ATOM      3  C   UNL     1      19.884   7.110   2.663  1.00  0.00     0.000 C 
BRANCH   3   4
ATOM      4  C   UNL     1      20.028   5.611   2.343  1.00  0.00     0.000 C 
BRANCH   4   5
ATOM      5  C   UNL     1      20.671   4.817   3.496  1.00  0.00     0.001 C 
BRANCH   5   6
ATOM      6  C   UNL     1      21.414   5.717   4.508  1.00  0.00     0.009 C 
BRANCH   6   7
ATOM      7  C   UNL     1      22.058   4.938   5.679  1.00  0.00     0.032 C 
ATOM      8  C   UNL     1      21.004   4.595   6.740  1.00  0.00     0.014 C 
BRANCH   7   9
ATOM      9  C   UNL     1      23.181   5.712   6.310  1.00  0.00     0.044 C 
ATOM     10  O   UNL     1      24.313   5.749   5.757  1.00  0.00    -0.550 OA
ATOM     11  O   UNL     1      22.978   6.398   7.503  1.00  0.00    -0.550 OA
ENDBRANCH   7   9
ENDBRANCH   6   7
ENDBRANCH   5   6
ENDBRANCH   4   5
ENDBRANCH   3   4
ENDBRANCH   2   3
ENDBRANCH   1   2
BRANCH   1  12
ATOM     12  C   UNL     1      18.083   7.047   5.096  1.00  0.00     0.000 C 
BRANCH  12  13
ATOM     13  C   UNL     1      18.113   7.589   6.532  1.00  0.00    -0.000 C 
BRANCH  13  14
ATOM     14  C   UNL     1      16.715   7.630   7.176  1.00  0.00    -0.000 C 
BRANCH  14  15
ATOM     15  C   UNL     1      16.534   8.833   8.116  1.00  0.00    -0.000 C 
BRANCH  15  16
ATOM     16  C   UNL     1      17.840   9.216   8.834  1.00  0.00    -0.000 C 
BRANCH  16  17
ATOM     17  C   UNL     1      17.581  10.262   9.928  1.00  0.00    -0.000 C 
BRANCH  17  18
ATOM     18  C   UNL     1      18.795  11.173  10.172  1.00  0.00    -0.003 C 
ATOM     19  C   UNL     1      19.289  11.127  11.619  1.00  0.00     0.004 C 
ENDBRANCH  17  18
ENDBRANCH  16  17
ENDBRANCH  15  16
ENDBRANCH  14  15
ENDBRANCH  13  14
ENDBRANCH  12  13
ENDBRANCH   1  12
TORSDOF 14
ENDMDL
MODEL 8
REMARK VINA RESULT:    -4.594      8.509     11.849
REMARK INTER + INTRA:          -9.560
REMARK INTER:                  -8.347
REMARK INTRA:                  -1.212
REMARK UNBOUND:                -1.205
REMARK SMILES CCCCCCCCCCCCCC[C@H](C)C(=O)[O-]
REMARK SMILES IDX 9 1 10 2 11 3 12 4 13 5 14 6 15 7 16 8 17 9 18 10 19 11 8 12
REMARK SMILES IDX 7 13 6 14 5 15 4 16 3 17 2 18 1 19
REMARK H PARENT
REMARK Flexibility Score: inf
ROOT
ATOM      1  C   UNL     1      18.107   7.904   3.801  1.00  0.00     0.000 C 
ENDROOT
BRANCH   1   2
ATOM      2  C   UNL     1      16.965   7.984   4.825  1.00  0.00     0.000 C 
BRANCH   2   3
ATOM      3  C   UNL     1      17.109   6.959   5.964  1.00  0.00     0.000 C 
BRANCH   3   4
ATOM      4  C   UNL     1      17.933   7.446   7.170  1.00  0.00     0.000 C 
BRANCH   4   5
ATOM      5  C   UNL     1      17.323   8.690   7.843  1.00  0.00     0.001 C 
BRANCH   5   6
ATOM      6  C   UNL     1      18.333   9.452   8.731  1.00  0.00     0.009 C 
BRANCH   6   7
ATOM      7  C   UNL     1      17.773   9.839  10.119  1.00  0.00     0.032 C 
ATOM      8  C   UNL     1      16.516  10.707   9.968  1.00  0.00     0.014 C 
BRANCH   7   9
ATOM      9  C   UNL     1      18.795  10.565  10.947  1.00  0.00     0.044 C 
ATOM     10  O   UNL     1      19.190  11.712  10.603  1.00  0.00    -0.550 OA
ATOM     11  O   UNL     1      19.306   9.982  12.102  1.00  0.00    -0.550 OA
ENDBRANCH   7   9
ENDBRANCH   6   7
ENDBRANCH   5   6
ENDBRANCH   4   5
ENDBRANCH   3   4
ENDBRANCH   2   3
ENDBRANCH   1   2
BRANCH   1  12
ATOM     12  C   UNL     1      18.534   6.445   3.585  1.00  0.00     0.000 C 
BRANCH  12  13
ATOM     13  C   UNL     1      19.907   6.319   2.908  1.00  0.00    -0.000 C 
BRANCH  13  14
ATOM     14  C   UNL     1      21.000   5.838   3.879  1.00  0.00    -0.000 C 
BRANCH  14  15
ATOM     15  C   UNL     1      20.460   5.586   5.297  1.00  0.00    -0.000 C 
BRANCH  15  16
ATOM     16  C   UNL     1      21.408   4.713   6.137  1.00  0.00    -0.000 C 
BRANCH  16  17
ATOM     17  C   UNL     1      22.216   5.569   7.123  1.00  0.00    -0.000 C 
BRANCH  17  18
ATOM     18  C   UNL     1      23.567   6.021   6.543  1.00  0.00    -0.003 C 
ATOM     19  C   UNL     1      24.212   4.962   5.649  1.00  0.00     0.004 C 
ENDBRANCH  17  18
ENDBRANCH  16  17
ENDBRANCH  15  16
ENDBRANCH  14  15
ENDBRANCH  13  14
ENDBRANCH  12  13
ENDBRANCH   1  12
TORSDOF 14
ENDMDL
MODEL 9
REMARK VINA RESULT:    -4.478      8.457     10.191
REMARK INTER + INTRA:          -9.348
REMARK INTER:                  -8.031
REMARK INTRA:                  -1.317
REMARK UNBOUND:                -1.205
REMARK SMILES CCCCCCCCCCCCCC[C@H](C)C(=O)[O-]
REMARK SMILES IDX 9 1 10 2 11 3 12 4 13 5 14 6 15 7 16 8 17 9 18 10 19 11 8 12
REMARK SMILES IDX 7 13 6 14 5 15 4 16 3 17 2 18 1 19
REMARK H PARENT
REMARK Flexibility Score: inf
ROOT
ATOM      1  C   UNL     1      16.772   6.869   4.408  1.00  0.00     0.000 C 
ENDROOT
BRANCH   1   2
ATOM      2  C   UNL     1      17.693   6.832   3.180  1.00  0.00     0.000 C 
BRANCH   2   3
ATOM      3  C   UNL     1      19.010   7.601   3.396  1.00  0.00     0.000 C 
BRANCH   3   4
ATOM      4  C   UNL     1      20.272   6.870   2.904  1.00  0.00     0.000 C 
BRANCH   4   5
ATOM      5  C   UNL     1      20.675   5.699   3.819  1.00  0.00     0.001 C 
BRANCH   5   6
ATOM      6  C   UNL     1      20.486   6.014   5.321  1.00  0.00     0.009 C 
BRANCH   6   7
ATOM      7  C   UNL     1      21.403   5.187   6.250  1.00  0.00     0.032 C 
ATOM      8  C   UNL     1      21.749   5.985   7.514  1.00  0.00     0.014 C 
BRANCH   7   9
ATOM      9  C   UNL     1      22.667   4.768   5.553  1.00  0.00     0.044 C 
ATOM     10  O   UNL     1      22.796   3.587   5.130  1.00  0.00    -0.550 OA
ATOM     11  O   UNL     1      23.700   5.680   5.363  1.00  0.00    -0.550 OA
ENDBRANCH   7   9
ENDBRANCH   6   7
ENDBRANCH   5   6
ENDBRANCH   4   5
ENDBRANCH   3   4
ENDBRANCH   2   3
ENDBRANCH   1   2
BRANCH   1  12
ATOM     12  C   UNL     1      17.178   8.010   5.353  1.00  0.00     0.000 C 
BRANCH  12  13
ATOM     13  C   UNL     1      17.292   7.561   6.817  1.00  0.00    -0.000 C 
BRANCH  13  14
ATOM     14  C   UNL     1      18.318   8.391   7.610  1.00  0.00    -0.000 C 
BRANCH  14  15
ATOM     15  C   UNL     1      17.672   9.189   8.755  1.00  0.00    -0.000 C 
BRANCH  15  16
ATOM     16  C   UNL     1      16.168   8.898   8.894  1.00  0.00    -0.000 C 
BRANCH  16  17
ATOM     17  C   UNL     1      15.346  10.192   8.800  1.00  0.00    -0.000 C 
BRANCH  17  18
ATOM     18  C   UNL     1      15.655  11.173   9.943  1.00  0.00    -0.003 C 
ATOM     19  C   UNL     1      14.955  12.521   9.771  1.00  0.00     0.004 C 
ENDBRANCH  17  18
ENDBRANCH  16  17
ENDBRANCH  15  16
ENDBRANCH  14  15
ENDBRANCH  13  14
ENDBRANCH  12  13
ENDBRANCH   1  12
TORSDOF 14
ENDMDL
