MODEL 1
REMARK VINA RESULT:    -5.691      0.000      0.000
REMARK INTER + INTRA:          -9.200
REMARK INTER:                  -7.521
REMARK INTRA:                  -1.680
REMARK UNBOUND:                -1.680
REMARK SMILES CC(C)=CCC[C@@H](C(=O)[O-])[C@@H]1CC[C@@]2(C)C3=C(CC[C@@]12C)[C@]1(C)CC[C@H](O)C(C)(C)[C@@H]1CC3
REMARK SMILES IDX 6 1 7 2 8 3 9 4 10 5 11 6 12 7 20 8 13 9 14 10 19 11 21 12
REMARK SMILES IDX 15 13 16 14 18 15 17 16 33 17 22 18 32 19 31 20 24 21 23 22
REMARK SMILES IDX 28 23 25 24 26 25 29 26 30 27 27 28 5 30 4 31 2 32 1 33 3 34
REMARK H PARENT 27 29
REMARK Flexibility Score: inf
ROOT
ATOM      1  C   UNL     1      16.020  16.485  16.340  1.00  0.00     0.014 C 
ENDROOT
BRANCH   1   2
ATOM      2  C   UNL     1      15.082  16.118  15.146  1.00  0.00     0.039 C 
BRANCH   2   3
ATOM      3  C   UNL     1      15.117  14.616  14.970  1.00  0.00     0.045 C 
ATOM      4  O   UNL     1      15.502  13.875  15.913  1.00  0.00    -0.550 OA
ATOM      5  O   UNL     1      14.750  14.045  13.755  1.00  0.00    -0.550 OA
ENDBRANCH   2   3
BRANCH   2   6
ATOM      6  C   UNL     1      13.609  16.625  15.340  1.00  0.00     0.004 C 
ATOM      7  C   UNL     1      12.676  15.476  15.773  1.00  0.00     0.006 C 
ATOM      8  C   UNL     1      12.870  17.329  14.115  1.00  0.00    -0.020 C 
ATOM      9  C   UNL     1      11.285  15.860  15.331  1.00  0.00     0.012 C 
ATOM     10  C   UNL     1      11.475  16.567  13.975  1.00  0.00    -0.006 C 
ATOM     11  C   UNL     1      12.673  18.849  14.448  1.00  0.00     0.012 C 
ATOM     12  C   UNL     1      13.656  17.296  12.770  1.00  0.00     0.012 C 
ATOM     13  C   UNL     1      11.523  15.428  12.903  1.00  0.00     0.017 C 
ATOM     14  C   UNL     1      10.277  17.530  13.734  1.00  0.00    -0.064 C 
ATOM     15  C   UNL     1      11.401  19.125  15.248  1.00  0.00     0.032 C 
ATOM     16  C   UNL     1      10.186  18.710  14.425  1.00  0.00    -0.064 C 
ATOM     17  C   UNL     1       9.155  17.140  12.787  1.00  0.00     0.032 C 
ATOM     18  C   UNL     1       8.875  19.569  14.460  1.00  0.00    -0.008 C 
ATOM     19  C   UNL     1       8.516  18.379  12.201  1.00  0.00     0.009 C 
ATOM     20  C   UNL     1       7.831  19.205  13.303  1.00  0.00     0.007 C 
ATOM     21  C   UNL     1       8.256  19.361  15.861  1.00  0.00     0.014 C 
ATOM     22  C   UNL     1       9.229  21.073  14.322  1.00  0.00     0.016 C 
ATOM     23  C   UNL     1       6.385  18.688  13.769  1.00  0.00    -0.006 C 
ATOM     24  C   UNL     1       7.622  17.990  16.000  1.00  0.00     0.033 C 
ATOM     25  C   UNL     1       6.407  17.787  15.071  1.00  0.00     0.120 C 
ATOM     26  C   UNL     1       5.643  17.941  12.624  1.00  0.00     0.014 C 
ATOM     27  C   UNL     1       5.491  19.933  14.045  1.00  0.00     0.014 C 
BRANCH  25  28
ATOM     28  O   UNL     1       6.341  16.417  14.765  1.00  0.00    -0.393 OA
ATOM     29  H   UNL     1       7.266  16.092  14.609  1.00  0.00     0.210 HD
ENDBRANCH  25  28
ENDBRANCH   2   6
ENDBRANCH   1   2
BRANCH   1  30
ATOM     30  C   UNL     1      17.057  17.571  15.977  1.00  0.00     0.028 C 
BRANCH  30  31
ATOM     31  C   UNL     1      16.430  18.932  15.776  1.00  0.00    -0.028 C 
ATOM     32  C   UNL     1      16.388  19.563  14.584  1.00  0.00    -0.080 C 
ATOM     33  C   UNL     1      15.695  20.899  14.500  1.00  0.00     0.039 C 
ATOM     34  C   UNL     1      16.977  18.955  13.333  1.00  0.00     0.039 C 
ENDBRANCH  30  31
ENDBRANCH   1  30
TORSDOF 6
ENDMDL
MODEL 2
REMARK VINA RESULT:    -5.421      2.235      8.281
REMARK INTER + INTRA:          -8.844
REMARK INTER:                  -7.231
REMARK INTRA:                  -1.613
REMARK UNBOUND:                -1.680
REMARK SMILES CC(C)=CCC[C@@H](C(=O)[O-])[C@@H]1CC[C@@]2(C)C3=C(CC[C@@]12C)[C@]1(C)CC[C@H](O)C(C)(C)[C@@H]1CC3
REMARK SMILES IDX 6 1 7 2 8 3 9 4 10 5 11 6 12 7 20 8 13 9 14 10 19 11 21 12
REMARK SMILES IDX 15 13 16 14 18 15 17 16 33 17 22 18 32 19 31 20 24 21 23 22
REMARK SMILES IDX 28 23 25 24 26 25 29 26 30 27 27 28 5 30 4 31 2 32 1 33 3 34
REMARK H PARENT 27 29
REMARK Flexibility Score: inf
ROOT
ATOM      1  C   UNL     1       5.407  19.689  15.665  1.00  0.00     0.014 C 
ENDROOT
BRANCH   1   2
ATOM      2  C   UNL     1       6.475  19.832  14.534  1.00  0.00     0.039 C 
BRANCH   2   3
ATOM      3  C   UNL     1       6.738  21.307  14.324  1.00  0.00     0.045 C 
ATOM      4  O   UNL     1       6.295  22.154  15.144  1.00  0.00    -0.550 OA
ATOM      5  O   UNL     1       7.448  21.740  13.208  1.00  0.00    -0.550 OA
ENDBRANCH   2   3
BRANCH   2   6
ATOM      6  C   UNL     1       7.809  19.064  14.844  1.00  0.00     0.004 C 
ATOM      7  C   UNL     1       8.894  20.022  15.376  1.00  0.00     0.006 C 
ATOM      8  C   UNL     1       8.511  18.239  13.675  1.00  0.00    -0.020 C 
ATOM      9  C   UNL     1      10.226  19.391  15.048  1.00  0.00     0.012 C 
ATOM     10  C   UNL     1      10.029  18.734  13.668  1.00  0.00    -0.006 C 
ATOM     11  C   UNL     1       8.399  16.708  13.996  1.00  0.00     0.012 C 
ATOM     12  C   UNL     1       7.866  18.418  12.268  1.00  0.00     0.012 C 
ATOM     13  C   UNL     1      10.283  19.865  12.617  1.00  0.00     0.017 C 
ATOM     14  C   UNL     1      11.048  17.569  13.514  1.00  0.00    -0.064 C 
ATOM     15  C   UNL     1       9.525  16.203  14.897  1.00  0.00     0.032 C 
ATOM     16  C   UNL     1      10.862  16.391  14.188  1.00  0.00    -0.064 C 
ATOM     17  C   UNL     1      12.301  17.749  12.673  1.00  0.00     0.032 C 
ATOM     18  C   UNL     1      11.987  15.307  14.320  1.00  0.00    -0.008 C 
ATOM     19  C   UNL     1      12.753  16.415  12.121  1.00  0.00     0.009 C 
ATOM     20  C   UNL     1      13.177  15.476  13.263  1.00  0.00     0.007 C 
ATOM     21  C   UNL     1      12.509  15.395  15.772  1.00  0.00     0.014 C 
ATOM     22  C   UNL     1      11.379  13.893  14.125  1.00  0.00     0.016 C 
ATOM     23  C   UNL     1      14.646  15.719  13.860  1.00  0.00    -0.006 C 
ATOM     24  C   UNL     1      13.367  16.626  15.990  1.00  0.00     0.033 C 
ATOM     25  C   UNL     1      14.675  16.606  15.172  1.00  0.00     0.120 C 
ATOM     26  C   UNL     1      15.610  16.320  12.797  1.00  0.00     0.014 C 
ATOM     27  C   UNL     1      15.272  14.331  14.190  1.00  0.00     0.014 C 
BRANCH  25  28
ATOM     28  O   UNL     1      15.015  17.941  14.897  1.00  0.00    -0.393 OA
ATOM     29  H   UNL     1      14.330  18.313  14.283  1.00  0.00     0.210 HD
ENDBRANCH  25  28
ENDBRANCH   2   6
ENDBRANCH   1   2
BRANCH   1  30
ATOM     30  C   UNL     1       4.195  18.833  15.240  1.00  0.00     0.028 C 
BRANCH  30  31
ATOM     31  C   UNL     1       4.549  17.375  15.047  1.00  0.00    -0.028 C 
ATOM     32  C   UNL     1       4.537  16.760  13.846  1.00  0.00    -0.080 C 
ATOM     33  C   UNL     1       4.954  15.313  13.775  1.00  0.00     0.039 C 
ATOM     34  C   UNL     1       4.159  17.485  12.577  1.00  0.00     0.039 C 
ENDBRANCH  30  31
ENDBRANCH   1  30
TORSDOF 6
ENDMDL
MODEL 3
REMARK VINA RESULT:    -5.164      2.153      8.589
REMARK INTER + INTRA:          -8.504
REMARK INTER:                  -7.890
REMARK INTRA:                  -0.614
REMARK UNBOUND:                -1.680
REMARK SMILES CC(C)=CCC[C@@H](C(=O)[O-])[C@@H]1CC[C@@]2(C)C3=C(CC[C@@]12C)[C@]1(C)CC[C@H](O)C(C)(C)[C@@H]1CC3
REMARK SMILES IDX 6 1 7 2 8 3 9 4 10 5 11 6 12 7 20 8 13 9 14 10 19 11 21 12
REMARK SMILES IDX 15 13 16 14 18 15 17 16 33 17 22 18 32 19 31 20 24 21 23 22
REMARK SMILES IDX 28 23 25 24 26 25 29 26 30 27 27 28 5 30 4 31 2 32 1 33 3 34
REMARK H PARENT 27 29
REMARK Flexibility Score: inf
ROOT
ATOM      1  C   UNL     1       8.543  18.820  15.501  1.00  0.00     0.014 C 
ENDROOT
BRANCH   1   2
ATOM      2  C   UNL     1       9.368  18.115  14.377  1.00  0.00     0.039 C 
BRANCH   2   3
ATOM      3  C   UNL     1       9.275  18.963  13.128  1.00  0.00     0.045 C 
ATOM      4  O   UNL     1       9.456  18.445  11.994  1.00  0.00    -0.550 OA
ATOM      5  O   UNL     1       9.016  20.327  13.225  1.00  0.00    -0.550 OA
ENDBRANCH   2   3
BRANCH   2   6
ATOM      6  C   UNL     1      10.866  17.867  14.776  1.00  0.00     0.004 C 
ATOM      7  C   UNL     1      11.772  19.013  14.281  1.00  0.00     0.006 C 
ATOM      8  C   UNL     1      11.580  16.527  14.291  1.00  0.00    -0.020 C 
ATOM      9  C   UNL     1      13.158  18.434  14.129  1.00  0.00     0.012 C 
ATOM     10  C   UNL     1      12.938  17.003  13.600  1.00  0.00    -0.006 C 
ATOM     11  C   UNL     1      11.849  15.615  15.538  1.00  0.00     0.012 C 
ATOM     12  C   UNL     1      10.738  15.655  13.311  1.00  0.00     0.012 C 
ATOM     13  C   UNL     1      12.802  17.139  12.047  1.00  0.00     0.017 C 
ATOM     14  C   UNL     1      14.161  16.125  13.994  1.00  0.00    -0.064 C 
ATOM     15  C   UNL     1      13.163  15.944  16.245  1.00  0.00     0.032 C 
ATOM     16  C   UNL     1      14.325  15.706  15.287  1.00  0.00    -0.064 C 
ATOM     17  C   UNL     1      15.226  15.786  12.966  1.00  0.00     0.032 C 
ATOM     18  C   UNL     1      15.668  15.090  15.811  1.00  0.00    -0.008 C 
ATOM     19  C   UNL     1      15.887  14.472  13.317  1.00  0.00     0.009 C 
ATOM     20  C   UNL     1      16.648  14.590  14.648  1.00  0.00     0.007 C 
ATOM     21  C   UNL     1      16.337  16.178  16.681  1.00  0.00     0.014 C 
ATOM     22  C   UNL     1      15.367  13.875  16.728  1.00  0.00     0.016 C 
ATOM     23  C   UNL     1      18.092  15.288  14.569  1.00  0.00    -0.006 C 
ATOM     24  C   UNL     1      16.924  17.293  15.837  1.00  0.00     0.033 C 
ATOM     25  C   UNL     1      18.090  16.827  14.941  1.00  0.00     0.120 C 
ATOM     26  C   UNL     1      18.757  15.083  13.178  1.00  0.00     0.014 C 
ATOM     27  C   UNL     1      19.044  14.544  15.553  1.00  0.00     0.014 C 
BRANCH  25  28
ATOM     28  O   UNL     1      18.091  17.644  13.798  1.00  0.00    -0.393 OA
ATOM     29  H   UNL     1      17.679  18.514  14.042  1.00  0.00     0.210 HD
ENDBRANCH  25  28
ENDBRANCH   2   6
ENDBRANCH   1   2
BRANCH   1  30
ATOM     30  C   UNL     1       7.267  18.040  15.887  1.00  0.00     0.028 C 
BRANCH  30  31
ATOM     31  C   UNL     1       6.002  18.830  15.636  1.00  0.00    -0.028 C 
ATOM     32  C   UNL     1       4.858  18.277  15.183  1.00  0.00    -0.080 C 
ATOM     33  C   UNL     1       3.648  19.162  15.015  1.00  0.00     0.039 C 
ATOM     34  C   UNL     1       4.745  16.803  14.879  1.00  0.00     0.039 C 
ENDBRANCH  30  31
ENDBRANCH   1  30
TORSDOF 6
ENDMDL
MODEL 4
REMARK VINA RESULT:    -5.078      1.357      2.141
REMARK INTER + INTRA:          -8.390
REMARK INTER:                  -7.548
REMARK INTRA:                  -0.842
REMARK UNBOUND:                -1.680
REMARK SMILES CC(C)=CCC[C@@H](C(=O)[O-])[C@@H]1CC[C@@]2(C)C3=C(CC[C@@]12C)[C@]1(C)CC[C@H](O)C(C)(C)[C@@H]1CC3
REMARK SMILES IDX 6 1 7 2 8 3 9 4 10 5 11 6 12 7 20 8 13 9 14 10 19 11 21 12
REMARK SMILES IDX 15 13 16 14 18 15 17 16 33 17 22 18 32 19 31 20 24 21 23 22
REMARK SMILES IDX 28 23 25 24 26 25 29 26 30 27 27 28 5 30 4 31 2 32 1 33 3 34
REMARK H PARENT 27 29
REMARK Flexibility Score: inf
ROOT
ATOM      1  C   UNL     1      16.042  17.101  14.886  1.00  0.00     0.014 C 
ENDROOT
BRANCH   1   2
ATOM      2  C   UNL     1      14.989  15.958  15.046  1.00  0.00     0.039 C 
BRANCH   2   3
ATOM      3  C   UNL     1      15.403  15.104  16.225  1.00  0.00     0.045 C 
ATOM      4  O   UNL     1      15.631  13.875  16.069  1.00  0.00    -0.550 OA
ATOM      5  O   UNL     1      15.507  15.666  17.493  1.00  0.00    -0.550 OA
ENDBRANCH   2   3
BRANCH   2   6
ATOM      6  C   UNL     1      13.524  16.490  15.227  1.00  0.00     0.004 C 
ATOM      7  C   UNL     1      12.604  15.403  15.819  1.00  0.00     0.006 C 
ATOM      8  C   UNL     1      12.747  17.053  13.954  1.00  0.00    -0.020 C 
ATOM      9  C   UNL     1      11.199  15.740  15.380  1.00  0.00     0.012 C 
ATOM     10  C   UNL     1      11.347  16.285  13.947  1.00  0.00    -0.006 C 
ATOM     11  C   UNL     1      12.561  18.602  14.117  1.00  0.00     0.012 C 
ATOM     12  C   UNL     1      13.488  16.862  12.597  1.00  0.00     0.012 C 
ATOM     13  C   UNL     1      11.359  15.030  13.012  1.00  0.00     0.017 C 
ATOM     14  C   UNL     1      10.142  17.220  13.635  1.00  0.00    -0.064 C 
ATOM     15  C   UNL     1      11.315  18.973  14.920  1.00  0.00     0.032 C 
ATOM     16  C   UNL     1      10.074  18.471  14.188  1.00  0.00    -0.064 C 
ATOM     17  C   UNL     1       8.990  16.729  12.776  1.00  0.00     0.032 C 
ATOM     18  C   UNL     1       8.766  19.334  14.166  1.00  0.00    -0.008 C 
ATOM     19  C   UNL     1       8.334  17.895  12.071  1.00  0.00     0.009 C 
ATOM     20  C   UNL     1       7.685  18.845  13.092  1.00  0.00     0.007 C 
ATOM     21  C   UNL     1       8.192  19.292  15.601  1.00  0.00     0.014 C 
ATOM     22  C   UNL     1       9.116  20.811  13.845  1.00  0.00     0.016 C 
ATOM     23  C   UNL     1       6.254  18.391  13.660  1.00  0.00    -0.006 C 
ATOM     24  C   UNL     1       7.561  17.949  15.916  1.00  0.00     0.033 C 
ATOM     25  C   UNL     1       6.317  17.645  15.056  1.00  0.00     0.120 C 
ATOM     26  C   UNL     1       5.475  17.521  12.633  1.00  0.00     0.014 C 
ATOM     27  C   UNL     1       5.370  19.663  13.820  1.00  0.00     0.014 C 
BRANCH  25  28
ATOM     28  O   UNL     1       6.241  16.250  14.911  1.00  0.00    -0.393 OA
ATOM     29  H   UNL     1       6.073  16.048  13.954  1.00  0.00     0.210 HD
ENDBRANCH  25  28
ENDBRANCH   2   6
ENDBRANCH   1   2
BRANCH   1  30
ATOM     30  C   UNL     1      17.327  16.637  14.167  1.00  0.00     0.028 C 
BRANCH  30  31
ATOM     31  C   UNL     1      18.493  16.457  15.113  1.00  0.00    -0.028 C 
ATOM     32  C   UNL     1      19.137  15.284  15.286  1.00  0.00    -0.080 C 
ATOM     33  C   UNL     1      20.315  15.241  16.225  1.00  0.00     0.039 C 
ATOM     34  C   UNL     1      18.737  14.033  14.541  1.00  0.00     0.039 C 
ENDBRANCH  30  31
ENDBRANCH   1  30
TORSDOF 6
ENDMDL
MODEL 5
REMARK VINA RESULT:    -4.995      2.042      8.541
REMARK INTER + INTRA:          -8.280
REMARK INTER:                  -7.547
REMARK INTRA:                  -0.733
REMARK UNBOUND:                -1.680
REMARK SMILES CC(C)=CCC[C@@H](C(=O)[O-])[C@@H]1CC[C@@]2(C)C3=C(CC[C@@]12C)[C@]1(C)CC[C@H](O)C(C)(C)[C@@H]1CC3
REMARK SMILES IDX 6 1 7 2 8 3 9 4 10 5 11 6 12 7 20 8 13 9 14 10 19 11 21 12
REMARK SMILES IDX 15 13 16 14 18 15 17 16 33 17 22 18 32 19 31 20 24 21 23 22
REMARK SMILES IDX 28 23 25 24 26 25 29 26 30 27 27 28 5 30 4 31 2 32 1 33 3 34
REMARK H PARENT 27 29
REMARK Flexibility Score: inf
ROOT
ATOM      1  C   UNL     1       7.251  16.408  14.607  1.00  0.00     0.014 C 
ENDROOT
BRANCH   1   2
ATOM      2  C   UNL     1       8.126  17.624  14.162  1.00  0.00     0.039 C 
BRANCH   2   3
ATOM      3  C   UNL     1       7.420  18.890  14.594  1.00  0.00     0.045 C 
ATOM      4  O   UNL     1       7.130  19.776  13.747  1.00  0.00    -0.550 OA
ATOM      5  O   UNL     1       7.110  19.096  15.935  1.00  0.00    -0.550 OA
ENDBRANCH   2   3
BRANCH   2   6
ATOM      6  C   UNL     1       9.587  17.575  14.734  1.00  0.00     0.004 C 
ATOM      7  C   UNL     1      10.221  18.980  14.769  1.00  0.00     0.006 C 
ATOM      8  C   UNL     1      10.664  16.644  14.016  1.00  0.00    -0.020 C 
ATOM      9  C   UNL     1      11.716  18.781  14.707  1.00  0.00     0.012 C 
ATOM     10  C   UNL     1      11.923  17.590  13.752  1.00  0.00    -0.006 C 
ATOM     11  C   UNL     1      11.020  15.451  14.969  1.00  0.00     0.012 C 
ATOM     12  C   UNL     1      10.179  15.987  12.689  1.00  0.00     0.012 C 
ATOM     13  C   UNL     1      11.923  18.194  12.308  1.00  0.00     0.017 C 
ATOM     14  C   UNL     1      13.279  16.904  14.086  1.00  0.00    -0.064 C 
ATOM     15  C   UNL     1      12.126  15.795  15.967  1.00  0.00     0.032 C 
ATOM     16  C   UNL     1      13.406  16.128  15.207  1.00  0.00    -0.064 C 
ATOM     17  C   UNL     1      14.499  17.147  13.214  1.00  0.00     0.032 C 
ATOM     18  C   UNL     1      14.797  15.666  15.761  1.00  0.00    -0.008 C 
ATOM     19  C   UNL     1      15.429  15.957  13.279  1.00  0.00     0.009 C 
ATOM     20  C   UNL     1      15.990  15.788  14.701  1.00  0.00     0.007 C 
ATOM     21  C   UNL     1      15.073  16.523  17.018  1.00  0.00     0.014 C 
ATOM     22  C   UNL     1      14.718  14.184  16.214  1.00  0.00     0.016 C 
ATOM     23  C   UNL     1      17.210  16.755  15.092  1.00  0.00    -0.006 C 
ATOM     24  C   UNL     1      15.445  17.949  16.657  1.00  0.00     0.033 C 
ATOM     25  C   UNL     1      16.779  18.052  15.890  1.00  0.00     0.120 C 
ATOM     26  C   UNL     1      18.049  17.158  13.845  1.00  0.00     0.014 C 
ATOM     27  C   UNL     1      18.209  15.944  15.969  1.00  0.00     0.014 C 
BRANCH  25  28
ATOM     28  O   UNL     1      16.694  19.180  15.056  1.00  0.00    -0.393 OA
ATOM     29  H   UNL     1      15.916  19.721  15.349  1.00  0.00     0.210 HD
ENDBRANCH  25  28
ENDBRANCH   2   6
ENDBRANCH   1   2
BRANCH   1  30
ATOM     30  C   UNL     1       6.527  15.727  13.426  1.00  0.00     0.028 C 
BRANCH  30  31
ATOM     31  C   UNL     1       5.455  16.601  12.815  1.00  0.00    -0.028 C 
ATOM     32  C   UNL     1       4.175  16.615  13.241  1.00  0.00    -0.080 C 
ATOM     33  C   UNL     1       3.206  17.564  12.582  1.00  0.00     0.039 C 
ATOM     34  C   UNL     1       3.698  15.742  14.377  1.00  0.00     0.039 C 
ENDBRANCH  30  31
ENDBRANCH   1  30
TORSDOF 6
ENDMDL
MODEL 6
REMARK VINA RESULT:    -4.898      1.606      2.688
REMARK INTER + INTRA:          -8.152
REMARK INTER:                  -7.519
REMARK INTRA:                  -0.633
REMARK UNBOUND:                -1.680
REMARK SMILES CC(C)=CCC[C@@H](C(=O)[O-])[C@@H]1CC[C@@]2(C)C3=C(CC[C@@]12C)[C@]1(C)CC[C@H](O)C(C)(C)[C@@H]1CC3
REMARK SMILES IDX 6 1 7 2 8 3 9 4 10 5 11 6 12 7 20 8 13 9 14 10 19 11 21 12
REMARK SMILES IDX 15 13 16 14 18 15 17 16 33 17 22 18 32 19 31 20 24 21 23 22
REMARK SMILES IDX 28 23 25 24 26 25 29 26 30 27 27 28 5 30 4 31 2 32 1 33 3 34
REMARK H PARENT 27 29
REMARK Flexibility Score: inf
ROOT
ATOM      1  C   UNL     1      13.465  18.107  15.216  1.00  0.00     0.014 C 
ENDROOT
BRANCH   1   2
ATOM      2  C   UNL     1      12.641  16.946  14.573  1.00  0.00     0.039 C 
BRANCH   2   3
ATOM      3  C   UNL     1      13.133  15.642  15.159  1.00  0.00     0.045 C 
ATOM      4  O   UNL     1      13.440  14.682  14.404  1.00  0.00    -0.550 OA
ATOM      5  O   UNL     1      13.226  15.486  16.539  1.00  0.00    -0.550 OA
ENDBRANCH   2   3
BRANCH   2   6
ATOM      6  C   UNL     1      11.092  17.103  14.778  1.00  0.00     0.004 C 
ATOM      7  C   UNL     1      10.378  15.737  14.706  1.00  0.00     0.006 C 
ATOM      8  C   UNL     1      10.278  18.056  13.793  1.00  0.00    -0.020 C 
ATOM      9  C   UNL     1       8.957  16.015  14.282  1.00  0.00     0.012 C 
ATOM     10  C   UNL     1       9.059  17.170  13.267  1.00  0.00    -0.006 C 
ATOM     11  C   UNL     1       9.784  19.310  14.595  1.00  0.00     0.012 C 
ATOM     12  C   UNL     1      11.104  18.623  12.599  1.00  0.00     0.012 C 
ATOM     13  C   UNL     1       9.361  16.499  11.886  1.00  0.00     0.017 C 
ATOM     14  C   UNL     1       7.709  17.944  13.245  1.00  0.00    -0.064 C 
ATOM     15  C   UNL     1       8.454  19.075  15.310  1.00  0.00     0.032 C 
ATOM     16  C   UNL     1       7.371  18.778  14.278  1.00  0.00    -0.064 C 
ATOM     17  C   UNL     1       6.717  17.727  12.116  1.00  0.00     0.032 C 
ATOM     18  C   UNL     1       5.921  19.341  14.469  1.00  0.00    -0.008 C 
ATOM     19  C   UNL     1       5.876  18.969  11.918  1.00  0.00     0.009 C 
ATOM     20  C   UNL     1       5.007  19.235  13.159  1.00  0.00     0.007 C 
ATOM     21  C   UNL     1       5.301  18.560  15.651  1.00  0.00     0.014 C 
ATOM     22  C   UNL     1       5.986  20.836  14.879  1.00  0.00     0.016 C 
ATOM     23  C   UNL     1       3.670  18.356  13.278  1.00  0.00    -0.006 C 
ATOM     24  C   UNL     1       4.934  17.141  15.258  1.00  0.00     0.033 C 
ATOM     25  C   UNL     1       3.815  17.075  14.199  1.00  0.00     0.120 C 
ATOM     26  C   UNL     1       3.124  17.941  11.882  1.00  0.00     0.014 C 
ATOM     27  C   UNL     1       2.546  19.260  13.866  1.00  0.00     0.014 C 
BRANCH  25  28
ATOM     28  O   UNL     1       4.021  15.907  13.446  1.00  0.00    -0.393 OA
ATOM     29  H   UNL     1       3.646  16.055  12.539  1.00  0.00     0.210 HD
ENDBRANCH  25  28
ENDBRANCH   2   6
ENDBRANCH   1   2
BRANCH   1  30
ATOM     30  C   UNL     1      14.870  18.261  14.594  1.00  0.00     0.028 C 
BRANCH  30  31
ATOM     31  C   UNL     1      15.782  19.139  15.421  1.00  0.00    -0.028 C 
ATOM     32  C   UNL     1      16.376  20.253  14.945  1.00  0.00    -0.080 C 
ATOM     33  C   UNL     1      17.229  21.071  15.882  1.00  0.00     0.039 C 
ATOM     34  C   UNL     1      16.180  20.720  13.523  1.00  0.00     0.039 C 
ENDBRANCH  30  31
ENDBRANCH   1  30
TORSDOF 6
ENDMDL
MODEL 7
REMARK VINA RESULT:    -4.810      2.352      8.573
REMARK INTER + INTRA:          -8.036
REMARK INTER:                  -7.170
REMARK INTRA:                  -0.866
REMARK UNBOUND:                -1.680
REMARK SMILES CC(C)=CCC[C@@H](C(=O)[O-])[C@@H]1CC[C@@]2(C)C3=C(CC[C@@]12C)[C@]1(C)CC[C@H](O)C(C)(C)[C@@H]1CC3
REMARK SMILES IDX 6 1 7 2 8 3 9 4 10 5 11 6 12 7 20 8 13 9 14 10 19 11 21 12
REMARK SMILES IDX 15 13 16 14 18 15 17 16 33 17 22 18 32 19 31 20 24 21 23 22
REMARK SMILES IDX 28 23 25 24 26 25 29 26 30 27 27 28 5 30 4 31 2 32 1 33 3 34
REMARK H PARENT 27 29
REMARK Flexibility Score: inf
ROOT
ATOM      1  C   UNL     1      10.897  16.572  13.039  1.00  0.00     0.014 C 
ENDROOT
BRANCH   1   2
ATOM      2  C   UNL     1      11.747  16.142  14.278  1.00  0.00     0.039 C 
BRANCH   2   3
ATOM      3  C   UNL     1      11.608  14.645  14.444  1.00  0.00     0.045 C 
ATOM      4  O   UNL     1      11.831  13.875  13.472  1.00  0.00    -0.550 OA
ATOM      5  O   UNL     1      11.205  14.111  15.663  1.00  0.00    -0.550 OA
ENDBRANCH   2   3
BRANCH   2   6
ATOM      6  C   UNL     1      13.257  16.555  14.162  1.00  0.00     0.004 C 
ATOM      7  C   UNL     1      14.157  15.619  14.995  1.00  0.00     0.006 C 
ATOM      8  C   UNL     1      13.686  18.032  14.580  1.00  0.00    -0.020 C 
ATOM      9  C   UNL     1      15.397  16.406  15.340  1.00  0.00     0.012 C 
ATOM     10  C   UNL     1      14.902  17.843  15.596  1.00  0.00    -0.006 C 
ATOM     11  C   UNL     1      14.118  18.818  13.293  1.00  0.00     0.012 C 
ATOM     12  C   UNL     1      12.553  18.884  15.227  1.00  0.00     0.012 C 
ATOM     13  C   UNL     1      14.441  17.875  17.091  1.00  0.00     0.017 C 
ATOM     14  C   UNL     1      16.073  18.835  15.336  1.00  0.00    -0.064 C 
ATOM     15  C   UNL     1      15.586  18.601  12.926  1.00  0.00     0.032 C 
ATOM     16  C   UNL     1      16.471  19.117  14.056  1.00  0.00    -0.064 C 
ATOM     17  C   UNL     1      16.837  19.444  16.498  1.00  0.00     0.032 C 
ATOM     18  C   UNL     1      17.816  19.853  13.733  1.00  0.00    -0.008 C 
ATOM     19  C   UNL     1      17.403  20.789  16.100  1.00  0.00     0.009 C 
ATOM     20  C   UNL     1      18.450  20.623  14.985  1.00  0.00     0.007 C 
ATOM     21  C   UNL     1      18.783  18.777  13.188  1.00  0.00     0.014 C 
ATOM     22  C   UNL     1      17.589  20.893  12.604  1.00  0.00     0.016 C 
ATOM     23  C   UNL     1      19.910  20.156  15.459  1.00  0.00    -0.006 C 
ATOM     24  C   UNL     1      19.292  17.866  14.290  1.00  0.00     0.033 C 
ATOM     25  C   UNL     1      20.168  18.600  15.326  1.00  0.00     0.120 C 
ATOM     26  C   UNL     1      20.221  20.620  16.911  1.00  0.00     0.014 C 
ATOM     27  C   UNL     1      20.965  20.907  14.593  1.00  0.00     0.014 C 
BRANCH  25  28
ATOM     28  O   UNL     1      20.009  17.933  16.553  1.00  0.00    -0.393 OA
ATOM     29  H   UNL     1      19.513  17.090  16.383  1.00  0.00     0.210 HD
ENDBRANCH  25  28
ENDBRANCH   2   6
ENDBRANCH   1   2
BRANCH   1  30
ATOM     30  C   UNL     1       9.382  16.603  13.333  1.00  0.00     0.028 C 
BRANCH  30  31
ATOM     31  C   UNL     1       9.012  17.630  14.380  1.00  0.00    -0.028 C 
ATOM     32  C   UNL     1       7.841  17.622  15.049  1.00  0.00    -0.080 C 
ATOM     33  C   UNL     1       7.606  18.674  16.104  1.00  0.00     0.039 C 
ATOM     34  C   UNL     1       6.783  16.573  14.802  1.00  0.00     0.039 C 
ENDBRANCH  30  31
ENDBRANCH   1  30
TORSDOF 6
ENDMDL
MODEL 8
REMARK VINA RESULT:    -4.556      1.968      8.347
REMARK INTER + INTRA:          -7.701
REMARK INTER:                  -6.755
REMARK INTRA:                  -0.946
REMARK UNBOUND:                -1.680
REMARK SMILES CC(C)=CCC[C@@H](C(=O)[O-])[C@@H]1CC[C@@]2(C)C3=C(CC[C@@]12C)[C@]1(C)CC[C@H](O)C(C)(C)[C@@H]1CC3
REMARK SMILES IDX 6 1 7 2 8 3 9 4 10 5 11 6 12 7 20 8 13 9 14 10 19 11 21 12
REMARK SMILES IDX 15 13 16 14 18 15 17 16 33 17 22 18 32 19 31 20 24 21 23 22
REMARK SMILES IDX 28 23 25 24 26 25 29 26 30 27 27 28 5 30 4 31 2 32 1 33 3 34
REMARK H PARENT 27 29
REMARK Flexibility Score: inf
ROOT
ATOM      1  C   UNL     1       5.362  19.668  12.305  1.00  0.00     0.014 C 
ENDROOT
BRANCH   1   2
ATOM      2  C   UNL     1       5.817  19.603  13.798  1.00  0.00     0.039 C 
BRANCH   2   3
ATOM      3  C   UNL     1       4.599  19.312  14.646  1.00  0.00     0.045 C 
ATOM      4  O   UNL     1       4.079  20.223  15.344  1.00  0.00    -0.550 OA
ATOM      5  O   UNL     1       4.062  18.029  14.682  1.00  0.00    -0.550 OA
ENDBRANCH   2   3
BRANCH   2   6
ATOM      6  C   UNL     1       6.944  18.540  14.054  1.00  0.00     0.004 C 
ATOM      7  C   UNL     1       7.154  18.300  15.563  1.00  0.00     0.006 C 
ATOM      8  C   UNL     1       8.401  18.806  13.463  1.00  0.00    -0.020 C 
ATOM      9  C   UNL     1       8.573  17.814  15.730  1.00  0.00     0.012 C 
ATOM     10  C   UNL     1       9.394  18.611  14.698  1.00  0.00    -0.006 C 
ATOM     11  C   UNL     1       8.682  17.770  12.320  1.00  0.00     0.012 C 
ATOM     12  C   UNL     1       8.598  20.209  12.812  1.00  0.00     0.012 C 
ATOM     13  C   UNL     1       9.754  19.966  15.393  1.00  0.00     0.017 C 
ATOM     14  C   UNL     1      10.669  17.799  14.330  1.00  0.00    -0.064 C 
ATOM     15  C   UNL     1       9.240  16.446  12.838  1.00  0.00     0.032 C 
ATOM     16  C   UNL     1      10.580  16.695  13.523  1.00  0.00    -0.064 C 
ATOM     17  C   UNL     1      12.017  18.174  14.922  1.00  0.00     0.032 C 
ATOM     18  C   UNL     1      11.753  15.668  13.364  1.00  0.00    -0.008 C 
ATOM     19  C   UNL     1      13.129  17.758  13.985  1.00  0.00     0.009 C 
ATOM     20  C   UNL     1      13.173  16.227  13.846  1.00  0.00     0.007 C 
ATOM     21  C   UNL     1      11.343  14.410  14.163  1.00  0.00     0.014 C 
ATOM     22  C   UNL     1      11.890  15.253  11.875  1.00  0.00     0.016 C 
ATOM     23  C   UNL     1      13.894  15.436  15.042  1.00  0.00    -0.006 C 
ATOM     24  C   UNL     1      11.451  14.634  15.660  1.00  0.00     0.033 C 
ATOM     25  C   UNL     1      12.900  14.867  16.136  1.00  0.00     0.120 C 
ATOM     26  C   UNL     1      14.991  16.300  15.727  1.00  0.00     0.014 C 
ATOM     27  C   UNL     1      14.686  14.244  14.428  1.00  0.00     0.014 C 
BRANCH  25  28
ATOM     28  O   UNL     1      12.838  15.693  17.271  1.00  0.00    -0.393 OA
ATOM     29  H   UNL     1      12.957  16.632  16.975  1.00  0.00     0.210 HD
ENDBRANCH  25  28
ENDBRANCH   2   6
ENDBRANCH   1   2
BRANCH   1  30
ATOM     30  C   UNL     1       4.832  21.060  11.900  1.00  0.00     0.028 C 
BRANCH  30  31
ATOM     31  C   UNL     1       5.468  22.180  12.693  1.00  0.00    -0.028 C 
ATOM     32  C   UNL     1       4.760  23.098  13.383  1.00  0.00    -0.080 C 
ATOM     33  C   UNL     1       5.510  24.141  14.173  1.00  0.00     0.039 C 
ATOM     34  C   UNL     1       3.251  23.087  13.418  1.00  0.00     0.039 C 
ENDBRANCH  30  31
ENDBRANCH   1  30
TORSDOF 6
ENDMDL
MODEL 9
REMARK VINA RESULT:    -4.532      2.159      8.531
REMARK INTER + INTRA:          -7.668
REMARK INTER:                  -7.451
REMARK INTRA:                  -0.217
REMARK UNBOUND:                -1.680
REMARK SMILES CC(C)=CCC[C@@H](C(=O)[O-])[C@@H]1CC[C@@]2(C)C3=C(CC[C@@]12C)[C@]1(C)CC[C@H](O)C(C)(C)[C@@H]1CC3
REMARK SMILES IDX 6 1 7 2 8 3 9 4 10 5 11 6 12 7 20 8 13 9 14 10 19 11 21 12
REMARK SMILES IDX 15 13 16 14 18 15 17 16 33 17 22 18 32 19 31 20 24 21 23 22
REMARK SMILES IDX 28 23 25 24 26 25 29 26 30 27 27 28 5 30 4 31 2 32 1 33 3 34
REMARK H PARENT 27 29
REMARK Flexibility Score: inf
ROOT
ATOM      1  C   UNL     1       5.558  19.716  14.165  1.00  0.00     0.014 C 
ENDROOT
BRANCH   1   2
ATOM      2  C   UNL     1       5.941  18.506  15.076  1.00  0.00     0.039 C 
BRANCH   2   3
ATOM      3  C   UNL     1       5.285  17.267  14.505  1.00  0.00     0.045 C 
ATOM      4  O   UNL     1       5.602  16.126  14.936  1.00  0.00    -0.550 OA
ATOM      5  O   UNL     1       4.348  17.379  13.483  1.00  0.00    -0.550 OA
ENDBRANCH   2   3
BRANCH   2   6
ATOM      6  C   UNL     1       7.491  18.305  15.215  1.00  0.00     0.004 C 
ATOM      7  C   UNL     1       8.166  19.559  15.807  1.00  0.00     0.006 C 
ATOM      8  C   UNL     1       8.340  17.943  13.915  1.00  0.00    -0.020 C 
ATOM      9  C   UNL     1       9.599  19.543  15.332  1.00  0.00     0.012 C 
ATOM     10  C   UNL     1       9.538  18.998  13.892  1.00  0.00    -0.006 C 
ATOM     11  C   UNL     1       8.864  16.470  14.045  1.00  0.00     0.012 C 
ATOM     12  C   UNL     1       7.541  17.984  12.578  1.00  0.00     0.012 C 
ATOM     13  C   UNL     1       9.228  20.232  12.980  1.00  0.00     0.017 C 
ATOM     14  C   UNL     1      10.909  18.354  13.537  1.00  0.00    -0.064 C 
ATOM     15  C   UNL     1      10.181  16.370  14.814  1.00  0.00     0.032 C 
ATOM     16  C   UNL     1      11.263  17.140  14.066  1.00  0.00    -0.064 C 
ATOM     17  C   UNL     1      11.904  19.096  12.662  1.00  0.00     0.032 C 
ATOM     18  C   UNL     1      12.727  16.585  14.000  1.00  0.00    -0.008 C 
ATOM     19  C   UNL     1      12.782  18.111  11.922  1.00  0.00     0.009 C 
ATOM     20  C   UNL     1      13.648  17.313  12.911  1.00  0.00     0.007 C 
ATOM     21  C   UNL     1      13.314  16.733  15.422  1.00  0.00     0.014 C 
ATOM     22  C   UNL     1      12.701  15.071  13.659  1.00  0.00     0.016 C 
ATOM     23  C   UNL     1      14.958  18.062  13.457  1.00  0.00    -0.006 C 
ATOM     24  C   UNL     1      13.643  18.177  15.748  1.00  0.00     0.033 C 
ATOM     25  C   UNL     1      14.769  18.757  14.866  1.00  0.00     0.120 C 
ATOM     26  C   UNL     1      15.503  19.095  12.429  1.00  0.00     0.014 C 
ATOM     27  C   UNL     1      16.103  17.012  13.574  1.00  0.00     0.014 C 
BRANCH  25  28
ATOM     28  O   UNL     1      14.535  20.137  14.746  1.00  0.00    -0.393 OA
ATOM     29  H   UNL     1      15.376  20.613  14.973  1.00  0.00     0.210 HD
ENDBRANCH  25  28
ENDBRANCH   2   6
ENDBRANCH   1   2
BRANCH   1  30
ATOM     30  C   UNL     1       4.742  20.794  14.912  1.00  0.00     0.028 C 
BRANCH  30  31
ATOM     31  C   UNL     1       3.395  20.287  15.378  1.00  0.00    -0.028 C 
ATOM     32  C   UNL     1       2.234  20.586  14.761  1.00  0.00    -0.080 C 
ATOM     33  C   UNL     1       0.958  19.983  15.294  1.00  0.00     0.039 C 
ATOM     34  C   UNL     1       2.180  21.469  13.537  1.00  0.00     0.039 C 
ENDBRANCH  30  31
ENDBRANCH   1  30
TORSDOF 6
ENDMDL
