MODEL 1
REMARK VINA RESULT:    -2.773      0.000      0.000
REMARK INTER + INTRA:          -2.773
REMARK INTER:                  -2.773
REMARK INTRA:                   0.000
REMARK UNBOUND:                 0.000
REMARK SMILES c1cc[nH]c1
REMARK SMILES IDX 1 1 5 2 4 3 3 4 2 5
REMARK H PARENT 4 6
REMARK Flexibility Score: inf
ROOT
ATOM      1  C   UNL     1      32.780  11.132  31.629  1.00  0.00     0.019 A 
ATOM      2  C   UNL     1      32.030  12.248  31.939  1.00  0.00     0.082 A 
ATOM      3  N   UNL     1      31.907  12.363  33.273  1.00  0.00    -0.368 N 
ATOM      4  C   UNL     1      32.570  11.330  33.822  1.00  0.00     0.082 A 
ATOM      5  C   UNL     1      33.125  10.546  32.831  1.00  0.00     0.019 A 
ATOM      6  H   UNL     1      31.392  13.113  33.786  1.00  0.00     0.165 HD
ENDROOT
TORSDOF 0
ENDMDL
MODEL 2
REMARK VINA RESULT:    -2.772      0.064      1.624
REMARK INTER + INTRA:          -2.772
REMARK INTER:                  -2.772
REMARK INTRA:                   0.000
REMARK UNBOUND:                 0.000
REMARK SMILES c1cc[nH]c1
REMARK SMILES IDX 1 1 5 2 4 3 3 4 2 5
REMARK H PARENT 4 6
REMARK Flexibility Score: inf
ROOT
ATOM      1  C   UNL     1      33.125  10.606  32.820  1.00  0.00     0.019 A 
ATOM      2  C   UNL     1      32.554  11.365  33.821  1.00  0.00     0.082 A 
ATOM      3  N   UNL     1      31.842  12.372  33.286  1.00  0.00    -0.368 N 
ATOM      4  C   UNL     1      31.952  12.268  31.950  1.00  0.00     0.082 A 
ATOM      5  C   UNL     1      32.740  11.182  31.625  1.00  0.00     0.019 A 
ATOM      6  H   UNL     1      31.306  13.100  33.810  1.00  0.00     0.165 HD
ENDROOT
TORSDOF 0
ENDMDL
MODEL 3
REMARK VINA RESULT:    -2.531     16.138     16.457
REMARK INTER + INTRA:          -2.531
REMARK INTER:                  -2.531
REMARK INTRA:                   0.000
REMARK UNBOUND:                 0.000
REMARK SMILES c1cc[nH]c1
REMARK SMILES IDX 1 1 5 2 4 3 3 4 2 5
REMARK H PARENT 4 6
REMARK Flexibility Score: inf
ROOT
ATOM      1  C   UNL     1      17.373   8.308  32.045  1.00  0.00     0.019 A 
ATOM      2  C   UNL     1      16.305   7.826  32.775  1.00  0.00     0.082 A 
ATOM      3  N   UNL     1      15.756   6.773  32.144  1.00  0.00    -0.368 N 
ATOM      4  C   UNL     1      16.461   6.575  31.016  1.00  0.00     0.082 A 
ATOM      5  C   UNL     1      17.473   7.510  30.922  1.00  0.00     0.019 A 
ATOM      6  H   UNL     1      14.935   6.214  32.468  1.00  0.00     0.165 HD
ENDROOT
TORSDOF 0
ENDMDL
MODEL 4
REMARK VINA RESULT:    -2.491      4.984      5.580
REMARK INTER + INTRA:          -2.491
REMARK INTER:                  -2.491
REMARK INTRA:                   0.000
REMARK UNBOUND:                 0.000
REMARK SMILES c1cc[nH]c1
REMARK SMILES IDX 1 1 5 2 4 3 3 4 2 5
REMARK H PARENT 4 6
REMARK Flexibility Score: inf
ROOT
ATOM      1  C   UNL     1      31.610  10.391  28.641  1.00  0.00     0.019 A 
ATOM      2  C   UNL     1      32.386  10.621  27.524  1.00  0.00     0.082 A 
ATOM      3  N   UNL     1      32.524   9.485  26.818  1.00  0.00    -0.368 N 
ATOM      4  C   UNL     1      31.844   8.527  27.473  1.00  0.00     0.082 A 
ATOM      5  C   UNL     1      31.263   9.054  28.609  1.00  0.00     0.019 A 
ATOM      6  H   UNL     1      33.060   9.368  25.929  1.00  0.00     0.165 HD
ENDROOT
TORSDOF 0
ENDMDL
MODEL 5
REMARK VINA RESULT:    -2.409      1.613      2.167
REMARK INTER + INTRA:          -2.409
REMARK INTER:                  -2.409
REMARK INTRA:                   0.000
REMARK UNBOUND:                 0.000
REMARK SMILES c1cc[nH]c1
REMARK SMILES IDX 1 1 5 2 4 3 3 4 2 5
REMARK H PARENT 4 6
REMARK Flexibility Score: inf
ROOT
ATOM      1  C   UNL     1      32.485   9.525  32.625  1.00  0.00     0.019 A 
ATOM      2  C   UNL     1      31.909   9.627  31.376  1.00  0.00     0.082 A 
ATOM      3  N   UNL     1      32.149  10.844  30.857  1.00  0.00    -0.368 N 
ATOM      4  C   UNL     1      32.875  11.524  31.762  1.00  0.00     0.082 A 
ATOM      5  C   UNL     1      33.102  10.736  32.872  1.00  0.00     0.019 A 
ATOM      6  H   UNL     1      31.832  11.195  29.925  1.00  0.00     0.165 HD
ENDROOT
TORSDOF 0
ENDMDL
MODEL 6
REMARK VINA RESULT:    -2.403      2.250      2.677
REMARK INTER + INTRA:          -2.403
REMARK INTER:                  -2.403
REMARK INTRA:                   0.000
REMARK UNBOUND:                 0.000
REMARK SMILES c1cc[nH]c1
REMARK SMILES IDX 1 1 5 2 4 3 3 4 2 5
REMARK H PARENT 4 6
REMARK Flexibility Score: inf
ROOT
ATOM      1  C   UNL     1      31.905  10.838  29.925  1.00  0.00     0.019 A 
ATOM      2  C   UNL     1      32.092  11.994  29.196  1.00  0.00     0.082 A 
ATOM      3  N   UNL     1      32.810  12.877  29.911  1.00  0.00    -0.368 N 
ATOM      4  C   UNL     1      33.085  12.299  31.093  1.00  0.00     0.082 A 
ATOM      5  C   UNL     1      32.540  11.032  31.136  1.00  0.00     0.019 A 
ATOM      6  H   UNL     1      33.099  13.834  29.606  1.00  0.00     0.165 HD
ENDROOT
TORSDOF 0
ENDMDL
MODEL 7
REMARK VINA RESULT:    -2.349      3.621      4.218
REMARK INTER + INTRA:          -2.349
REMARK INTER:                  -2.349
REMARK INTRA:                   0.000
REMARK UNBOUND:                 0.000
REMARK SMILES c1cc[nH]c1
REMARK SMILES IDX 1 1 5 2 4 3 3 4 2 5
REMARK H PARENT 4 6
REMARK Flexibility Score: inf
ROOT
ATOM      1  C   UNL     1      31.412   9.787  28.613  1.00  0.00     0.019 A 
ATOM      2  C   UNL     1      32.176  10.476  27.694  1.00  0.00     0.082 A 
ATOM      3  N   UNL     1      32.911  11.413  28.318  1.00  0.00    -0.368 N 
ATOM      4  C   UNL     1      32.626  11.332  29.629  1.00  0.00     0.082 A 
ATOM      5  C   UNL     1      31.699  10.332  29.849  1.00  0.00     0.019 A 
ATOM      6  H   UNL     1      33.578  12.079  27.868  1.00  0.00     0.165 HD
ENDROOT
TORSDOF 0
ENDMDL
MODEL 8
REMARK VINA RESULT:    -2.337      4.803      5.602
REMARK INTER + INTRA:          -2.337
REMARK INTER:                  -2.337
REMARK INTRA:                   0.000
REMARK UNBOUND:                 0.000
REMARK SMILES c1cc[nH]c1
REMARK SMILES IDX 1 1 5 2 4 3 3 4 2 5
REMARK H PARENT 4 6
REMARK Flexibility Score: inf
ROOT
ATOM      1  C   UNL     1      31.661  11.091  28.067  1.00  0.00     0.019 A 
ATOM      2  C   UNL     1      31.919  12.394  28.442  1.00  0.00     0.082 A 
ATOM      3  N   UNL     1      32.394  13.088  27.394  1.00  0.00    -0.368 N 
ATOM      4  C   UNL     1      32.445  12.243  26.349  1.00  0.00     0.082 A 
ATOM      5  C   UNL     1      31.996  10.994  26.731  1.00  0.00     0.019 A 
ATOM      6  H   UNL     1      32.674  14.094  27.391  1.00  0.00     0.165 HD
ENDROOT
TORSDOF 0
ENDMDL
MODEL 9
REMARK VINA RESULT:    -2.314      4.860      5.472
REMARK INTER + INTRA:          -2.314
REMARK INTER:                  -2.314
REMARK INTRA:                   0.000
REMARK UNBOUND:                 0.000
REMARK SMILES c1cc[nH]c1
REMARK SMILES IDX 1 1 5 2 4 3 3 4 2 5
REMARK H PARENT 4 6
REMARK Flexibility Score: inf
ROOT
ATOM      1  C   UNL     1      32.021  10.964  26.635  1.00  0.00     0.019 A 
ATOM      2  C   UNL     1      32.397  12.238  26.263  1.00  0.00     0.082 A 
ATOM      3  N   UNL     1      32.417  13.044  27.339  1.00  0.00    -0.368 N 
ATOM      4  C   UNL     1      32.057  12.300  28.399  1.00  0.00     0.082 A 
ATOM      5  C   UNL     1      31.804  11.002  27.999  1.00  0.00     0.019 A 
ATOM      6  H   UNL     1      32.664  14.059  27.349  1.00  0.00     0.165 HD
ENDROOT
TORSDOF 0
ENDMDL
