MODEL 1
REMARK VINA RESULT:    -4.439      0.000      0.000
REMARK INTER + INTRA:          -4.922
REMARK INTER:                  -4.958
REMARK INTRA:                   0.036
REMARK UNBOUND:                 0.036
REMARK SMILES O=C([O-])c1ccccc1C(=O)[O-]
REMARK SMILES IDX 4 1 9 2 5 3 8 4 6 5 7 6 2 7 1 8 3 9 10 10 11 11 12 12
REMARK H PARENT
REMARK Flexibility Score: inf
ROOT
ATOM      1  C   UNL     1     -29.620 -21.699 -22.733  1.00  0.00     0.006 A 
ATOM      2  C   UNL     1     -30.208 -21.516 -21.451  1.00  0.00     0.006 A 
ATOM      3  C   UNL     1     -30.407 -21.499 -23.882  1.00  0.00     0.010 A 
ATOM      4  C   UNL     1     -31.543 -21.078 -21.366  1.00  0.00     0.010 A 
ATOM      5  C   UNL     1     -31.736 -21.086 -23.774  1.00  0.00     0.001 A 
ATOM      6  C   UNL     1     -32.299 -20.865 -22.520  1.00  0.00     0.001 A 
ENDROOT
BRANCH   1   7
ATOM      7  C   UNL     1     -28.185 -22.021 -22.914  1.00  0.00     0.072 C 
ATOM      8  O   UNL     1     -27.446 -21.261 -23.593  1.00  0.00    -0.545 OA
ATOM      9  O   UNL     1     -27.622 -23.125 -22.286  1.00  0.00    -0.545 OA
ENDBRANCH   1   7
BRANCH   2  10
ATOM     10  C   UNL     1     -29.497 -21.839 -20.192  1.00  0.00     0.072 C 
ATOM     11  O   UNL     1     -28.895 -20.935 -19.554  1.00  0.00    -0.545 OA
ATOM     12  O   UNL     1     -29.538 -23.125 -19.665  1.00  0.00    -0.545 OA
ENDBRANCH   2  10
TORSDOF 2
ENDMDL
MODEL 2
REMARK VINA RESULT:    -4.392      0.088      2.887
REMARK INTER + INTRA:          -4.870
REMARK INTER:                  -4.934
REMARK INTRA:                   0.064
REMARK UNBOUND:                 0.036
REMARK SMILES O=C([O-])c1ccccc1C(=O)[O-]
REMARK SMILES IDX 4 1 9 2 5 3 8 4 6 5 7 6 2 7 1 8 3 9 10 10 11 11 12 12
REMARK H PARENT
REMARK Flexibility Score: inf
ROOT
ATOM      1  C   UNL     1     -30.237 -21.499 -21.526  1.00  0.00     0.006 A 
ATOM      2  C   UNL     1     -29.639 -21.686 -22.802  1.00  0.00     0.006 A 
ATOM      3  C   UNL     1     -31.571 -21.057 -21.453  1.00  0.00     0.010 A 
ATOM      4  C   UNL     1     -30.416 -21.487 -23.959  1.00  0.00     0.010 A 
ATOM      5  C   UNL     1     -32.317 -20.844 -22.614  1.00  0.00     0.001 A 
ATOM      6  C   UNL     1     -31.745 -21.070 -23.863  1.00  0.00     0.001 A 
ENDROOT
BRANCH   1   7
ATOM      7  C   UNL     1     -29.536 -21.821 -20.261  1.00  0.00     0.072 C 
ATOM      8  O   UNL     1     -29.017 -20.903 -19.573  1.00  0.00    -0.545 OA
ATOM      9  O   UNL     1     -29.499 -23.125 -19.783  1.00  0.00    -0.545 OA
ENDBRANCH   1   7
BRANCH   2  10
ATOM     10  C   UNL     1     -28.204 -22.013 -22.972  1.00  0.00     0.072 C 
ATOM     11  O   UNL     1     -27.454 -21.250 -23.639  1.00  0.00    -0.545 OA
ATOM     12  O   UNL     1     -27.651 -23.125 -22.346  1.00  0.00    -0.545 OA
ENDBRANCH   2  10
TORSDOF 2
ENDMDL
MODEL 3
REMARK VINA RESULT:    -4.069      2.880      4.725
REMARK INTER + INTRA:          -4.509
REMARK INTER:                  -4.485
REMARK INTRA:                  -0.023
REMARK UNBOUND:                 0.036
REMARK SMILES O=C([O-])c1ccccc1C(=O)[O-]
REMARK SMILES IDX 4 1 9 2 5 3 8 4 6 5 7 6 2 7 1 8 3 9 10 10 11 11 12 12
REMARK H PARENT
REMARK Flexibility Score: inf
ROOT
ATOM      1  C   UNL     1     -31.229 -21.052 -22.207  1.00  0.00     0.006 A 
ATOM      2  C   UNL     1     -30.493 -21.262 -23.406  1.00  0.00     0.006 A 
ATOM      3  C   UNL     1     -30.713 -21.541 -20.993  1.00  0.00     0.010 A 
ATOM      4  C   UNL     1     -29.238 -21.896 -23.337  1.00  0.00     0.010 A 
ATOM      5  C   UNL     1     -29.476 -22.186 -20.951  1.00  0.00     0.001 A 
ATOM      6  C   UNL     1     -28.735 -22.353 -22.118  1.00  0.00     0.001 A 
ENDROOT
BRANCH   1   7
ATOM      7  C   UNL     1     -32.488 -20.272 -22.170  1.00  0.00     0.072 C 
ATOM      8  O   UNL     1     -33.497 -20.667 -22.812  1.00  0.00    -0.545 OA
ATOM      9  O   UNL     1     -32.594 -19.136 -21.377  1.00  0.00    -0.545 OA
ENDBRANCH   1   7
BRANCH   2  10
ATOM     10  C   UNL     1     -31.025 -20.907 -24.742  1.00  0.00     0.072 C 
ATOM     11  O   UNL     1     -31.657 -21.760 -25.421  1.00  0.00    -0.545 OA
ATOM     12  O   UNL     1     -30.892 -19.614 -25.237  1.00  0.00    -0.545 OA
ENDBRANCH   2  10
TORSDOF 2
ENDMDL
MODEL 4
REMARK VINA RESULT:    -4.068      2.874      3.703
REMARK INTER + INTRA:          -4.508
REMARK INTER:                  -4.485
REMARK INTRA:                  -0.023
REMARK UNBOUND:                 0.036
REMARK SMILES O=C([O-])c1ccccc1C(=O)[O-]
REMARK SMILES IDX 4 1 9 2 5 3 8 4 6 5 7 6 2 7 1 8 3 9 10 10 11 11 12 12
REMARK H PARENT
REMARK Flexibility Score: inf
ROOT
ATOM      1  C   UNL     1     -30.464 -21.202 -23.442  1.00  0.00     0.006 A 
ATOM      2  C   UNL     1     -31.179 -21.022 -22.226  1.00  0.00     0.006 A 
ATOM      3  C   UNL     1     -29.208 -21.835 -23.412  1.00  0.00     0.010 A 
ATOM      4  C   UNL     1     -30.640 -21.539 -21.033  1.00  0.00     0.010 A 
ATOM      5  C   UNL     1     -28.683 -22.321 -22.213  1.00  0.00     0.001 A 
ATOM      6  C   UNL     1     -29.402 -22.184 -21.029  1.00  0.00     0.001 A 
ENDROOT
BRANCH   1   7
ATOM      7  C   UNL     1     -31.021 -20.816 -24.760  1.00  0.00     0.072 C 
ATOM      8  O   UNL     1     -30.847 -19.650 -25.204  1.00  0.00    -0.545 OA
ATOM      9  O   UNL     1     -31.681 -21.748 -25.551  1.00  0.00    -0.545 OA
ENDBRANCH   1   7
BRANCH   2  10
ATOM     10  C   UNL     1     -32.438 -20.245 -22.147  1.00  0.00     0.072 C 
ATOM     11  O   UNL     1     -33.463 -20.633 -22.769  1.00  0.00    -0.545 OA
ATOM     12  O   UNL     1     -32.526 -19.119 -21.336  1.00  0.00    -0.545 OA
ENDBRANCH   2  10
TORSDOF 2
ENDMDL
MODEL 5
REMARK VINA RESULT:    -3.668      2.539      3.878
REMARK INTER + INTRA:          -4.061
REMARK INTER:                  -3.945
REMARK INTRA:                  -0.116
REMARK UNBOUND:                 0.036
REMARK SMILES O=C([O-])c1ccccc1C(=O)[O-]
REMARK SMILES IDX 4 1 9 2 5 3 8 4 6 5 7 6 2 7 1 8 3 9 10 10 11 11 12 12
REMARK H PARENT
REMARK Flexibility Score: inf
ROOT
ATOM      1  C   UNL     1     -31.786 -20.296 -23.439  1.00  0.00     0.006 A 
ATOM      2  C   UNL     1     -30.775 -21.281 -23.266  1.00  0.00     0.006 A 
ATOM      3  C   UNL     1     -31.882 -19.622 -24.670  1.00  0.00     0.010 A 
ATOM      4  C   UNL     1     -29.939 -21.601 -24.352  1.00  0.00     0.010 A 
ATOM      5  C   UNL     1     -31.027 -19.940 -25.726  1.00  0.00     0.001 A 
ATOM      6  C   UNL     1     -30.066 -20.935 -25.572  1.00  0.00     0.001 A 
ENDROOT
BRANCH   1   7
ATOM      7  C   UNL     1     -32.797 -19.999 -22.397  1.00  0.00     0.072 C 
ATOM      8  O   UNL     1     -33.994 -20.356 -22.555  1.00  0.00    -0.545 OA
ATOM      9  O   UNL     1     -32.427 -19.384 -21.207  1.00  0.00    -0.545 OA
ENDBRANCH   1   7
BRANCH   2  10
ATOM     10  C   UNL     1     -30.513 -21.938 -21.964  1.00  0.00     0.072 C 
ATOM     11  O   UNL     1     -30.938 -23.104 -21.745  1.00  0.00    -0.545 OA
ATOM     12  O   UNL     1     -29.743 -21.306 -20.994  1.00  0.00    -0.545 OA
ENDBRANCH   2  10
TORSDOF 2
ENDMDL
MODEL 6
REMARK VINA RESULT:    -3.638      2.535      3.664
REMARK INTER + INTRA:          -4.027
REMARK INTER:                  -3.902
REMARK INTRA:                  -0.125
REMARK UNBOUND:                 0.036
REMARK SMILES O=C([O-])c1ccccc1C(=O)[O-]
REMARK SMILES IDX 4 1 9 2 5 3 8 4 6 5 7 6 2 7 1 8 3 9 10 10 11 11 12 12
REMARK H PARENT
REMARK Flexibility Score: inf
ROOT
ATOM      1  C   UNL     1     -30.788 -21.270 -23.120  1.00  0.00     0.006 A 
ATOM      2  C   UNL     1     -31.790 -20.297 -23.388  1.00  0.00     0.006 A 
ATOM      3  C   UNL     1     -29.906 -21.647 -24.149  1.00  0.00     0.010 A 
ATOM      4  C   UNL     1     -31.832 -19.690 -24.657  1.00  0.00     0.010 A 
ATOM      5  C   UNL     1     -29.980 -21.047 -25.407  1.00  0.00     0.001 A 
ATOM      6  C   UNL     1     -30.933 -20.062 -25.657  1.00  0.00     0.001 A 
ENDROOT
BRANCH   1   7
ATOM      7  C   UNL     1     -30.583 -21.855 -21.774  1.00  0.00     0.072 C 
ATOM      8  O   UNL     1     -31.015 -23.009 -21.512  1.00  0.00    -0.545 OA
ATOM      9  O   UNL     1     -29.858 -21.171 -20.806  1.00  0.00    -0.545 OA
ENDBRANCH   1   7
BRANCH   2  10
ATOM     10  C   UNL     1     -32.844 -19.946 -22.408  1.00  0.00     0.072 C 
ATOM     11  O   UNL     1     -34.031 -20.328 -22.589  1.00  0.00    -0.545 OA
ATOM     12  O   UNL     1     -32.529 -19.248 -21.247  1.00  0.00    -0.545 OA
ENDBRANCH   2  10
TORSDOF 2
ENDMDL
MODEL 7
REMARK VINA RESULT:    -3.187      1.921      3.572
REMARK INTER + INTRA:          -3.524
REMARK INTER:                  -3.821
REMARK INTRA:                   0.296
REMARK UNBOUND:                 0.036
REMARK SMILES O=C([O-])c1ccccc1C(=O)[O-]
REMARK SMILES IDX 4 1 9 2 5 3 8 4 6 5 7 6 2 7 1 8 3 9 10 10 11 11 12 12
REMARK H PARENT
REMARK Flexibility Score: inf
ROOT
ATOM      1  C   UNL     1     -30.566 -21.168 -22.539  1.00  0.00     0.006 A 
ATOM      2  C   UNL     1     -31.315 -20.817 -23.696  1.00  0.00     0.006 A 
ATOM      3  C   UNL     1     -31.027 -20.757 -21.275  1.00  0.00     0.010 A 
ATOM      4  C   UNL     1     -32.531 -20.124 -23.541  1.00  0.00     0.010 A 
ATOM      5  C   UNL     1     -32.225 -20.052 -21.146  1.00  0.00     0.001 A 
ATOM      6  C   UNL     1     -32.980 -19.746 -22.275  1.00  0.00     0.001 A 
ENDROOT
BRANCH   1   7
ATOM      7  C   UNL     1     -29.352 -22.015 -22.601  1.00  0.00     0.072 C 
ATOM      8  O   UNL     1     -29.324 -23.125 -22.007  1.00  0.00    -0.545 OA
ATOM      9  O   UNL     1     -28.258 -21.630 -23.365  1.00  0.00    -0.545 OA
ENDBRANCH   1   7
BRANCH   2  10
ATOM     10  C   UNL     1     -30.833 -21.085 -25.071  1.00  0.00     0.072 C 
ATOM     11  O   UNL     1     -29.824 -20.478 -25.520  1.00  0.00    -0.545 OA
ATOM     12  O   UNL     1     -31.444 -22.054 -25.860  1.00  0.00    -0.545 OA
ENDBRANCH   2  10
TORSDOF 2
ENDMDL
MODEL 8
REMARK VINA RESULT:    -3.130      1.916      2.967
REMARK INTER + INTRA:          -3.460
REMARK INTER:                  -3.692
REMARK INTRA:                   0.232
REMARK UNBOUND:                 0.036
REMARK SMILES O=C([O-])c1ccccc1C(=O)[O-]
REMARK SMILES IDX 4 1 9 2 5 3 8 4 6 5 7 6 2 7 1 8 3 9 10 10 11 11 12 12
REMARK H PARENT
REMARK Flexibility Score: inf
ROOT
ATOM      1  C   UNL     1     -31.299 -20.768 -23.679  1.00  0.00     0.006 A 
ATOM      2  C   UNL     1     -30.574 -21.170 -22.524  1.00  0.00     0.006 A 
ATOM      3  C   UNL     1     -32.501 -20.055 -23.520  1.00  0.00     0.010 A 
ATOM      4  C   UNL     1     -31.045 -20.787 -21.253  1.00  0.00     0.010 A 
ATOM      5  C   UNL     1     -32.961 -19.705 -22.250  1.00  0.00     0.001 A 
ATOM      6  C   UNL     1     -32.229 -20.060 -21.120  1.00  0.00     0.001 A 
ENDROOT
BRANCH   1   7
ATOM      7  C   UNL     1     -30.803 -21.006 -25.055  1.00  0.00     0.072 C 
ATOM      8  O   UNL     1     -29.873 -20.298 -25.524  1.00  0.00    -0.545 OA
ATOM      9  O   UNL     1     -31.307 -22.051 -25.819  1.00  0.00    -0.545 OA
ENDBRANCH   1   7
BRANCH   2  10
ATOM     10  C   UNL     1     -29.378 -22.041 -22.593  1.00  0.00     0.072 C 
ATOM     11  O   UNL     1     -29.345 -23.125 -21.952  1.00  0.00    -0.545 OA
ATOM     12  O   UNL     1     -28.307 -21.709 -23.415  1.00  0.00    -0.545 OA
ENDBRANCH   2  10
TORSDOF 2
ENDMDL
MODEL 9
REMARK VINA RESULT:    -2.755      1.648      3.207
REMARK INTER + INTRA:          -3.041
REMARK INTER:                  -3.408
REMARK INTRA:                   0.367
REMARK UNBOUND:                 0.036
REMARK SMILES O=C([O-])c1ccccc1C(=O)[O-]
REMARK SMILES IDX 4 1 9 2 5 3 8 4 6 5 7 6 2 7 1 8 3 9 10 10 11 11 12 12
REMARK H PARENT
REMARK Flexibility Score: inf
ROOT
ATOM      1  C   UNL     1     -31.021 -21.214 -22.995  1.00  0.00     0.006 A 
ATOM      2  C   UNL     1     -29.676 -21.470 -23.380  1.00  0.00     0.006 A 
ATOM      3  C   UNL     1     -31.922 -20.706 -23.948  1.00  0.00     0.010 A 
ATOM      4  C   UNL     1     -29.298 -21.268 -24.721  1.00  0.00     0.010 A 
ATOM      5  C   UNL     1     -31.519 -20.492 -25.267  1.00  0.00     0.001 A 
ATOM      6  C   UNL     1     -30.214 -20.783 -25.655  1.00  0.00     0.001 A 
ENDROOT
BRANCH   1   7
ATOM      7  C   UNL     1     -31.538 -21.532 -21.643  1.00  0.00     0.072 C 
ATOM      8  O   UNL     1     -31.974 -20.614 -20.899  1.00  0.00    -0.545 OA
ATOM      9  O   UNL     1     -31.612 -22.848 -21.203  1.00  0.00    -0.545 OA
ENDBRANCH   1   7
BRANCH   2  10
ATOM     10  C   UNL     1     -28.630 -21.871 -22.411  1.00  0.00     0.072 C 
ATOM     11  O   UNL     1     -28.713 -21.516 -21.204  1.00  0.00    -0.545 OA
ATOM     12  O   UNL     1     -27.582 -22.697 -22.801  1.00  0.00    -0.545 OA
ENDBRANCH   2  10
TORSDOF 2
ENDMDL
