MODEL 1
REMARK VINA RESULT:    -6.426      0.000      0.000
REMARK INTER + INTRA:          -8.028
REMARK INTER:                  -7.740
REMARK INTRA:                  -0.288
REMARK UNBOUND:                -0.288
REMARK SMILES O=c1c(O)c(-c2ccc(O)c(O)c2)oc2cc(O)cc(O)c12
REMARK SMILES IDX 5 1 3 2 2 3 1 4 22 5 20 6 19 7 17 8 16 9 15 10 14 11 6 12
REMARK SMILES IDX 7 13 8 14 9 15 13 16 11 17 10 18 12 20 4 22 21 24 18 26
REMARK H PARENT 10 19 12 21 4 23 21 25 18 27
REMARK Flexibility Score: inf
ROOT
ATOM      1  C   UNL     1      27.686  10.583  66.561  1.00  0.00     0.180 A 
ATOM      2  C   UNL     1      28.668  11.590  66.559  1.00  0.00     0.208 A 
ATOM      3  C   UNL     1      28.957  12.255  65.357  1.00  0.00     0.238 A 
ATOM      4  O   UNL     1      29.876  13.117  65.350  1.00  0.00    -0.285 OA
ATOM      5  C   UNL     1      28.251  11.919  64.178  1.00  0.00     0.111 A 
ATOM      6  C   UNL     1      28.434  12.556  62.914  1.00  0.00     0.134 A 
ATOM      7  C   UNL     1      27.775  12.054  61.785  1.00  0.00     0.093 A 
ATOM      8  C   UNL     1      26.889  10.978  61.888  1.00  0.00     0.123 A 
ATOM      9  C   UNL     1      26.658  10.388  63.128  1.00  0.00     0.094 A 
ATOM     10  C   UNL     1      27.329  10.843  64.266  1.00  0.00     0.146 A 
ATOM     11  O   UNL     1      27.088  10.245  65.426  1.00  0.00    -0.452 OA
ENDROOT
BRANCH   1  12
ATOM     12  C   UNL     1      27.309   9.854  67.795  1.00  0.00     0.025 A 
ATOM     13  C   UNL     1      27.826   8.580  68.078  1.00  0.00     0.016 A 
ATOM     14  C   UNL     1      27.475   7.922  69.258  1.00  0.00     0.051 A 
ATOM     15  C   UNL     1      26.617   8.525  70.184  1.00  0.00     0.157 A 
ATOM     16  C   UNL     1      26.467  10.471  68.731  1.00  0.00     0.062 A 
ATOM     17  C   UNL     1      26.109   9.819  69.919  1.00  0.00     0.158 A 
BRANCH  15  18
ATOM     18  O   UNL     1      26.302   7.813  71.342  1.00  0.00    -0.504 OA
ATOM     19  H   UNL     1      25.639   7.052  71.376  1.00  0.00     0.293 HD
ENDBRANCH  15  18
BRANCH  17  20
ATOM     20  O   UNL     1      25.255  10.489  70.798  1.00  0.00    -0.504 OA
ATOM     21  H   UNL     1      25.569  11.138  71.506  1.00  0.00     0.293 HD
ENDBRANCH  17  20
ENDBRANCH   1  12
BRANCH   2  22
ATOM     22  O   UNL     1      29.369  11.891  67.731  1.00  0.00    -0.502 OA
ATOM     23  H   UNL     1      30.174  11.357  68.035  1.00  0.00     0.293 HD
ENDBRANCH   2  22
BRANCH   6  24
ATOM     24  O   UNL     1      29.224  13.693  62.720  1.00  0.00    -0.507 OA
ATOM     25  H   UNL     1      30.231  13.709  62.776  1.00  0.00     0.293 HD
ENDBRANCH   6  24
BRANCH   8  26
ATOM     26  O   UNL     1      26.225  10.494  60.762  1.00  0.00    -0.508 OA
ATOM     27  H   UNL     1      26.204   9.505  60.545  1.00  0.00     0.293 HD
ENDBRANCH   8  26
TORSDOF 6
ENDMDL
MODEL 2
REMARK VINA RESULT:    -6.389      4.272      6.156
REMARK INTER + INTRA:          -7.984
REMARK INTER:                  -7.774
REMARK INTRA:                  -0.210
REMARK UNBOUND:                -0.288
REMARK SMILES O=c1c(O)c(-c2ccc(O)c(O)c2)oc2cc(O)cc(O)c12
REMARK SMILES IDX 5 1 3 2 2 3 1 4 22 5 20 6 19 7 17 8 16 9 15 10 14 11 6 12
REMARK SMILES IDX 7 13 8 14 9 15 13 16 11 17 10 18 12 20 4 22 21 24 18 26
REMARK H PARENT 10 19 12 21 4 23 21 25 18 27
REMARK Flexibility Score: inf
ROOT
ATOM      1  C   UNL     1      29.355  12.101  61.128  1.00  0.00     0.180 A 
ATOM      2  C   UNL     1      30.234  12.633  60.168  1.00  0.00     0.208 A 
ATOM      3  C   UNL     1      29.818  12.701  58.828  1.00  0.00     0.238 A 
ATOM      4  O   UNL     1      30.630  13.126  57.965  1.00  0.00    -0.285 OA
ATOM      5  C   UNL     1      28.524  12.254  58.468  1.00  0.00     0.111 A 
ATOM      6  C   UNL     1      27.984  12.314  57.149  1.00  0.00     0.134 A 
ATOM      7  C   UNL     1      26.742  11.723  56.883  1.00  0.00     0.093 A 
ATOM      8  C   UNL     1      25.993  11.132  57.904  1.00  0.00     0.123 A 
ATOM      9  C   UNL     1      26.485  11.122  59.207  1.00  0.00     0.094 A 
ATOM     10  C   UNL     1      27.737  11.671  59.496  1.00  0.00     0.146 A 
ATOM     11  O   UNL     1      28.173  11.630  60.749  1.00  0.00    -0.452 OA
ENDROOT
BRANCH   1  12
ATOM     12  C   UNL     1      29.713  12.019  62.563  1.00  0.00     0.025 A 
ATOM     13  C   UNL     1      30.699  11.131  63.021  1.00  0.00     0.016 A 
ATOM     14  C   UNL     1      31.037  11.088  64.375  1.00  0.00     0.051 A 
ATOM     15  C   UNL     1      30.411  11.937  65.294  1.00  0.00     0.157 A 
ATOM     16  C   UNL     1      29.100  12.887  63.479  1.00  0.00     0.062 A 
ATOM     17  C   UNL     1      29.432  12.853  64.839  1.00  0.00     0.158 A 
BRANCH  15  18
ATOM     18  O   UNL     1      30.791  11.842  66.634  1.00  0.00    -0.504 OA
ATOM     19  H   UNL     1      31.492  11.201  66.978  1.00  0.00     0.293 HD
ENDBRANCH  15  18
BRANCH  17  20
ATOM     20  O   UNL     1      28.771  13.737  65.695  1.00  0.00    -0.504 OA
ATOM     21  H   UNL     1      29.236  14.450  66.238  1.00  0.00     0.293 HD
ENDBRANCH  17  20
ENDBRANCH   1  12
BRANCH   2  22
ATOM     22  O   UNL     1      31.515  13.048  60.541  1.00  0.00    -0.502 OA
ATOM     23  H   UNL     1      32.288  12.402  60.644  1.00  0.00     0.293 HD
ENDBRANCH   2  22
BRANCH   6  24
ATOM     24  O   UNL     1      28.608  12.960  56.079  1.00  0.00    -0.507 OA
ATOM     25  H   UNL     1      28.915  13.921  56.088  1.00  0.00     0.293 HD
ENDBRANCH   6  24
BRANCH   8  26
ATOM     26  O   UNL     1      24.751  10.560  57.635  1.00  0.00    -0.508 OA
ATOM     27  H   UNL     1      24.660   9.578  57.402  1.00  0.00     0.293 HD
ENDBRANCH   8  26
TORSDOF 6
ENDMDL
MODEL 3
REMARK VINA RESULT:    -6.169      4.397      8.754
REMARK INTER + INTRA:          -7.719
REMARK INTER:                  -7.552
REMARK INTRA:                  -0.167
REMARK UNBOUND:                -0.288
REMARK SMILES O=c1c(O)c(-c2ccc(O)c(O)c2)oc2cc(O)cc(O)c12
REMARK SMILES IDX 5 1 3 2 2 3 1 4 22 5 20 6 19 7 17 8 16 9 15 10 14 11 6 12
REMARK SMILES IDX 7 13 8 14 9 15 13 16 11 17 10 18 12 20 4 22 21 24 18 26
REMARK H PARENT 10 19 12 21 4 23 21 25 18 27
REMARK Flexibility Score: inf
ROOT
ATOM      1  C   UNL     1      29.258  11.631  60.400  1.00  0.00     0.180 A 
ATOM      2  C   UNL     1      30.496  10.969  60.457  1.00  0.00     0.208 A 
ATOM      3  C   UNL     1      31.184  10.917  61.680  1.00  0.00     0.238 A 
ATOM      4  O   UNL     1      32.319  10.370  61.713  1.00  0.00    -0.285 OA
ATOM      5  C   UNL     1      30.619  11.512  62.833  1.00  0.00     0.111 A 
ATOM      6  C   UNL     1      31.208  11.485  64.132  1.00  0.00     0.134 A 
ATOM      7  C   UNL     1      30.624  12.219  65.172  1.00  0.00     0.093 A 
ATOM      8  C   UNL     1      29.436  12.926  64.974  1.00  0.00     0.123 A 
ATOM      9  C   UNL     1      28.820  12.910  63.725  1.00  0.00     0.094 A 
ATOM     10  C   UNL     1      29.399  12.216  62.659  1.00  0.00     0.146 A 
ATOM     11  O   UNL     1      28.784  12.237  61.482  1.00  0.00    -0.452 OA
ENDROOT
BRANCH   1  12
ATOM     12  C   UNL     1      28.463  11.707  59.152  1.00  0.00     0.025 A 
ATOM     13  C   UNL     1      27.204  11.096  59.049  1.00  0.00     0.016 A 
ATOM     14  C   UNL     1      26.462  11.200  57.871  1.00  0.00     0.051 A 
ATOM     15  C   UNL     1      26.952  11.927  56.781  1.00  0.00     0.157 A 
ATOM     16  C   UNL     1      28.948  12.454  58.068  1.00  0.00     0.062 A 
ATOM     17  C   UNL     1      28.211  12.566  56.882  1.00  0.00     0.158 A 
BRANCH  15  18
ATOM     18  O   UNL     1      26.163  11.990  55.631  1.00  0.00    -0.504 OA
ATOM     19  H   UNL     1      26.408  12.519  54.806  1.00  0.00     0.293 HD
ENDBRANCH  15  18
BRANCH  17  20
ATOM     20  O   UNL     1      28.762  13.315  55.840  1.00  0.00    -0.504 OA
ATOM     21  H   UNL     1      28.887  14.317  55.869  1.00  0.00     0.293 HD
ENDBRANCH  17  20
ENDBRANCH   1  12
BRANCH   2  22
ATOM     22  O   UNL     1      31.048  10.406  59.302  1.00  0.00    -0.502 OA
ATOM     23  H   UNL     1      30.496  10.211  58.476  1.00  0.00     0.293 HD
ENDBRANCH   2  22
BRANCH   6  24
ATOM     24  O   UNL     1      32.343  10.736  64.458  1.00  0.00    -0.507 OA
ATOM     25  H   UNL     1      32.347   9.741  64.624  1.00  0.00     0.293 HD
ENDBRANCH   6  24
BRANCH   8  26
ATOM     26  O   UNL     1      28.852  13.641  66.018  1.00  0.00    -0.508 OA
ATOM     27  H   UNL     1      28.691  13.218  66.925  1.00  0.00     0.293 HD
ENDBRANCH   8  26
TORSDOF 6
ENDMDL
MODEL 4
REMARK VINA RESULT:    -6.078      2.622      7.714
REMARK INTER + INTRA:          -7.610
REMARK INTER:                  -7.426
REMARK INTRA:                  -0.184
REMARK UNBOUND:                -0.288
REMARK SMILES O=c1c(O)c(-c2ccc(O)c(O)c2)oc2cc(O)cc(O)c12
REMARK SMILES IDX 5 1 3 2 2 3 1 4 22 5 20 6 19 7 17 8 16 9 15 10 14 11 6 12
REMARK SMILES IDX 7 13 8 14 9 15 13 16 11 17 10 18 12 20 4 22 21 24 18 26
REMARK H PARENT 10 19 12 21 4 23 21 25 18 27
REMARK Flexibility Score: inf
ROOT
ATOM      1  C   UNL     1      28.242  11.759  61.962  1.00  0.00     0.180 A 
ATOM      2  C   UNL     1      28.503  12.820  62.846  1.00  0.00     0.208 A 
ATOM      3  C   UNL     1      28.595  12.553  64.222  1.00  0.00     0.238 A 
ATOM      4  O   UNL     1      28.774  13.515  65.014  1.00  0.00    -0.285 OA
ATOM      5  C   UNL     1      28.442  11.227  64.694  1.00  0.00     0.111 A 
ATOM      6  C   UNL     1      28.557  10.835  66.061  1.00  0.00     0.134 A 
ATOM      7  C   UNL     1      28.257   9.518  66.430  1.00  0.00     0.093 A 
ATOM      8  C   UNL     1      27.912   8.563  65.471  1.00  0.00     0.123 A 
ATOM      9  C   UNL     1      27.857   8.921  64.125  1.00  0.00     0.094 A 
ATOM     10  C   UNL     1      28.114  10.237  63.732  1.00  0.00     0.146 A 
ATOM     11  O   UNL     1      28.039  10.538  62.441  1.00  0.00    -0.452 OA
ENDROOT
BRANCH   1  12
ATOM     12  C   UNL     1      28.155  11.959  60.497  1.00  0.00     0.025 A 
ATOM     13  C   UNL     1      29.264  12.387  59.750  1.00  0.00     0.016 A 
ATOM     14  C   UNL     1      29.165  12.545  58.366  1.00  0.00     0.051 A 
ATOM     15  C   UNL     1      27.967  12.267  57.700  1.00  0.00     0.157 A 
ATOM     16  C   UNL     1      26.959  11.658  59.828  1.00  0.00     0.062 A 
ATOM     17  C   UNL     1      26.850  11.813  58.441  1.00  0.00     0.158 A 
BRANCH  15  18
ATOM     18  O   UNL     1      27.932  12.449  56.316  1.00  0.00    -0.504 OA
ATOM     19  H   UNL     1      28.360  11.819  55.652  1.00  0.00     0.293 HD
ENDBRANCH  15  18
BRANCH  17  20
ATOM     20  O   UNL     1      25.624  11.506  57.845  1.00  0.00    -0.504 OA
ATOM     21  H   UNL     1      25.508  10.822  57.111  1.00  0.00     0.293 HD
ENDBRANCH  17  20
ENDBRANCH   1  12
BRANCH   2  22
ATOM     22  O   UNL     1      28.628  14.125  62.361  1.00  0.00    -0.502 OA
ATOM     23  H   UNL     1      28.867  14.907  62.960  1.00  0.00     0.293 HD
ENDBRANCH   2  22
BRANCH   6  24
ATOM     24  O   UNL     1      28.983  11.687  67.084  1.00  0.00    -0.507 OA
ATOM     25  H   UNL     1      29.943  11.804  67.371  1.00  0.00     0.293 HD
ENDBRANCH   6  24
BRANCH   8  26
ATOM     26  O   UNL     1      27.631   7.249  65.843  1.00  0.00    -0.508 OA
ATOM     27  H   UNL     1      26.680   6.934  65.990  1.00  0.00     0.293 HD
ENDBRANCH   8  26
TORSDOF 6
ENDMDL
MODEL 5
REMARK VINA RESULT:    -5.844      4.814      6.985
REMARK INTER + INTRA:          -7.327
REMARK INTER:                  -7.041
REMARK INTRA:                  -0.287
REMARK UNBOUND:                -0.288
REMARK SMILES O=c1c(O)c(-c2ccc(O)c(O)c2)oc2cc(O)cc(O)c12
REMARK SMILES IDX 5 1 3 2 2 3 1 4 22 5 20 6 19 7 17 8 16 9 15 10 14 11 6 12
REMARK SMILES IDX 7 13 8 14 9 15 13 16 11 17 10 18 12 20 4 22 21 24 18 26
REMARK H PARENT 10 19 12 21 4 23 21 25 18 27
REMARK Flexibility Score: inf
ROOT
ATOM      1  C   UNL     1      28.448  11.516  60.247  1.00  0.00     0.180 A 
ATOM      2  C   UNL     1      28.814  12.241  59.099  1.00  0.00     0.208 A 
ATOM      3  C   UNL     1      28.029  12.121  57.940  1.00  0.00     0.238 A 
ATOM      4  O   UNL     1      28.393  12.729  56.899  1.00  0.00    -0.285 OA
ATOM      5  C   UNL     1      26.882  11.293  57.949  1.00  0.00     0.111 A 
ATOM      6  C   UNL     1      25.992  11.129  56.845  1.00  0.00     0.134 A 
ATOM      7  C   UNL     1      24.962  10.184  56.922  1.00  0.00     0.093 A 
ATOM      8  C   UNL     1      24.750   9.443  58.088  1.00  0.00     0.123 A 
ATOM      9  C   UNL     1      25.576   9.639  59.192  1.00  0.00     0.094 A 
ATOM     10  C   UNL     1      26.635  10.549  59.132  1.00  0.00     0.146 A 
ATOM     11  O   UNL     1      27.405  10.697  60.204  1.00  0.00    -0.452 OA
ENDROOT
BRANCH   1  12
ATOM     12  C   UNL     1      29.212  11.609  61.513  1.00  0.00     0.025 A 
ATOM     13  C   UNL     1      30.416  10.910  61.694  1.00  0.00     0.016 A 
ATOM     14  C   UNL     1      31.131  11.033  62.887  1.00  0.00     0.051 A 
ATOM     15  C   UNL     1      30.669  11.863  63.914  1.00  0.00     0.157 A 
ATOM     16  C   UNL     1      28.758  12.459  62.532  1.00  0.00     0.062 A 
ATOM     17  C   UNL     1      29.468  12.590  63.732  1.00  0.00     0.158 A 
BRANCH  15  18
ATOM     18  O   UNL     1      31.428  11.939  65.083  1.00  0.00    -0.504 OA
ATOM     19  H   UNL     1      31.315  12.656  65.785  1.00  0.00     0.293 HD
ENDBRANCH  15  18
BRANCH  17  20
ATOM     20  O   UNL     1      28.949  13.444  64.708  1.00  0.00    -0.504 OA
ATOM     21  H   UNL     1      29.373  13.593  65.612  1.00  0.00     0.293 HD
ENDBRANCH  17  20
ENDBRANCH   1  12
BRANCH   2  22
ATOM     22  O   UNL     1      29.963  13.036  59.106  1.00  0.00    -0.502 OA
ATOM     23  H   UNL     1      30.156  13.718  58.383  1.00  0.00     0.293 HD
ENDBRANCH   2  22
BRANCH   6  24
ATOM     24  O   UNL     1      26.059  11.883  55.670  1.00  0.00    -0.507 OA
ATOM     25  H   UNL     1      25.816  12.859  55.599  1.00  0.00     0.293 HD
ENDBRANCH   6  24
BRANCH   8  26
ATOM     26  O   UNL     1      23.713   8.516  58.162  1.00  0.00    -0.508 OA
ATOM     27  H   UNL     1      23.812   7.580  57.786  1.00  0.00     0.293 HD
ENDBRANCH   8  26
TORSDOF 6
ENDMDL
MODEL 6
REMARK VINA RESULT:    -5.746      9.834     11.706
REMARK INTER + INTRA:          -7.210
REMARK INTER:                  -6.922
REMARK INTRA:                  -0.288
REMARK UNBOUND:                -0.288
REMARK SMILES O=c1c(O)c(-c2ccc(O)c(O)c2)oc2cc(O)cc(O)c12
REMARK SMILES IDX 5 1 3 2 2 3 1 4 22 5 20 6 19 7 17 8 16 9 15 10 14 11 6 12
REMARK SMILES IDX 7 13 8 14 9 15 13 16 11 17 10 18 12 20 4 22 21 24 18 26
REMARK H PARENT 10 19 12 21 4 23 21 25 18 27
REMARK Flexibility Score: inf
ROOT
ATOM      1  C   UNL     1      23.282   7.023  57.129  1.00  0.00     0.180 A 
ATOM      2  C   UNL     1      24.477   7.437  57.742  1.00  0.00     0.208 A 
ATOM      3  C   UNL     1      25.691   6.875  57.315  1.00  0.00     0.238 A 
ATOM      4  O   UNL     1      26.752   7.208  57.906  1.00  0.00    -0.285 OA
ATOM      5  C   UNL     1      25.697   5.920  56.270  1.00  0.00     0.111 A 
ATOM      6  C   UNL     1      26.872   5.317  55.730  1.00  0.00     0.134 A 
ATOM      7  C   UNL     1      26.750   4.289  54.787  1.00  0.00     0.093 A 
ATOM      8  C   UNL     1      25.497   3.889  54.317  1.00  0.00     0.123 A 
ATOM      9  C   UNL     1      24.346   4.514  54.793  1.00  0.00     0.094 A 
ATOM     10  C   UNL     1      24.435   5.517  55.762  1.00  0.00     0.146 A 
ATOM     11  O   UNL     1      23.313   6.078  56.196  1.00  0.00    -0.452 OA
ENDROOT
BRANCH   1  12
ATOM     12  C   UNL     1      21.966   7.587  57.508  1.00  0.00     0.025 A 
ATOM     13  C   UNL     1      21.289   7.155  58.660  1.00  0.00     0.016 A 
ATOM     14  C   UNL     1      20.061   7.719  59.011  1.00  0.00     0.051 A 
ATOM     15  C   UNL     1      19.491   8.731  58.231  1.00  0.00     0.157 A 
ATOM     16  C   UNL     1      21.407   8.617  56.737  1.00  0.00     0.062 A 
ATOM     17  C   UNL     1      20.176   9.190  57.080  1.00  0.00     0.158 A 
BRANCH  15  18
ATOM     18  O   UNL     1      18.260   9.250  58.634  1.00  0.00    -0.504 OA
ATOM     19  H   UNL     1      18.152   9.975  59.329  1.00  0.00     0.293 HD
ENDBRANCH  15  18
BRANCH  17  20
ATOM     20  O   UNL     1      19.675  10.202  56.258  1.00  0.00    -0.504 OA
ATOM     21  H   UNL     1      18.741  10.208  55.876  1.00  0.00     0.293 HD
ENDBRANCH  17  20
ENDBRANCH   1  12
BRANCH   2  22
ATOM     22  O   UNL     1      24.446   8.364  58.788  1.00  0.00    -0.502 OA
ATOM     23  H   UNL     1      23.779   8.305  59.547  1.00  0.00     0.293 HD
ENDBRANCH   2  22
BRANCH   6  24
ATOM     24  O   UNL     1      28.172   5.706  56.063  1.00  0.00    -0.507 OA
ATOM     25  H   UNL     1      28.899   5.912  55.395  1.00  0.00     0.293 HD
ENDBRANCH   6  24
BRANCH   8  26
ATOM     26  O   UNL     1      25.384   2.876  53.366  1.00  0.00    -0.508 OA
ATOM     27  H   UNL     1      25.446   1.898  53.625  1.00  0.00     0.293 HD
ENDBRANCH   8  26
TORSDOF 6
ENDMDL
MODEL 7
REMARK VINA RESULT:    -5.720      1.442      7.074
REMARK INTER + INTRA:          -7.179
REMARK INTER:                  -6.882
REMARK INTRA:                  -0.297
REMARK UNBOUND:                -0.288
REMARK SMILES O=c1c(O)c(-c2ccc(O)c(O)c2)oc2cc(O)cc(O)c12
REMARK SMILES IDX 5 1 3 2 2 3 1 4 22 5 20 6 19 7 17 8 16 9 15 10 14 11 6 12
REMARK SMILES IDX 7 13 8 14 9 15 13 16 11 17 10 18 12 20 4 22 21 24 18 26
REMARK H PARENT 10 19 12 21 4 23 21 25 18 27
REMARK Flexibility Score: inf
ROOT
ATOM      1  C   UNL     1      27.889  10.352  65.982  1.00  0.00     0.180 A 
ATOM      2  C   UNL     1      28.453   9.066  66.049  1.00  0.00     0.208 A 
ATOM      3  C   UNL     1      28.230   8.284  67.194  1.00  0.00     0.238 A 
ATOM      4  O   UNL     1      28.783   7.155  67.272  1.00  0.00    -0.285 OA
ATOM      5  C   UNL     1      27.434   8.789  68.249  1.00  0.00     0.111 A 
ATOM      6  C   UNL     1      27.109   8.068  69.437  1.00  0.00     0.134 A 
ATOM      7  C   UNL     1      26.422   8.715  70.471  1.00  0.00     0.093 A 
ATOM      8  C   UNL     1      25.991  10.037  70.333  1.00  0.00     0.123 A 
ATOM      9  C   UNL     1      26.250  10.730  69.153  1.00  0.00     0.094 A 
ATOM     10  C   UNL     1      26.966  10.123  68.118  1.00  0.00     0.146 A 
ATOM     11  O   UNL     1      27.201  10.824  67.015  1.00  0.00    -0.452 OA
ENDROOT
BRANCH   1  12
ATOM     12  C   UNL     1      28.059  11.225  64.798  1.00  0.00     0.025 A 
ATOM     13  C   UNL     1      29.044  12.225  64.763  1.00  0.00     0.016 A 
ATOM     14  C   UNL     1      29.202  13.021  63.626  1.00  0.00     0.051 A 
ATOM     15  C   UNL     1      28.394  12.827  62.501  1.00  0.00     0.157 A 
ATOM     16  C   UNL     1      27.263  11.014  63.663  1.00  0.00     0.062 A 
ATOM     17  C   UNL     1      27.414  11.806  62.518  1.00  0.00     0.158 A 
BRANCH  15  18
ATOM     18  O   UNL     1      28.601  13.658  61.399  1.00  0.00    -0.504 OA
ATOM     19  H   UNL     1      29.505  14.010  61.118  1.00  0.00     0.293 HD
ENDBRANCH  15  18
BRANCH  17  20
ATOM     20  O   UNL     1      26.577  11.547  61.430  1.00  0.00    -0.504 OA
ATOM     21  H   UNL     1      26.908  11.332  60.501  1.00  0.00     0.293 HD
ENDBRANCH  17  20
ENDBRANCH   1  12
BRANCH   2  22
ATOM     22  O   UNL     1      29.255   8.594  65.005  1.00  0.00    -0.502 OA
ATOM     23  H   UNL     1      28.971   7.830  64.404  1.00  0.00     0.293 HD
ENDBRANCH   2  22
BRANCH   6  24
ATOM     24  O   UNL     1      27.411   6.719  69.638  1.00  0.00    -0.507 OA
ATOM     25  H   UNL     1      26.803   6.055  70.092  1.00  0.00     0.293 HD
ENDBRANCH   6  24
BRANCH   8  26
ATOM     26  O   UNL     1      25.293  10.669  71.361  1.00  0.00    -0.508 OA
ATOM     27  H   UNL     1      25.543  10.529  72.333  1.00  0.00     0.293 HD
ENDBRANCH   8  26
TORSDOF 6
ENDMDL
MODEL 8
REMARK VINA RESULT:    -5.670      4.348      8.604
REMARK INTER + INTRA:          -7.118
REMARK INTER:                  -6.799
REMARK INTRA:                  -0.319
REMARK UNBOUND:                -0.288
REMARK SMILES O=c1c(O)c(-c2ccc(O)c(O)c2)oc2cc(O)cc(O)c12
REMARK SMILES IDX 5 1 3 2 2 3 1 4 22 5 20 6 19 7 17 8 16 9 15 10 14 11 6 12
REMARK SMILES IDX 7 13 8 14 9 15 13 16 11 17 10 18 12 20 4 22 21 24 18 26
REMARK H PARENT 10 19 12 21 4 23 21 25 18 27
REMARK Flexibility Score: inf
ROOT
ATOM      1  C   UNL     1      26.147   9.506  59.910  1.00  0.00     0.180 A 
ATOM      2  C   UNL     1      26.302   8.787  61.108  1.00  0.00     0.208 A 
ATOM      3  C   UNL     1      26.795   9.453  62.242  1.00  0.00     0.238 A 
ATOM      4  O   UNL     1      26.984   8.791  63.297  1.00  0.00    -0.285 OA
ATOM      5  C   UNL     1      27.110  10.830  62.169  1.00  0.00     0.111 A 
ATOM      6  C   UNL     1      27.577  11.615  63.266  1.00  0.00     0.134 A 
ATOM      7  C   UNL     1      27.981  12.937  63.047  1.00  0.00     0.093 A 
ATOM      8  C   UNL     1      27.873  13.524  61.784  1.00  0.00     0.123 A 
ATOM      9  C   UNL     1      27.361  12.785  60.719  1.00  0.00     0.094 A 
ATOM     10  C   UNL     1      26.984  11.451  60.899  1.00  0.00     0.146 A 
ATOM     11  O   UNL     1      26.512  10.780  59.855  1.00  0.00    -0.452 OA
ENDROOT
BRANCH   1  12
ATOM     12  C   UNL     1      25.610   8.878  58.680  1.00  0.00     0.025 A 
ATOM     13  C   UNL     1      26.446   8.191  57.785  1.00  0.00     0.016 A 
ATOM     14  C   UNL     1      25.914   7.587  56.644  1.00  0.00     0.051 A 
ATOM     15  C   UNL     1      24.542   7.643  56.381  1.00  0.00     0.157 A 
ATOM     16  C   UNL     1      24.231   8.917  58.430  1.00  0.00     0.062 A 
ATOM     17  C   UNL     1      23.687   8.314  57.288  1.00  0.00     0.158 A 
BRANCH  15  18
ATOM     18  O   UNL     1      24.074   7.022  55.221  1.00  0.00    -0.504 OA
ATOM     19  H   UNL     1      24.673   6.634  54.507  1.00  0.00     0.293 HD
ENDBRANCH  15  18
BRANCH  17  20
ATOM     20  O   UNL     1      22.306   8.404  57.098  1.00  0.00    -0.504 OA
ATOM     21  H   UNL     1      21.770   9.246  57.243  1.00  0.00     0.293 HD
ENDBRANCH  17  20
ENDBRANCH   1  12
BRANCH   2  22
ATOM     22  O   UNL     1      26.006   7.421  61.153  1.00  0.00    -0.502 OA
ATOM     23  H   UNL     1      25.268   7.044  61.735  1.00  0.00     0.293 HD
ENDBRANCH   2  22
BRANCH   6  24
ATOM     24  O   UNL     1      27.637  11.154  64.584  1.00  0.00    -0.507 OA
ATOM     25  H   UNL     1      27.196  10.311  64.919  1.00  0.00     0.293 HD
ENDBRANCH   6  24
BRANCH   8  26
ATOM     26  O   UNL     1      28.262  14.846  61.577  1.00  0.00    -0.508 OA
ATOM     27  H   UNL     1      28.572  15.170  60.669  1.00  0.00     0.293 HD
ENDBRANCH   8  26
TORSDOF 6
ENDMDL
MODEL 9
REMARK VINA RESULT:    -5.608      1.471      6.763
REMARK INTER + INTRA:          -7.043
REMARK INTER:                  -7.026
REMARK INTRA:                  -0.017
REMARK UNBOUND:                -0.288
REMARK SMILES O=c1c(O)c(-c2ccc(O)c(O)c2)oc2cc(O)cc(O)c12
REMARK SMILES IDX 5 1 3 2 2 3 1 4 22 5 20 6 19 7 17 8 16 9 15 10 14 11 6 12
REMARK SMILES IDX 7 13 8 14 9 15 13 16 11 17 10 18 12 20 4 22 21 24 18 26
REMARK H PARENT 10 19 12 21 4 23 21 25 18 27
REMARK Flexibility Score: inf
ROOT
ATOM      1  C   UNL     1      28.329  11.132  65.644  1.00  0.00     0.180 A 
ATOM      2  C   UNL     1      29.648  11.142  66.128  1.00  0.00     0.208 A 
ATOM      3  C   UNL     1      29.888  10.767  67.460  1.00  0.00     0.238 A 
ATOM      4  O   UNL     1      31.065  10.831  67.903  1.00  0.00    -0.285 OA
ATOM      5  C   UNL     1      28.809  10.369  68.285  1.00  0.00     0.111 A 
ATOM      6  C   UNL     1      28.941   9.930  69.636  1.00  0.00     0.134 A 
ATOM      7  C   UNL     1      27.793   9.686  70.399  1.00  0.00     0.093 A 
ATOM      8  C   UNL     1      26.518   9.801  69.838  1.00  0.00     0.123 A 
ATOM      9  C   UNL     1      26.381  10.171  68.502  1.00  0.00     0.094 A 
ATOM     10  C   UNL     1      27.507  10.457  67.727  1.00  0.00     0.146 A 
ATOM     11  O   UNL     1      27.330  10.817  66.461  1.00  0.00    -0.452 OA
ENDROOT
BRANCH   1  12
ATOM     12  C   UNL     1      28.000  11.491  64.245  1.00  0.00     0.025 A 
ATOM     13  C   UNL     1      27.238  10.639  63.431  1.00  0.00     0.016 A 
ATOM     14  C   UNL     1      26.920  11.011  62.123  1.00  0.00     0.051 A 
ATOM     15  C   UNL     1      27.342  12.241  61.607  1.00  0.00     0.157 A 
ATOM     16  C   UNL     1      28.406  12.735  63.738  1.00  0.00     0.062 A 
ATOM     17  C   UNL     1      28.092  13.117  62.428  1.00  0.00     0.158 A 
BRANCH  15  18
ATOM     18  O   UNL     1      26.995  12.550  60.291  1.00  0.00    -0.504 OA
ATOM     19  H   UNL     1      26.428  11.957  59.702  1.00  0.00     0.293 HD
ENDBRANCH  15  18
BRANCH  17  20
ATOM     20  O   UNL     1      28.540  14.364  61.987  1.00  0.00    -0.504 OA
ATOM     21  H   UNL     1      27.929  15.130  61.743  1.00  0.00     0.293 HD
ENDBRANCH  17  20
ENDBRANCH   1  12
BRANCH   2  22
ATOM     22  O   UNL     1      30.697  11.559  65.303  1.00  0.00    -0.502 OA
ATOM     23  H   UNL     1      31.121  12.475  65.384  1.00  0.00     0.293 HD
ENDBRANCH   2  22
BRANCH   6  24
ATOM     24  O   UNL     1      30.168   9.694  70.263  1.00  0.00    -0.507 OA
ATOM     25  H   UNL     1      30.505  10.193  71.073  1.00  0.00     0.293 HD
ENDBRANCH   6  24
BRANCH   8  26
ATOM     26  O   UNL     1      25.380   9.541  70.599  1.00  0.00    -0.508 OA
ATOM     27  H   UNL     1      24.515  10.045  70.445  1.00  0.00     0.293 HD
ENDBRANCH   8  26
TORSDOF 6
ENDMDL
