MODEL 1
REMARK VINA RESULT:    -5.351      0.000      0.000
REMARK INTER + INTRA:         -11.656
REMARK INTER:                  -9.418
REMARK INTRA:                  -2.238
REMARK UNBOUND:                -2.238
REMARK SMILES CCCCCCC=CCCCCCCCC(=O)[O-]
REMARK SMILES IDX 10 1 11 2 12 3 13 4 14 5 15 6 16 7 17 8 18 9 9 10 8 11 7 12
REMARK SMILES IDX 6 13 5 14 4 15 3 16 2 17 1 18
REMARK H PARENT
REMARK Flexibility Score: inf
ROOT
ATOM      1  C   UNL     1      19.865  20.956   6.366  1.00  0.00     0.004 C 
ENDROOT
BRANCH   1   2
ATOM      2  C   UNL     1      18.882  21.654   5.415  1.00  0.00     0.000 C 
BRANCH   2   3
ATOM      3  C   UNL     1      18.565  23.074   5.898  1.00  0.00     0.000 C 
BRANCH   3   4
ATOM      4  C   UNL     1      17.204  23.127   6.604  1.00  0.00     0.000 C 
BRANCH   4   5
ATOM      5  C   UNL     1      17.048  24.352   7.522  1.00  0.00     0.006 C 
BRANCH   5   6
ATOM      6  C   UNL     1      18.386  24.959   7.984  1.00  0.00     0.053 C 
BRANCH   6   7
ATOM      7  C   UNL     1      18.199  26.111   8.925  1.00  0.00     0.041 C 
ATOM      8  O   UNL     1      19.095  26.989   9.041  1.00  0.00    -0.550 OA
ATOM      9  O   UNL     1      17.018  26.240   9.647  1.00  0.00    -0.550 OA
ENDBRANCH   6   7
ENDBRANCH   5   6
ENDBRANCH   4   5
ENDBRANCH   3   4
ENDBRANCH   2   3
ENDBRANCH   1   2
BRANCH   1  10
ATOM     10  C   UNL     1      21.310  21.417   6.141  1.00  0.00     0.027 C 
BRANCH  10  11
ATOM     11  C   UNL     1      21.817  22.224   7.306  1.00  0.00    -0.031 C 
ATOM     12  C   UNL     1      21.125  22.327   8.451  1.00  0.00    -0.031 C 
BRANCH  12  13
ATOM     13  C   UNL     1      21.662  23.140   9.599  1.00  0.00     0.027 C 
BRANCH  13  14
ATOM     14  C   UNL     1      20.578  23.489  10.631  1.00  0.00     0.004 C 
BRANCH  14  15
ATOM     15  C   UNL     1      19.562  22.362  10.899  1.00  0.00     0.000 C 
BRANCH  15  16
ATOM     16  C   UNL     1      18.092  22.790  10.710  1.00  0.00    -0.000 C 
BRANCH  16  17
ATOM     17  C   UNL     1      17.161  21.585  10.507  1.00  0.00    -0.003 C 
ATOM     18  C   UNL     1      17.699  20.644   9.433  1.00  0.00     0.004 C 
ENDBRANCH  16  17
ENDBRANCH  15  16
ENDBRANCH  14  15
ENDBRANCH  13  14
ENDBRANCH  12  13
ENDBRANCH  10  11
ENDBRANCH   1  10
TORSDOF 13
ENDMDL
MODEL 2
REMARK VINA RESULT:    -5.298      2.362      5.363
REMARK INTER + INTRA:         -11.562
REMARK INTER:                  -9.575
REMARK INTRA:                  -1.986
REMARK UNBOUND:                -2.238
REMARK SMILES CCCCCCC=CCCCCCCCC(=O)[O-]
REMARK SMILES IDX 10 1 11 2 12 3 13 4 14 5 15 6 16 7 17 8 18 9 9 10 8 11 7 12
REMARK SMILES IDX 6 13 5 14 4 15 3 16 2 17 1 18
REMARK H PARENT
REMARK Flexibility Score: inf
ROOT
ATOM      1  C   UNL     1      17.990  26.075   8.264  1.00  0.00     0.004 C 
ENDROOT
BRANCH   1   2
ATOM      2  C   UNL     1      19.139  26.029   9.281  1.00  0.00     0.000 C 
BRANCH   2   3
ATOM      3  C   UNL     1      19.012  24.806  10.197  1.00  0.00     0.000 C 
BRANCH   3   4
ATOM      4  C   UNL     1      20.244  23.898  10.080  1.00  0.00     0.000 C 
BRANCH   4   5
ATOM      5  C   UNL     1      19.921  22.411  10.309  1.00  0.00     0.006 C 
BRANCH   5   6
ATOM      6  C   UNL     1      18.424  22.124  10.526  1.00  0.00     0.053 C 
BRANCH   6   7
ATOM      7  C   UNL     1      17.965  20.894   9.804  1.00  0.00     0.041 C 
ATOM      8  O   UNL     1      16.937  20.276  10.192  1.00  0.00    -0.550 OA
ATOM      9  O   UNL     1      18.646  20.448   8.678  1.00  0.00    -0.550 OA
ENDBRANCH   6   7
ENDBRANCH   5   6
ENDBRANCH   4   5
ENDBRANCH   3   4
ENDBRANCH   2   3
ENDBRANCH   1   2
BRANCH   1  10
ATOM     10  C   UNL     1      17.212  24.754   8.212  1.00  0.00     0.027 C 
BRANCH  10  11
ATOM     11  C   UNL     1      17.541  23.972   6.968  1.00  0.00    -0.031 C 
ATOM     12  C   UNL     1      18.700  23.310   6.833  1.00  0.00    -0.031 C 
BRANCH  12  13
ATOM     13  C   UNL     1      18.996  22.534   5.577  1.00  0.00     0.027 C 
BRANCH  13  14
ATOM     14  C   UNL     1      20.419  21.952   5.566  1.00  0.00     0.004 C 
BRANCH  14  15
ATOM     15  C   UNL     1      21.231  22.222   6.848  1.00  0.00     0.000 C 
BRANCH  15  16
ATOM     16  C   UNL     1      22.032  21.002   7.347  1.00  0.00    -0.000 C 
BRANCH  16  17
ATOM     17  C   UNL     1      22.410  20.050   6.201  1.00  0.00    -0.003 C 
ATOM     18  C   UNL     1      23.469  19.045   6.644  1.00  0.00     0.004 C 
ENDBRANCH  16  17
ENDBRANCH  15  16
ENDBRANCH  14  15
ENDBRANCH  13  14
ENDBRANCH  12  13
ENDBRANCH  10  11
ENDBRANCH   1  10
TORSDOF 13
ENDMDL
MODEL 3
REMARK VINA RESULT:    -5.262      2.585      4.441
REMARK INTER + INTRA:         -11.499
REMARK INTER:                  -9.258
REMARK INTRA:                  -2.241
REMARK UNBOUND:                -2.238
REMARK SMILES CCCCCCC=CCCCCCCCC(=O)[O-]
REMARK SMILES IDX 10 1 11 2 12 3 13 4 14 5 15 6 16 7 17 8 18 9 9 10 8 11 7 12
REMARK SMILES IDX 6 13 5 14 4 15 3 16 2 17 1 18
REMARK H PARENT
REMARK Flexibility Score: inf
ROOT
ATOM      1  C   UNL     1      21.598  22.085   8.706  1.00  0.00     0.004 C 
ENDROOT
BRANCH   1   2
ATOM      2  C   UNL     1      21.275  22.760   7.365  1.00  0.00     0.000 C 
BRANCH   2   3
ATOM      3  C   UNL     1      21.375  21.757   6.208  1.00  0.00     0.000 C 
BRANCH   3   4
ATOM      4  C   UNL     1      20.131  21.821   5.313  1.00  0.00     0.000 C 
BRANCH   4   5
ATOM      5  C   UNL     1      18.944  22.536   5.981  1.00  0.00     0.006 C 
BRANCH   5   6
ATOM      6  C   UNL     1      17.671  21.675   6.080  1.00  0.00     0.053 C 
BRANCH   6   7
ATOM      7  C   UNL     1      17.931  20.335   6.701  1.00  0.00     0.041 C 
ATOM      8  O   UNL     1      17.654  19.279   6.072  1.00  0.00    -0.550 OA
ATOM      9  O   UNL     1      18.518  20.249   7.957  1.00  0.00    -0.550 OA
ENDBRANCH   6   7
ENDBRANCH   5   6
ENDBRANCH   4   5
ENDBRANCH   3   4
ENDBRANCH   2   3
ENDBRANCH   1   2
BRANCH   1  10
ATOM     10  C   UNL     1      21.761  23.105   9.839  1.00  0.00     0.027 C 
BRANCH  10  11
ATOM     11  C   UNL     1      20.537  23.153  10.715  1.00  0.00    -0.031 C 
ATOM     12  C   UNL     1      19.494  22.330  10.521  1.00  0.00    -0.031 C 
BRANCH  12  13
ATOM     13  C   UNL     1      18.287  22.401  11.417  1.00  0.00     0.027 C 
BRANCH  13  14
ATOM     14  C   UNL     1      17.174  23.288  10.837  1.00  0.00     0.004 C 
BRANCH  14  15
ATOM     15  C   UNL     1      17.159  23.373   9.299  1.00  0.00     0.000 C 
BRANCH  15  16
ATOM     16  C   UNL     1      17.227  24.814   8.754  1.00  0.00    -0.000 C 
BRANCH  16  17
ATOM     17  C   UNL     1      18.664  25.239   8.416  1.00  0.00    -0.003 C 
ATOM     18  C   UNL     1      19.060  26.504   9.170  1.00  0.00     0.004 C 
ENDBRANCH  16  17
ENDBRANCH  15  16
ENDBRANCH  14  15
ENDBRANCH  13  14
ENDBRANCH  12  13
ENDBRANCH  10  11
ENDBRANCH   1  10
TORSDOF 13
ENDMDL
MODEL 4
REMARK VINA RESULT:    -5.232      1.373      3.784
REMARK INTER + INTRA:         -11.446
REMARK INTER:                  -9.340
REMARK INTRA:                  -2.106
REMARK UNBOUND:                -2.238
REMARK SMILES CCCCCCC=CCCCCCCCC(=O)[O-]
REMARK SMILES IDX 10 1 11 2 12 3 13 4 14 5 15 6 16 7 17 8 18 9 9 10 8 11 7 12
REMARK SMILES IDX 6 13 5 14 4 15 3 16 2 17 1 18
REMARK H PARENT
REMARK Flexibility Score: inf
ROOT
ATOM      1  C   UNL     1      20.643  23.161  10.603  1.00  0.00     0.004 C 
ENDROOT
BRANCH   1   2
ATOM      2  C   UNL     1      19.433  22.289  10.238  1.00  0.00     0.000 C 
BRANCH   2   3
ATOM      3  C   UNL     1      18.592  21.970  11.479  1.00  0.00     0.000 C 
BRANCH   3   4
ATOM      4  C   UNL     1      17.359  22.879  11.560  1.00  0.00     0.000 C 
BRANCH   4   5
ATOM      5  C   UNL     1      16.887  23.379  10.183  1.00  0.00     0.006 C 
BRANCH   5   6
ATOM      6  C   UNL     1      17.076  24.892   9.971  1.00  0.00     0.053 C 
BRANCH   6   7
ATOM      7  C   UNL     1      17.743  25.211   8.667  1.00  0.00     0.041 C 
ATOM      8  O   UNL     1      17.277  24.757   7.587  1.00  0.00    -0.550 OA
ATOM      9  O   UNL     1      18.856  26.041   8.635  1.00  0.00    -0.550 OA
ENDBRANCH   6   7
ENDBRANCH   5   6
ENDBRANCH   4   5
ENDBRANCH   3   4
ENDBRANCH   2   3
ENDBRANCH   1   2
BRANCH   1  10
ATOM     10  C   UNL     1      21.633  23.291   9.439  1.00  0.00     0.027 C 
BRANCH  10  11
ATOM     11  C   UNL     1      20.965  23.018   8.117  1.00  0.00    -0.031 C 
ATOM     12  C   UNL     1      21.513  22.205   7.201  1.00  0.00    -0.031 C 
BRANCH  12  13
ATOM     13  C   UNL     1      20.817  21.951   5.891  1.00  0.00     0.027 C 
BRANCH  13  14
ATOM     14  C   UNL     1      19.382  22.501   5.870  1.00  0.00     0.004 C 
BRANCH  14  15
ATOM     15  C   UNL     1      18.282  21.422   5.858  1.00  0.00     0.000 C 
BRANCH  15  16
ATOM     16  C   UNL     1      17.686  21.124   7.249  1.00  0.00    -0.000 C 
BRANCH  16  17
ATOM     17  C   UNL     1      18.372  19.930   7.928  1.00  0.00    -0.003 C 
ATOM     18  C   UNL     1      18.897  18.933   6.899  1.00  0.00     0.004 C 
ENDBRANCH  16  17
ENDBRANCH  15  16
ENDBRANCH  14  15
ENDBRANCH  13  14
ENDBRANCH  12  13
ENDBRANCH  10  11
ENDBRANCH   1  10
TORSDOF 13
ENDMDL
MODEL 5
REMARK VINA RESULT:    -5.038      3.552      5.727
REMARK INTER + INTRA:         -11.105
REMARK INTER:                  -9.024
REMARK INTRA:                  -2.082
REMARK UNBOUND:                -2.238
REMARK SMILES CCCCCCC=CCCCCCCCC(=O)[O-]
REMARK SMILES IDX 10 1 11 2 12 3 13 4 14 5 15 6 16 7 17 8 18 9 9 10 8 11 7 12
REMARK SMILES IDX 6 13 5 14 4 15 3 16 2 17 1 18
REMARK H PARENT
REMARK Flexibility Score: inf
ROOT
ATOM      1  C   UNL     1      21.715  23.009   9.410  1.00  0.00     0.004 C 
ENDROOT
BRANCH   1   2
ATOM      2  C   UNL     1      21.360  21.908   8.400  1.00  0.00     0.000 C 
BRANCH   2   3
ATOM      3  C   UNL     1      21.568  22.395   6.961  1.00  0.00     0.000 C 
BRANCH   3   4
ATOM      4  C   UNL     1      21.039  21.370   5.949  1.00  0.00     0.000 C 
BRANCH   4   5
ATOM      5  C   UNL     1      22.109  20.904   4.947  1.00  0.00     0.006 C 
BRANCH   5   6
ATOM      6  C   UNL     1      22.422  19.398   5.024  1.00  0.00     0.053 C 
BRANCH   6   7
ATOM      7  C   UNL     1      23.628  19.104   5.864  1.00  0.00     0.041 C 
ATOM      8  O   UNL     1      24.665  18.616   5.338  1.00  0.00    -0.550 OA
ATOM      9  O   UNL     1      23.626  19.405   7.220  1.00  0.00    -0.550 OA
ENDBRANCH   6   7
ENDBRANCH   5   6
ENDBRANCH   4   5
ENDBRANCH   3   4
ENDBRANCH   2   3
ENDBRANCH   1   2
BRANCH   1  10
ATOM     10  C   UNL     1      20.631  23.181  10.481  1.00  0.00     0.027 C 
BRANCH  10  11
ATOM     11  C   UNL     1      19.409  23.860   9.922  1.00  0.00    -0.031 C 
ATOM     12  C   UNL     1      19.495  24.802   8.971  1.00  0.00    -0.031 C 
BRANCH  12  13
ATOM     13  C   UNL     1      18.253  25.459   8.430  1.00  0.00     0.027 C 
BRANCH  13  14
ATOM     14  C   UNL     1      17.273  24.448   7.815  1.00  0.00     0.004 C 
BRANCH  14  15
ATOM     15  C   UNL     1      17.838  23.651   6.623  1.00  0.00     0.000 C 
BRANCH  15  16
ATOM     16  C   UNL     1      17.656  22.125   6.752  1.00  0.00    -0.000 C 
BRANCH  16  17
ATOM     17  C   UNL     1      17.168  21.715   8.150  1.00  0.00    -0.003 C 
ATOM     18  C   UNL     1      17.969  20.535   8.693  1.00  0.00     0.004 C 
ENDBRANCH  16  17
ENDBRANCH  15  16
ENDBRANCH  14  15
ENDBRANCH  13  14
ENDBRANCH  12  13
ENDBRANCH  10  11
ENDBRANCH   1  10
TORSDOF 13
ENDMDL
MODEL 6
REMARK VINA RESULT:    -5.020      1.127      2.949
REMARK INTER + INTRA:         -11.074
REMARK INTER:                  -8.812
REMARK INTRA:                  -2.261
REMARK UNBOUND:                -2.238
REMARK SMILES CCCCCCC=CCCCCCCCC(=O)[O-]
REMARK SMILES IDX 10 1 11 2 12 3 13 4 14 5 15 6 16 7 17 8 18 9 9 10 8 11 7 12
REMARK SMILES IDX 6 13 5 14 4 15 3 16 2 17 1 18
REMARK H PARENT
REMARK Flexibility Score: inf
ROOT
ATOM      1  C   UNL     1      17.875  20.970   7.419  1.00  0.00     0.004 C 
ENDROOT
BRANCH   1   2
ATOM      2  C   UNL     1      17.076  21.760   6.373  1.00  0.00     0.000 C 
BRANCH   2   3
ATOM      3  C   UNL     1      17.850  23.002   5.915  1.00  0.00     0.000 C 
BRANCH   3   4
ATOM      4  C   UNL     1      18.357  23.811   7.115  1.00  0.00     0.000 C 
BRANCH   4   5
ATOM      5  C   UNL     1      17.279  24.723   7.727  1.00  0.00     0.006 C 
BRANCH   5   6
ATOM      6  C   UNL     1      17.697  25.375   9.058  1.00  0.00     0.053 C 
BRANCH   6   7
ATOM      7  C   UNL     1      18.246  26.757   8.873  1.00  0.00     0.041 C 
ATOM      8  O   UNL     1      19.488  26.938   8.759  1.00  0.00    -0.550 OA
ATOM      9  O   UNL     1      17.386  27.845   8.785  1.00  0.00    -0.550 OA
ENDBRANCH   6   7
ENDBRANCH   5   6
ENDBRANCH   4   5
ENDBRANCH   3   4
ENDBRANCH   2   3
ENDBRANCH   1   2
BRANCH   1  10
ATOM     10  C   UNL     1      17.107  20.820   8.739  1.00  0.00     0.027 C 
BRANCH  10  11
ATOM     11  C   UNL     1      17.686  21.700   9.815  1.00  0.00    -0.031 C 
ATOM     12  C   UNL     1      19.001  21.718  10.084  1.00  0.00    -0.031 C 
BRANCH  12  13
ATOM     13  C   UNL     1      19.548  22.613  11.164  1.00  0.00     0.027 C 
BRANCH  13  14
ATOM     14  C   UNL     1      20.579  23.619  10.627  1.00  0.00     0.004 C 
BRANCH  14  15
ATOM     15  C   UNL     1      21.627  23.014   9.672  1.00  0.00     0.000 C 
BRANCH  15  16
ATOM     16  C   UNL     1      21.455  23.450   8.203  1.00  0.00    -0.000 C 
BRANCH  16  17
ATOM     17  C   UNL     1      21.728  22.299   7.222  1.00  0.00    -0.003 C 
ATOM     18  C   UNL     1      21.782  20.957   7.945  1.00  0.00     0.004 C 
ENDBRANCH  16  17
ENDBRANCH  15  16
ENDBRANCH  14  15
ENDBRANCH  13  14
ENDBRANCH  12  13
ENDBRANCH  10  11
ENDBRANCH   1  10
TORSDOF 13
ENDMDL
MODEL 7
REMARK VINA RESULT:    -5.003      3.304      5.187
REMARK INTER + INTRA:         -11.043
REMARK INTER:                  -9.141
REMARK INTRA:                  -1.902
REMARK UNBOUND:                -2.238
REMARK SMILES CCCCCCC=CCCCCCCCC(=O)[O-]
REMARK SMILES IDX 10 1 11 2 12 3 13 4 14 5 15 6 16 7 17 8 18 9 9 10 8 11 7 12
REMARK SMILES IDX 6 13 5 14 4 15 3 16 2 17 1 18
REMARK H PARENT
REMARK Flexibility Score: inf
ROOT
ATOM      1  C   UNL     1      21.494  22.085   8.550  1.00  0.00     0.004 C 
ENDROOT
BRANCH   1   2
ATOM      2  C   UNL     1      21.020  22.735   7.243  1.00  0.00     0.000 C 
BRANCH   2   3
ATOM      3  C   UNL     1      19.664  22.167   6.808  1.00  0.00     0.000 C 
BRANCH   3   4
ATOM      4  C   UNL     1      19.509  22.214   5.282  1.00  0.00     0.000 C 
BRANCH   4   5
ATOM      5  C   UNL     1      20.429  21.219   4.553  1.00  0.00     0.006 C 
BRANCH   5   6
ATOM      6  C   UNL     1      20.314  19.772   5.067  1.00  0.00     0.053 C 
BRANCH   6   7
ATOM      7  C   UNL     1      21.623  19.233   5.560  1.00  0.00     0.041 C 
ATOM      8  O   UNL     1      22.600  20.007   5.745  1.00  0.00    -0.550 OA
ATOM      9  O   UNL     1      21.756  17.882   5.856  1.00  0.00    -0.550 OA
ENDBRANCH   6   7
ENDBRANCH   5   6
ENDBRANCH   4   5
ENDBRANCH   3   4
ENDBRANCH   2   3
ENDBRANCH   1   2
BRANCH   1  10
ATOM     10  C   UNL     1      21.713  23.119   9.662  1.00  0.00     0.027 C 
BRANCH  10  11
ATOM     11  C   UNL     1      20.548  23.154  10.616  1.00  0.00    -0.031 C 
ATOM     12  C   UNL     1      19.489  22.344  10.471  1.00  0.00    -0.031 C 
BRANCH  12  13
ATOM     13  C   UNL     1      18.342  22.401  11.445  1.00  0.00     0.027 C 
BRANCH  13  14
ATOM     14  C   UNL     1      17.084  23.040  10.836  1.00  0.00     0.004 C 
BRANCH  14  15
ATOM     15  C   UNL     1      17.253  24.513  10.417  1.00  0.00     0.000 C 
BRANCH  15  16
ATOM     16  C   UNL     1      17.221  24.735   8.891  1.00  0.00    -0.000 C 
BRANCH  16  17
ATOM     17  C   UNL     1      18.550  25.293   8.359  1.00  0.00    -0.003 C 
ATOM     18  C   UNL     1      19.000  26.510   9.162  1.00  0.00     0.004 C 
ENDBRANCH  16  17
ENDBRANCH  15  16
ENDBRANCH  14  15
ENDBRANCH  13  14
ENDBRANCH  12  13
ENDBRANCH  10  11
ENDBRANCH   1  10
TORSDOF 13
ENDMDL
MODEL 8
REMARK VINA RESULT:    -4.854      3.655      5.542
REMARK INTER + INTRA:         -10.780
REMARK INTER:                  -8.939
REMARK INTRA:                  -1.841
REMARK UNBOUND:                -2.238
REMARK SMILES CCCCCCC=CCCCCCCCC(=O)[O-]
REMARK SMILES IDX 10 1 11 2 12 3 13 4 14 5 15 6 16 7 17 8 18 9 9 10 8 11 7 12
REMARK SMILES IDX 6 13 5 14 4 15 3 16 2 17 1 18
REMARK H PARENT
REMARK Flexibility Score: inf
ROOT
ATOM      1  C   UNL     1      18.040  22.001   6.493  1.00  0.00     0.004 C 
ENDROOT
BRANCH   1   2
ATOM      2  C   UNL     1      19.266  22.369   5.645  1.00  0.00     0.000 C 
BRANCH   2   3
ATOM      3  C   UNL     1      20.540  22.377   6.498  1.00  0.00     0.000 C 
BRANCH   3   4
ATOM      4  C   UNL     1      21.323  21.067   6.334  1.00  0.00     0.000 C 
BRANCH   4   5
ATOM      5  C   UNL     1      22.125  21.005   5.022  1.00  0.00     0.006 C 
BRANCH   5   6
ATOM      6  C   UNL     1      22.388  19.573   4.520  1.00  0.00     0.053 C 
BRANCH   6   7
ATOM      7  C   UNL     1      23.080  18.724   5.543  1.00  0.00     0.041 C 
ATOM      8  O   UNL     1      22.454  17.801   6.132  1.00  0.00    -0.550 OA
ATOM      9  O   UNL     1      24.426  18.921   5.821  1.00  0.00    -0.550 OA
ENDBRANCH   6   7
ENDBRANCH   5   6
ENDBRANCH   4   5
ENDBRANCH   3   4
ENDBRANCH   2   3
ENDBRANCH   1   2
BRANCH   1  10
ATOM     10  C   UNL     1      17.007  23.135   6.536  1.00  0.00     0.027 C 
BRANCH  10  11
ATOM     11  C   UNL     1      17.125  23.937   7.805  1.00  0.00    -0.031 C 
ATOM     12  C   UNL     1      17.981  24.964   7.916  1.00  0.00    -0.031 C 
BRANCH  12  13
ATOM     13  C   UNL     1      18.071  25.748   9.199  1.00  0.00     0.027 C 
BRANCH  13  14
ATOM     14  C   UNL     1      19.015  25.097  10.222  1.00  0.00     0.004 C 
BRANCH  14  15
ATOM     15  C   UNL     1      20.130  24.231   9.605  1.00  0.00     0.000 C 
BRANCH  15  16
ATOM     16  C   UNL     1      20.256  22.831  10.239  1.00  0.00    -0.000 C 
BRANCH  16  17
ATOM     17  C   UNL     1      18.937  22.361  10.871  1.00  0.00    -0.003 C 
ATOM     18  C   UNL     1      18.292  21.252  10.045  1.00  0.00     0.004 C 
ENDBRANCH  16  17
ENDBRANCH  15  16
ENDBRANCH  14  15
ENDBRANCH  13  14
ENDBRANCH  12  13
ENDBRANCH  10  11
ENDBRANCH   1  10
TORSDOF 13
ENDMDL
MODEL 9
REMARK VINA RESULT:    -4.752      1.255      4.305
REMARK INTER + INTRA:         -10.602
REMARK INTER:                  -8.657
REMARK INTRA:                  -1.945
REMARK UNBOUND:                -2.238
REMARK SMILES CCCCCCC=CCCCCCCCC(=O)[O-]
REMARK SMILES IDX 10 1 11 2 12 3 13 4 14 5 15 6 16 7 17 8 18 9 9 10 8 11 7 12
REMARK SMILES IDX 6 13 5 14 4 15 3 16 2 17 1 18
REMARK H PARENT
REMARK Flexibility Score: inf
ROOT
ATOM      1  C   UNL     1      17.858  20.759   8.816  1.00  0.00     0.004 C 
ENDROOT
BRANCH   1   2
ATOM      2  C   UNL     1      17.474  20.818  10.302  1.00  0.00     0.000 C 
BRANCH   2   3
ATOM      3  C   UNL     1      18.186  21.980  11.006  1.00  0.00     0.000 C 
BRANCH   3   4
ATOM      4  C   UNL     1      17.174  22.954  11.623  1.00  0.00     0.000 C 
BRANCH   4   5
ATOM      5  C   UNL     1      17.106  24.301  10.882  1.00  0.00     0.006 C 
BRANCH   5   6
ATOM      6  C   UNL     1      18.445  24.740  10.261  1.00  0.00     0.053 C 
BRANCH   6   7
ATOM      7  C   UNL     1      18.266  25.735   9.154  1.00  0.00     0.041 C 
ATOM      8  O   UNL     1      17.411  25.533   8.250  1.00  0.00    -0.550 OA
ATOM      9  O   UNL     1      19.013  26.906   9.139  1.00  0.00    -0.550 OA
ENDBRANCH   6   7
ENDBRANCH   5   6
ENDBRANCH   4   5
ENDBRANCH   3   4
ENDBRANCH   2   3
ENDBRANCH   1   2
BRANCH   1  10
ATOM     10  C   UNL     1      17.287  21.942   8.026  1.00  0.00     0.027 C 
BRANCH  10  11
ATOM     11  C   UNL     1      18.218  22.364   6.920  1.00  0.00    -0.031 C 
ATOM     12  C   UNL     1      18.637  21.503   5.980  1.00  0.00    -0.031 C 
BRANCH  12  13
ATOM     13  C   UNL     1      19.565  21.958   4.885  1.00  0.00     0.027 C 
BRANCH  13  14
ATOM     14  C   UNL     1      20.906  21.206   4.899  1.00  0.00     0.004 C 
BRANCH  14  15
ATOM     15  C   UNL     1      21.879  21.652   6.007  1.00  0.00     0.000 C 
BRANCH  15  16
ATOM     16  C   UNL     1      21.649  20.948   7.360  1.00  0.00    -0.000 C 
BRANCH  16  17
ATOM     17  C   UNL     1      22.126  21.802   8.545  1.00  0.00    -0.003 C 
ATOM     18  C   UNL     1      21.292  23.072   8.683  1.00  0.00     0.004 C 
ENDBRANCH  16  17
ENDBRANCH  15  16
ENDBRANCH  14  15
ENDBRANCH  13  14
ENDBRANCH  12  13
ENDBRANCH  10  11
ENDBRANCH   1  10
TORSDOF 13
ENDMDL
