MODEL 1
REMARK VINA RESULT:    -2.910      0.000      0.000
REMARK INTER + INTRA:          -3.288
REMARK INTER:                  -3.250
REMARK INTRA:                  -0.038
REMARK UNBOUND:                -0.038
REMARK SMILES CCCC(=O)[O-]
REMARK SMILES IDX 3 1 4 2 5 3 6 4 2 5 1 6
REMARK H PARENT
REMARK Flexibility Score: inf
ROOT
ATOM      1  C   UNL     1     -12.333   6.296 -15.438  1.00  0.00     0.052 C 
ENDROOT
BRANCH   1   2
ATOM      2  C   UNL     1     -13.488   7.227 -15.241  1.00  0.00     0.041 C 
ATOM      3  O   UNL     1     -13.288   8.459 -15.085  1.00  0.00    -0.550 OA
ATOM      4  O   UNL     1     -14.781   6.725 -15.180  1.00  0.00    -0.550 OA
ENDBRANCH   1   2
BRANCH   1   5
ATOM      5  C   UNL     1     -12.402   5.641 -16.821  1.00  0.00     0.003 C 
ATOM      6  C   UNL     1     -12.795   4.171 -16.714  1.00  0.00     0.004 C 
ENDBRANCH   1   5
TORSDOF 2
ENDMDL
MODEL 2
REMARK VINA RESULT:    -2.909      0.084      1.324
REMARK INTER + INTRA:          -3.287
REMARK INTER:                  -3.249
REMARK INTRA:                  -0.037
REMARK UNBOUND:                -0.038
REMARK SMILES CCCC(=O)[O-]
REMARK SMILES IDX 3 1 4 2 5 3 6 4 2 5 1 6
REMARK H PARENT
REMARK Flexibility Score: inf
ROOT
ATOM      1  C   UNL     1     -12.367   6.318 -15.466  1.00  0.00     0.052 C 
ENDROOT
BRANCH   1   2
ATOM      2  C   UNL     1     -13.525   7.236 -15.233  1.00  0.00     0.041 C 
ATOM      3  O   UNL     1     -14.699   6.782 -15.206  1.00  0.00    -0.550 OA
ATOM      4  O   UNL     1     -13.312   8.602 -15.097  1.00  0.00    -0.550 OA
ENDBRANCH   1   2
BRANCH   1   5
ATOM      5  C   UNL     1     -12.464   5.674 -16.851  1.00  0.00     0.003 C 
ATOM      6  C   UNL     1     -12.792   4.187 -16.745  1.00  0.00     0.004 C 
ENDBRANCH   1   5
TORSDOF 2
ENDMDL
MODEL 3
REMARK VINA RESULT:    -2.784     15.619     15.906
REMARK INTER + INTRA:          -3.147
REMARK INTER:                  -3.136
REMARK INTRA:                  -0.011
REMARK UNBOUND:                -0.038
REMARK SMILES CCCC(=O)[O-]
REMARK SMILES IDX 3 1 4 2 5 3 6 4 2 5 1 6
REMARK H PARENT
REMARK Flexibility Score: inf
ROOT
ATOM      1  C   UNL     1      -4.268  -2.969  -6.144  1.00  0.00     0.052 C 
ENDROOT
BRANCH   1   2
ATOM      2  C   UNL     1      -4.474  -1.518  -6.443  1.00  0.00     0.041 C 
ATOM      3  O   UNL     1      -3.486  -0.769  -6.660  1.00  0.00    -0.550 OA
ATOM      4  O   UNL     1      -5.755  -0.982  -6.432  1.00  0.00    -0.550 OA
ENDBRANCH   1   2
BRANCH   1   5
ATOM      5  C   UNL     1      -5.203  -3.423  -5.020  1.00  0.00     0.003 C 
ATOM      6  C   UNL     1      -4.437  -4.178  -3.937  1.00  0.00     0.004 C 
ENDBRANCH   1   5
TORSDOF 2
ENDMDL
MODEL 4
REMARK VINA RESULT:    -2.761     17.969     18.354
REMARK INTER + INTRA:          -3.122
REMARK INTER:                  -3.110
REMARK INTRA:                  -0.012
REMARK UNBOUND:                -0.038
REMARK SMILES CCCC(=O)[O-]
REMARK SMILES IDX 3 1 4 2 5 3 6 4 2 5 1 6
REMARK H PARENT
REMARK Flexibility Score: inf
ROOT
ATOM      1  C   UNL     1     -18.129  -5.867  -3.926  1.00  0.00     0.052 C 
ENDROOT
BRANCH   1   2
ATOM      2  C   UNL     1     -17.917  -7.230  -4.507  1.00  0.00     0.041 C 
ATOM      3  O   UNL     1     -17.034  -7.991  -4.031  1.00  0.00    -0.550 OA
ATOM      4  O   UNL     1     -18.660  -7.640  -5.606  1.00  0.00    -0.550 OA
ENDBRANCH   1   2
BRANCH   1   5
ATOM      5  C   UNL     1     -17.103  -5.589  -2.824  1.00  0.00     0.003 C 
ATOM      6  C   UNL     1     -17.284  -4.188  -2.246  1.00  0.00     0.004 C 
ENDBRANCH   1   5
TORSDOF 2
ENDMDL
MODEL 5
REMARK VINA RESULT:    -2.749     11.485     11.995
REMARK INTER + INTRA:          -3.109
REMARK INTER:                  -3.081
REMARK INTRA:                  -0.028
REMARK UNBOUND:                -0.038
REMARK SMILES CCCC(=O)[O-]
REMARK SMILES IDX 3 1 4 2 5 3 6 4 2 5 1 6
REMARK H PARENT
REMARK Flexibility Score: inf
ROOT
ATOM      1  C   UNL     1      -2.414   2.967 -12.469  1.00  0.00     0.052 C 
ENDROOT
BRANCH   1   2
ATOM      2  C   UNL     1      -1.899   3.025 -11.065  1.00  0.00     0.041 C 
ATOM      3  O   UNL     1      -0.980   2.249 -10.695  1.00  0.00    -0.550 OA
ATOM      4  O   UNL     1      -2.471   3.901 -10.151  1.00  0.00    -0.550 OA
ENDBRANCH   1   2
BRANCH   1   5
ATOM      5  C   UNL     1      -3.867   3.448 -12.527  1.00  0.00     0.003 C 
ATOM      6  C   UNL     1      -4.073   4.437 -13.670  1.00  0.00     0.004 C 
ENDBRANCH   1   5
TORSDOF 2
ENDMDL
MODEL 6
REMARK VINA RESULT:    -2.720      2.241      3.227
REMARK INTER + INTRA:          -3.076
REMARK INTER:                  -3.046
REMARK INTRA:                  -0.030
REMARK UNBOUND:                -0.038
REMARK SMILES CCCC(=O)[O-]
REMARK SMILES IDX 3 1 4 2 5 3 6 4 2 5 1 6
REMARK H PARENT
REMARK Flexibility Score: inf
ROOT
ATOM      1  C   UNL     1     -12.480   6.320 -15.423  1.00  0.00     0.052 C 
ENDROOT
BRANCH   1   2
ATOM      2  C   UNL     1     -12.391   5.464 -16.648  1.00  0.00     0.041 C 
ATOM      3  O   UNL     1     -12.146   5.984 -17.768  1.00  0.00    -0.550 OA
ATOM      4  O   UNL     1     -12.629   4.099 -16.560  1.00  0.00    -0.550 OA
ENDBRANCH   1   2
BRANCH   1   5
ATOM      5  C   UNL     1     -13.818   7.062 -15.384  1.00  0.00     0.003 C 
ATOM      6  C   UNL     1     -13.608   8.571 -15.307  1.00  0.00     0.004 C 
ENDBRANCH   1   5
TORSDOF 2
ENDMDL
MODEL 7
REMARK VINA RESULT:    -2.711     14.697     14.985
REMARK INTER + INTRA:          -3.066
REMARK INTER:                  -3.047
REMARK INTRA:                  -0.019
REMARK UNBOUND:                -0.038
REMARK SMILES CCCC(=O)[O-]
REMARK SMILES IDX 3 1 4 2 5 3 6 4 2 5 1 6
REMARK H PARENT
REMARK Flexibility Score: inf
ROOT
ATOM      1  C   UNL     1      -5.202  -1.120  -6.186  1.00  0.00     0.052 C 
ENDROOT
BRANCH   1   2
ATOM      2  C   UNL     1      -4.527   0.210  -6.078  1.00  0.00     0.041 C 
ATOM      3  O   UNL     1      -3.332   0.347  -6.451  1.00  0.00    -0.550 OA
ATOM      4  O   UNL     1      -5.200   1.287  -5.517  1.00  0.00    -0.550 OA
ENDBRANCH   1   2
BRANCH   1   5
ATOM      5  C   UNL     1      -4.175  -2.222  -6.464  1.00  0.00     0.003 C 
ATOM      6  C   UNL     1      -4.439  -3.451  -5.599  1.00  0.00     0.004 C 
ENDBRANCH   1   5
TORSDOF 2
ENDMDL
MODEL 8
REMARK VINA RESULT:    -2.673     16.899     17.230
REMARK INTER + INTRA:          -3.024
REMARK INTER:                  -3.007
REMARK INTRA:                  -0.017
REMARK UNBOUND:                -0.038
REMARK SMILES CCCC(=O)[O-]
REMARK SMILES IDX 3 1 4 2 5 3 6 4 2 5 1 6
REMARK H PARENT
REMARK Flexibility Score: inf
ROOT
ATOM      1  C   UNL     1      -5.239  -3.220  -5.088  1.00  0.00     0.052 C 
ENDROOT
BRANCH   1   2
ATOM      2  C   UNL     1      -4.564  -4.095  -4.079  1.00  0.00     0.041 C 
ATOM      3  O   UNL     1      -3.398  -4.519  -4.287  1.00  0.00    -0.550 OA
ATOM      4  O   UNL     1      -5.244  -4.485  -2.932  1.00  0.00    -0.550 OA
ENDBRANCH   1   2
BRANCH   1   5
ATOM      5  C   UNL     1      -4.243  -2.775  -6.162  1.00  0.00     0.003 C 
ATOM      6  C   UNL     1      -4.536  -1.352  -6.628  1.00  0.00     0.004 C 
ENDBRANCH   1   5
TORSDOF 2
ENDMDL
MODEL 9
REMARK VINA RESULT:    -2.598     19.327     19.628
REMARK INTER + INTRA:          -2.940
REMARK INTER:                  -2.902
REMARK INTRA:                  -0.038
REMARK UNBOUND:                -0.038
REMARK SMILES CCCC(=O)[O-]
REMARK SMILES IDX 3 1 4 2 5 3 6 4 2 5 1 6
REMARK H PARENT
REMARK Flexibility Score: inf
ROOT
ATOM      1  C   UNL     1      -6.669  -2.886   0.546  1.00  0.00     0.052 C 
ENDROOT
BRANCH   1   2
ATOM      2  C   UNL     1      -5.588  -3.015  -0.480  1.00  0.00     0.041 C 
ATOM      3  O   UNL     1      -4.560  -2.292  -0.412  1.00  0.00    -0.550 OA
ATOM      4  O   UNL     1      -5.740  -3.898  -1.541  1.00  0.00    -0.550 OA
ENDBRANCH   1   2
BRANCH   1   5
ATOM      5  C   UNL     1      -8.036  -3.190  -0.074  1.00  0.00     0.003 C 
ATOM      6  C   UNL     1      -8.661  -4.433   0.554  1.00  0.00     0.004 C 
ENDBRANCH   1   5
TORSDOF 2
ENDMDL
