MODEL 1
REMARK VINA RESULT:    -4.599      0.000      0.000
REMARK INTER + INTRA:         -10.315
REMARK INTER:                  -8.363
REMARK INTRA:                  -1.953
REMARK UNBOUND:                -1.953
REMARK SMILES CCCCCCCCCCCCCCCC(=O)[O-]
REMARK SMILES IDX 9 1 10 2 11 3 12 4 13 5 14 6 15 7 16 8 17 9 18 10 8 11 7 12
REMARK SMILES IDX 6 13 5 14 4 15 3 16 2 17 1 18
REMARK H PARENT
REMARK Flexibility Score: inf
ROOT
ATOM      1  C   UNL     1      28.715  14.341 -10.646  1.00  0.00     0.000 C 
ENDROOT
BRANCH   1   2
ATOM      2  C   UNL     1      28.515  12.992 -11.354  1.00  0.00     0.000 C 
BRANCH   2   3
ATOM      3  C   UNL     1      27.103  12.887 -11.943  1.00  0.00     0.000 C 
BRANCH   3   4
ATOM      4  C   UNL     1      27.135  12.986 -13.475  1.00  0.00     0.000 C 
BRANCH   4   5
ATOM      5  C   UNL     1      25.820  13.521 -14.068  1.00  0.00     0.000 C 
BRANCH   5   6
ATOM      6  C   UNL     1      25.959  14.910 -14.726  1.00  0.00     0.006 C 
BRANCH   6   7
ATOM      7  C   UNL     1      24.666  15.731 -14.624  1.00  0.00     0.053 C 
BRANCH   7   8
ATOM      8  C   UNL     1      24.426  16.489 -15.891  1.00  0.00     0.041 C 
ATOM      9  O   UNL     1      25.109  16.240 -16.918  1.00  0.00    -0.550 OA
ATOM     10  O   UNL     1      23.413  17.439 -15.950  1.00  0.00    -0.550 OA
ENDBRANCH   7   8
ENDBRANCH   6   7
ENDBRANCH   5   6
ENDBRANCH   4   5
ENDBRANCH   3   4
ENDBRANCH   2   3
ENDBRANCH   1   2
BRANCH   1  11
ATOM     11  C   UNL     1      28.620  14.228  -9.116  1.00  0.00     0.000 C 
BRANCH  11  12
ATOM     12  C   UNL     1      27.166  14.233  -8.612  1.00  0.00    -0.000 C 
BRANCH  12  13
ATOM     13  C   UNL     1      26.398  15.495  -9.037  1.00  0.00    -0.000 C 
BRANCH  13  14
ATOM     14  C   UNL     1      25.179  15.181  -9.919  1.00  0.00    -0.000 C 
BRANCH  14  15
ATOM     15  C   UNL     1      25.065  16.190 -11.072  1.00  0.00    -0.000 C 
BRANCH  15  16
ATOM     16  C   UNL     1      26.427  16.766 -11.493  1.00  0.00    -0.000 C 
BRANCH  16  17
ATOM     17  C   UNL     1      26.311  18.163 -12.120  1.00  0.00    -0.003 C 
ATOM     18  C   UNL     1      25.353  19.044 -11.322  1.00  0.00     0.004 C 
ENDBRANCH  16  17
ENDBRANCH  15  16
ENDBRANCH  14  15
ENDBRANCH  13  14
ENDBRANCH  12  13
ENDBRANCH  11  12
ENDBRANCH   1  11
TORSDOF 14
ENDMDL
MODEL 2
REMARK VINA RESULT:    -4.588      2.865      4.726
REMARK INTER + INTRA:         -10.295
REMARK INTER:                  -8.309
REMARK INTRA:                  -1.986
REMARK UNBOUND:                -1.953
REMARK SMILES CCCCCCCCCCCCCCCC(=O)[O-]
REMARK SMILES IDX 9 1 10 2 11 3 12 4 13 5 14 6 15 7 16 8 17 9 18 10 8 11 7 12
REMARK SMILES IDX 6 13 5 14 4 15 3 16 2 17 1 18
REMARK H PARENT
REMARK Flexibility Score: inf
ROOT
ATOM      1  C   UNL     1      28.992  13.180 -11.090  1.00  0.00     0.000 C 
ENDROOT
BRANCH   1   2
ATOM      2  C   UNL     1      28.932  14.416 -10.179  1.00  0.00     0.000 C 
BRANCH   2   3
ATOM      3  C   UNL     1      28.043  14.154  -8.958  1.00  0.00     0.000 C 
BRANCH   3   4
ATOM      4  C   UNL     1      26.892  15.167  -8.885  1.00  0.00     0.000 C 
BRANCH   4   5
ATOM      5  C   UNL     1      25.512  14.521  -9.096  1.00  0.00     0.000 C 
BRANCH   5   6
ATOM      6  C   UNL     1      24.356  15.541  -9.167  1.00  0.00     0.006 C 
BRANCH   6   7
ATOM      7  C   UNL     1      23.005  14.914  -8.795  1.00  0.00     0.053 C 
BRANCH   7   8
ATOM      8  C   UNL     1      21.927  15.951  -8.802  1.00  0.00     0.041 C 
ATOM      9  O   UNL     1      21.357  16.267  -9.879  1.00  0.00    -0.550 OA
ATOM     10  O   UNL     1      21.518  16.535  -7.609  1.00  0.00    -0.550 OA
ENDBRANCH   7   8
ENDBRANCH   6   7
ENDBRANCH   5   6
ENDBRANCH   4   5
ENDBRANCH   3   4
ENDBRANCH   2   3
ENDBRANCH   1   2
BRANCH   1  11
ATOM     11  C   UNL     1      27.606  12.742 -11.591  1.00  0.00     0.000 C 
BRANCH  11  12
ATOM     12  C   UNL     1      27.403  13.022 -13.090  1.00  0.00    -0.000 C 
BRANCH  12  13
ATOM     13  C   UNL     1      25.959  13.428 -13.425  1.00  0.00    -0.000 C 
BRANCH  13  14
ATOM     14  C   UNL     1      25.464  14.615 -12.584  1.00  0.00    -0.000 C 
BRANCH  14  15
ATOM     15  C   UNL     1      26.030  15.939 -13.120  1.00  0.00    -0.000 C 
BRANCH  15  16
ATOM     16  C   UNL     1      26.819  16.720 -12.057  1.00  0.00    -0.000 C 
BRANCH  16  17
ATOM     17  C   UNL     1      26.520  18.226 -12.085  1.00  0.00    -0.003 C 
ATOM     18  C   UNL     1      25.332  18.566 -11.189  1.00  0.00     0.004 C 
ENDBRANCH  16  17
ENDBRANCH  15  16
ENDBRANCH  14  15
ENDBRANCH  13  14
ENDBRANCH  12  13
ENDBRANCH  11  12
ENDBRANCH   1  11
TORSDOF 14
ENDMDL
MODEL 3
REMARK VINA RESULT:    -4.512      1.236      3.928
REMARK INTER + INTRA:         -10.158
REMARK INTER:                  -8.411
REMARK INTRA:                  -1.746
REMARK UNBOUND:                -1.953
REMARK SMILES CCCCCCCCCCCCCCCC(=O)[O-]
REMARK SMILES IDX 9 1 10 2 11 3 12 4 13 5 14 6 15 7 16 8 17 9 18 10 8 11 7 12
REMARK SMILES IDX 6 13 5 14 4 15 3 16 2 17 1 18
REMARK H PARENT
REMARK Flexibility Score: inf
ROOT
ATOM      1  C   UNL     1      25.792  16.210 -10.847  1.00  0.00     0.000 C 
ENDROOT
BRANCH   1   2
ATOM      2  C   UNL     1      25.316  17.670 -10.886  1.00  0.00     0.000 C 
BRANCH   2   3
ATOM      3  C   UNL     1      26.046  18.455 -11.982  1.00  0.00     0.000 C 
BRANCH   3   4
ATOM      4  C   UNL     1      27.075  17.572 -12.702  1.00  0.00     0.000 C 
BRANCH   4   5
ATOM      5  C   UNL     1      27.315  17.999 -14.160  1.00  0.00     0.000 C 
BRANCH   5   6
ATOM      6  C   UNL     1      26.029  18.426 -14.899  1.00  0.00     0.006 C 
BRANCH   6   7
ATOM      7  C   UNL     1      25.890  17.740 -16.264  1.00  0.00     0.053 C 
BRANCH   7   8
ATOM      8  C   UNL     1      24.677  16.865 -16.290  1.00  0.00     0.041 C 
ATOM      9  O   UNL     1      24.252  16.401 -17.380  1.00  0.00    -0.550 OA
ATOM     10  O   UNL     1      24.044  16.521 -15.101  1.00  0.00    -0.550 OA
ENDBRANCH   7   8
ENDBRANCH   6   7
ENDBRANCH   5   6
ENDBRANCH   4   5
ENDBRANCH   3   4
ENDBRANCH   2   3
ENDBRANCH   1   2
BRANCH   1  11
ATOM     11  C   UNL     1      25.779  15.618  -9.428  1.00  0.00     0.000 C 
BRANCH  11  12
ATOM     12  C   UNL     1      27.192  15.312  -8.902  1.00  0.00    -0.000 C 
BRANCH  12  13
ATOM     13  C   UNL     1      28.217  15.133 -10.034  1.00  0.00    -0.000 C 
BRANCH  13  14
ATOM     14  C   UNL     1      28.830  13.724 -10.065  1.00  0.00    -0.000 C 
BRANCH  14  15
ATOM     15  C   UNL     1      28.742  13.120 -11.475  1.00  0.00    -0.000 C 
BRANCH  15  16
ATOM     16  C   UNL     1      27.301  12.777 -11.884  1.00  0.00    -0.000 C 
BRANCH  16  17
ATOM     17  C   UNL     1      27.006  13.117 -13.353  1.00  0.00    -0.003 C 
ATOM     18  C   UNL     1      25.566  13.592 -13.527  1.00  0.00     0.004 C 
ENDBRANCH  16  17
ENDBRANCH  15  16
ENDBRANCH  14  15
ENDBRANCH  13  14
ENDBRANCH  12  13
ENDBRANCH  11  12
ENDBRANCH   1  11
TORSDOF 14
ENDMDL
MODEL 4
REMARK VINA RESULT:    -4.486      1.109      1.645
REMARK INTER + INTRA:         -10.110
REMARK INTER:                  -8.038
REMARK INTRA:                  -2.072
REMARK UNBOUND:                -1.953
REMARK SMILES CCCCCCCCCCCCCCCC(=O)[O-]
REMARK SMILES IDX 9 1 10 2 11 3 12 4 13 5 14 6 15 7 16 8 17 9 18 10 8 11 7 12
REMARK SMILES IDX 6 13 5 14 4 15 3 16 2 17 1 18
REMARK H PARENT
REMARK Flexibility Score: inf
ROOT
ATOM      1  C   UNL     1      28.649  12.995 -11.580  1.00  0.00     0.000 C 
ENDROOT
BRANCH   1   2
ATOM      2  C   UNL     1      27.245  12.643 -12.098  1.00  0.00     0.000 C 
BRANCH   2   3
ATOM      3  C   UNL     1      27.105  12.994 -13.583  1.00  0.00     0.000 C 
BRANCH   3   4
ATOM      4  C   UNL     1      25.656  13.366 -13.928  1.00  0.00     0.000 C 
BRANCH   4   5
ATOM      5  C   UNL     1      25.228  14.720 -13.336  1.00  0.00     0.000 C 
BRANCH   5   6
ATOM      6  C   UNL     1      26.081  15.908 -13.830  1.00  0.00     0.006 C 
BRANCH   6   7
ATOM      7  C   UNL     1      25.264  16.899 -14.670  1.00  0.00     0.053 C 
BRANCH   7   8
ATOM      8  C   UNL     1      25.600  16.757 -16.121  1.00  0.00     0.041 C 
ATOM      9  O   UNL     1      26.779  16.944 -16.520  1.00  0.00    -0.550 OA
ATOM     10  O   UNL     1      24.619  16.370 -17.026  1.00  0.00    -0.550 OA
ENDBRANCH   7   8
ENDBRANCH   6   7
ENDBRANCH   5   6
ENDBRANCH   4   5
ENDBRANCH   3   4
ENDBRANCH   2   3
ENDBRANCH   1   2
BRANCH   1  11
ATOM     11  C   UNL     1      28.623  13.647 -10.188  1.00  0.00     0.000 C 
BRANCH  11  12
ATOM     12  C   UNL     1      28.664  15.183 -10.254  1.00  0.00    -0.000 C 
BRANCH  12  13
ATOM     13  C   UNL     1      27.264  15.807 -10.365  1.00  0.00    -0.000 C 
BRANCH  13  14
ATOM     14  C   UNL     1      26.207  15.049  -9.547  1.00  0.00    -0.000 C 
BRANCH  14  15
ATOM     15  C   UNL     1      24.807  15.631  -9.790  1.00  0.00    -0.000 C 
BRANCH  15  16
ATOM     16  C   UNL     1      24.782  17.167  -9.715  1.00  0.00    -0.000 C 
BRANCH  16  17
ATOM     17  C   UNL     1      24.436  17.820 -11.061  1.00  0.00    -0.003 C 
ATOM     18  C   UNL     1      25.314  19.042 -11.319  1.00  0.00     0.004 C 
ENDBRANCH  16  17
ENDBRANCH  15  16
ENDBRANCH  14  15
ENDBRANCH  13  14
ENDBRANCH  12  13
ENDBRANCH  11  12
ENDBRANCH   1  11
TORSDOF 14
ENDMDL
MODEL 5
REMARK VINA RESULT:    -4.457      3.049      5.154
REMARK INTER + INTRA:         -10.057
REMARK INTER:                  -7.641
REMARK INTRA:                  -2.416
REMARK UNBOUND:                -1.953
REMARK SMILES CCCCCCCCCCCCCCCC(=O)[O-]
REMARK SMILES IDX 9 1 10 2 11 3 12 4 13 5 14 6 15 7 16 8 17 9 18 10 8 11 7 12
REMARK SMILES IDX 6 13 5 14 4 15 3 16 2 17 1 18
REMARK H PARENT
REMARK Flexibility Score: inf
ROOT
ATOM      1  C   UNL     1      25.324  14.882 -13.543  1.00  0.00     0.000 C 
ENDROOT
BRANCH   1   2
ATOM      2  C   UNL     1      24.841  14.529 -12.128  1.00  0.00     0.000 C 
BRANCH   2   3
ATOM      3  C   UNL     1      25.479  13.223 -11.641  1.00  0.00     0.000 C 
BRANCH   3   4
ATOM      4  C   UNL     1      25.527  13.169 -10.108  1.00  0.00     0.000 C 
BRANCH   4   5
ATOM      5  C   UNL     1      25.520  14.564  -9.460  1.00  0.00     0.000 C 
BRANCH   5   6
ATOM      6  C   UNL     1      26.912  15.031  -8.982  1.00  0.00     0.006 C 
BRANCH   6   7
ATOM      7  C   UNL     1      27.964  13.919  -9.090  1.00  0.00     0.053 C 
BRANCH   7   8
ATOM      8  C   UNL     1      28.917  14.207 -10.206  1.00  0.00     0.041 C 
ATOM      9  O   UNL     1      29.315  15.383 -10.413  1.00  0.00    -0.550 OA
ATOM     10  O   UNL     1      29.404  13.167 -10.989  1.00  0.00    -0.550 OA
ENDBRANCH   7   8
ENDBRANCH   6   7
ENDBRANCH   5   6
ENDBRANCH   4   5
ENDBRANCH   3   4
ENDBRANCH   2   3
ENDBRANCH   1   2
BRANCH   1  11
ATOM     11  C   UNL     1      26.004  16.260 -13.612  1.00  0.00     0.000 C 
BRANCH  11  12
ATOM     12  C   UNL     1      26.528  16.729 -12.244  1.00  0.00    -0.000 C 
BRANCH  12  13
ATOM     13  C   UNL     1      26.650  18.258 -12.151  1.00  0.00    -0.000 C 
BRANCH  13  14
ATOM     14  C   UNL     1      25.430  18.913 -11.483  1.00  0.00    -0.000 C 
BRANCH  14  15
ATOM     15  C   UNL     1      24.827  17.986 -10.418  1.00  0.00    -0.000 C 
BRANCH  15  16
ATOM     16  C   UNL     1      23.370  17.601 -10.722  1.00  0.00    -0.000 C 
BRANCH  16  17
ATOM     17  C   UNL     1      22.826  18.295 -11.980  1.00  0.00    -0.003 C 
ATOM     18  C   UNL     1      22.335  17.272 -13.001  1.00  0.00     0.004 C 
ENDBRANCH  16  17
ENDBRANCH  15  16
ENDBRANCH  14  15
ENDBRANCH  13  14
ENDBRANCH  12  13
ENDBRANCH  11  12
ENDBRANCH   1  11
TORSDOF 14
ENDMDL
MODEL 6
REMARK VINA RESULT:    -4.439      3.362      5.626
REMARK INTER + INTRA:         -10.025
REMARK INTER:                  -7.495
REMARK INTRA:                  -2.530
REMARK UNBOUND:                -1.953
REMARK SMILES CCCCCCCCCCCCCCCC(=O)[O-]
REMARK SMILES IDX 9 1 10 2 11 3 12 4 13 5 14 6 15 7 16 8 17 9 18 10 8 11 7 12
REMARK SMILES IDX 6 13 5 14 4 15 3 16 2 17 1 18
REMARK H PARENT
REMARK Flexibility Score: inf
ROOT
ATOM      1  C   UNL     1      25.608  13.622 -12.237  1.00  0.00     0.000 C 
ENDROOT
BRANCH   1   2
ATOM      2  C   UNL     1      25.024  15.043 -12.221  1.00  0.00     0.000 C 
BRANCH   2   3
ATOM      3  C   UNL     1      26.139  16.094 -12.284  1.00  0.00     0.000 C 
BRANCH   3   4
ATOM      4  C   UNL     1      25.879  17.234 -11.290  1.00  0.00     0.000 C 
BRANCH   4   5
ATOM      5  C   UNL     1      24.403  17.337 -10.868  1.00  0.00     0.000 C 
BRANCH   5   6
ATOM      6  C   UNL     1      24.196  17.348  -9.339  1.00  0.00     0.006 C 
BRANCH   6   7
ATOM      7  C   UNL     1      23.128  16.341  -8.890  1.00  0.00     0.053 C 
BRANCH   7   8
ATOM      8  C   UNL     1      21.986  17.048  -8.231  1.00  0.00     0.041 C 
ATOM      9  O   UNL     1      20.804  16.661  -8.426  1.00  0.00    -0.550 OA
ATOM     10  O   UNL     1      22.232  18.104  -7.362  1.00  0.00    -0.550 OA
ENDBRANCH   7   8
ENDBRANCH   6   7
ENDBRANCH   5   6
ENDBRANCH   4   5
ENDBRANCH   3   4
ENDBRANCH   2   3
ENDBRANCH   1   2
BRANCH   1  11
ATOM     11  C   UNL     1      27.120  13.603 -12.518  1.00  0.00     0.000 C 
BRANCH  11  12
ATOM     12  C   UNL     1      27.885  12.659 -11.575  1.00  0.00    -0.000 C 
BRANCH  12  13
ATOM     13  C   UNL     1      29.195  13.275 -11.058  1.00  0.00    -0.000 C 
BRANCH  13  14
ATOM     14  C   UNL     1      28.977  14.600 -10.311  1.00  0.00    -0.000 C 
BRANCH  14  15
ATOM     15  C   UNL     1      28.359  14.352  -8.927  1.00  0.00    -0.000 C 
BRANCH  15  16
ATOM     16  C   UNL     1      26.932  14.912  -8.806  1.00  0.00    -0.000 C 
BRANCH  16  17
ATOM     17  C   UNL     1      25.871  13.808  -8.692  1.00  0.00    -0.003 C 
ATOM     18  C   UNL     1      26.487  12.504  -8.194  1.00  0.00     0.004 C 
ENDBRANCH  16  17
ENDBRANCH  15  16
ENDBRANCH  14  15
ENDBRANCH  13  14
ENDBRANCH  12  13
ENDBRANCH  11  12
ENDBRANCH   1  11
TORSDOF 14
ENDMDL
MODEL 7
REMARK VINA RESULT:    -4.378      1.842      4.353
REMARK INTER + INTRA:          -9.914
REMARK INTER:                  -8.063
REMARK INTRA:                  -1.850
REMARK UNBOUND:                -1.953
REMARK SMILES CCCCCCCCCCCCCCCC(=O)[O-]
REMARK SMILES IDX 9 1 10 2 11 3 12 4 13 5 14 6 15 7 16 8 17 9 18 10 8 11 7 12
REMARK SMILES IDX 6 13 5 14 4 15 3 16 2 17 1 18
REMARK H PARENT
REMARK Flexibility Score: inf
ROOT
ATOM      1  C   UNL     1      26.108  16.303 -10.635  1.00  0.00     0.000 C 
ENDROOT
BRANCH   1   2
ATOM      2  C   UNL     1      25.025  17.275 -11.127  1.00  0.00     0.000 C 
BRANCH   2   3
ATOM      3  C   UNL     1      25.646  18.599 -11.588  1.00  0.00     0.000 C 
BRANCH   3   4
ATOM      4  C   UNL     1      25.215  18.942 -13.021  1.00  0.00     0.000 C 
BRANCH   4   5
ATOM      5  C   UNL     1      25.021  17.695 -13.902  1.00  0.00     0.000 C 
BRANCH   5   6
ATOM      6  C   UNL     1      25.359  17.931 -15.389  1.00  0.00     0.006 C 
BRANCH   6   7
ATOM      7  C   UNL     1      26.781  18.474 -15.583  1.00  0.00     0.053 C 
BRANCH   7   8
ATOM      8  C   UNL     1      27.700  17.386 -16.040  1.00  0.00     0.041 C 
ATOM      9  O   UNL     1      28.926  17.620 -16.206  1.00  0.00    -0.550 OA
ATOM     10  O   UNL     1      27.211  16.100 -16.236  1.00  0.00    -0.550 OA
ENDBRANCH   7   8
ENDBRANCH   6   7
ENDBRANCH   5   6
ENDBRANCH   4   5
ENDBRANCH   3   4
ENDBRANCH   2   3
ENDBRANCH   1   2
BRANCH   1  11
ATOM     11  C   UNL     1      27.459  16.512 -11.340  1.00  0.00     0.000 C 
BRANCH  11  12
ATOM     12  C   UNL     1      28.615  15.792 -10.625  1.00  0.00    -0.000 C 
BRANCH  12  13
ATOM     13  C   UNL     1      28.125  14.826  -9.534  1.00  0.00    -0.000 C 
BRANCH  13  14
ATOM     14  C   UNL     1      28.546  13.371  -9.795  1.00  0.00    -0.000 C 
BRANCH  14  15
ATOM     15  C   UNL     1      28.642  13.091 -11.302  1.00  0.00    -0.000 C 
BRANCH  15  16
ATOM     16  C   UNL     1      27.308  12.617 -11.902  1.00  0.00    -0.000 C 
BRANCH  16  17
ATOM     17  C   UNL     1      27.152  13.010 -13.379  1.00  0.00    -0.003 C 
ATOM     18  C   UNL     1      25.926  13.896 -13.585  1.00  0.00     0.004 C 
ENDBRANCH  16  17
ENDBRANCH  15  16
ENDBRANCH  14  15
ENDBRANCH  13  14
ENDBRANCH  12  13
ENDBRANCH  11  12
ENDBRANCH   1  11
TORSDOF 14
ENDMDL
MODEL 8
REMARK VINA RESULT:    -4.363      2.896      4.607
REMARK INTER + INTRA:          -9.887
REMARK INTER:                  -7.277
REMARK INTRA:                  -2.610
REMARK UNBOUND:                -1.953
REMARK SMILES CCCCCCCCCCCCCCCC(=O)[O-]
REMARK SMILES IDX 9 1 10 2 11 3 12 4 13 5 14 6 15 7 16 8 17 9 18 10 8 11 7 12
REMARK SMILES IDX 6 13 5 14 4 15 3 16 2 17 1 18
REMARK H PARENT
REMARK Flexibility Score: inf
ROOT
ATOM      1  C   UNL     1      28.717  13.221 -10.240  1.00  0.00     0.000 C 
ENDROOT
BRANCH   1   2
ATOM      2  C   UNL     1      27.475  12.885  -9.401  1.00  0.00     0.000 C 
BRANCH   2   3
ATOM      3  C   UNL     1      26.579  11.875 -10.128  1.00  0.00     0.000 C 
BRANCH   3   4
ATOM      4  C   UNL     1      25.101  12.094  -9.775  1.00  0.00     0.000 C 
BRANCH   4   5
ATOM      5  C   UNL     1      24.871  13.341  -8.904  1.00  0.00     0.000 C 
BRANCH   5   6
ATOM      6  C   UNL     1      23.386  13.596  -8.568  1.00  0.00     0.006 C 
BRANCH   6   7
ATOM      7  C   UNL     1      22.572  13.993  -9.807  1.00  0.00     0.053 C 
BRANCH   7   8
ATOM      8  C   UNL     1      22.065  15.394  -9.674  1.00  0.00     0.041 C 
ATOM      9  O   UNL     1      21.650  16.017 -10.686  1.00  0.00    -0.550 OA
ATOM     10  O   UNL     1      22.006  15.995  -8.422  1.00  0.00    -0.550 OA
ENDBRANCH   7   8
ENDBRANCH   6   7
ENDBRANCH   5   6
ENDBRANCH   4   5
ENDBRANCH   3   4
ENDBRANCH   2   3
ENDBRANCH   1   2
BRANCH   1  11
ATOM     11  C   UNL     1      29.028  14.727 -10.264  1.00  0.00     0.000 C 
BRANCH  11  12
ATOM     12  C   UNL     1      27.800  15.589  -9.929  1.00  0.00    -0.000 C 
BRANCH  12  13
ATOM     13  C   UNL     1      27.087  16.115 -11.185  1.00  0.00    -0.000 C 
BRANCH  13  14
ATOM     14  C   UNL     1      25.555  16.092 -11.054  1.00  0.00    -0.000 C 
BRANCH  14  15
ATOM     15  C   UNL     1      24.898  15.717 -12.391  1.00  0.00    -0.000 C 
BRANCH  15  16
ATOM     16  C   UNL     1      25.098  14.236 -12.754  1.00  0.00    -0.000 C 
BRANCH  16  17
ATOM     17  C   UNL     1      26.066  14.040 -13.930  1.00  0.00    -0.003 C 
ATOM     18  C   UNL     1      27.088  12.949 -13.623  1.00  0.00     0.004 C 
ENDBRANCH  16  17
ENDBRANCH  15  16
ENDBRANCH  14  15
ENDBRANCH  13  14
ENDBRANCH  12  13
ENDBRANCH  11  12
ENDBRANCH   1  11
TORSDOF 14
ENDMDL
MODEL 9
REMARK VINA RESULT:    -4.341      3.023      4.954
REMARK INTER + INTRA:          -9.846
REMARK INTER:                  -7.646
REMARK INTRA:                  -2.200
REMARK UNBOUND:                -1.953
REMARK SMILES CCCCCCCCCCCCCCCC(=O)[O-]
REMARK SMILES IDX 9 1 10 2 11 3 12 4 13 5 14 6 15 7 16 8 17 9 18 10 8 11 7 12
REMARK SMILES IDX 6 13 5 14 4 15 3 16 2 17 1 18
REMARK H PARENT
REMARK Flexibility Score: inf
ROOT
ATOM      1  C   UNL     1      27.413  12.983 -13.082  1.00  0.00     0.000 C 
ENDROOT
BRANCH   1   2
ATOM      2  C   UNL     1      27.600  12.623 -11.600  1.00  0.00     0.000 C 
BRANCH   2   3
ATOM      3  C   UNL     1      28.815  13.346 -11.009  1.00  0.00     0.000 C 
BRANCH   3   4
ATOM      4  C   UNL     1      28.386  14.586 -10.212  1.00  0.00     0.000 C 
BRANCH   4   5
ATOM      5  C   UNL     1      27.396  14.258  -9.081  1.00  0.00     0.000 C 
BRANCH   5   6
ATOM      6  C   UNL     1      26.094  15.085  -9.140  1.00  0.00     0.006 C 
BRANCH   6   7
ATOM      7  C   UNL     1      24.925  14.284  -9.730  1.00  0.00     0.053 C 
BRANCH   7   8
ATOM      8  C   UNL     1      23.795  14.209  -8.753  1.00  0.00     0.041 C 
ATOM      9  O   UNL     1      22.949  15.139  -8.690  1.00  0.00    -0.550 OA
ATOM     10  O   UNL     1      23.649  13.088  -7.945  1.00  0.00    -0.550 OA
ENDBRANCH   7   8
ENDBRANCH   6   7
ENDBRANCH   5   6
ENDBRANCH   4   5
ENDBRANCH   3   4
ENDBRANCH   2   3
ENDBRANCH   1   2
BRANCH   1  11
ATOM     11  C   UNL     1      26.038  13.606 -13.373  1.00  0.00     0.000 C 
BRANCH  11  12
ATOM     12  C   UNL     1      25.955  15.080 -12.943  1.00  0.00    -0.000 C 
BRANCH  12  13
ATOM     13  C   UNL     1      26.060  16.049 -14.132  1.00  0.00    -0.000 C 
BRANCH  13  14
ATOM     14  C   UNL     1      26.753  17.371 -13.763  1.00  0.00    -0.000 C 
BRANCH  14  15
ATOM     15  C   UNL     1      26.812  17.550 -12.239  1.00  0.00    -0.000 C 
BRANCH  15  16
ATOM     16  C   UNL     1      25.841  18.629 -11.731  1.00  0.00    -0.000 C 
BRANCH  16  17
ATOM     17  C   UNL     1      24.891  18.105 -10.644  1.00  0.00    -0.003 C 
ATOM     18  C   UNL     1      23.561  17.658 -11.246  1.00  0.00     0.004 C 
ENDBRANCH  16  17
ENDBRANCH  15  16
ENDBRANCH  14  15
ENDBRANCH  13  14
ENDBRANCH  12  13
ENDBRANCH  11  12
ENDBRANCH   1  11
TORSDOF 14
ENDMDL
