MODEL 1
REMARK VINA RESULT:    -8.794      0.000      0.000
REMARK INTER + INTRA:          -9.308
REMARK INTER:                  -9.308
REMARK INTRA:                   0.000
REMARK UNBOUND:                 0.000
REMARK SMILES C[C@H]1CC[C@H]2[N@@H+](C1)C[C@@H]1[C@@H]3C[C@H]4[C@H](CC(=O)[C@H]5C[C@H](O)CC[C@@]54C)[C@@H]3CC[C@H]1[C@]2(C)O
REMARK SMILES IDX 5 1 6 2 8 3 7 4 4 5 29 6 3 7 28 8 30 9 2 10 27 11 9 12 1 13
REMARK SMILES IDX 26 14 10 15 25 16 11 17 13 18 12 19 14 20 23 21 15 22 17 23
REMARK SMILES IDX 22 24 24 25 16 26 18 27 21 28 19 29 31 31 20 33
REMARK H PARENT 6 30 31 32 20 34
REMARK Flexibility Score: inf
ROOT
ATOM      1  C   UNL     1     253.583 -24.918  43.823  1.00  0.00     0.216 C 
ATOM      2  N   UNL     1     254.886 -25.065  44.579  1.00  0.00    -0.330 N 
ATOM      3  C   UNL     1     254.791 -24.875  46.055  1.00  0.00     0.266 C 
ATOM      4  C   UNL     1     255.988 -24.213  44.053  1.00  0.00     0.265 C 
ATOM      5  C   UNL     1     253.531 -23.608  42.984  1.00  0.00     0.069 C 
ATOM      6  C   UNL     1     252.289 -25.195  44.704  1.00  0.00     0.117 C 
ATOM      7  C   UNL     1     254.684 -23.554  41.969  1.00  0.00     0.015 C 
ATOM      8  C   UNL     1     252.319 -24.460  46.110  1.00  0.00     0.036 C 
ATOM      9  C   UNL     1     251.003 -24.879  43.904  1.00  0.00     0.049 C 
ATOM     10  C   UNL     1     256.012 -24.122  42.518  1.00  0.00     0.041 C 
ATOM     11  C   UNL     1     251.268 -23.354  46.359  1.00  0.00     0.007 C 
ATOM     12  C   UNL     1     253.702 -23.867  46.426  1.00  0.00     0.054 C 
ATOM     13  C   UNL     1     256.378 -25.471  41.875  1.00  0.00     0.013 C 
ATOM     14  C   UNL     1     251.295 -22.919  47.830  1.00  0.00     0.004 C 
ATOM     15  C   UNL     1     253.823 -23.340  47.877  1.00  0.00     0.002 C 
ATOM     16  C   UNL     1     252.683 -22.392  48.282  1.00  0.00    -0.004 C 
ATOM     17  C   UNL     1     253.881 -24.385  48.993  1.00  0.00     0.009 C 
ATOM     18  C   UNL     1     252.850 -22.288  49.820  1.00  0.00     0.003 C 
ATOM     19  C   UNL     1     253.595 -23.580  50.272  1.00  0.00    -0.000 C 
ATOM     20  C   UNL     1     251.593 -21.893  50.634  1.00  0.00     0.080 C 
ATOM     21  C   UNL     1     252.973 -24.362  51.485  1.00  0.00    -0.020 C 
ATOM     22  C   UNL     1     251.749 -22.190  52.102  1.00  0.00     0.136 C 
ATOM     23  C   UNL     1     252.663 -23.299  52.593  1.00  0.00     0.065 C 
ATOM     24  C   UNL     1     254.028 -25.404  52.023  1.00  0.00     0.010 C 
ATOM     25  C   UNL     1     251.679 -25.143  51.094  1.00  0.00     0.012 C 
ATOM     26  O   UNL     1     251.143 -21.500  52.909  1.00  0.00    -0.299 OA
ATOM     27  C   UNL     1     252.141 -23.937  53.907  1.00  0.00     0.043 C 
ATOM     28  C   UNL     1     254.214 -25.405  53.552  1.00  0.00     0.032 C 
ATOM     29  C   UNL     1     252.874 -25.248  54.288  1.00  0.00     0.115 C 
ATOM     30  H   UNL     1     255.202 -26.055  44.444  1.00  0.00     0.348 HD
ENDROOT
BRANCH   6  31
ATOM     31  O   UNL     1     252.213 -26.588  44.933  1.00  0.00    -0.384 OA
ATOM     32  H   UNL     1     252.696 -26.811  45.767  1.00  0.00     0.211 HD
ENDBRANCH   6  31
BRANCH  29  33
ATOM     33  O   UNL     1     253.061 -25.325  55.679  1.00  0.00    -0.393 OA
ATOM     34  H   UNL     1     253.943 -25.752  55.842  1.00  0.00     0.210 HD
ENDBRANCH  29  33
TORSDOF 2
ENDMDL
MODEL 2
REMARK VINA RESULT:    -8.317     13.151     15.003
REMARK INTER + INTRA:          -8.804
REMARK INTER:                  -8.804
REMARK INTRA:                   0.000
REMARK UNBOUND:                 0.000
REMARK SMILES C[C@H]1CC[C@H]2[N@@H+](C1)C[C@@H]1[C@@H]3C[C@H]4[C@H](CC(=O)[C@H]5C[C@H](O)CC[C@@]54C)[C@@H]3CC[C@H]1[C@]2(C)O
REMARK SMILES IDX 5 1 6 2 8 3 7 4 4 5 29 6 3 7 28 8 30 9 2 10 27 11 9 12 1 13
REMARK SMILES IDX 26 14 10 15 25 16 11 17 13 18 12 19 14 20 23 21 15 22 17 23
REMARK SMILES IDX 22 24 24 25 16 26 18 27 21 28 19 29 31 31 20 33
REMARK H PARENT 6 30 31 32 20 34
REMARK Flexibility Score: inf
ROOT
ATOM      1  C   UNL     1     267.132 -29.350  53.135  1.00  0.00     0.216 C 
ATOM      2  N   UNL     1     266.605 -30.569  53.861  1.00  0.00    -0.330 N 
ATOM      3  C   UNL     1     265.617 -30.289  54.942  1.00  0.00     0.266 C 
ATOM      4  C   UNL     1     267.672 -31.457  54.402  1.00  0.00     0.265 C 
ATOM      5  C   UNL     1     268.613 -29.039  53.498  1.00  0.00     0.069 C 
ATOM      6  C   UNL     1     266.158 -28.095  53.186  1.00  0.00     0.117 C 
ATOM      7  C   UNL     1     269.527 -30.230  53.164  1.00  0.00     0.015 C 
ATOM      8  C   UNL     1     265.592 -27.800  54.640  1.00  0.00     0.036 C 
ATOM      9  C   UNL     1     266.829 -26.853  52.555  1.00  0.00     0.049 C 
ATOM     10  C   UNL     1     268.882 -31.602  53.462  1.00  0.00     0.041 C 
ATOM     11  C   UNL     1     266.023 -26.480  55.317  1.00  0.00     0.007 C 
ATOM     12  C   UNL     1     265.888 -28.946  55.621  1.00  0.00     0.054 C 
ATOM     13  C   UNL     1     268.515 -32.364  52.178  1.00  0.00     0.013 C 
ATOM     14  C   UNL     1     265.211 -26.253  56.600  1.00  0.00     0.004 C 
ATOM     15  C   UNL     1     265.162 -28.788  56.980  1.00  0.00     0.002 C 
ATOM     16  C   UNL     1     265.363 -27.407  57.626  1.00  0.00    -0.004 C 
ATOM     17  C   UNL     1     263.649 -29.010  56.988  1.00  0.00     0.009 C 
ATOM     18  C   UNL     1     264.299 -27.396  58.754  1.00  0.00     0.003 C 
ATOM     19  C   UNL     1     263.191 -28.404  58.327  1.00  0.00    -0.000 C 
ATOM     20  C   UNL     1     263.820 -26.008  59.248  1.00  0.00     0.080 C 
ATOM     21  C   UNL     1     261.706 -27.895  58.411  1.00  0.00    -0.020 C 
ATOM     22  C   UNL     1     262.544 -26.096  60.042  1.00  0.00     0.136 C 
ATOM     23  C   UNL     1     261.543 -27.217  59.813  1.00  0.00     0.065 C 
ATOM     24  C   UNL     1     260.730 -29.128  58.296  1.00  0.00     0.010 C 
ATOM     25  C   UNL     1     261.353 -26.891  57.269  1.00  0.00     0.012 C 
ATOM     26  O   UNL     1     262.330 -25.258  60.906  1.00  0.00    -0.299 OA
ATOM     27  C   UNL     1     260.089 -26.756  60.091  1.00  0.00     0.043 C 
ATOM     28  C   UNL     1     259.606 -29.163  59.348  1.00  0.00     0.032 C 
ATOM     29  C   UNL     1     259.020 -27.765  59.601  1.00  0.00     0.115 C 
ATOM     30  H   UNL     1     266.089 -31.143  53.152  1.00  0.00     0.348 HD
ENDROOT
BRANCH   6  31
ATOM     31  O   UNL     1     265.064 -28.362  52.330  1.00  0.00    -0.384 OA
ATOM     32  H   UNL     1     265.389 -28.440  51.398  1.00  0.00     0.211 HD
ENDBRANCH   6  31
BRANCH  29  33
ATOM     33  O   UNL     1     257.949 -27.833  60.509  1.00  0.00    -0.393 OA
ATOM     34  H   UNL     1     257.331 -27.083  60.304  1.00  0.00     0.210 HD
ENDBRANCH  29  33
TORSDOF 2
ENDMDL
MODEL 3
REMARK VINA RESULT:    -8.281     13.252     14.656
REMARK INTER + INTRA:          -8.765
REMARK INTER:                  -8.765
REMARK INTRA:                   0.000
REMARK UNBOUND:                 0.000
REMARK SMILES C[C@H]1CC[C@H]2[N@@H+](C1)C[C@@H]1[C@@H]3C[C@H]4[C@H](CC(=O)[C@H]5C[C@H](O)CC[C@@]54C)[C@@H]3CC[C@H]1[C@]2(C)O
REMARK SMILES IDX 5 1 6 2 8 3 7 4 4 5 29 6 3 7 28 8 30 9 2 10 27 11 9 12 1 13
REMARK SMILES IDX 26 14 10 15 25 16 11 17 13 18 12 19 14 20 23 21 15 22 17 23
REMARK SMILES IDX 22 24 24 25 16 26 18 27 21 28 19 29 31 31 20 33
REMARK H PARENT 6 30 31 32 20 34
REMARK Flexibility Score: inf
ROOT
ATOM      1  C   UNL     1     266.781 -28.080  52.329  1.00  0.00     0.216 C 
ATOM      2  N   UNL     1     266.197 -29.405  52.768  1.00  0.00    -0.330 N 
ATOM      3  C   UNL     1     265.349 -29.352  53.993  1.00  0.00     0.266 C 
ATOM      4  C   UNL     1     267.208 -30.487  52.928  1.00  0.00     0.265 C 
ATOM      5  C   UNL     1     268.315 -27.996  52.584  1.00  0.00     0.069 C 
ATOM      6  C   UNL     1     265.956 -26.814  52.820  1.00  0.00     0.117 C 
ATOM      7  C   UNL     1     269.061 -29.119  51.845  1.00  0.00     0.015 C 
ATOM      8  C   UNL     1     265.562 -26.880  54.357  1.00  0.00     0.036 C 
ATOM      9  C   UNL     1     266.695 -25.503  52.461  1.00  0.00     0.049 C 
ATOM     10  C   UNL     1     268.303 -30.466  51.848  1.00  0.00     0.041 C 
ATOM     11  C   UNL     1     266.192 -25.832  55.300  1.00  0.00     0.007 C 
ATOM     12  C   UNL     1     265.823 -28.269  54.963  1.00  0.00     0.054 C 
ATOM     13  C   UNL     1     267.740 -30.820  50.461  1.00  0.00     0.013 C 
ATOM     14  C   UNL     1     265.532 -25.899  56.684  1.00  0.00     0.004 C 
ATOM     15  C   UNL     1     265.247 -28.430  56.391  1.00  0.00     0.002 C 
ATOM     16  C   UNL     1     265.653 -27.296  57.347  1.00  0.00    -0.004 C 
ATOM     17  C   UNL     1     263.726 -28.526  56.519  1.00  0.00     0.009 C 
ATOM     18  C   UNL     1     264.706 -27.507  58.556  1.00  0.00     0.003 C 
ATOM     19  C   UNL     1     263.462 -28.272  58.014  1.00  0.00    -0.000 C 
ATOM     20  C   UNL     1     264.426 -26.273  59.448  1.00  0.00     0.080 C 
ATOM     21  C   UNL     1     262.054 -27.690  58.402  1.00  0.00    -0.020 C 
ATOM     22  C   UNL     1     263.226 -26.473  60.337  1.00  0.00     0.136 C 
ATOM     23  C   UNL     1     262.095 -27.407  59.942  1.00  0.00     0.065 C 
ATOM     24  C   UNL     1     260.945 -28.766  58.085  1.00  0.00     0.010 C 
ATOM     25  C   UNL     1     261.706 -26.390  57.612  1.00  0.00     0.012 C 
ATOM     26  O   UNL     1     263.185 -25.887  61.408  1.00  0.00    -0.299 OA
ATOM     27  C   UNL     1     260.730 -26.927  60.500  1.00  0.00     0.043 C 
ATOM     28  C   UNL     1     259.926 -28.996  59.216  1.00  0.00     0.032 C 
ATOM     29  C   UNL     1     259.519 -27.678  59.892  1.00  0.00     0.115 C 
ATOM     30  H   UNL     1     265.559 -29.723  51.999  1.00  0.00     0.348 HD
ENDROOT
BRANCH   6  31
ATOM     31  O   UNL     1     264.766 -26.752  52.059  1.00  0.00    -0.384 OA
ATOM     32  H   UNL     1     264.643 -27.605  51.572  1.00  0.00     0.211 HD
ENDBRANCH   6  31
BRANCH  29  33
ATOM     33  O   UNL     1     258.535 -27.906  60.871  1.00  0.00    -0.393 OA
ATOM     34  H   UNL     1     257.669 -28.038  60.403  1.00  0.00     0.210 HD
ENDBRANCH  29  33
TORSDOF 2
ENDMDL
MODEL 4
REMARK VINA RESULT:    -8.117     13.511     16.276
REMARK INTER + INTRA:          -8.591
REMARK INTER:                  -8.591
REMARK INTRA:                   0.000
REMARK UNBOUND:                 0.000
REMARK SMILES C[C@H]1CC[C@H]2[N@@H+](C1)C[C@@H]1[C@@H]3C[C@H]4[C@H](CC(=O)[C@H]5C[C@H](O)CC[C@@]54C)[C@@H]3CC[C@H]1[C@]2(C)O
REMARK SMILES IDX 5 1 6 2 8 3 7 4 4 5 29 6 3 7 28 8 30 9 2 10 27 11 9 12 1 13
REMARK SMILES IDX 26 14 10 15 25 16 11 17 13 18 12 19 14 20 23 21 15 22 17 23
REMARK SMILES IDX 22 24 24 25 16 26 18 27 21 28 19 29 31 31 20 33
REMARK H PARENT 6 30 31 32 20 34
REMARK Flexibility Score: inf
ROOT
ATOM      1  C   UNL     1     268.739 -32.344  52.988  1.00  0.00     0.216 C 
ATOM      2  N   UNL     1     267.729 -31.764  52.021  1.00  0.00    -0.330 N 
ATOM      3  C   UNL     1     266.916 -30.633  52.552  1.00  0.00     0.266 C 
ATOM      4  C   UNL     1     266.815 -32.776  51.423  1.00  0.00     0.265 C 
ATOM      5  C   UNL     1     268.323 -33.755  53.501  1.00  0.00     0.069 C 
ATOM      6  C   UNL     1     269.202 -31.335  54.124  1.00  0.00     0.117 C 
ATOM      7  C   UNL     1     268.153 -34.741  52.333  1.00  0.00     0.015 C 
ATOM      8  C   UNL     1     267.993 -30.572  54.816  1.00  0.00     0.036 C 
ATOM      9  C   UNL     1     270.112 -32.046  55.153  1.00  0.00     0.049 C 
ATOM     10  C   UNL     1     267.513 -34.104  51.080  1.00  0.00     0.041 C 
ATOM     11  C   UNL     1     267.724 -30.869  56.308  1.00  0.00     0.007 C 
ATOM     12  C   UNL     1     266.671 -30.770  54.056  1.00  0.00     0.054 C 
ATOM     13  C   UNL     1     268.523 -33.934  49.932  1.00  0.00     0.013 C 
ATOM     14  C   UNL     1     266.683 -29.888  56.864  1.00  0.00     0.004 C 
ATOM     15  C   UNL     1     265.527 -29.865  54.576  1.00  0.00     0.002 C 
ATOM     16  C   UNL     1     265.334 -29.937  56.100  1.00  0.00    -0.004 C 
ATOM     17  C   UNL     1     265.625 -28.372  54.261  1.00  0.00     0.009 C 
ATOM     18  C   UNL     1     264.400 -28.733  56.386  1.00  0.00     0.003 C 
ATOM     19  C   UNL     1     264.611 -27.723  55.219  1.00  0.00    -0.000 C 
ATOM     20  C   UNL     1     264.431 -28.150  57.821  1.00  0.00     0.080 C 
ATOM     21  C   UNL     1     264.866 -26.225  55.622  1.00  0.00    -0.020 C 
ATOM     22  C   UNL     1     263.804 -26.783  57.894  1.00  0.00     0.136 C 
ATOM     23  C   UNL     1     263.780 -25.857  56.689  1.00  0.00     0.065 C 
ATOM     24  C   UNL     1     264.696 -25.311  54.348  1.00  0.00     0.010 C 
ATOM     25  C   UNL     1     266.300 -25.996  56.194  1.00  0.00     0.012 C 
ATOM     26  O   UNL     1     263.281 -26.431  58.941  1.00  0.00    -0.299 OA
ATOM     27  C   UNL     1     263.834 -24.365  57.110  1.00  0.00     0.043 C 
ATOM     28  C   UNL     1     263.826 -24.059  54.563  1.00  0.00     0.032 C 
ATOM     29  C   UNL     1     264.100 -23.402  55.925  1.00  0.00     0.115 C 
ATOM     30  H   UNL     1     268.275 -31.364  51.220  1.00  0.00     0.348 HD
ENDROOT
BRANCH   6  31
ATOM     31  O   UNL     1     270.050 -30.373  53.528  1.00  0.00    -0.384 OA
ATOM     32  H   UNL     1     269.699 -29.466  53.713  1.00  0.00     0.211 HD
ENDBRANCH   6  31
BRANCH  29  33
ATOM     33  O   UNL     1     263.348 -22.222  56.067  1.00  0.00    -0.393 OA
ATOM     34  H   UNL     1     262.652 -22.221  55.359  1.00  0.00     0.210 HD
ENDBRANCH  29  33
TORSDOF 2
ENDMDL
MODEL 5
REMARK VINA RESULT:    -7.909     13.556     16.874
REMARK INTER + INTRA:          -8.371
REMARK INTER:                  -8.371
REMARK INTRA:                   0.000
REMARK UNBOUND:                 0.000
REMARK SMILES C[C@H]1CC[C@H]2[N@@H+](C1)C[C@@H]1[C@@H]3C[C@H]4[C@H](CC(=O)[C@H]5C[C@H](O)CC[C@@]54C)[C@@H]3CC[C@H]1[C@]2(C)O
REMARK SMILES IDX 5 1 6 2 8 3 7 4 4 5 29 6 3 7 28 8 30 9 2 10 27 11 9 12 1 13
REMARK SMILES IDX 26 14 10 15 25 16 11 17 13 18 12 19 14 20 23 21 15 22 17 23
REMARK SMILES IDX 22 24 24 25 16 26 18 27 21 28 19 29 31 31 20 33
REMARK H PARENT 6 30 31 32 20 34
REMARK Flexibility Score: inf
ROOT
ATOM      1  C   UNL     1     263.603 -26.002  56.354  1.00  0.00     0.216 C 
ATOM      2  N   UNL     1     264.396 -25.489  55.170  1.00  0.00    -0.330 N 
ATOM      3  C   UNL     1     265.119 -26.533  54.388  1.00  0.00     0.266 C 
ATOM      4  C   UNL     1     265.348 -24.396  55.511  1.00  0.00     0.265 C 
ATOM      5  C   UNL     1     264.259 -25.624  57.714  1.00  0.00     0.069 C 
ATOM      6  C   UNL     1     263.164 -27.524  56.228  1.00  0.00     0.117 C 
ATOM      7  C   UNL     1     264.403 -24.100  57.855  1.00  0.00     0.015 C 
ATOM      8  C   UNL     1     264.343 -28.480  55.764  1.00  0.00     0.036 C 
ATOM      9  C   UNL     1     262.493 -28.011  57.534  1.00  0.00     0.049 C 
ATOM     10  C   UNL     1     264.789 -23.394  56.536  1.00  0.00     0.041 C 
ATOM     11  C   UNL     1     264.838 -29.542  56.772  1.00  0.00     0.007 C 
ATOM     12  C   UNL     1     265.571 -27.693  55.276  1.00  0.00     0.054 C 
ATOM     13  C   UNL     1     263.627 -22.574  55.952  1.00  0.00     0.013 C 
ATOM     14  C   UNL     1     265.807 -30.513  56.085  1.00  0.00     0.004 C 
ATOM     15  C   UNL     1     266.646 -28.589  54.614  1.00  0.00     0.002 C 
ATOM     16  C   UNL     1     267.041 -29.805  55.468  1.00  0.00    -0.004 C 
ATOM     17  C   UNL     1     266.317 -29.166  53.236  1.00  0.00     0.009 C 
ATOM     18  C   UNL     1     267.841 -30.682  54.470  1.00  0.00     0.003 C 
ATOM     19  C   UNL     1     267.354 -30.286  53.045  1.00  0.00    -0.000 C 
ATOM     20  C   UNL     1     267.921 -32.197  54.780  1.00  0.00     0.080 C 
ATOM     21  C   UNL     1     266.962 -31.467  52.083  1.00  0.00    -0.020 C 
ATOM     22  C   UNL     1     268.371 -32.999  53.588  1.00  0.00     0.136 C 
ATOM     23  C   UNL     1     268.120 -32.518  52.169  1.00  0.00     0.065 C 
ATOM     24  C   UNL     1     266.847 -30.916  50.610  1.00  0.00     0.010 C 
ATOM     25  C   UNL     1     265.596 -32.119  52.463  1.00  0.00     0.012 C 
ATOM     26  O   UNL     1     268.974 -34.045  53.777  1.00  0.00    -0.299 OA
ATOM     27  C   UNL     1     267.929 -33.702  51.185  1.00  0.00     0.043 C 
ATOM     28  C   UNL     1     267.570 -31.762  49.545  1.00  0.00     0.032 C 
ATOM     29  C   UNL     1     267.391 -33.267  49.798  1.00  0.00     0.115 C 
ATOM     30  H   UNL     1     263.705 -25.068  54.504  1.00  0.00     0.348 HD
ENDROOT
BRANCH   6  31
ATOM     31  O   UNL     1     262.129 -27.597  55.267  1.00  0.00    -0.384 OA
ATOM     32  H   UNL     1     262.292 -28.367  54.667  1.00  0.00     0.211 HD
ENDBRANCH   6  31
BRANCH  29  33
ATOM     33  O   UNL     1     267.996 -34.018  48.774  1.00  0.00    -0.393 OA
ATOM     34  H   UNL     1     268.580 -33.404  48.255  1.00  0.00     0.210 HD
ENDBRANCH  29  33
TORSDOF 2
ENDMDL
MODEL 6
REMARK VINA RESULT:    -7.727     12.903     15.861
REMARK INTER + INTRA:          -8.178
REMARK INTER:                  -8.178
REMARK INTRA:                   0.000
REMARK UNBOUND:                 0.000
REMARK SMILES C[C@H]1CC[C@H]2[N@@H+](C1)C[C@@H]1[C@@H]3C[C@H]4[C@H](CC(=O)[C@H]5C[C@H](O)CC[C@@]54C)[C@@H]3CC[C@H]1[C@]2(C)O
REMARK SMILES IDX 5 1 6 2 8 3 7 4 4 5 29 6 3 7 28 8 30 9 2 10 27 11 9 12 1 13
REMARK SMILES IDX 26 14 10 15 25 16 11 17 13 18 12 19 14 20 23 21 15 22 17 23
REMARK SMILES IDX 22 24 24 25 16 26 18 27 21 28 19 29 31 31 20 33
REMARK H PARENT 6 30 31 32 20 34
REMARK Flexibility Score: inf
ROOT
ATOM      1  C   UNL     1     262.829 -27.721  58.558  1.00  0.00     0.216 C 
ATOM      2  N   UNL     1     262.018 -28.194  57.370  1.00  0.00    -0.330 N 
ATOM      3  C   UNL     1     262.648 -27.964  56.038  1.00  0.00     0.266 C 
ATOM      4  C   UNL     1     260.626 -27.666  57.342  1.00  0.00     0.265 C 
ATOM      5  C   UNL     1     262.217 -26.454  59.225  1.00  0.00     0.069 C 
ATOM      6  C   UNL     1     264.392 -27.638  58.283  1.00  0.00     0.117 C 
ATOM      7  C   UNL     1     260.778 -26.718  59.699  1.00  0.00     0.015 C 
ATOM      8  C   UNL     1     264.750 -26.916  56.915  1.00  0.00     0.036 C 
ATOM      9  C   UNL     1     265.128 -27.008  59.489  1.00  0.00     0.049 C 
ATOM     10  C   UNL     1     259.966 -27.607  58.730  1.00  0.00     0.041 C 
ATOM     11  C   UNL     1     265.506 -25.571  56.996  1.00  0.00     0.007 C 
ATOM     12  C   UNL     1     263.511 -26.702  56.030  1.00  0.00     0.054 C 
ATOM     13  C   UNL     1     259.715 -29.013  59.301  1.00  0.00     0.013 C 
ATOM     14  C   UNL     1     265.967 -25.137  55.598  1.00  0.00     0.004 C 
ATOM     15  C   UNL     1     263.858 -26.205  54.605  1.00  0.00     0.002 C 
ATOM     16  C   UNL     1     264.795 -24.986  54.592  1.00  0.00    -0.004 C 
ATOM     17  C   UNL     1     264.510 -27.213  53.658  1.00  0.00     0.009 C 
ATOM     18  C   UNL     1     265.239 -24.908  53.109  1.00  0.00     0.003 C 
ATOM     19  C   UNL     1     265.080 -26.343  52.524  1.00  0.00    -0.000 C 
ATOM     20  C   UNL     1     266.579 -24.186  52.818  1.00  0.00     0.080 C 
ATOM     21  C   UNL     1     266.308 -26.919  51.729  1.00  0.00    -0.020 C 
ATOM     22  C   UNL     1     267.103 -24.493  51.440  1.00  0.00     0.136 C 
ATOM     23  C   UNL     1     266.765 -25.796  50.736  1.00  0.00     0.065 C 
ATOM     24  C   UNL     1     265.848 -28.193  50.921  1.00  0.00     0.010 C 
ATOM     25  C   UNL     1     267.483 -27.339  52.665  1.00  0.00     0.012 C 
ATOM     26  O   UNL     1     267.793 -23.658  50.875  1.00  0.00    -0.299 OA
ATOM     27  C   UNL     1     267.910 -26.257  49.797  1.00  0.00     0.043 C 
ATOM     28  C   UNL     1     266.297 -28.221  49.448  1.00  0.00     0.032 C 
ATOM     29  C   UNL     1     267.737 -27.709  49.283  1.00  0.00     0.115 C 
ATOM     30  H   UNL     1     261.927 -29.234  57.462  1.00  0.00     0.348 HD
ENDROOT
BRANCH   6  31
ATOM     31  O   UNL     1     264.892 -28.959  58.233  1.00  0.00    -0.384 OA
ATOM     32  H   UNL     1     264.176 -29.570  57.926  1.00  0.00     0.211 HD
ENDBRANCH   6  31
BRANCH  29  33
ATOM     33  O   UNL     1     268.150 -27.813  47.943  1.00  0.00    -0.393 OA
ATOM     34  H   UNL     1     268.587 -28.697  47.829  1.00  0.00     0.210 HD
ENDBRANCH  29  33
TORSDOF 2
ENDMDL
MODEL 7
REMARK VINA RESULT:    -7.685     14.219     17.353
REMARK INTER + INTRA:          -8.134
REMARK INTER:                  -8.134
REMARK INTRA:                   0.000
REMARK UNBOUND:                 0.000
REMARK SMILES C[C@H]1CC[C@H]2[N@@H+](C1)C[C@@H]1[C@@H]3C[C@H]4[C@H](CC(=O)[C@H]5C[C@H](O)CC[C@@]54C)[C@@H]3CC[C@H]1[C@]2(C)O
REMARK SMILES IDX 5 1 6 2 8 3 7 4 4 5 29 6 3 7 28 8 30 9 2 10 27 11 9 12 1 13
REMARK SMILES IDX 26 14 10 15 25 16 11 17 13 18 12 19 14 20 23 21 15 22 17 23
REMARK SMILES IDX 22 24 24 25 16 26 18 27 21 28 19 29 31 31 20 33
REMARK H PARENT 6 30 31 32 20 34
REMARK Flexibility Score: inf
ROOT
ATOM      1  C   UNL     1     264.637 -26.052  54.997  1.00  0.00     0.216 C 
ATOM      2  N   UNL     1     265.399 -25.951  53.692  1.00  0.00    -0.330 N 
ATOM      3  C   UNL     1     266.059 -27.210  53.242  1.00  0.00     0.266 C 
ATOM      4  C   UNL     1     266.396 -24.846  53.660  1.00  0.00     0.265 C 
ATOM      5  C   UNL     1     265.357 -25.309  56.161  1.00  0.00     0.069 C 
ATOM      6  C   UNL     1     264.148 -27.522  55.349  1.00  0.00     0.117 C 
ATOM      7  C   UNL     1     265.551 -23.819  55.831  1.00  0.00     0.015 C 
ATOM      8  C   UNL     1     265.279 -28.620  55.163  1.00  0.00     0.036 C 
ATOM      9  C   UNL     1     263.513 -27.566  56.759  1.00  0.00     0.049 C 
ATOM     10  C   UNL     1     265.907 -23.560  54.350  1.00  0.00     0.041 C 
ATOM     11  C   UNL     1     265.780 -29.348  56.430  1.00  0.00     0.007 C 
ATOM     12  C   UNL     1     266.510 -28.067  54.426  1.00  0.00     0.054 C 
ATOM     13  C   UNL     1     264.748 -22.907  53.579  1.00  0.00     0.013 C 
ATOM     14  C   UNL     1     266.692 -30.520  56.042  1.00  0.00     0.004 C 
ATOM     15  C   UNL     1     267.531 -29.163  54.036  1.00  0.00     0.002 C 
ATOM     16  C   UNL     1     267.922 -30.081  55.206  1.00  0.00    -0.004 C 
ATOM     17  C   UNL     1     267.132 -30.114  52.907  1.00  0.00     0.009 C 
ATOM     18  C   UNL     1     268.657 -31.248  54.498  1.00  0.00     0.003 C 
ATOM     19  C   UNL     1     268.126 -31.281  53.034  1.00  0.00    -0.000 C 
ATOM     20  C   UNL     1     268.702 -32.603  55.249  1.00  0.00     0.080 C 
ATOM     21  C   UNL     1     267.662 -32.679  52.485  1.00  0.00    -0.020 C 
ATOM     22  C   UNL     1     269.081 -33.743  54.342  1.00  0.00     0.136 C 
ATOM     23  C   UNL     1     268.790 -33.702  52.852  1.00  0.00     0.065 C 
ATOM     24  C   UNL     1     267.507 -32.593  50.918  1.00  0.00     0.010 C 
ATOM     25  C   UNL     1     266.293 -33.131  53.082  1.00  0.00     0.012 C 
ATOM     26  O   UNL     1     269.660 -34.708  54.822  1.00  0.00    -0.299 OA
ATOM     27  C   UNL     1     268.526 -35.118  52.277  1.00  0.00     0.043 C 
ATOM     28  C   UNL     1     268.162 -33.749  50.139  1.00  0.00     0.032 C 
ATOM     29  C   UNL     1     267.948 -35.099  50.839  1.00  0.00     0.115 C 
ATOM     30  H   UNL     1     264.695 -25.722  52.950  1.00  0.00     0.348 HD
ENDROOT
BRANCH   6  31
ATOM     31  O   UNL     1     263.075 -27.839  54.484  1.00  0.00    -0.384 OA
ATOM     32  H   UNL     1     263.403 -27.865  53.551  1.00  0.00     0.211 HD
ENDBRANCH   6  31
BRANCH  29  33
ATOM     33  O   UNL     1     268.490 -36.147  50.073  1.00  0.00    -0.393 OA
ATOM     34  H   UNL     1     269.041 -36.709  50.678  1.00  0.00     0.210 HD
ENDBRANCH  29  33
TORSDOF 2
ENDMDL
MODEL 8
REMARK VINA RESULT:    -7.596     14.457     16.560
REMARK INTER + INTRA:          -8.041
REMARK INTER:                  -8.041
REMARK INTRA:                   0.000
REMARK UNBOUND:                 0.000
REMARK SMILES C[C@H]1CC[C@H]2[N@@H+](C1)C[C@@H]1[C@@H]3C[C@H]4[C@H](CC(=O)[C@H]5C[C@H](O)CC[C@@]54C)[C@@H]3CC[C@H]1[C@]2(C)O
REMARK SMILES IDX 5 1 6 2 8 3 7 4 4 5 29 6 3 7 28 8 30 9 2 10 27 11 9 12 1 13
REMARK SMILES IDX 26 14 10 15 25 16 11 17 13 18 12 19 14 20 23 21 15 22 17 23
REMARK SMILES IDX 22 24 24 25 16 26 18 27 21 28 19 29 31 31 20 33
REMARK H PARENT 6 30 31 32 20 34
REMARK Flexibility Score: inf
ROOT
ATOM      1  C   UNL     1     265.529 -35.035  43.460  1.00  0.00     0.216 C 
ATOM      2  N   UNL     1     265.891 -35.475  44.862  1.00  0.00    -0.330 N 
ATOM      3  C   UNL     1     266.334 -34.384  45.777  1.00  0.00     0.266 C 
ATOM      4  C   UNL     1     266.890 -36.579  44.909  1.00  0.00     0.265 C 
ATOM      5  C   UNL     1     266.586 -35.484  42.408  1.00  0.00     0.069 C 
ATOM      6  C   UNL     1     265.090 -33.512  43.353  1.00  0.00     0.117 C 
ATOM      7  C   UNL     1     266.750 -37.013  42.405  1.00  0.00     0.015 C 
ATOM      8  C   UNL     1     266.067 -32.522  44.119  1.00  0.00     0.036 C 
ATOM      9  C   UNL     1     264.883 -33.103  41.875  1.00  0.00     0.049 C 
ATOM     10  C   UNL     1     266.681 -37.640  43.815  1.00  0.00     0.041 C 
ATOM     11  C   UNL     1     266.873 -31.516  43.268  1.00  0.00     0.007 C 
ATOM     12  C   UNL     1     267.062 -33.272  45.021  1.00  0.00     0.054 C 
ATOM     13  C   UNL     1     265.383 -38.435  44.036  1.00  0.00     0.013 C 
ATOM     14  C   UNL     1     267.579 -30.500  44.177  1.00  0.00     0.004 C 
ATOM     15  C   UNL     1     267.875 -32.333  45.945  1.00  0.00     0.002 C 
ATOM     16  C   UNL     1     268.539 -31.164  45.199  1.00  0.00    -0.004 C 
ATOM     17  C   UNL     1     267.125 -31.682  47.108  1.00  0.00     0.009 C 
ATOM     18  C   UNL     1     268.984 -30.227  46.351  1.00  0.00     0.003 C 
ATOM     19  C   UNL     1     268.057 -30.546  47.562  1.00  0.00    -0.000 C 
ATOM     20  C   UNL     1     269.176 -28.730  46.000  1.00  0.00     0.080 C 
ATOM     21  C   UNL     1     267.389 -29.316  48.278  1.00  0.00    -0.020 C 
ATOM     22  C   UNL     1     269.226 -27.860  47.228  1.00  0.00     0.136 C 
ATOM     23  C   UNL     1     268.524 -28.263  48.514  1.00  0.00     0.065 C 
ATOM     24  C   UNL     1     266.798 -29.785  49.663  1.00  0.00     0.010 C 
ATOM     25  C   UNL     1     266.226 -28.696  47.442  1.00  0.00     0.012 C 
ATOM     26  O   UNL     1     269.869 -26.822  47.186  1.00  0.00    -0.299 OA
ATOM     27  C   UNL     1     268.039 -27.027  49.316  1.00  0.00     0.043 C 
ATOM     28  C   UNL     1     267.147 -28.875  50.856  1.00  0.00     0.032 C 
ATOM     29  C   UNL     1     267.076 -27.387  50.476  1.00  0.00     0.115 C 
ATOM     30  H   UNL     1     265.017 -35.864  45.291  1.00  0.00     0.348 HD
ENDROOT
BRANCH   6  31
ATOM     31  O   UNL     1     263.801 -33.393  43.921  1.00  0.00    -0.384 OA
ATOM     32  H   UNL     1     263.169 -33.061  43.235  1.00  0.00     0.211 HD
ENDBRANCH   6  31
BRANCH  29  33
ATOM     33  O   UNL     1     267.327 -26.577  51.598  1.00  0.00    -0.393 OA
ATOM     34  H   UNL     1     266.951 -25.677  51.410  1.00  0.00     0.210 HD
ENDBRANCH  29  33
TORSDOF 2
ENDMDL
MODEL 9
REMARK VINA RESULT:    -7.419     11.522     13.241
REMARK INTER + INTRA:          -7.853
REMARK INTER:                  -7.853
REMARK INTRA:                   0.000
REMARK UNBOUND:                 0.000
REMARK SMILES C[C@H]1CC[C@H]2[N@@H+](C1)C[C@@H]1[C@@H]3C[C@H]4[C@H](CC(=O)[C@H]5C[C@H](O)CC[C@@]54C)[C@@H]3CC[C@H]1[C@]2(C)O
REMARK SMILES IDX 5 1 6 2 8 3 7 4 4 5 29 6 3 7 28 8 30 9 2 10 27 11 9 12 1 13
REMARK SMILES IDX 26 14 10 15 25 16 11 17 13 18 12 19 14 20 23 21 15 22 17 23
REMARK SMILES IDX 22 24 24 25 16 26 18 27 21 28 19 29 31 31 20 33
REMARK H PARENT 6 30 31 32 20 34
REMARK Flexibility Score: inf
ROOT
ATOM      1  C   UNL     1     267.376 -25.065  51.327  1.00  0.00     0.216 C 
ATOM      2  N   UNL     1     267.184 -23.961  52.345  1.00  0.00    -0.330 N 
ATOM      3  C   UNL     1     266.195 -24.254  53.421  1.00  0.00     0.266 C 
ATOM      4  C   UNL     1     266.865 -22.636  51.745  1.00  0.00     0.265 C 
ATOM      5  C   UNL     1     266.759 -24.707  49.943  1.00  0.00     0.069 C 
ATOM      6  C   UNL     1     267.006 -26.513  51.865  1.00  0.00     0.117 C 
ATOM      7  C   UNL     1     267.378 -23.418  49.377  1.00  0.00     0.015 C 
ATOM      8  C   UNL     1     265.616 -26.562  52.630  1.00  0.00     0.036 C 
ATOM      9  C   UNL     1     267.086 -27.558  50.727  1.00  0.00     0.049 C 
ATOM     10  C   UNL     1     267.651 -22.344  50.454  1.00  0.00     0.041 C 
ATOM     11  C   UNL     1     264.478 -27.386  51.989  1.00  0.00     0.007 C 
ATOM     12  C   UNL     1     265.065 -25.155  52.922  1.00  0.00     0.054 C 
ATOM     13  C   UNL     1     269.153 -22.166  50.732  1.00  0.00     0.013 C 
ATOM     14  C   UNL     1     263.299 -27.510  52.963  1.00  0.00     0.004 C 
ATOM     15  C   UNL     1     263.830 -25.166  53.855  1.00  0.00     0.002 C 
ATOM     16  C   UNL     1     262.727 -26.136  53.402  1.00  0.00    -0.004 C 
ATOM     17  C   UNL     1     264.074 -25.508  55.326  1.00  0.00     0.009 C 
ATOM     18  C   UNL     1     261.796 -26.203  54.639  1.00  0.00     0.003 C 
ATOM     19  C   UNL     1     262.671 -25.826  55.871  1.00  0.00    -0.000 C 
ATOM     20  C   UNL     1     260.910 -27.467  54.779  1.00  0.00     0.080 C 
ATOM     21  C   UNL     1     262.587 -26.785  57.114  1.00  0.00    -0.020 C 
ATOM     22  C   UNL     1     260.348 -27.617  56.168  1.00  0.00     0.136 C 
ATOM     23  C   UNL     1     261.065 -27.044  57.379  1.00  0.00     0.065 C 
ATOM     24  C   UNL     1     263.235 -26.071  58.362  1.00  0.00     0.010 C 
ATOM     25  C   UNL     1     263.343 -28.131  56.882  1.00  0.00     0.012 C 
ATOM     26  O   UNL     1     259.278 -28.190  56.311  1.00  0.00    -0.299 OA
ATOM     27  C   UNL     1     260.815 -27.894  58.652  1.00  0.00     0.043 C 
ATOM     28  C   UNL     1     262.397 -26.140  59.653  1.00  0.00     0.032 C 
ATOM     29  C   UNL     1     261.745 -27.520  59.834  1.00  0.00     0.115 C 
ATOM     30  H   UNL     1     268.103 -23.839  52.834  1.00  0.00     0.348 HD
ENDROOT
BRANCH   6  31
ATOM     31  O   UNL     1     268.022 -26.913  52.764  1.00  0.00    -0.384 OA
ATOM     32  H   UNL     1     267.982 -27.894  52.889  1.00  0.00     0.211 HD
ENDBRANCH   6  31
BRANCH  29  33
ATOM     33  O   UNL     1     261.047 -27.582  61.053  1.00  0.00    -0.393 OA
ATOM     34  H   UNL     1     260.139 -27.937  60.864  1.00  0.00     0.210 HD
ENDBRANCH  29  33
TORSDOF 2
ENDMDL
