MODEL 1
REMARK VINA RESULT:    -3.788      0.000      0.000
REMARK INTER + INTRA:          -5.935
REMARK INTER:                  -5.560
REMARK INTRA:                  -0.375
REMARK UNBOUND:                -0.375
REMARK SMILES O=C([O-])CCCCCCCC(=O)[O-]
REMARK SMILES IDX 7 1 6 2 5 3 4 4 2 5 1 6 3 7 8 8 9 9 10 10 11 11 12 12 13 13
REMARK H PARENT
REMARK Flexibility Score: inf
ROOT
ATOM      1  C   UNL     1      11.723 -11.664 -21.497  1.00  0.00     0.000 C 
ENDROOT
BRANCH   1   2
ATOM      2  C   UNL     1      11.311 -12.268 -20.149  1.00  0.00     0.000 C 
BRANCH   2   3
ATOM      3  C   UNL     1      12.220 -13.443 -19.770  1.00  0.00     0.006 C 
BRANCH   3   4
ATOM      4  C   UNL     1      11.854 -13.999 -18.391  1.00  0.00     0.053 C 
BRANCH   4   5
ATOM      5  C   UNL     1      13.022 -13.907 -17.461  1.00  0.00     0.041 C 
ATOM      6  O   UNL     1      14.125 -13.461 -17.872  1.00  0.00    -0.550 OA
ATOM      7  O   UNL     1      12.907 -14.362 -16.154  1.00  0.00    -0.550 OA
ENDBRANCH   4   5
ENDBRANCH   3   4
ENDBRANCH   2   3
ENDBRANCH   1   2
BRANCH   1   8
ATOM      8  C   UNL     1      13.108 -12.169 -21.925  1.00  0.00     0.000 C 
BRANCH   8   9
ATOM      9  C   UNL     1      13.515 -11.695 -23.332  1.00  0.00     0.006 C 
BRANCH   9  10
ATOM     10  C   UNL     1      12.392 -10.973 -24.098  1.00  0.00     0.053 C 
BRANCH  10  11
ATOM     11  C   UNL     1      12.771  -9.582 -24.507  1.00  0.00     0.041 C 
ATOM     12  O   UNL     1      13.924  -9.140 -24.264  1.00  0.00    -0.550 OA
ATOM     13  O   UNL     1      11.839  -8.762 -25.129  1.00  0.00    -0.550 OA
ENDBRANCH  10  11
ENDBRANCH   9  10
ENDBRANCH   8   9
ENDBRANCH   1   8
TORSDOF 8
ENDMDL
MODEL 2
REMARK VINA RESULT:    -3.749      7.657     12.162
REMARK INTER + INTRA:          -5.877
REMARK INTER:                  -5.567
REMARK INTRA:                  -0.310
REMARK UNBOUND:                -0.375
REMARK SMILES O=C([O-])CCCCCCCC(=O)[O-]
REMARK SMILES IDX 7 1 6 2 5 3 4 4 2 5 1 6 3 7 8 8 9 9 10 10 11 11 12 12 13 13
REMARK H PARENT
REMARK Flexibility Score: inf
ROOT
ATOM      1  C   UNL     1      13.036  -2.155 -24.390  1.00  0.00     0.000 C 
ENDROOT
BRANCH   1   2
ATOM      2  C   UNL     1      11.713  -2.540 -25.062  1.00  0.00     0.000 C 
BRANCH   2   3
ATOM      3  C   UNL     1      11.562  -1.846 -26.421  1.00  0.00     0.006 C 
BRANCH   3   4
ATOM      4  C   UNL     1      12.609  -0.742 -26.593  1.00  0.00     0.053 C 
BRANCH   4   5
ATOM      5  C   UNL     1      12.519  -0.142 -27.961  1.00  0.00     0.041 C 
ATOM      6  O   UNL     1      11.561   0.621 -28.255  1.00  0.00    -0.550 OA
ATOM      7  O   UNL     1      13.464  -0.463 -28.925  1.00  0.00    -0.550 OA
ENDBRANCH   4   5
ENDBRANCH   3   4
ENDBRANCH   2   3
ENDBRANCH   1   2
BRANCH   1   8
ATOM      8  C   UNL     1      13.078  -2.646 -22.937  1.00  0.00     0.000 C 
BRANCH   8   9
ATOM      9  C   UNL     1      13.354  -4.156 -22.816  1.00  0.00     0.006 C 
BRANCH   9  10
ATOM     10  C   UNL     1      12.308  -4.917 -21.981  1.00  0.00     0.053 C 
BRANCH  10  11
ATOM     11  C   UNL     1      12.692  -5.033 -20.538  1.00  0.00     0.041 C 
ATOM     12  O   UNL     1      11.884  -4.690 -19.635  1.00  0.00    -0.550 OA
ATOM     13  O   UNL     1      13.957  -5.490 -20.189  1.00  0.00    -0.550 OA
ENDBRANCH  10  11
ENDBRANCH   9  10
ENDBRANCH   8   9
ENDBRANCH   1   8
TORSDOF 8
ENDMDL
MODEL 3
REMARK VINA RESULT:    -3.745      8.296     10.764
REMARK INTER + INTRA:          -5.871
REMARK INTER:                  -5.548
REMARK INTRA:                  -0.323
REMARK UNBOUND:                -0.375
REMARK SMILES O=C([O-])CCCCCCCC(=O)[O-]
REMARK SMILES IDX 7 1 6 2 5 3 4 4 2 5 1 6 3 7 8 8 9 9 10 10 11 11 12 12 13 13
REMARK H PARENT
REMARK Flexibility Score: inf
ROOT
ATOM      1  C   UNL     1      11.710  -2.734 -24.919  1.00  0.00     0.000 C 
ENDROOT
BRANCH   1   2
ATOM      2  C   UNL     1      12.975  -2.119 -24.309  1.00  0.00     0.000 C 
BRANCH   2   3
ATOM      3  C   UNL     1      13.364  -2.835 -23.010  1.00  0.00     0.006 C 
BRANCH   3   4
ATOM      4  C   UNL     1      12.179  -2.903 -22.044  1.00  0.00     0.053 C 
BRANCH   4   5
ATOM      5  C   UNL     1      12.208  -4.182 -21.267  1.00  0.00     0.041 C 
ATOM      6  O   UNL     1      11.490  -4.316 -20.242  1.00  0.00    -0.550 OA
ATOM      7  O   UNL     1      13.065  -5.206 -21.646  1.00  0.00    -0.550 OA
ENDBRANCH   4   5
ENDBRANCH   3   4
ENDBRANCH   2   3
ENDBRANCH   1   2
BRANCH   1   8
ATOM      8  C   UNL     1      11.384  -2.092 -26.274  1.00  0.00     0.000 C 
BRANCH   8   9
ATOM      9  C   UNL     1      12.381  -0.991 -26.677  1.00  0.00     0.006 C 
BRANCH   9  10
ATOM     10  C   UNL     1      11.873  -0.068 -27.799  1.00  0.00     0.053 C 
BRANCH  10  11
ATOM     11  C   UNL     1      12.814  -0.000 -28.963  1.00  0.00     0.041 C 
ATOM     12  O   UNL     1      12.416   0.428 -30.079  1.00  0.00    -0.550 OA
ATOM     13  O   UNL     1      14.125  -0.440 -28.826  1.00  0.00    -0.550 OA
ENDBRANCH  10  11
ENDBRANCH   9  10
ENDBRANCH   8   9
ENDBRANCH   1   8
TORSDOF 8
ENDMDL
MODEL 4
REMARK VINA RESULT:    -3.656      1.269      6.997
REMARK INTER + INTRA:          -5.741
REMARK INTER:                  -5.349
REMARK INTRA:                  -0.391
REMARK UNBOUND:                -0.375
REMARK SMILES O=C([O-])CCCCCCCC(=O)[O-]
REMARK SMILES IDX 7 1 6 2 5 3 4 4 2 5 1 6 3 7 8 8 9 9 10 10 11 11 12 12 13 13
REMARK H PARENT
REMARK Flexibility Score: inf
ROOT
ATOM      1  C   UNL     1      11.752 -11.577 -21.568  1.00  0.00     0.000 C 
ENDROOT
BRANCH   1   2
ATOM      2  C   UNL     1      13.072 -12.152 -22.093  1.00  0.00     0.000 C 
BRANCH   2   3
ATOM      3  C   UNL     1      13.420 -11.567 -23.467  1.00  0.00     0.006 C 
BRANCH   3   4
ATOM      4  C   UNL     1      12.381 -10.530 -23.902  1.00  0.00     0.053 C 
BRANCH   4   5
ATOM      5  C   UNL     1      11.911 -10.809 -25.295  1.00  0.00     0.041 C 
ATOM      6  O   UNL     1      11.634 -11.985 -25.645  1.00  0.00    -0.550 OA
ATOM      7  O   UNL     1      11.827  -9.777 -26.220  1.00  0.00    -0.550 OA
ENDBRANCH   4   5
ENDBRANCH   3   4
ENDBRANCH   2   3
ENDBRANCH   1   2
BRANCH   1   8
ATOM      8  C   UNL     1      11.344 -12.249 -20.250  1.00  0.00     0.000 C 
BRANCH   8   9
ATOM      9  C   UNL     1      12.311 -13.365 -19.816  1.00  0.00     0.006 C 
BRANCH   9  10
ATOM     10  C   UNL     1      11.889 -14.092 -18.527  1.00  0.00     0.053 C 
BRANCH  10  11
ATOM     11  C   UNL     1      12.542 -13.527 -17.302  1.00  0.00     0.041 C 
ATOM     12  O   UNL     1      11.983 -12.604 -16.652  1.00  0.00    -0.550 OA
ATOM     13  O   UNL     1      13.784 -13.997 -16.896  1.00  0.00    -0.550 OA
ENDBRANCH  10  11
ENDBRANCH   9  10
ENDBRANCH   8   9
ENDBRANCH   1   8
TORSDOF 8
ENDMDL
MODEL 5
REMARK VINA RESULT:    -3.634     15.825     16.698
REMARK INTER + INTRA:          -5.709
REMARK INTER:                  -5.204
REMARK INTRA:                  -0.504
REMARK UNBOUND:                -0.375
REMARK SMILES O=C([O-])CCCCCCCC(=O)[O-]
REMARK SMILES IDX 7 1 6 2 5 3 4 4 2 5 1 6 3 7 8 8 9 9 10 10 11 11 12 12 13 13
REMARK H PARENT
REMARK Flexibility Score: inf
ROOT
ATOM      1  C   UNL     1      -0.836 -11.282 -14.225  1.00  0.00     0.000 C 
ENDROOT
BRANCH   1   2
ATOM      2  C   UNL     1      -1.110 -12.562 -15.023  1.00  0.00     0.000 C 
BRANCH   2   3
ATOM      3  C   UNL     1      -2.180 -13.420 -14.336  1.00  0.00     0.006 C 
BRANCH   3   4
ATOM      4  C   UNL     1      -1.654 -14.829 -14.050  1.00  0.00     0.053 C 
BRANCH   4   5
ATOM      5  C   UNL     1      -2.008 -15.249 -12.658  1.00  0.00     0.041 C 
ATOM      6  O   UNL     1      -3.100 -14.887 -12.147  1.00  0.00    -0.550 OA
ATOM      7  O   UNL     1      -1.111 -15.998 -11.909  1.00  0.00    -0.550 OA
ENDBRANCH   4   5
ENDBRANCH   3   4
ENDBRANCH   2   3
ENDBRANCH   1   2
BRANCH   1   8
ATOM      8  C   UNL     1      -1.343 -10.044 -14.978  1.00  0.00     0.000 C 
BRANCH   8   9
ATOM      9  C   UNL     1      -2.004 -10.386 -16.325  1.00  0.00     0.006 C 
BRANCH   9  10
ATOM     10  C   UNL     1      -3.506 -10.053 -16.386  1.00  0.00     0.053 C 
BRANCH  10  11
ATOM     11  C   UNL     1      -4.359 -11.262 -16.616  1.00  0.00     0.041 C 
ATOM     12  O   UNL     1      -3.889 -12.270 -17.207  1.00  0.00    -0.550 OA
ATOM     13  O   UNL     1      -5.686 -11.266 -16.205  1.00  0.00    -0.550 OA
ENDBRANCH  10  11
ENDBRANCH   9  10
ENDBRANCH   8   9
ENDBRANCH   1   8
TORSDOF 8
ENDMDL
MODEL 6
REMARK VINA RESULT:    -3.609     15.729     16.973
REMARK INTER + INTRA:          -5.672
REMARK INTER:                  -5.124
REMARK INTRA:                  -0.549
REMARK UNBOUND:                -0.375
REMARK SMILES O=C([O-])CCCCCCCC(=O)[O-]
REMARK SMILES IDX 7 1 6 2 5 3 4 4 2 5 1 6 3 7 8 8 9 9 10 10 11 11 12 12 13 13
REMARK H PARENT
REMARK Flexibility Score: inf
ROOT
ATOM      1  C   UNL     1      -2.043 -10.222 -16.230  1.00  0.00     0.000 C 
ENDROOT
BRANCH   1   2
ATOM      2  C   UNL     1      -1.298 -10.235 -14.890  1.00  0.00     0.000 C 
BRANCH   2   3
ATOM      3  C   UNL     1      -1.045 -11.671 -14.415  1.00  0.00     0.006 C 
BRANCH   3   4
ATOM      4  C   UNL     1      -2.044 -12.644 -15.048  1.00  0.00     0.053 C 
BRANCH   4   5
ATOM      5  C   UNL     1      -1.895 -14.009 -14.454  1.00  0.00     0.041 C 
ATOM      6  O   UNL     1      -2.339 -14.250 -13.301  1.00  0.00    -0.550 OA
ATOM      7  O   UNL     1      -1.222 -15.002 -15.155  1.00  0.00    -0.550 OA
ENDBRANCH   4   5
ENDBRANCH   3   4
ENDBRANCH   2   3
ENDBRANCH   1   2
BRANCH   1   8
ATOM      8  C   UNL     1      -3.032  -9.050 -16.298  1.00  0.00     0.000 C 
BRANCH   8   9
ATOM      9  C   UNL     1      -4.415  -9.458 -16.837  1.00  0.00     0.006 C 
BRANCH   9  10
ATOM     10  C   UNL     1      -4.950 -10.777 -16.252  1.00  0.00     0.053 C 
BRANCH  10  11
ATOM     11  C   UNL     1      -5.216 -11.812 -17.302  1.00  0.00     0.041 C 
ATOM     12  O   UNL     1      -5.677 -12.939 -16.982  1.00  0.00    -0.550 OA
ATOM     13  O   UNL     1      -4.922 -11.544 -18.633  1.00  0.00    -0.550 OA
ENDBRANCH  10  11
ENDBRANCH   9  10
ENDBRANCH   8   9
ENDBRANCH   1   8
TORSDOF 8
ENDMDL
MODEL 7
REMARK VINA RESULT:    -3.583     18.524     20.545
REMARK INTER + INTRA:          -5.633
REMARK INTER:                  -5.182
REMARK INTRA:                  -0.451
REMARK UNBOUND:                -0.375
REMARK SMILES O=C([O-])CCCCCCCC(=O)[O-]
REMARK SMILES IDX 7 1 6 2 5 3 4 4 2 5 1 6 3 7 8 8 9 9 10 10 11 11 12 12 13 13
REMARK H PARENT
REMARK Flexibility Score: inf
ROOT
ATOM      1  C   UNL     1      -1.258  -3.563 -27.854  1.00  0.00     0.000 C 
ENDROOT
BRANCH   1   2
ATOM      2  C   UNL     1      -0.714  -2.244 -28.416  1.00  0.00     0.000 C 
BRANCH   2   3
ATOM      3  C   UNL     1      -1.799  -1.161 -28.426  1.00  0.00     0.006 C 
BRANCH   3   4
ATOM      4  C   UNL     1      -1.230   0.184 -28.884  1.00  0.00     0.053 C 
BRANCH   4   5
ATOM      5  C   UNL     1      -1.329   0.317 -30.371  1.00  0.00     0.041 C 
ATOM      6  O   UNL     1      -2.380   0.766 -30.898  1.00  0.00    -0.550 OA
ATOM      7  O   UNL     1      -0.279  -0.102 -31.178  1.00  0.00    -0.550 OA
ENDBRANCH   4   5
ENDBRANCH   3   4
ENDBRANCH   2   3
ENDBRANCH   1   2
BRANCH   1   8
ATOM      8  C   UNL     1      -2.303  -3.307 -26.761  1.00  0.00     0.000 C 
BRANCH   8   9
ATOM      9  C   UNL     1      -3.541  -4.214 -26.883  1.00  0.00     0.006 C 
BRANCH   9  10
ATOM     10  C   UNL     1      -4.876  -3.448 -26.920  1.00  0.00     0.053 C 
BRANCH  10  11
ATOM     11  C   UNL     1      -4.888  -2.260 -26.008  1.00  0.00     0.041 C 
ATOM     12  O   UNL     1      -4.991  -1.097 -26.479  1.00  0.00    -0.550 OA
ATOM     13  O   UNL     1      -4.753  -2.435 -24.636  1.00  0.00    -0.550 OA
ENDBRANCH  10  11
ENDBRANCH   9  10
ENDBRANCH   8   9
ENDBRANCH   1   8
TORSDOF 8
ENDMDL
MODEL 8
REMARK VINA RESULT:    -3.526     18.536     19.823
REMARK INTER + INTRA:          -5.550
REMARK INTER:                  -4.936
REMARK INTRA:                  -0.614
REMARK UNBOUND:                -0.375
REMARK SMILES O=C([O-])CCCCCCCC(=O)[O-]
REMARK SMILES IDX 7 1 6 2 5 3 4 4 2 5 1 6 3 7 8 8 9 9 10 10 11 11 12 12 13 13
REMARK H PARENT
REMARK Flexibility Score: inf
ROOT
ATOM      1  C   UNL     1      -2.562  -4.142 -26.309  1.00  0.00     0.000 C 
ENDROOT
BRANCH   1   2
ATOM      2  C   UNL     1      -3.930  -4.578 -26.848  1.00  0.00     0.000 C 
BRANCH   2   3
ATOM      3  C   UNL     1      -5.026  -3.589 -26.433  1.00  0.00     0.006 C 
BRANCH   3   4
ATOM      4  C   UNL     1      -4.698  -2.172 -26.913  1.00  0.00     0.053 C 
BRANCH   4   5
ATOM      5  C   UNL     1      -4.834  -1.193 -25.790  1.00  0.00     0.041 C 
ATOM      6  O   UNL     1      -4.540  -1.533 -24.615  1.00  0.00    -0.550 OA
ATOM      7  O   UNL     1      -5.331   0.080 -26.035  1.00  0.00    -0.550 OA
ENDBRANCH   4   5
ENDBRANCH   3   4
ENDBRANCH   2   3
ENDBRANCH   1   2
BRANCH   1   8
ATOM      8  C   UNL     1      -1.565  -3.920 -27.454  1.00  0.00     0.000 C 
BRANCH   8   9
ATOM      9  C   UNL     1      -0.811  -2.582 -27.347  1.00  0.00     0.006 C 
BRANCH   9  10
ATOM     10  C   UNL     1      -0.845  -1.741 -28.636  1.00  0.00     0.053 C 
BRANCH  10  11
ATOM     11  C   UNL     1      -1.565  -0.439 -28.459  1.00  0.00     0.041 C 
ATOM     12  O   UNL     1      -1.895   0.246 -29.463  1.00  0.00    -0.550 OA
ATOM     13  O   UNL     1      -1.844   0.034 -27.184  1.00  0.00    -0.550 OA
ENDBRANCH  10  11
ENDBRANCH   9  10
ENDBRANCH   8   9
ENDBRANCH   1   8
TORSDOF 8
ENDMDL
MODEL 9
REMARK VINA RESULT:    -3.508     15.708     17.801
REMARK INTER + INTRA:          -5.524
REMARK INTER:                  -5.024
REMARK INTRA:                  -0.500
REMARK UNBOUND:                -0.375
REMARK SMILES O=C([O-])CCCCCCCC(=O)[O-]
REMARK SMILES IDX 7 1 6 2 5 3 4 4 2 5 1 6 3 7 8 8 9 9 10 10 11 11 12 12 13 13
REMARK H PARENT
REMARK Flexibility Score: inf
ROOT
ATOM      1  C   UNL     1      -1.961  -9.805 -15.533  1.00  0.00     0.000 C 
ENDROOT
BRANCH   1   2
ATOM      2  C   UNL     1      -2.836  -9.502 -16.756  1.00  0.00     0.000 C 
BRANCH   2   3
ATOM      3  C   UNL     1      -4.325  -9.546 -16.393  1.00  0.00     0.006 C 
BRANCH   3   4
ATOM      4  C   UNL     1      -4.858 -10.980 -16.434  1.00  0.00     0.053 C 
BRANCH   4   5
ATOM      5  C   UNL     1      -5.399 -11.301 -17.791  1.00  0.00     0.041 C 
ATOM      6  O   UNL     1      -5.412 -12.491 -18.203  1.00  0.00    -0.550 OA
ATOM      7  O   UNL     1      -5.845 -10.280 -18.621  1.00  0.00    -0.550 OA
ENDBRANCH   4   5
ENDBRANCH   3   4
ENDBRANCH   2   3
ENDBRANCH   1   2
BRANCH   1   8
ATOM      8  C   UNL     1      -1.230 -11.144 -15.697  1.00  0.00     0.000 C 
BRANCH   8   9
ATOM      9  C   UNL     1      -1.424 -12.089 -14.498  1.00  0.00     0.006 C 
BRANCH   9  10
ATOM     10  C   UNL     1      -2.213 -13.368 -14.831  1.00  0.00     0.053 C 
BRANCH  10  11
ATOM     11  C   UNL     1      -1.989 -14.464 -13.834  1.00  0.00     0.041 C 
ATOM     12  O   UNL     1      -1.156 -15.378 -14.071  1.00  0.00    -0.550 OA
ATOM     13  O   UNL     1      -2.724 -14.494 -12.656  1.00  0.00    -0.550 OA
ENDBRANCH  10  11
ENDBRANCH   9  10
ENDBRANCH   8   9
ENDBRANCH   1   8
TORSDOF 8
ENDMDL
