MODEL 1
REMARK VINA RESULT:    -8.246      0.000      0.000
REMARK INTER + INTRA:         -12.302
REMARK INTER:                 -11.139
REMARK INTRA:                  -1.163
REMARK UNBOUND:                -1.163
REMARK SMILES CC[C@@H](CC[C@H](C)[C@@H]1CC[C@@H]2[C@H]3CC(=O)C4=CC(=O)CC[C@]4(C)[C@H]3CC[C@]21C)C(C)C
REMARK SMILES IDX 4 1 3 2 2 3 1 4 29 5 30 6 31 7 5 8 6 9 7 10 8 11 9 12 27 13
REMARK SMILES IDX 10 14 11 15 26 16 28 17 12 18 25 19 24 20 13 21 22 22 14 23
REMARK SMILES IDX 16 24 21 25 23 26 15 27 17 28 20 29 18 30 19 31
REMARK H PARENT
REMARK Flexibility Score: inf
ROOT
ATOM      1  C   UNL     1      55.781  32.123  31.127  1.00  0.00     0.004 C 
ENDROOT
BRANCH   1   2
ATOM      2  C   UNL     1      56.635  32.158  32.428  1.00  0.00    -0.009 C 
BRANCH   2   3
ATOM      3  C   UNL     1      56.273  33.429  33.266  1.00  0.00     0.000 C 
ATOM      4  C   UNL     1      55.751  34.571  32.393  1.00  0.00     0.004 C 
ENDBRANCH   2   3
BRANCH   2   5
ATOM      5  C   UNL     1      58.175  32.094  32.130  1.00  0.00    -0.014 C 
ATOM      6  C   UNL     1      58.704  30.649  32.214  1.00  0.00     0.007 C 
ATOM      7  C   UNL     1      58.539  32.665  30.744  1.00  0.00     0.007 C 
ENDBRANCH   2   5
ENDBRANCH   1   2
BRANCH   1   8
ATOM      8  C   UNL     1      54.671  31.033  31.164  1.00  0.00     0.004 C 
BRANCH   8   9
ATOM      9  C   UNL     1      53.642  31.128  32.329  1.00  0.00    -0.011 C 
ATOM     10  C   UNL     1      53.765  29.936  33.298  1.00  0.00     0.008 C 
BRANCH   9  11
ATOM     11  C   UNL     1      52.143  31.410  31.946  1.00  0.00    -0.002 C 
ATOM     12  C   UNL     1      51.541  30.642  30.748  1.00  0.00     0.005 C 
ATOM     13  C   UNL     1      51.776  32.891  31.657  1.00  0.00    -0.026 C 
ATOM     14  C   UNL     1      50.375  31.504  30.229  1.00  0.00     0.005 C 
ATOM     15  C   UNL     1      50.336  32.718  31.161  1.00  0.00    -0.001 C 
ATOM     16  C   UNL     1      51.759  33.802  32.920  1.00  0.00     0.007 C 
ATOM     17  C   UNL     1      52.720  33.482  30.560  1.00  0.00     0.012 C 
ATOM     18  C   UNL     1      49.685  34.031  30.640  1.00  0.00     0.004 C 
ATOM     19  C   UNL     1      50.546  34.775  32.981  1.00  0.00     0.005 C 
ATOM     20  C   UNL     1      50.068  35.267  31.573  1.00  0.00     0.003 C 
ATOM     21  C   UNL     1      48.159  33.790  30.459  1.00  0.00     0.085 C 
ATOM     22  C   UNL     1      49.000  36.458  31.589  1.00  0.00    -0.000 C 
ATOM     23  C   UNL     1      47.351  34.513  31.479  1.00  0.00     0.159 C 
ATOM     24  C   UNL     1      47.567  35.947  31.565  1.00  0.00     0.005 C 
ATOM     25  C   UNL     1      49.197  37.347  30.324  1.00  0.00     0.020 C 
ATOM     26  C   UNL     1      49.171  37.344  32.854  1.00  0.00     0.017 C 
ATOM     27  O   UNL     1      46.432  33.940  32.123  1.00  0.00    -0.295 OA
ATOM     28  C   UNL     1      46.550  36.759  31.239  1.00  0.00     0.055 C 
ATOM     29  C   UNL     1      48.182  38.508  30.240  1.00  0.00     0.081 C 
ATOM     30  C   UNL     1      46.801  38.099  30.680  1.00  0.00     0.156 C 
ATOM     31  O   UNL     1      45.840  38.898  30.528  1.00  0.00    -0.295 OA
ENDBRANCH   9  11
ENDBRANCH   8   9
ENDBRANCH   1   8
TORSDOF 6
ENDMDL
MODEL 2
REMARK VINA RESULT:    -7.979      1.735      3.215
REMARK INTER + INTRA:         -11.940
REMARK INTER:                 -11.122
REMARK INTRA:                  -0.819
REMARK UNBOUND:                -1.163
REMARK SMILES CC[C@@H](CC[C@H](C)[C@@H]1CC[C@@H]2[C@H]3CC(=O)C4=CC(=O)CC[C@]4(C)[C@H]3CC[C@]21C)C(C)C
REMARK SMILES IDX 4 1 3 2 2 3 1 4 29 5 30 6 31 7 5 8 6 9 7 10 8 11 9 12 27 13
REMARK SMILES IDX 10 14 11 15 26 16 28 17 12 18 25 19 24 20 13 21 22 22 14 23
REMARK SMILES IDX 16 24 21 25 23 26 15 27 17 28 20 29 18 30 19 31
REMARK H PARENT
REMARK Flexibility Score: inf
ROOT
ATOM      1  C   UNL     1      54.951  31.803  32.411  1.00  0.00     0.004 C 
ENDROOT
BRANCH   1   2
ATOM      2  C   UNL     1      56.274  32.615  32.525  1.00  0.00    -0.009 C 
BRANCH   2   3
ATOM      3  C   UNL     1      55.980  34.138  32.318  1.00  0.00     0.000 C 
ATOM      4  C   UNL     1      55.613  34.842  33.625  1.00  0.00     0.004 C 
ENDBRANCH   2   3
BRANCH   2   5
ATOM      5  C   UNL     1      57.371  32.107  31.524  1.00  0.00    -0.014 C 
ATOM      6  C   UNL     1      58.407  33.209  31.219  1.00  0.00     0.007 C 
ATOM      7  C   UNL     1      58.123  30.864  32.043  1.00  0.00     0.007 C 
ENDBRANCH   2   5
ENDBRANCH   1   2
BRANCH   1   8
ATOM      8  C   UNL     1      54.144  32.142  31.124  1.00  0.00     0.004 C 
BRANCH   8   9
ATOM      9  C   UNL     1      52.593  32.057  31.233  1.00  0.00    -0.011 C 
ATOM     10  C   UNL     1      52.045  30.764  30.597  1.00  0.00     0.008 C 
BRANCH   9  11
ATOM     11  C   UNL     1      51.768  33.318  30.784  1.00  0.00    -0.002 C 
ATOM     12  C   UNL     1      52.346  34.716  31.101  1.00  0.00     0.005 C 
ATOM     13  C   UNL     1      50.305  33.399  31.296  1.00  0.00    -0.026 C 
ATOM     14  C   UNL     1      51.144  35.678  31.136  1.00  0.00     0.005 C 
ATOM     15  C   UNL     1      49.929  34.804  30.813  1.00  0.00    -0.001 C 
ATOM     16  C   UNL     1      49.340  32.372  30.634  1.00  0.00     0.007 C 
ATOM     17  C   UNL     1      50.265  33.271  32.855  1.00  0.00     0.012 C 
ATOM     18  C   UNL     1      48.527  35.282  31.288  1.00  0.00     0.004 C 
ATOM     19  C   UNL     1      47.957  32.969  30.238  1.00  0.00     0.005 C 
ATOM     20  C   UNL     1      47.463  34.095  31.207  1.00  0.00     0.003 C 
ATOM     21  C   UNL     1      48.145  36.564  30.494  1.00  0.00     0.085 C 
ATOM     22  C   UNL     1      45.947  34.561  31.000  1.00  0.00    -0.000 C 
ATOM     23  C   UNL     1      47.055  36.314  29.512  1.00  0.00     0.159 C 
ATOM     24  C   UNL     1      45.832  35.743  30.049  1.00  0.00     0.005 C 
ATOM     25  C   UNL     1      45.351  35.008  32.369  1.00  0.00     0.020 C 
ATOM     26  C   UNL     1      45.079  33.403  30.432  1.00  0.00     0.017 C 
ATOM     27  O   UNL     1      47.136  36.710  28.319  1.00  0.00    -0.295 OA
ATOM     28  C   UNL     1      44.715  36.485  30.003  1.00  0.00     0.055 C 
ATOM     29  C   UNL     1      43.893  35.506  32.258  1.00  0.00     0.081 C 
ATOM     30  C   UNL     1      43.659  36.327  31.017  1.00  0.00     0.156 C 
ATOM     31  O   UNL     1      42.559  36.921  30.866  1.00  0.00    -0.295 OA
ENDBRANCH   9  11
ENDBRANCH   8   9
ENDBRANCH   1   8
TORSDOF 6
ENDMDL
MODEL 3
REMARK VINA RESULT:    -7.874      2.270      3.997
REMARK INTER + INTRA:         -11.799
REMARK INTER:                 -10.228
REMARK INTRA:                  -1.571
REMARK UNBOUND:                -1.163
REMARK SMILES CC[C@@H](CC[C@H](C)[C@@H]1CC[C@@H]2[C@H]3CC(=O)C4=CC(=O)CC[C@]4(C)[C@H]3CC[C@]21C)C(C)C
REMARK SMILES IDX 4 1 3 2 2 3 1 4 29 5 30 6 31 7 5 8 6 9 7 10 8 11 9 12 27 13
REMARK SMILES IDX 10 14 11 15 26 16 28 17 12 18 25 19 24 20 13 21 22 22 14 23
REMARK SMILES IDX 16 24 21 25 23 26 15 27 17 28 20 29 18 30 19 31
REMARK H PARENT
REMARK Flexibility Score: inf
ROOT
ATOM      1  C   UNL     1      54.481  33.595  31.785  1.00  0.00     0.004 C 
ENDROOT
BRANCH   1   2
ATOM      2  C   UNL     1      54.714  32.246  32.526  1.00  0.00    -0.009 C 
BRANCH   2   3
ATOM      3  C   UNL     1      55.924  31.491  31.883  1.00  0.00     0.000 C 
ATOM      4  C   UNL     1      56.749  32.393  30.964  1.00  0.00     0.004 C 
ENDBRANCH   2   3
BRANCH   2   5
ATOM      5  C   UNL     1      53.427  31.347  32.542  1.00  0.00    -0.014 C 
ATOM      6  C   UNL     1      52.853  31.163  31.123  1.00  0.00     0.007 C 
ATOM      7  C   UNL     1      53.680  29.952  33.149  1.00  0.00     0.007 C 
ENDBRANCH   2   5
ENDBRANCH   1   2
BRANCH   1   8
ATOM      8  C   UNL     1      54.009  34.733  32.737  1.00  0.00     0.004 C 
BRANCH   8   9
ATOM      9  C   UNL     1      52.857  35.642  32.216  1.00  0.00    -0.011 C 
ATOM     10  C   UNL     1      53.075  37.118  32.602  1.00  0.00     0.008 C 
BRANCH   9  11
ATOM     11  C   UNL     1      51.384  35.178  32.509  1.00  0.00    -0.002 C 
ATOM     12  C   UNL     1      51.175  33.817  33.211  1.00  0.00     0.005 C 
ATOM     13  C   UNL     1      50.429  35.113  31.286  1.00  0.00    -0.026 C 
ATOM     14  C   UNL     1      49.760  33.348  32.824  1.00  0.00     0.005 C 
ATOM     15  C   UNL     1      49.202  34.466  31.938  1.00  0.00    -0.001 C 
ATOM     16  C   UNL     1      50.015  36.505  30.725  1.00  0.00     0.007 C 
ATOM     17  C   UNL     1      51.047  34.222  30.159  1.00  0.00     0.012 C 
ATOM     18  C   UNL     1      48.063  34.118  30.938  1.00  0.00     0.004 C 
ATOM     19  C   UNL     1      48.504  36.620  30.370  1.00  0.00     0.005 C 
ATOM     20  C   UNL     1      47.878  35.279  29.858  1.00  0.00     0.003 C 
ATOM     21  C   UNL     1      46.784  33.761  31.746  1.00  0.00     0.085 C 
ATOM     22  C   UNL     1      46.408  35.400  29.241  1.00  0.00    -0.000 C 
ATOM     23  C   UNL     1      45.735  34.811  31.632  1.00  0.00     0.159 C 
ATOM     24  C   UNL     1      45.325  35.159  30.282  1.00  0.00     0.005 C 
ATOM     25  C   UNL     1      46.224  34.328  28.125  1.00  0.00     0.020 C 
ATOM     26  C   UNL     1      46.174  36.808  28.625  1.00  0.00     0.017 C 
ATOM     27  O   UNL     1      45.137  35.263  32.645  1.00  0.00    -0.295 OA
ATOM     28  C   UNL     1      44.063  34.885  29.916  1.00  0.00     0.055 C 
ATOM     29  C   UNL     1      44.815  34.350  27.493  1.00  0.00     0.081 C 
ATOM     30  C   UNL     1      43.732  34.587  28.512  1.00  0.00     0.156 C 
ATOM     31  O   UNL     1      42.525  34.486  28.167  1.00  0.00    -0.295 OA
ENDBRANCH   9  11
ENDBRANCH   8   9
ENDBRANCH   1   8
TORSDOF 6
ENDMDL
MODEL 4
REMARK VINA RESULT:    -7.673      3.349      9.083
REMARK INTER + INTRA:         -11.527
REMARK INTER:                  -9.621
REMARK INTRA:                  -1.906
REMARK UNBOUND:                -1.163
REMARK SMILES CC[C@@H](CC[C@H](C)[C@@H]1CC[C@@H]2[C@H]3CC(=O)C4=CC(=O)CC[C@]4(C)[C@H]3CC[C@]21C)C(C)C
REMARK SMILES IDX 4 1 3 2 2 3 1 4 29 5 30 6 31 7 5 8 6 9 7 10 8 11 9 12 27 13
REMARK SMILES IDX 10 14 11 15 26 16 28 17 12 18 25 19 24 20 13 21 22 22 14 23
REMARK SMILES IDX 16 24 21 25 23 26 15 27 17 28 20 29 18 30 19 31
REMARK H PARENT
REMARK Flexibility Score: inf
ROOT
ATOM      1  C   UNL     1      47.901  41.916  29.293  1.00  0.00     0.004 C 
ENDROOT
BRANCH   1   2
ATOM      2  C   UNL     1      48.099  40.694  28.350  1.00  0.00    -0.009 C 
BRANCH   2   3
ATOM      3  C   UNL     1      48.956  41.115  27.110  1.00  0.00     0.000 C 
ATOM      4  C   UNL     1      50.403  40.633  27.214  1.00  0.00     0.004 C 
ENDBRANCH   2   3
BRANCH   2   5
ATOM      5  C   UNL     1      46.735  40.056  27.907  1.00  0.00    -0.014 C 
ATOM      6  C   UNL     1      46.924  39.096  26.716  1.00  0.00     0.007 C 
ATOM      7  C   UNL     1      46.038  39.286  29.047  1.00  0.00     0.007 C 
ENDBRANCH   2   5
ENDBRANCH   1   2
BRANCH   1   8
ATOM      8  C   UNL     1      48.899  41.926  30.487  1.00  0.00     0.004 C 
BRANCH   8   9
ATOM      9  C   UNL     1      48.863  40.689  31.432  1.00  0.00    -0.011 C 
ATOM     10  C   UNL     1      48.216  41.027  32.790  1.00  0.00     0.008 C 
BRANCH   9  11
ATOM     11  C   UNL     1      50.200  39.881  31.613  1.00  0.00    -0.002 C 
ATOM     12  C   UNL     1      51.439  40.333  30.808  1.00  0.00     0.005 C 
ATOM     13  C   UNL     1      50.120  38.354  31.343  1.00  0.00    -0.026 C 
ATOM     14  C   UNL     1      52.344  39.093  30.682  1.00  0.00     0.005 C 
ATOM     15  C   UNL     1      51.605  37.986  31.441  1.00  0.00    -0.001 C 
ATOM     16  C   UNL     1      49.339  37.554  32.426  1.00  0.00     0.007 C 
ATOM     17  C   UNL     1      49.529  38.083  29.920  1.00  0.00     0.012 C 
ATOM     18  C   UNL     1      51.915  36.506  31.078  1.00  0.00     0.004 C 
ATOM     19  C   UNL     1      50.024  36.220  32.844  1.00  0.00     0.005 C 
ATOM     20  C   UNL     1      50.807  35.527  31.677  1.00  0.00     0.003 C 
ATOM     21  C   UNL     1      53.376  36.186  31.505  1.00  0.00     0.085 C 
ATOM     22  C   UNL     1      51.310  34.040  31.977  1.00  0.00    -0.000 C 
ATOM     23  C   UNL     1      53.431  35.273  32.679  1.00  0.00     0.159 C 
ATOM     24  C   UNL     1      52.723  34.012  32.540  1.00  0.00     0.005 C 
ATOM     25  C   UNL     1      51.323  33.220  30.652  1.00  0.00     0.020 C 
ATOM     26  C   UNL     1      50.376  33.328  32.995  1.00  0.00     0.017 C 
ATOM     27  O   UNL     1      54.168  35.515  33.672  1.00  0.00    -0.295 OA
ATOM     28  C   UNL     1      53.444  32.880  32.543  1.00  0.00     0.055 C 
ATOM     29  C   UNL     1      51.830  31.773  30.843  1.00  0.00     0.081 C 
ATOM     30  C   UNL     1      52.985  31.690  31.805  1.00  0.00     0.156 C 
ATOM     31  O   UNL     1      53.595  30.599  31.947  1.00  0.00    -0.295 OA
ENDBRANCH   9  11
ENDBRANCH   8   9
ENDBRANCH   1   8
TORSDOF 6
ENDMDL
MODEL 5
REMARK VINA RESULT:    -7.664      4.040      9.272
REMARK INTER + INTRA:         -11.515
REMARK INTER:                  -9.821
REMARK INTRA:                  -1.694
REMARK UNBOUND:                -1.163
REMARK SMILES CC[C@@H](CC[C@H](C)[C@@H]1CC[C@@H]2[C@H]3CC(=O)C4=CC(=O)CC[C@]4(C)[C@H]3CC[C@]21C)C(C)C
REMARK SMILES IDX 4 1 3 2 2 3 1 4 29 5 30 6 31 7 5 8 6 9 7 10 8 11 9 12 27 13
REMARK SMILES IDX 10 14 11 15 26 16 28 17 12 18 25 19 24 20 13 21 22 22 14 23
REMARK SMILES IDX 16 24 21 25 23 26 15 27 17 28 20 29 18 30 19 31
REMARK H PARENT
REMARK Flexibility Score: inf
ROOT
ATOM      1  C   UNL     1      42.412  34.201  27.017  1.00  0.00     0.004 C 
ENDROOT
BRANCH   1   2
ATOM      2  C   UNL     1      43.696  33.399  26.653  1.00  0.00    -0.009 C 
BRANCH   2   3
ATOM      3  C   UNL     1      44.487  34.148  25.529  1.00  0.00     0.000 C 
ATOM      4  C   UNL     1      45.827  33.481  25.220  1.00  0.00     0.004 C 
ENDBRANCH   2   3
BRANCH   2   5
ATOM      5  C   UNL     1      43.374  31.921  26.234  1.00  0.00    -0.014 C 
ATOM      6  C   UNL     1      43.028  31.053  27.459  1.00  0.00     0.007 C 
ATOM      7  C   UNL     1      42.211  31.825  25.226  1.00  0.00     0.007 C 
ENDBRANCH   2   5
ENDBRANCH   1   2
BRANCH   1   8
ATOM      8  C   UNL     1      42.456  34.789  28.458  1.00  0.00     0.004 C 
BRANCH   8   9
ATOM      9  C   UNL     1      43.557  34.226  29.404  1.00  0.00    -0.011 C 
ATOM     10  C   UNL     1      42.950  33.514  30.628  1.00  0.00     0.008 C 
BRANCH   9  11
ATOM     11  C   UNL     1      44.718  35.202  29.819  1.00  0.00    -0.002 C 
ATOM     12  C   UNL     1      44.958  36.458  28.951  1.00  0.00     0.005 C 
ATOM     13  C   UNL     1      46.130  34.571  29.954  1.00  0.00    -0.026 C 
ATOM     14  C   UNL     1      46.429  36.857  29.173  1.00  0.00     0.005 C 
ATOM     15  C   UNL     1      46.969  35.835  30.178  1.00  0.00    -0.001 C 
ATOM     16  C   UNL     1      46.297  33.640  31.191  1.00  0.00     0.007 C 
ATOM     17  C   UNL     1      46.519  33.820  28.638  1.00  0.00     0.012 C 
ATOM     18  C   UNL     1      48.502  35.577  30.220  1.00  0.00     0.004 C 
ATOM     19  C   UNL     1      47.638  33.841  31.957  1.00  0.00     0.005 C 
ATOM     20  C   UNL     1      48.834  34.241  31.028  1.00  0.00     0.003 C 
ATOM     21  C   UNL     1      49.206  36.859  30.748  1.00  0.00     0.085 C 
ATOM     22  C   UNL     1      50.277  34.210  31.717  1.00  0.00    -0.000 C 
ATOM     23  C   UNL     1      49.752  36.675  32.121  1.00  0.00     0.159 C 
ATOM     24  C   UNL     1      50.667  35.560  32.299  1.00  0.00     0.005 C 
ATOM     25  C   UNL     1      51.351  33.837  30.652  1.00  0.00     0.020 C 
ATOM     26  C   UNL     1      50.325  33.162  32.864  1.00  0.00     0.017 C 
ATOM     27  O   UNL     1      49.550  37.521  33.032  1.00  0.00    -0.295 OA
ATOM     28  C   UNL     1      51.943  35.834  32.613  1.00  0.00     0.055 C 
ATOM     29  C   UNL     1      52.786  33.814  31.224  1.00  0.00     0.081 C 
ATOM     30  C   UNL     1      53.033  34.934  32.200  1.00  0.00     0.156 C 
ATOM     31  O   UNL     1      54.198  35.130  32.636  1.00  0.00    -0.295 OA
ENDBRANCH   9  11
ENDBRANCH   8   9
ENDBRANCH   1   8
TORSDOF 6
ENDMDL
MODEL 6
REMARK VINA RESULT:    -7.591      3.279      8.222
REMARK INTER + INTRA:         -11.417
REMARK INTER:                 -10.388
REMARK INTRA:                  -1.029
REMARK UNBOUND:                -1.163
REMARK SMILES CC[C@@H](CC[C@H](C)[C@@H]1CC[C@@H]2[C@H]3CC(=O)C4=CC(=O)CC[C@]4(C)[C@H]3CC[C@]21C)C(C)C
REMARK SMILES IDX 4 1 3 2 2 3 1 4 29 5 30 6 31 7 5 8 6 9 7 10 8 11 9 12 27 13
REMARK SMILES IDX 10 14 11 15 26 16 28 17 12 18 25 19 24 20 13 21 22 22 14 23
REMARK SMILES IDX 16 24 21 25 23 26 15 27 17 28 20 29 18 30 19 31
REMARK H PARENT
REMARK Flexibility Score: inf
ROOT
ATOM      1  C   UNL     1      47.792  35.769  31.631  1.00  0.00     0.004 C 
ENDROOT
BRANCH   1   2
ATOM      2  C   UNL     1      48.557  36.572  30.538  1.00  0.00    -0.009 C 
BRANCH   2   3
ATOM      3  C   UNL     1      49.464  37.654  31.214  1.00  0.00     0.000 C 
ATOM      4  C   UNL     1      49.498  37.515  32.736  1.00  0.00     0.004 C 
ENDBRANCH   2   3
BRANCH   2   5
ATOM      5  C   UNL     1      47.587  37.219  29.487  1.00  0.00    -0.014 C 
ATOM      6  C   UNL     1      46.657  36.163  28.857  1.00  0.00     0.007 C 
ATOM      7  C   UNL     1      46.713  38.338  30.090  1.00  0.00     0.007 C 
ENDBRANCH   2   5
ENDBRANCH   1   2
BRANCH   1   8
ATOM      8  C   UNL     1      48.280  34.296  31.749  1.00  0.00     0.004 C 
BRANCH   8   9
ATOM      9  C   UNL     1      48.889  33.660  30.465  1.00  0.00    -0.011 C 
ATOM     10  C   UNL     1      47.882  32.739  29.751  1.00  0.00     0.008 C 
BRANCH   9  11
ATOM     11  C   UNL     1      50.302  32.983  30.597  1.00  0.00    -0.002 C 
ATOM     12  C   UNL     1      50.358  31.480  30.955  1.00  0.00     0.005 C 
ATOM     13  C   UNL     1      51.287  33.639  31.602  1.00  0.00    -0.026 C 
ATOM     14  C   UNL     1      51.734  31.246  31.604  1.00  0.00     0.005 C 
ATOM     15  C   UNL     1      52.425  32.612  31.571  1.00  0.00    -0.001 C 
ATOM     16  C   UNL     1      51.848  35.015  31.140  1.00  0.00     0.007 C 
ATOM     17  C   UNL     1      50.625  33.756  33.015  1.00  0.00     0.012 C 
ATOM     18  C   UNL     1      53.558  32.894  32.598  1.00  0.00     0.004 C 
ATOM     19  C   UNL     1      53.375  35.192  31.389  1.00  0.00     0.005 C 
ATOM     20  C   UNL     1      53.888  34.454  32.671  1.00  0.00     0.003 C 
ATOM     21  C   UNL     1      54.771  31.980  32.262  1.00  0.00     0.085 C 
ATOM     22  C   UNL     1      55.383  34.808  33.114  1.00  0.00    -0.000 C 
ATOM     23  C   UNL     1      55.917  32.749  31.704  1.00  0.00     0.159 C 
ATOM     24  C   UNL     1      56.403  33.849  32.519  1.00  0.00     0.005 C 
ATOM     25  C   UNL     1      55.502  34.707  34.665  1.00  0.00     0.020 C 
ATOM     26  C   UNL     1      55.768  36.249  32.677  1.00  0.00     0.017 C 
ATOM     27  O   UNL     1      56.521  32.375  30.663  1.00  0.00    -0.295 OA
ATOM     28  C   UNL     1      57.645  33.763  33.021  1.00  0.00     0.055 C 
ATOM     29  C   UNL     1      56.927  35.003  35.181  1.00  0.00     0.081 C 
ATOM     30  C   UNL     1      57.993  34.419  34.293  1.00  0.00     0.156 C 
ATOM     31  O   UNL     1      59.196  34.454  34.664  1.00  0.00    -0.295 OA
ENDBRANCH   9  11
ENDBRANCH   8   9
ENDBRANCH   1   8
TORSDOF 6
ENDMDL
MODEL 7
REMARK VINA RESULT:    -7.495      2.055      4.256
REMARK INTER + INTRA:         -11.287
REMARK INTER:                 -10.579
REMARK INTRA:                  -0.708
REMARK UNBOUND:                -1.163
REMARK SMILES CC[C@@H](CC[C@H](C)[C@@H]1CC[C@@H]2[C@H]3CC(=O)C4=CC(=O)CC[C@]4(C)[C@H]3CC[C@]21C)C(C)C
REMARK SMILES IDX 4 1 3 2 2 3 1 4 29 5 30 6 31 7 5 8 6 9 7 10 8 11 9 12 27 13
REMARK SMILES IDX 10 14 11 15 26 16 28 17 12 18 25 19 24 20 13 21 22 22 14 23
REMARK SMILES IDX 16 24 21 25 23 26 15 27 17 28 20 29 18 30 19 31
REMARK H PARENT
REMARK Flexibility Score: inf
ROOT
ATOM      1  C   UNL     1      53.550  32.622  32.826  1.00  0.00     0.004 C 
ENDROOT
BRANCH   1   2
ATOM      2  C   UNL     1      53.783  31.960  31.437  1.00  0.00    -0.009 C 
BRANCH   2   3
ATOM      3  C   UNL     1      52.946  30.643  31.330  1.00  0.00     0.000 C 
ATOM      4  C   UNL     1      51.699  30.815  30.462  1.00  0.00     0.004 C 
ENDBRANCH   2   3
BRANCH   2   5
ATOM      5  C   UNL     1      55.303  31.692  31.154  1.00  0.00    -0.014 C 
ATOM      6  C   UNL     1      56.161  32.933  31.472  1.00  0.00     0.007 C 
ATOM      7  C   UNL     1      55.859  30.498  31.957  1.00  0.00     0.007 C 
ENDBRANCH   2   5
ENDBRANCH   1   2
BRANCH   1   8
ATOM      8  C   UNL     1      52.628  33.874  32.751  1.00  0.00     0.004 C 
BRANCH   8   9
ATOM      9  C   UNL     1      52.968  34.922  31.650  1.00  0.00    -0.011 C 
ATOM     10  C   UNL     1      54.012  35.945  32.139  1.00  0.00     0.008 C 
BRANCH   9  11
ATOM     11  C   UNL     1      51.762  35.625  30.927  1.00  0.00    -0.002 C 
ATOM     12  C   UNL     1      51.795  37.163  30.784  1.00  0.00     0.005 C 
ATOM     13  C   UNL     1      50.351  35.338  31.509  1.00  0.00    -0.026 C 
ATOM     14  C   UNL     1      50.329  37.612  30.639  1.00  0.00     0.005 C 
ATOM     15  C   UNL     1      49.514  36.315  30.677  1.00  0.00    -0.001 C 
ATOM     16  C   UNL     1      49.834  33.894  31.246  1.00  0.00     0.007 C 
ATOM     17  C   UNL     1      50.316  35.670  33.037  1.00  0.00     0.012 C 
ATOM     18  C   UNL     1      48.021  36.393  31.105  1.00  0.00     0.004 C 
ATOM     19  C   UNL     1      48.341  33.826  30.809  1.00  0.00     0.005 C 
ATOM     20  C   UNL     1      47.451  34.943  31.452  1.00  0.00     0.003 C 
ATOM     21  C   UNL     1      47.231  37.167  30.012  1.00  0.00     0.085 C 
ATOM     22  C   UNL     1      45.875  34.769  31.242  1.00  0.00    -0.000 C 
ATOM     23  C   UNL     1      46.329  36.275  29.232  1.00  0.00     0.159 C 
ATOM     24  C   UNL     1      45.375  35.500  30.005  1.00  0.00     0.005 C 
ATOM     25  C   UNL     1      45.121  35.363  32.469  1.00  0.00     0.020 C 
ATOM     26  C   UNL     1      45.493  33.269  31.098  1.00  0.00     0.017 C 
ATOM     27  O   UNL     1      46.298  36.304  27.973  1.00  0.00    -0.295 OA
ATOM     28  C   UNL     1      44.068  35.759  29.838  1.00  0.00     0.055 C 
ATOM     29  C   UNL     1      43.585  35.267  32.337  1.00  0.00     0.081 C 
ATOM     30  C   UNL     1      43.109  35.549  30.936  1.00  0.00     0.156 C 
ATOM     31  O   UNL     1      41.875  35.651  30.710  1.00  0.00    -0.295 OA
ENDBRANCH   9  11
ENDBRANCH   8   9
ENDBRANCH   1   8
TORSDOF 6
ENDMDL
MODEL 8
REMARK VINA RESULT:    -7.489      3.363      8.973
REMARK INTER + INTRA:         -11.279
REMARK INTER:                  -9.785
REMARK INTRA:                  -1.494
REMARK UNBOUND:                -1.163
REMARK SMILES CC[C@@H](CC[C@H](C)[C@@H]1CC[C@@H]2[C@H]3CC(=O)C4=CC(=O)CC[C@]4(C)[C@H]3CC[C@]21C)C(C)C
REMARK SMILES IDX 4 1 3 2 2 3 1 4 29 5 30 6 31 7 5 8 6 9 7 10 8 11 9 12 27 13
REMARK SMILES IDX 10 14 11 15 26 16 28 17 12 18 25 19 24 20 13 21 22 22 14 23
REMARK SMILES IDX 16 24 21 25 23 26 15 27 17 28 20 29 18 30 19 31
REMARK H PARENT
REMARK Flexibility Score: inf
ROOT
ATOM      1  C   UNL     1      46.096  35.414  30.699  1.00  0.00     0.004 C 
ENDROOT
BRANCH   1   2
ATOM      2  C   UNL     1      45.513  33.996  30.969  1.00  0.00    -0.009 C 
BRANCH   2   3
ATOM      3  C   UNL     1      46.108  32.975  29.943  1.00  0.00     0.000 C 
ATOM      4  C   UNL     1      46.648  33.660  28.688  1.00  0.00     0.004 C 
ENDBRANCH   2   3
BRANCH   2   5
ATOM      5  C   UNL     1      43.944  33.983  30.939  1.00  0.00    -0.014 C 
ATOM      6  C   UNL     1      43.396  32.543  30.875  1.00  0.00     0.007 C 
ATOM      7  C   UNL     1      43.317  34.688  32.159  1.00  0.00     0.007 C 
ENDBRANCH   2   5
ENDBRANCH   1   2
BRANCH   1   8
ATOM      8  C   UNL     1      47.184  35.826  31.734  1.00  0.00     0.004 C 
BRANCH   8   9
ATOM      9  C   UNL     1      48.612  36.091  31.172  1.00  0.00    -0.011 C 
ATOM     10  C   UNL     1      48.565  36.684  29.750  1.00  0.00     0.008 C 
BRANCH   9  11
ATOM     11  C   UNL     1      49.657  34.921  31.278  1.00  0.00    -0.002 C 
ATOM     12  C   UNL     1      49.180  33.570  31.856  1.00  0.00     0.005 C 
ATOM     13  C   UNL     1      50.952  35.229  32.078  1.00  0.00    -0.026 C 
ATOM     14  C   UNL     1      50.438  32.872  32.407  1.00  0.00     0.005 C 
ATOM     15  C   UNL     1      51.589  33.835  32.102  1.00  0.00    -0.001 C 
ATOM     16  C   UNL     1      51.928  36.207  31.360  1.00  0.00     0.007 C 
ATOM     17  C   UNL     1      50.597  35.750  33.509  1.00  0.00     0.012 C 
ATOM     18  C   UNL     1      52.879  33.744  32.967  1.00  0.00     0.004 C 
ATOM     19  C   UNL     1      53.423  35.781  31.440  1.00  0.00     0.005 C 
ATOM     20  C   UNL     1      53.790  35.039  32.770  1.00  0.00     0.003 C 
ATOM     21  C   UNL     1      53.583  32.391  32.667  1.00  0.00     0.085 C 
ATOM     22  C   UNL     1      55.354  34.808  33.016  1.00  0.00    -0.000 C 
ATOM     23  C   UNL     1      54.844  32.572  31.897  1.00  0.00     0.159 C 
ATOM     24  C   UNL     1      55.828  33.464  32.485  1.00  0.00     0.005 C 
ATOM     25  C   UNL     1      55.646  34.832  34.546  1.00  0.00     0.020 C 
ATOM     26  C   UNL     1      56.197  35.919  32.329  1.00  0.00     0.017 C 
ATOM     27  O   UNL     1      55.101  31.880  30.875  1.00  0.00    -0.295 OA
ATOM     28  C   UNL     1      56.999  32.940  32.880  1.00  0.00     0.055 C 
ATOM     29  C   UNL     1      57.133  34.583  34.880  1.00  0.00     0.081 C 
ATOM     30  C   UNL     1      57.752  33.531  33.999  1.00  0.00     0.156 C 
ATOM     31  O   UNL     1      58.915  33.119  34.250  1.00  0.00    -0.295 OA
ENDBRANCH   9  11
ENDBRANCH   8   9
ENDBRANCH   1   8
TORSDOF 6
ENDMDL
MODEL 9
REMARK VINA RESULT:    -7.431      3.512      9.177
REMARK INTER + INTRA:         -11.201
REMARK INTER:                 -10.169
REMARK INTRA:                  -1.032
REMARK UNBOUND:                -1.163
REMARK SMILES CC[C@@H](CC[C@H](C)[C@@H]1CC[C@@H]2[C@H]3CC(=O)C4=CC(=O)CC[C@]4(C)[C@H]3CC[C@]21C)C(C)C
REMARK SMILES IDX 4 1 3 2 2 3 1 4 29 5 30 6 31 7 5 8 6 9 7 10 8 11 9 12 27 13
REMARK SMILES IDX 10 14 11 15 26 16 28 17 12 18 25 19 24 20 13 21 22 22 14 23
REMARK SMILES IDX 16 24 21 25 23 26 15 27 17 28 20 29 18 30 19 31
REMARK H PARENT
REMARK Flexibility Score: inf
ROOT
ATOM      1  C   UNL     1      46.986  35.602  31.906  1.00  0.00     0.004 C 
ENDROOT
BRANCH   1   2
ATOM      2  C   UNL     1      46.054  35.318  30.691  1.00  0.00    -0.009 C 
BRANCH   2   3
ATOM      3  C   UNL     1      45.047  34.176  31.052  1.00  0.00     0.000 C 
ATOM      4  C   UNL     1      43.920  34.662  31.965  1.00  0.00     0.004 C 
ENDBRANCH   2   3
BRANCH   2   5
ATOM      5  C   UNL     1      46.861  34.974  29.390  1.00  0.00    -0.014 C 
ATOM      6  C   UNL     1      46.726  33.483  29.024  1.00  0.00     0.007 C 
ATOM      7  C   UNL     1      46.421  35.815  28.174  1.00  0.00     0.007 C 
ENDBRANCH   2   5
ENDBRANCH   1   2
BRANCH   1   8
ATOM      8  C   UNL     1      48.449  35.918  31.482  1.00  0.00     0.004 C 
BRANCH   8   9
ATOM      9  C   UNL     1      49.476  34.754  31.609  1.00  0.00    -0.011 C 
ATOM     10  C   UNL     1      48.828  33.482  32.188  1.00  0.00     0.008 C 
BRANCH   9  11
ATOM     11  C   UNL     1      50.847  35.075  32.308  1.00  0.00    -0.002 C 
ATOM     12  C   UNL     1      51.282  36.554  32.412  1.00  0.00     0.005 C 
ATOM     13  C   UNL     1      52.098  34.363  31.725  1.00  0.00    -0.026 C 
ATOM     14  C   UNL     1      52.817  36.542  32.538  1.00  0.00     0.005 C 
ATOM     15  C   UNL     1      53.202  35.059  32.528  1.00  0.00    -0.001 C 
ATOM     16  C   UNL     1      52.158  32.835  32.021  1.00  0.00     0.007 C 
ATOM     17  C   UNL     1      52.212  34.634  30.189  1.00  0.00     0.012 C 
ATOM     18  C   UNL     1      54.643  34.672  32.089  1.00  0.00     0.004 C 
ATOM     19  C   UNL     1      53.566  32.330  32.452  1.00  0.00     0.005 C 
ATOM     20  C   UNL     1      54.743  33.110  31.776  1.00  0.00     0.003 C 
ATOM     21  C   UNL     1      55.644  35.194  33.158  1.00  0.00     0.085 C 
ATOM     22  C   UNL     1      56.196  32.472  31.982  1.00  0.00    -0.000 C 
ATOM     23  C   UNL     1      56.244  34.090  33.955  1.00  0.00     0.159 C 
ATOM     24  C   UNL     1      56.910  33.045  33.197  1.00  0.00     0.005 C 
ATOM     25  C   UNL     1      57.078  32.783  30.736  1.00  0.00     0.020 C 
ATOM     26  C   UNL     1      56.108  30.930  32.160  1.00  0.00     0.017 C 
ATOM     27  O   UNL     1      56.299  34.135  35.213  1.00  0.00    -0.295 OA
ATOM     28  C   UNL     1      58.235  32.900  33.350  1.00  0.00     0.055 C 
ATOM     29  C   UNL     1      58.515  32.229  30.861  1.00  0.00     0.081 C 
ATOM     30  C   UNL     1      59.072  32.386  32.252  1.00  0.00     0.156 C 
ATOM     31  O   UNL     1      60.282  32.114  32.469  1.00  0.00    -0.295 OA
ENDBRANCH   9  11
ENDBRANCH   8   9
ENDBRANCH   1   8
TORSDOF 6
ENDMDL
