MODEL 1
REMARK VINA RESULT:    -4.705      0.000      0.000
REMARK INTER + INTRA:          -6.983
REMARK INTER:                  -6.631
REMARK INTRA:                  -0.352
REMARK UNBOUND:                -0.352
REMARK SMILES CCCCCCCCC(=O)[O-]
REMARK SMILES IDX 6 1 7 2 8 3 9 4 10 5 11 6 5 7 4 8 3 9 2 10 1 11
REMARK H PARENT
REMARK Flexibility Score: inf
ROOT
ATOM      1  C   UNL     1       8.280  10.654  42.858  1.00  0.00     0.000 C 
ENDROOT
BRANCH   1   2
ATOM      2  C   UNL     1       8.610  11.566  41.662  1.00  0.00     0.006 C 
BRANCH   2   3
ATOM      3  C   UNL     1       8.726  13.057  42.013  1.00  0.00     0.053 C 
BRANCH   3   4
ATOM      4  C   UNL     1       9.035  13.897  40.811  1.00  0.00     0.041 C 
ATOM      5  O   UNL     1       9.408  13.354  39.739  1.00  0.00    -0.550 OA
ATOM      6  O   UNL     1       8.942  15.280  40.887  1.00  0.00    -0.550 OA
ENDBRANCH   3   4
ENDBRANCH   2   3
ENDBRANCH   1   2
BRANCH   1   7
ATOM      7  C   UNL     1       8.643   9.181  42.601  1.00  0.00     0.000 C 
BRANCH   7   8
ATOM      8  C   UNL     1       9.268   8.504  43.831  1.00  0.00    -0.000 C 
BRANCH   8   9
ATOM      9  C   UNL     1       9.404   9.456  45.027  1.00  0.00    -0.000 C 
BRANCH   9  10
ATOM     10  C   UNL     1      10.878   9.666  45.395  1.00  0.00    -0.003 C 
ATOM     11  C   UNL     1      11.637   8.342  45.412  1.00  0.00     0.004 C 
ENDBRANCH   9  10
ENDBRANCH   8   9
ENDBRANCH   7   8
ENDBRANCH   1   7
TORSDOF 7
ENDMDL
MODEL 2
REMARK VINA RESULT:    -4.645     10.261     11.340
REMARK INTER + INTRA:          -6.898
REMARK INTER:                  -6.682
REMARK INTRA:                  -0.216
REMARK UNBOUND:                -0.352
REMARK SMILES CCCCCCCCC(=O)[O-]
REMARK SMILES IDX 6 1 7 2 8 3 9 4 10 5 11 6 5 7 4 8 3 9 2 10 1 11
REMARK H PARENT
REMARK Flexibility Score: inf
ROOT
ATOM      1  C   UNL     1      21.389  11.412  42.082  1.00  0.00     0.000 C 
ENDROOT
BRANCH   1   2
ATOM      2  C   UNL     1      20.579  12.554  42.725  1.00  0.00     0.006 C 
BRANCH   2   3
ATOM      3  C   UNL     1      21.212  13.945  42.573  1.00  0.00     0.053 C 
BRANCH   3   4
ATOM      4  C   UNL     1      20.186  15.005  42.309  1.00  0.00     0.041 C 
ATOM      5  O   UNL     1      18.981  14.809  42.615  1.00  0.00    -0.550 OA
ATOM      6  O   UNL     1      20.556  16.194  41.695  1.00  0.00    -0.550 OA
ENDBRANCH   3   4
ENDBRANCH   2   3
ENDBRANCH   1   2
BRANCH   1   7
ATOM      7  C   UNL     1      20.575  10.114  41.938  1.00  0.00     0.000 C 
BRANCH   7   8
ATOM      8  C   UNL     1      20.616   9.549  40.509  1.00  0.00    -0.000 C 
BRANCH   8   9
ATOM      9  C   UNL     1      19.279   9.706  39.770  1.00  0.00    -0.000 C 
BRANCH   9  10
ATOM     10  C   UNL     1      18.723   8.341  39.349  1.00  0.00    -0.003 C 
ATOM     11  C   UNL     1      17.272   8.173  39.795  1.00  0.00     0.004 C 
ENDBRANCH   9  10
ENDBRANCH   8   9
ENDBRANCH   7   8
ENDBRANCH   1   7
TORSDOF 7
ENDMDL
MODEL 3
REMARK VINA RESULT:    -4.645     10.233     11.628
REMARK INTER + INTRA:          -6.897
REMARK INTER:                  -6.507
REMARK INTRA:                  -0.390
REMARK UNBOUND:                -0.352
REMARK SMILES CCCCCCCCC(=O)[O-]
REMARK SMILES IDX 6 1 7 2 8 3 9 4 10 5 11 6 5 7 4 8 3 9 2 10 1 11
REMARK H PARENT
REMARK Flexibility Score: inf
ROOT
ATOM      1  C   UNL     1      20.977  10.167  42.116  1.00  0.00     0.000 C 
ENDROOT
BRANCH   1   2
ATOM      2  C   UNL     1      21.485  10.773  43.438  1.00  0.00     0.006 C 
BRANCH   2   3
ATOM      3  C   UNL     1      20.529  11.789  44.080  1.00  0.00     0.053 C 
BRANCH   3   4
ATOM      4  C   UNL     1      19.864  11.241  45.305  1.00  0.00     0.041 C 
ATOM      5  O   UNL     1      19.864  10.002  45.525  1.00  0.00    -0.550 OA
ATOM      6  O   UNL     1      19.217  12.097  46.187  1.00  0.00    -0.550 OA
ENDBRANCH   3   4
ENDBRANCH   2   3
ENDBRANCH   1   2
BRANCH   1   7
ATOM      7  C   UNL     1      20.482   8.719  42.277  1.00  0.00     0.000 C 
BRANCH   7   8
ATOM      8  C   UNL     1      20.185   8.044  40.928  1.00  0.00    -0.000 C 
BRANCH   8   9
ATOM      9  C   UNL     1      19.911   9.055  39.806  1.00  0.00    -0.000 C 
BRANCH   9  10
ATOM     10  C   UNL     1      18.406   9.291  39.637  1.00  0.00    -0.003 C 
ATOM     11  C   UNL     1      17.658   7.976  39.437  1.00  0.00     0.004 C 
ENDBRANCH   9  10
ENDBRANCH   8   9
ENDBRANCH   7   8
ENDBRANCH   1   7
TORSDOF 7
ENDMDL
MODEL 4
REMARK VINA RESULT:    -4.629      1.773      2.290
REMARK INTER + INTRA:          -6.875
REMARK INTER:                  -6.462
REMARK INTRA:                  -0.414
REMARK UNBOUND:                -0.352
REMARK SMILES CCCCCCCCC(=O)[O-]
REMARK SMILES IDX 6 1 7 2 8 3 9 4 10 5 11 6 5 7 4 8 3 9 2 10 1 11
REMARK H PARENT
REMARK Flexibility Score: inf
ROOT
ATOM      1  C   UNL     1       8.286  10.497  43.074  1.00  0.00     0.000 C 
ENDROOT
BRANCH   1   2
ATOM      2  C   UNL     1       8.614  11.347  41.831  1.00  0.00     0.006 C 
BRANCH   2   3
ATOM      3  C   UNL     1       8.097  10.763  40.508  1.00  0.00     0.053 C 
BRANCH   3   4
ATOM      4  C   UNL     1       9.210  10.466  39.550  1.00  0.00     0.041 C 
ATOM      5  O   UNL     1       9.566   9.276  39.343  1.00  0.00    -0.550 OA
ATOM      6  O   UNL     1       9.875  11.505  38.913  1.00  0.00    -0.550 OA
ENDBRANCH   3   4
ENDBRANCH   2   3
ENDBRANCH   1   2
BRANCH   1   7
ATOM      7  C   UNL     1       8.623   9.008  42.882  1.00  0.00     0.000 C 
BRANCH   7   8
ATOM      8  C   UNL     1       9.138   8.349  44.171  1.00  0.00    -0.000 C 
BRANCH   8   9
ATOM      9  C   UNL     1       9.492   9.372  45.260  1.00  0.00    -0.000 C 
BRANCH   9  10
ATOM     10  C   UNL     1      11.010   9.552  45.370  1.00  0.00    -0.003 C 
ATOM     11  C   UNL     1      11.721   8.205  45.470  1.00  0.00     0.004 C 
ENDBRANCH   9  10
ENDBRANCH   8   9
ENDBRANCH   7   8
ENDBRANCH   1   7
TORSDOF 7
ENDMDL
MODEL 5
REMARK VINA RESULT:    -4.463     10.738     11.961
REMARK INTER + INTRA:          -6.641
REMARK INTER:                  -6.297
REMARK INTRA:                  -0.344
REMARK UNBOUND:                -0.352
REMARK SMILES CCCCCCCCC(=O)[O-]
REMARK SMILES IDX 6 1 7 2 8 3 9 4 10 5 11 6 5 7 4 8 3 9 2 10 1 11
REMARK H PARENT
REMARK Flexibility Score: inf
ROOT
ATOM      1  C   UNL     1      20.648  10.242  41.900  1.00  0.00     0.000 C 
ENDROOT
BRANCH   1   2
ATOM      2  C   UNL     1      21.327  11.365  42.707  1.00  0.00     0.006 C 
BRANCH   2   3
ATOM      3  C   UNL     1      20.585  12.710  42.672  1.00  0.00     0.053 C 
BRANCH   3   4
ATOM      4  C   UNL     1      21.514  13.860  42.432  1.00  0.00     0.041 C 
ATOM      5  O   UNL     1      21.106  15.043  42.569  1.00  0.00    -0.550 OA
ATOM      6  O   UNL     1      22.820  13.625  42.023  1.00  0.00    -0.550 OA
ENDBRANCH   3   4
ENDBRANCH   2   3
ENDBRANCH   1   2
BRANCH   1   7
ATOM      7  C   UNL     1      21.571   9.641  40.826  1.00  0.00     0.000 C 
BRANCH   7   8
ATOM      8  C   UNL     1      20.851   9.420  39.486  1.00  0.00    -0.000 C 
BRANCH   8   9
ATOM      9  C   UNL     1      19.325   9.546  39.604  1.00  0.00    -0.000 C 
BRANCH   9  10
ATOM     10  C   UNL     1      18.644   8.193  39.369  1.00  0.00    -0.003 C 
ATOM     11  C   UNL     1      17.198   8.210  39.856  1.00  0.00     0.004 C 
ENDBRANCH   9  10
ENDBRANCH   8   9
ENDBRANCH   7   8
ENDBRANCH   1   7
TORSDOF 7
ENDMDL
MODEL 6
REMARK VINA RESULT:    -4.391     10.720     11.376
REMARK INTER + INTRA:          -6.541
REMARK INTER:                  -5.991
REMARK INTRA:                  -0.550
REMARK UNBOUND:                -0.352
REMARK SMILES CCCCCCCCC(=O)[O-]
REMARK SMILES IDX 6 1 7 2 8 3 9 4 10 5 11 6 5 7 4 8 3 9 2 10 1 11
REMARK H PARENT
REMARK Flexibility Score: inf
ROOT
ATOM      1  C   UNL     1      21.388  12.434  42.852  1.00  0.00     0.000 C 
ENDROOT
BRANCH   1   2
ATOM      2  C   UNL     1      20.200  13.406  42.717  1.00  0.00     0.006 C 
BRANCH   2   3
ATOM      3  C   UNL     1      20.441  14.793  43.332  1.00  0.00     0.053 C 
BRANCH   3   4
ATOM      4  C   UNL     1      20.146  15.898  42.364  1.00  0.00     0.041 C 
ATOM      5  O   UNL     1      19.173  16.671  42.562  1.00  0.00    -0.550 OA
ATOM      6  O   UNL     1      20.926  16.051  41.225  1.00  0.00    -0.550 OA
ENDBRANCH   3   4
ENDBRANCH   2   3
ENDBRANCH   1   2
BRANCH   1   7
ATOM      7  C   UNL     1      20.950  10.960  42.881  1.00  0.00     0.000 C 
BRANCH   7   8
ATOM      8  C   UNL     1      21.340  10.254  44.189  1.00  0.00    -0.000 C 
BRANCH   8   9
ATOM      9  C   UNL     1      20.124   9.890  45.053  1.00  0.00    -0.000 C 
BRANCH   9  10
ATOM     10  C   UNL     1      20.100  10.719  46.343  1.00  0.00    -0.003 C 
ATOM     11  C   UNL     1      19.330  12.023  46.148  1.00  0.00     0.004 C 
ENDBRANCH   9  10
ENDBRANCH   8   9
ENDBRANCH   7   8
ENDBRANCH   1   7
TORSDOF 7
ENDMDL
MODEL 7
REMARK VINA RESULT:    -4.287      4.058      5.213
REMARK INTER + INTRA:          -6.394
REMARK INTER:                  -5.996
REMARK INTRA:                  -0.398
REMARK UNBOUND:                -0.352
REMARK SMILES CCCCCCCCC(=O)[O-]
REMARK SMILES IDX 6 1 7 2 8 3 9 4 10 5 11 6 5 7 4 8 3 9 2 10 1 11
REMARK H PARENT
REMARK Flexibility Score: inf
ROOT
ATOM      1  C   UNL     1       9.696  14.457  41.814  1.00  0.00     0.000 C 
ENDROOT
BRANCH   1   2
ATOM      2  C   UNL     1       8.856  15.584  42.442  1.00  0.00     0.006 C 
BRANCH   2   3
ATOM      3  C   UNL     1       7.398  15.200  42.739  1.00  0.00     0.053 C 
BRANCH   3   4
ATOM      4  C   UNL     1       6.507  16.401  42.831  1.00  0.00     0.041 C 
ATOM      5  O   UNL     1       5.439  16.346  43.495  1.00  0.00    -0.550 OA
ATOM      6  O   UNL     1       6.839  17.568  42.156  1.00  0.00    -0.550 OA
ENDBRANCH   3   4
ENDBRANCH   2   3
ENDBRANCH   1   2
BRANCH   1   7
ATOM      7  C   UNL     1       9.046  13.071  41.973  1.00  0.00     0.000 C 
BRANCH   7   8
ATOM      8  C   UNL     1       8.741  12.405  40.621  1.00  0.00    -0.000 C 
BRANCH   8   9
ATOM      9  C   UNL     1       9.542  13.018  39.463  1.00  0.00    -0.000 C 
BRANCH   9  10
ATOM     10  C   UNL     1      10.115  11.924  38.555  1.00  0.00    -0.003 C 
ATOM     11  C   UNL     1       9.449  10.577  38.823  1.00  0.00     0.004 C 
ENDBRANCH   9  10
ENDBRANCH   8   9
ENDBRANCH   7   8
ENDBRANCH   1   7
TORSDOF 7
ENDMDL
MODEL 8
REMARK VINA RESULT:    -4.247     12.132     13.316
REMARK INTER + INTRA:          -6.337
REMARK INTER:                  -5.722
REMARK INTRA:                  -0.615
REMARK UNBOUND:                -0.352
REMARK SMILES CCCCCCCCC(=O)[O-]
REMARK SMILES IDX 6 1 7 2 8 3 9 4 10 5 11 6 5 7 4 8 3 9 2 10 1 11
REMARK H PARENT
REMARK Flexibility Score: inf
ROOT
ATOM      1  C   UNL     1      19.283  14.979  42.744  1.00  0.00     0.000 C 
ENDROOT
BRANCH   1   2
ATOM      2  C   UNL     1      20.343  14.175  43.519  1.00  0.00     0.006 C 
BRANCH   2   3
ATOM      3  C   UNL     1      20.627  12.779  42.945  1.00  0.00     0.053 C 
BRANCH   3   4
ATOM      4  C   UNL     1      20.834  11.758  44.022  1.00  0.00     0.041 C 
ATOM      5  O   UNL     1      19.946  11.568  44.893  1.00  0.00    -0.550 OA
ATOM      6  O   UNL     1      22.023  11.043  44.083  1.00  0.00    -0.550 OA
ENDBRANCH   3   4
ENDBRANCH   2   3
ENDBRANCH   1   2
BRANCH   1   7
ATOM      7  C   UNL     1      19.706  16.437  42.494  1.00  0.00     0.000 C 
BRANCH   7   8
ATOM      8  C   UNL     1      20.935  16.545  41.577  1.00  0.00    -0.000 C 
BRANCH   8   9
ATOM      9  C   UNL     1      22.103  17.294  42.236  1.00  0.00    -0.000 C 
BRANCH   9  10
ATOM     10  C   UNL     1      23.422  16.540  42.029  1.00  0.00    -0.003 C 
ATOM     11  C   UNL     1      23.203  15.242  41.257  1.00  0.00     0.004 C 
ENDBRANCH   9  10
ENDBRANCH   8   9
ENDBRANCH   7   8
ENDBRANCH   1   7
TORSDOF 7
ENDMDL
MODEL 9
REMARK VINA RESULT:    -4.190      3.292      4.250
REMARK INTER + INTRA:          -6.257
REMARK INTER:                  -5.765
REMARK INTRA:                  -0.492
REMARK UNBOUND:                -0.352
REMARK SMILES CCCCCCCCC(=O)[O-]
REMARK SMILES IDX 6 1 7 2 8 3 9 4 10 5 11 6 5 7 4 8 3 9 2 10 1 11
REMARK H PARENT
REMARK Flexibility Score: inf
ROOT
ATOM      1  C   UNL     1       8.754  12.494  42.199  1.00  0.00     0.000 C 
ENDROOT
BRANCH   1   2
ATOM      2  C   UNL     1       9.043  13.727  41.321  1.00  0.00     0.006 C 
BRANCH   2   3
ATOM      3  C   UNL     1       9.878  14.816  42.011  1.00  0.00     0.053 C 
BRANCH   3   4
ATOM      4  C   UNL     1       9.031  15.957  42.488  1.00  0.00     0.041 C 
ATOM      5  O   UNL     1       8.034  15.740  43.225  1.00  0.00    -0.550 OA
ATOM      6  O   UNL     1       9.325  17.255  42.092  1.00  0.00    -0.550 OA
ENDBRANCH   3   4
ENDBRANCH   2   3
ENDBRANCH   1   2
BRANCH   1   7
ATOM      7  C   UNL     1       7.587  11.645  41.666  1.00  0.00     0.000 C 
BRANCH   7   8
ATOM      8  C   UNL     1       8.038  10.254  41.192  1.00  0.00    -0.000 C 
BRANCH   8   9
ATOM      9  C   UNL     1       7.977  10.098  39.666  1.00  0.00    -0.000 C 
BRANCH   9  10
ATOM     10  C   UNL     1       9.385  10.068  39.062  1.00  0.00    -0.003 C 
ATOM     11  C   UNL     1       9.812  11.454  38.585  1.00  0.00     0.004 C 
ENDBRANCH   9  10
ENDBRANCH   8   9
ENDBRANCH   7   8
ENDBRANCH   1   7
TORSDOF 7
ENDMDL
