MODEL 1
REMARK VINA RESULT:    -3.856      0.000      0.000
REMARK INTER + INTRA:          -4.370
REMARK INTER:                  -4.307
REMARK INTRA:                  -0.063
REMARK UNBOUND:                -0.063
REMARK SMILES COc1ccc(C(=O)[O-])cc1
REMARK SMILES IDX 6 1 5 2 10 3 4 4 11 5 3 6 7 7 8 8 9 9 2 10 1 11
REMARK H PARENT
REMARK Flexibility Score: inf
ROOT
ATOM      1  C   UNL     1      41.524 182.728 172.431  1.00  0.00    -0.003 A 
ATOM      2  C   UNL     1      41.367 184.040 172.908  1.00  0.00     0.014 A 
ATOM      3  C   UNL     1      40.516 182.173 171.623  1.00  0.00     0.014 A 
ATOM      4  C   UNL     1      40.226 184.782 172.584  1.00  0.00     0.047 A 
ATOM      5  C   UNL     1      39.377 182.915 171.300  1.00  0.00     0.047 A 
ATOM      6  C   UNL     1      39.220 184.222 171.775  1.00  0.00     0.118 A 
ENDROOT
BRANCH   1   7
ATOM      7  C   UNL     1      42.733 181.947 172.775  1.00  0.00     0.071 C 
ATOM      8  O   UNL     1      43.005 181.685 173.977  1.00  0.00    -0.545 OA
ATOM      9  O   UNL     1      43.586 181.493 171.777  1.00  0.00    -0.545 OA
ENDBRANCH   1   7
BRANCH   6  10
ATOM     10  O   UNL     1      38.059 184.924 171.423  1.00  0.00    -0.497 OA
ATOM     11  C   UNL     1      37.141 184.507 170.416  1.00  0.00     0.278 C 
ENDBRANCH   6  10
TORSDOF 2
ENDMDL
MODEL 2
REMARK VINA RESULT:    -3.816      0.128      1.758
REMARK INTER + INTRA:          -4.325
REMARK INTER:                  -4.266
REMARK INTRA:                  -0.059
REMARK UNBOUND:                -0.063
REMARK SMILES COc1ccc(C(=O)[O-])cc1
REMARK SMILES IDX 6 1 5 2 10 3 4 4 11 5 3 6 7 7 8 8 9 9 2 10 1 11
REMARK H PARENT
REMARK Flexibility Score: inf
ROOT
ATOM      1  C   UNL     1      41.582 182.633 172.416  1.00  0.00    -0.003 A 
ATOM      2  C   UNL     1      40.605 182.098 171.559  1.00  0.00     0.014 A 
ATOM      3  C   UNL     1      41.389 183.919 172.950  1.00  0.00     0.014 A 
ATOM      4  C   UNL     1      39.458 182.834 171.242  1.00  0.00     0.047 A 
ATOM      5  C   UNL     1      40.243 184.653 172.632  1.00  0.00     0.047 A 
ATOM      6  C   UNL     1      39.270 184.121 171.779  1.00  0.00     0.118 A 
ENDROOT
BRANCH   1   7
ATOM      7  C   UNL     1      42.793 181.850 172.749  1.00  0.00     0.071 C 
ATOM      8  O   UNL     1      43.570 181.455 171.839  1.00  0.00    -0.545 OA
ATOM      9  O   UNL     1      43.089 181.538 174.071  1.00  0.00    -0.545 OA
ENDBRANCH   1   7
BRANCH   6  10
ATOM     10  O   UNL     1      38.139 184.899 171.491  1.00  0.00    -0.497 OA
ATOM     11  C   UNL     1      37.210 184.613 170.450  1.00  0.00     0.278 C 
ENDBRANCH   6  10
TORSDOF 2
ENDMDL
MODEL 3
REMARK VINA RESULT:    -3.679      1.816      5.054
REMARK INTER + INTRA:          -4.173
REMARK INTER:                  -4.114
REMARK INTRA:                  -0.059
REMARK UNBOUND:                -0.063
REMARK SMILES COc1ccc(C(=O)[O-])cc1
REMARK SMILES IDX 6 1 5 2 10 3 4 4 11 5 3 6 7 7 8 8 9 9 2 10 1 11
REMARK H PARENT
REMARK Flexibility Score: inf
ROOT
ATOM      1  C   UNL     1      38.090 184.021 170.617  1.00  0.00    -0.003 A 
ATOM      2  C   UNL     1      38.138 184.806 171.781  1.00  0.00     0.014 A 
ATOM      3  C   UNL     1      39.156 183.147 170.341  1.00  0.00     0.014 A 
ATOM      4  C   UNL     1      39.228 184.719 172.652  1.00  0.00     0.047 A 
ATOM      5  C   UNL     1      40.245 183.062 171.212  1.00  0.00     0.047 A 
ATOM      6  C   UNL     1      40.294 183.843 172.371  1.00  0.00     0.118 A 
ENDROOT
BRANCH   1   7
ATOM      7  C   UNL     1      36.933 184.115 169.698  1.00  0.00     0.071 C 
ATOM      8  O   UNL     1      37.002 184.814 168.652  1.00  0.00    -0.545 OA
ATOM      9  O   UNL     1      35.754 183.435 169.978  1.00  0.00    -0.545 OA
ENDBRANCH   1   7
BRANCH   6  10
ATOM     10  O   UNL     1      41.409 183.720 173.212  1.00  0.00    -0.497 OA
ATOM     11  C   UNL     1      42.133 182.510 173.415  1.00  0.00     0.278 C 
ENDBRANCH   6  10
TORSDOF 2
ENDMDL
MODEL 4
REMARK VINA RESULT:    -3.643      0.989      4.749
REMARK INTER + INTRA:          -4.132
REMARK INTER:                  -4.068
REMARK INTRA:                  -0.064
REMARK UNBOUND:                -0.063
REMARK SMILES COc1ccc(C(=O)[O-])cc1
REMARK SMILES IDX 6 1 5 2 10 3 4 4 11 5 3 6 7 7 8 8 9 9 2 10 1 11
REMARK H PARENT
REMARK Flexibility Score: inf
ROOT
ATOM      1  C   UNL     1      39.037 184.416 171.930  1.00  0.00    -0.003 A 
ATOM      2  C   UNL     1      40.052 185.085 172.634  1.00  0.00     0.014 A 
ATOM      3  C   UNL     1      39.224 183.067 171.583  1.00  0.00     0.014 A 
ATOM      4  C   UNL     1      41.231 184.418 172.985  1.00  0.00     0.047 A 
ATOM      5  C   UNL     1      40.402 182.403 171.933  1.00  0.00     0.047 A 
ATOM      6  C   UNL     1      41.414 183.068 172.634  1.00  0.00     0.118 A 
ENDROOT
BRANCH   1   7
ATOM      7  C   UNL     1      37.791 185.125 171.563  1.00  0.00     0.071 C 
ATOM      8  O   UNL     1      37.362 186.076 172.270  1.00  0.00    -0.545 OA
ATOM      9  O   UNL     1      37.074 184.752 170.432  1.00  0.00    -0.545 OA
ENDBRANCH   1   7
BRANCH   6  10
ATOM     10  O   UNL     1      42.577 182.356 172.962  1.00  0.00    -0.497 OA
ATOM     11  C   UNL     1      43.255 181.472 172.074  1.00  0.00     0.278 C 
ENDBRANCH   6  10
TORSDOF 2
ENDMDL
MODEL 5
REMARK VINA RESULT:    -3.571      1.837      5.164
REMARK INTER + INTRA:          -4.052
REMARK INTER:                  -3.983
REMARK INTRA:                  -0.069
REMARK UNBOUND:                -0.063
REMARK SMILES COc1ccc(C(=O)[O-])cc1
REMARK SMILES IDX 6 1 5 2 10 3 4 4 11 5 3 6 7 7 8 8 9 9 2 10 1 11
REMARK H PARENT
REMARK Flexibility Score: inf
ROOT
ATOM      1  C   UNL     1      37.877 183.346 170.828  1.00  0.00    -0.003 A 
ATOM      2  C   UNL     1      37.634 182.857 172.123  1.00  0.00     0.014 A 
ATOM      3  C   UNL     1      39.197 183.361 170.343  1.00  0.00     0.014 A 
ATOM      4  C   UNL     1      38.688 182.391 172.916  1.00  0.00     0.047 A 
ATOM      5  C   UNL     1      40.249 182.897 171.136  1.00  0.00     0.047 A 
ATOM      6  C   UNL     1      40.007 182.409 172.425  1.00  0.00     0.118 A 
ENDROOT
BRANCH   1   7
ATOM      7  C   UNL     1      36.759 183.837 169.993  1.00  0.00     0.071 C 
ATOM      8  O   UNL     1      35.593 183.386 170.154  1.00  0.00    -0.545 OA
ATOM      9  O   UNL     1      36.979 184.801 169.016  1.00  0.00    -0.545 OA
ENDBRANCH   1   7
BRANCH   6  10
ATOM     10  O   UNL     1      41.098 181.955 173.181  1.00  0.00    -0.497 OA
ATOM     11  C   UNL     1      42.420 181.802 172.673  1.00  0.00     0.278 C 
ENDBRANCH   6  10
TORSDOF 2
ENDMDL
MODEL 6
REMARK VINA RESULT:    -3.501      1.945      2.688
REMARK INTER + INTRA:          -3.973
REMARK INTER:                  -3.921
REMARK INTRA:                  -0.053
REMARK UNBOUND:                -0.063
REMARK SMILES COc1ccc(C(=O)[O-])cc1
REMARK SMILES IDX 6 1 5 2 10 3 4 4 11 5 3 6 7 7 8 8 9 9 2 10 1 11
REMARK H PARENT
REMARK Flexibility Score: inf
ROOT
ATOM      1  C   UNL     1      39.579 182.639 171.803  1.00  0.00    -0.003 A 
ATOM      2  C   UNL     1      39.324 183.294 170.587  1.00  0.00     0.014 A 
ATOM      3  C   UNL     1      38.499 182.323 172.646  1.00  0.00     0.014 A 
ATOM      4  C   UNL     1      38.016 183.627 170.220  1.00  0.00     0.047 A 
ATOM      5  C   UNL     1      37.193 182.658 172.278  1.00  0.00     0.047 A 
ATOM      6  C   UNL     1      36.939 183.310 171.067  1.00  0.00     0.118 A 
ENDROOT
BRANCH   1   7
ATOM      7  C   UNL     1      40.965 182.287 172.186  1.00  0.00     0.071 C 
ATOM      8  O   UNL     1      41.433 181.147 171.922  1.00  0.00    -0.545 OA
ATOM      9  O   UNL     1      41.769 183.209 172.846  1.00  0.00    -0.545 OA
ENDBRANCH   1   7
BRANCH   6  10
ATOM     10  O   UNL     1      35.610 183.624 170.745  1.00  0.00    -0.497 OA
ATOM     11  C   UNL     1      34.612 182.659 170.425  1.00  0.00     0.278 C 
ENDBRANCH   6  10
TORSDOF 2
ENDMDL
MODEL 7
REMARK VINA RESULT:    -3.423      1.724      2.088
REMARK INTER + INTRA:          -3.886
REMARK INTER:                  -3.822
REMARK INTRA:                  -0.064
REMARK UNBOUND:                -0.063
REMARK SMILES COc1ccc(C(=O)[O-])cc1
REMARK SMILES IDX 6 1 5 2 10 3 4 4 11 5 3 6 7 7 8 8 9 9 2 10 1 11
REMARK H PARENT
REMARK Flexibility Score: inf
ROOT
ATOM      1  C   UNL     1      40.030 182.166 172.412  1.00  0.00    -0.003 A 
ATOM      2  C   UNL     1      38.731 182.198 172.948  1.00  0.00     0.014 A 
ATOM      3  C   UNL     1      40.257 182.725 171.142  1.00  0.00     0.014 A 
ATOM      4  C   UNL     1      37.681 182.778 172.229  1.00  0.00     0.047 A 
ATOM      5  C   UNL     1      39.206 183.302 170.425  1.00  0.00     0.047 A 
ATOM      6  C   UNL     1      37.913 183.335 170.957  1.00  0.00     0.118 A 
ENDROOT
BRANCH   1   7
ATOM      7  C   UNL     1      41.139 181.553 173.177  1.00  0.00     0.071 C 
ATOM      8  O   UNL     1      41.007 180.410 173.692  1.00  0.00    -0.545 OA
ATOM      9  O   UNL     1      42.341 182.230 173.340  1.00  0.00    -0.545 OA
ENDBRANCH   1   7
BRANCH   6  10
ATOM     10  O   UNL     1      36.893 183.926 170.197  1.00  0.00    -0.497 OA
ATOM     11  C   UNL     1      36.966 184.150 168.792  1.00  0.00     0.278 C 
ENDBRANCH   6  10
TORSDOF 2
ENDMDL
MODEL 8
REMARK VINA RESULT:    -3.352      1.789      4.994
REMARK INTER + INTRA:          -3.807
REMARK INTER:                  -3.746
REMARK INTRA:                  -0.061
REMARK UNBOUND:                -0.063
REMARK SMILES COc1ccc(C(=O)[O-])cc1
REMARK SMILES IDX 6 1 5 2 10 3 4 4 11 5 3 6 7 7 8 8 9 9 2 10 1 11
REMARK H PARENT
REMARK Flexibility Score: inf
ROOT
ATOM      1  C   UNL     1      38.007 183.000 171.562  1.00  0.00    -0.003 A 
ATOM      2  C   UNL     1      38.306 182.462 172.825  1.00  0.00     0.014 A 
ATOM      3  C   UNL     1      39.064 183.382 170.717  1.00  0.00     0.014 A 
ATOM      4  C   UNL     1      39.634 182.308 173.235  1.00  0.00     0.047 A 
ATOM      5  C   UNL     1      40.390 183.228 171.129  1.00  0.00     0.047 A 
ATOM      6  C   UNL     1      40.689 182.692 172.387  1.00  0.00     0.118 A 
ENDROOT
BRANCH   1   7
ATOM      7  C   UNL     1      36.600 183.159 171.132  1.00  0.00     0.071 C 
ATOM      8  O   UNL     1      35.660 182.698 171.833  1.00  0.00    -0.545 OA
ATOM      9  O   UNL     1      36.296 183.819 169.947  1.00  0.00    -0.545 OA
ENDBRANCH   1   7
BRANCH   6  10
ATOM     10  O   UNL     1      42.036 182.560 172.752  1.00  0.00    -0.497 OA
ATOM     11  C   UNL     1      42.896 181.524 172.287  1.00  0.00     0.278 C 
ENDBRANCH   6  10
TORSDOF 2
ENDMDL
MODEL 9
REMARK VINA RESULT:    -3.248      5.506      7.510
REMARK INTER + INTRA:          -3.691
REMARK INTER:                  -3.636
REMARK INTRA:                  -0.055
REMARK UNBOUND:                -0.063
REMARK SMILES COc1ccc(C(=O)[O-])cc1
REMARK SMILES IDX 6 1 5 2 10 3 4 4 11 5 3 6 7 7 8 8 9 9 2 10 1 11
REMARK H PARENT
REMARK Flexibility Score: inf
ROOT
ATOM      1  C   UNL     1      34.919 182.202 170.696  1.00  0.00    -0.003 A 
ATOM      2  C   UNL     1      35.081 181.141 171.604  1.00  0.00     0.014 A 
ATOM      3  C   UNL     1      33.931 182.101 169.701  1.00  0.00     0.014 A 
ATOM      4  C   UNL     1      34.273 180.003 171.519  1.00  0.00     0.047 A 
ATOM      5  C   UNL     1      33.125 180.962 169.617  1.00  0.00     0.047 A 
ATOM      6  C   UNL     1      33.286 179.906 170.520  1.00  0.00     0.118 A 
ENDROOT
BRANCH   1   7
ATOM      7  C   UNL     1      35.776 183.404 170.791  1.00  0.00     0.071 C 
ATOM      8  O   UNL     1      35.935 183.992 171.895  1.00  0.00    -0.545 OA
ATOM      9  O   UNL     1      36.416 183.904 169.664  1.00  0.00    -0.545 OA
ENDBRANCH   1   7
BRANCH   6  10
ATOM     10  O   UNL     1      32.451 178.787 170.392  1.00  0.00    -0.497 OA
ATOM     11  C   UNL     1      31.269 178.574 171.157  1.00  0.00     0.278 C 
ENDBRANCH   6  10
TORSDOF 2
ENDMDL
