MODEL 1
REMARK VINA RESULT:    -4.881      0.000      0.000
REMARK INTER + INTRA:          -7.409
REMARK INTER:                  -7.449
REMARK INTRA:                   0.040
REMARK UNBOUND:                 0.040
REMARK SMILES CC1=CCC[C@H](C)C(=O)C[C@H](C(C)C)C(=O)C1
REMARK SMILES IDX 8 1 9 2 6 3 7 4 5 5 4 6 3 7 2 8 1 9 10 11 11 12 15 13 16 14
REMARK SMILES IDX 17 15 12 17 13 18 14 19
REMARK H PARENT
REMARK Flexibility Score: 70.00
ROOT
ATOM      1  C   UNL     1      34.281  20.377  24.100  1.00  0.00     0.136 C 
ATOM      2  O   UNL     1      34.157  21.245  24.950  1.00  0.00    -0.299 OA
ENDROOT
BRANCH   1   3
ATOM      3  C   UNL     1      34.752  18.989  24.509  1.00  0.00     0.053 C 
ATOM      4  C   UNL     1      36.152  19.052  25.137  1.00  0.00     0.016 C 
BRANCH   3   5
ATOM      5  C   UNL     1      33.749  18.328  25.476  1.00  0.00     0.015 C 
BRANCH   5   6
ATOM      6  C   UNL     1      32.467  17.875  24.746  1.00  0.00     0.028 C 
BRANCH   6   7
ATOM      7  C   UNL     1      31.223  18.508  25.305  1.00  0.00    -0.028 C 
ATOM      8  C   UNL     1      30.294  19.159  24.568  1.00  0.00    -0.070 CG0
ATOM      9  C   UNL     1      29.058  19.652  25.283  1.00  0.00     0.039 C 
ATOM     10  G   UNL     1      30.449  19.442  23.080  1.00  0.00     0.000 G0
ENDBRANCH   6   7
ENDBRANCH   5   6
ENDBRANCH   3   5
ENDBRANCH   1   3
BRANCH   1  11
ATOM     11  C   UNL     1      34.069  20.723  22.646  1.00  0.00     0.087 C 
BRANCH  11  12
ATOM     12  C   UNL     1      32.752  20.219  21.972  1.00  0.00     0.066 C 
BRANCH  12  13
ATOM     13  C   UNL     1      31.475  20.500  22.769  1.00  0.00     0.140 C 
ATOM     14  O   UNL     1      31.319  21.619  23.240  1.00  0.00    -0.299 OA
BRANCH  13  15
ATOM     15  C   UNL     1      30.435  19.443  23.081  1.00  0.00     0.106 CG0
ATOM     16  G   UNL     1      30.295  19.143  24.568  1.00  0.00     0.000 G0
ENDBRANCH  13  15
ENDBRANCH  12  13
BRANCH  12  17
ATOM     17  C   UNL     1      32.604  20.402  20.416  1.00  0.00    -0.006 C 
ATOM     18  C   UNL     1      32.141  19.119  19.706  1.00  0.00     0.008 C 
ATOM     19  C   UNL     1      33.809  21.010  19.678  1.00  0.00     0.008 C 
ENDBRANCH  12  17
ENDBRANCH  11  12
ENDBRANCH   1  11
TORSDOF 1
ENDMDL
MODEL 2
REMARK VINA RESULT:    -4.652      1.981      4.717
REMARK INTER + INTRA:          -7.060
REMARK INTER:                  -7.523
REMARK INTRA:                   0.463
REMARK UNBOUND:                 0.040
REMARK SMILES CC1=CCC[C@H](C)C(=O)C[C@H](C(C)C)C(=O)C1
REMARK SMILES IDX 8 1 9 2 6 3 7 4 5 5 4 6 3 7 2 8 1 9 10 11 11 12 15 13 16 14
REMARK SMILES IDX 17 15 12 17 13 18 14 19
REMARK H PARENT
REMARK Flexibility Score: 70.00
ROOT
ATOM      1  C   UNL     1      31.839  19.773  21.584  1.00  0.00     0.136 C 
ATOM      2  O   UNL     1      31.930  18.951  20.687  1.00  0.00    -0.299 OA
ENDROOT
BRANCH   1   3
ATOM      3  C   UNL     1      32.941  20.804  21.771  1.00  0.00     0.053 C 
ATOM      4  C   UNL     1      33.415  21.347  20.414  1.00  0.00     0.016 C 
BRANCH   3   5
ATOM      5  C   UNL     1      32.475  21.954  22.687  1.00  0.00     0.015 C 
BRANCH   5   6
ATOM      6  C   UNL     1      32.733  21.638  24.175  1.00  0.00     0.028 C 
BRANCH   6   7
ATOM      7  C   UNL     1      34.034  20.922  24.403  1.00  0.00    -0.028 C 
ATOM      8  C   UNL     1      34.145  19.637  24.811  1.00  0.00    -0.070 CG0
ATOM      9  C   UNL     1      35.533  19.050  24.900  1.00  0.00     0.039 C 
ATOM     10  G   UNL     1      32.952  18.778  25.214  1.00  0.00     0.000 G0
ENDBRANCH   6   7
ENDBRANCH   5   6
ENDBRANCH   3   5
ENDBRANCH   1   3
BRANCH   1  11
ATOM     11  C   UNL     1      30.688  19.688  22.557  1.00  0.00     0.087 C 
BRANCH  11  12
ATOM     12  C   UNL     1      30.770  18.596  23.673  1.00  0.00     0.066 C 
BRANCH  12  13
ATOM     13  C   UNL     1      32.191  18.174  24.054  1.00  0.00     0.140 C 
ATOM     14  O   UNL     1      32.714  17.261  23.428  1.00  0.00    -0.299 OA
BRANCH  13  15
ATOM     15  C   UNL     1      32.955  18.765  25.222  1.00  0.00     0.106 CG0
ATOM     16  G   UNL     1      34.136  19.632  24.804  1.00  0.00     0.000 G0
ENDBRANCH  13  15
ENDBRANCH  12  13
BRANCH  12  17
ATOM     17  C   UNL     1      29.773  18.705  24.886  1.00  0.00    -0.006 C 
ATOM     18  C   UNL     1      29.452  20.160  25.265  1.00  0.00     0.008 C 
ATOM     19  C   UNL     1      30.133  17.897  26.144  1.00  0.00     0.008 C 
ENDBRANCH  12  17
ENDBRANCH  11  12
ENDBRANCH   1  11
TORSDOF 1
ENDMDL
MODEL 3
REMARK VINA RESULT:    -4.523      2.041      4.718
REMARK INTER + INTRA:          -6.863
REMARK INTER:                  -6.813
REMARK INTRA:                  -0.050
REMARK UNBOUND:                 0.040
REMARK SMILES CC1=CCC[C@H](C)C(=O)C[C@H](C(C)C)C(=O)C1
REMARK SMILES IDX 8 1 9 2 6 3 7 4 5 5 4 6 3 7 2 8 1 9 10 11 11 12 15 13 16 14
REMARK SMILES IDX 17 15 12 17 13 18 14 19
REMARK H PARENT
REMARK Flexibility Score: 70.00
ROOT
ATOM      1  C   UNL     1      32.297  17.919  24.582  1.00  0.00     0.136 C 
ATOM      2  O   UNL     1      32.590  17.486  23.479  1.00  0.00    -0.299 OA
ENDROOT
BRANCH   1   3
ATOM      3  C   UNL     1      30.834  17.993  24.994  1.00  0.00     0.053 C 
ATOM      4  C   UNL     1      30.705  18.263  26.500  1.00  0.00     0.016 C 
BRANCH   3   5
ATOM      5  C   UNL     1      30.084  19.067  24.180  1.00  0.00     0.015 C 
BRANCH   5   6
ATOM      6  C   UNL     1      30.659  20.476  24.430  1.00  0.00     0.028 C 
BRANCH   6   7
ATOM      7  C   UNL     1      31.318  21.062  23.213  1.00  0.00    -0.028 C 
ATOM      8  C   UNL     1      32.633  21.371  23.123  1.00  0.00    -0.070 CG0
ATOM      9  C   UNL     1      33.144  21.865  21.791  1.00  0.00     0.039 C 
ATOM     10  G   UNL     1      33.599  21.277  24.297  1.00  0.00     0.000 G0
ENDBRANCH   6   7
ENDBRANCH   5   6
ENDBRANCH   3   5
ENDBRANCH   1   3
BRANCH   1  11
ATOM     11  C   UNL     1      33.380  18.471  25.477  1.00  0.00     0.087 C 
BRANCH  11  12
ATOM     12  C   UNL     1      34.728  18.885  24.802  1.00  0.00     0.066 C 
BRANCH  12  13
ATOM     13  C   UNL     1      34.717  20.269  24.145  1.00  0.00     0.140 C 
ATOM     14  O   UNL     1      35.700  20.614  23.502  1.00  0.00    -0.299 OA
BRANCH  13  15
ATOM     15  C   UNL     1      33.593  21.269  24.320  1.00  0.00     0.106 CG0
ATOM     16  G   UNL     1      32.653  21.348  23.124  1.00  0.00     0.000 G0
ENDBRANCH  13  15
ENDBRANCH  12  13
BRANCH  12  17
ATOM     17  C   UNL     1      36.067  18.526  25.546  1.00  0.00    -0.006 C 
ATOM     18  C   UNL     1      36.830  17.372  24.875  1.00  0.00     0.008 C 
ATOM     19  C   UNL     1      35.966  18.285  27.061  1.00  0.00     0.008 C 
ENDBRANCH  12  17
ENDBRANCH  11  12
ENDBRANCH   1  11
TORSDOF 1
ENDMDL
MODEL 4
REMARK VINA RESULT:    -4.408      1.752      4.267
REMARK INTER + INTRA:          -6.688
REMARK INTER:                  -6.499
REMARK INTRA:                  -0.190
REMARK UNBOUND:                 0.040
REMARK SMILES CC1=CCC[C@H](C)C(=O)C[C@H](C(C)C)C(=O)C1
REMARK SMILES IDX 8 1 9 2 6 3 7 4 5 5 4 6 3 7 2 8 1 9 10 11 11 12 15 13 16 14
REMARK SMILES IDX 17 15 12 17 13 18 14 19
REMARK H PARENT
REMARK Flexibility Score: 70.00
ROOT
ATOM      1  C   UNL     1      33.429  21.438  23.470  1.00  0.00     0.136 C 
ATOM      2  O   UNL     1      32.976  21.915  24.499  1.00  0.00    -0.299 OA
ENDROOT
BRANCH   1   3
ATOM      3  C   UNL     1      32.634  21.552  22.179  1.00  0.00     0.053 C 
ATOM      4  C   UNL     1      33.443  21.010  20.991  1.00  0.00     0.016 C 
BRANCH   3   5
ATOM      5  C   UNL     1      31.280  20.823  22.296  1.00  0.00     0.015 C 
BRANCH   5   6
ATOM      6  C   UNL     1      31.463  19.298  22.435  1.00  0.00     0.028 C 
BRANCH   6   7
ATOM      7  C   UNL     1      31.161  18.798  23.820  1.00  0.00    -0.028 C 
ATOM      8  C   UNL     1      32.073  18.253  24.658  1.00  0.00    -0.070 CG0
ATOM      9  C   UNL     1      31.613  17.889  26.049  1.00  0.00     0.039 C 
ATOM     10  G   UNL     1      33.513  17.962  24.256  1.00  0.00     0.000 G0
ENDBRANCH   6   7
ENDBRANCH   5   6
ENDBRANCH   3   5
ENDBRANCH   1   3
BRANCH   1  11
ATOM     11  C   UNL     1      34.716  20.651  23.518  1.00  0.00     0.087 C 
BRANCH  11  12
ATOM     12  C   UNL     1      35.123  20.022  24.890  1.00  0.00     0.066 C 
BRANCH  12  13
ATOM     13  C   UNL     1      34.573  18.614  25.139  1.00  0.00     0.140 C 
ATOM     14  O   UNL     1      35.053  17.956  26.053  1.00  0.00    -0.299 OA
BRANCH  13  15
ATOM     15  C   UNL     1      33.528  17.957  24.261  1.00  0.00     0.106 CG0
ATOM     16  G   UNL     1      32.096  18.271  24.676  1.00  0.00     0.000 G0
ENDBRANCH  13  15
ENDBRANCH  12  13
BRANCH  12  17
ATOM     17  C   UNL     1      36.596  20.246  25.396  1.00  0.00    -0.006 C 
ATOM     18  C   UNL     1      36.666  21.119  26.660  1.00  0.00     0.008 C 
ATOM     19  C   UNL     1      37.612  20.741  24.353  1.00  0.00     0.008 C 
ENDBRANCH  12  17
ENDBRANCH  11  12
ENDBRANCH   1  11
TORSDOF 1
ENDMDL
MODEL 5
REMARK VINA RESULT:    -4.265      1.741      3.493
REMARK INTER + INTRA:          -6.469
REMARK INTER:                  -6.798
REMARK INTRA:                   0.329
REMARK UNBOUND:                 0.040
REMARK SMILES CC1=CCC[C@H](C)C(=O)C[C@H](C(C)C)C(=O)C1
REMARK SMILES IDX 8 1 9 2 6 3 7 4 5 5 4 6 3 7 2 8 1 9 10 11 11 12 15 13 16 14
REMARK SMILES IDX 17 15 12 17 13 18 14 19
REMARK H PARENT
REMARK Flexibility Score: 70.00
ROOT
ATOM      1  C   UNL     1      30.527  19.561  23.752  1.00  0.00     0.136 C 
ATOM      2  O   UNL     1      29.676  20.333  24.165  1.00  0.00    -0.299 OA
ENDROOT
BRANCH   1   3
ATOM      3  C   UNL     1      31.386  18.793  24.744  1.00  0.00     0.053 C 
ATOM      4  C   UNL     1      30.557  18.362  25.964  1.00  0.00     0.016 C 
BRANCH   3   5
ATOM      5  C   UNL     1      32.048  17.572  24.074  1.00  0.00     0.015 C 
BRANCH   5   6
ATOM      6  C   UNL     1      33.524  17.845  23.721  1.00  0.00     0.028 C 
BRANCH   6   7
ATOM      7  C   UNL     1      34.175  18.828  24.654  1.00  0.00    -0.028 C 
ATOM      8  C   UNL     1      34.428  20.123  24.353  1.00  0.00    -0.070 CG0
ATOM      9  C   UNL     1      35.005  20.992  25.445  1.00  0.00     0.039 C 
ATOM     10  G   UNL     1      34.193  20.726  22.975  1.00  0.00     0.000 G0
ENDBRANCH   6   7
ENDBRANCH   5   6
ENDBRANCH   3   5
ENDBRANCH   1   3
BRANCH   1  11
ATOM     11  C   UNL     1      30.785  19.462  22.268  1.00  0.00     0.087 C 
BRANCH  11  12
ATOM     12  C   UNL     1      31.869  20.411  21.662  1.00  0.00     0.066 C 
BRANCH  12  13
ATOM     13  C   UNL     1      32.753  21.118  22.694  1.00  0.00     0.140 C 
ATOM     14  O   UNL     1      32.293  22.086  23.286  1.00  0.00    -0.299 OA
BRANCH  13  15
ATOM     15  C   UNL     1      34.195  20.738  22.961  1.00  0.00     0.106 CG0
ATOM     16  G   UNL     1      34.421  20.119  24.334  1.00  0.00     0.000 G0
ENDBRANCH  13  15
ENDBRANCH  12  13
BRANCH  12  17
ATOM     17  C   UNL     1      32.630  19.931  20.371  1.00  0.00    -0.006 C 
ATOM     18  C   UNL     1      33.365  21.075  19.652  1.00  0.00     0.008 C 
ATOM     19  C   UNL     1      31.814  19.108  19.360  1.00  0.00     0.008 C 
ENDBRANCH  12  17
ENDBRANCH  11  12
ENDBRANCH   1  11
TORSDOF 1
ENDMDL
MODEL 6
REMARK VINA RESULT:    -4.146      4.973      8.235
REMARK INTER + INTRA:          -6.288
REMARK INTER:                  -6.230
REMARK INTRA:                  -0.058
REMARK UNBOUND:                 0.040
REMARK SMILES CC1=CCC[C@H](C)C(=O)C[C@H](C(C)C)C(=O)C1
REMARK SMILES IDX 8 1 9 2 6 3 7 4 5 5 4 6 3 7 2 8 1 9 10 11 11 12 15 13 16 14
REMARK SMILES IDX 17 15 12 17 13 18 14 19
REMARK H PARENT
REMARK Flexibility Score: 70.00
ROOT
ATOM      1  C   UNL     1      37.087  20.499  25.552  1.00  0.00     0.136 C 
ATOM      2  O   UNL     1      37.656  20.525  24.472  1.00  0.00    -0.299 OA
ENDROOT
BRANCH   1   3
ATOM      3  C   UNL     1      35.777  19.739  25.690  1.00  0.00     0.053 C 
ATOM      4  C   UNL     1      34.631  20.498  25.003  1.00  0.00     0.016 C 
BRANCH   3   5
ATOM      5  C   UNL     1      35.903  18.311  25.122  1.00  0.00     0.015 C 
BRANCH   5   6
ATOM      6  C   UNL     1      36.858  17.443  25.967  1.00  0.00     0.028 C 
BRANCH   6   7
ATOM      7  C   UNL     1      38.178  17.199  25.289  1.00  0.00    -0.028 C 
ATOM      8  C   UNL     1      39.386  17.454  25.843  1.00  0.00    -0.070 CG0
ATOM      9  C   UNL     1      40.611  17.060  25.053  1.00  0.00     0.039 C 
ATOM     10  G   UNL     1      39.564  18.142  27.190  1.00  0.00     0.000 G0
ENDBRANCH   6   7
ENDBRANCH   5   6
ENDBRANCH   3   5
ENDBRANCH   1   3
BRANCH   1  11
ATOM     11  C   UNL     1      37.636  21.308  26.702  1.00  0.00     0.087 C 
BRANCH  11  12
ATOM     12  C   UNL     1      38.534  20.562  27.741  1.00  0.00     0.066 C 
BRANCH  12  13
ATOM     13  C   UNL     1      39.606  19.655  27.129  1.00  0.00     0.140 C 
ATOM     14  O   UNL     1      40.509  20.175  26.487  1.00  0.00    -0.299 OA
BRANCH  13  15
ATOM     15  C   UNL     1      39.563  18.142  27.200  1.00  0.00     0.106 CG0
ATOM     16  G   UNL     1      39.399  17.471  25.842  1.00  0.00     0.000 G0
ENDBRANCH  13  15
ENDBRANCH  12  13
BRANCH  12  17
ATOM     17  C   UNL     1      39.002  21.356  29.017  1.00  0.00    -0.006 C 
ATOM     18  C   UNL     1      38.287  20.899  30.299  1.00  0.00     0.008 C 
ATOM     19  C   UNL     1      38.981  22.890  28.916  1.00  0.00     0.008 C 
ENDBRANCH  12  17
ENDBRANCH  11  12
ENDBRANCH   1  11
TORSDOF 1
ENDMDL
MODEL 7
REMARK VINA RESULT:    -4.128      4.476      7.227
REMARK INTER + INTRA:          -6.260
REMARK INTER:                  -6.192
REMARK INTRA:                  -0.068
REMARK UNBOUND:                 0.040
REMARK SMILES CC1=CCC[C@H](C)C(=O)C[C@H](C(C)C)C(=O)C1
REMARK SMILES IDX 8 1 9 2 6 3 7 4 5 5 4 6 3 7 2 8 1 9 10 11 11 12 15 13 16 14
REMARK SMILES IDX 17 15 12 17 13 18 14 19
REMARK H PARENT
REMARK Flexibility Score: 70.00
ROOT
ATOM      1  C   UNL     1      38.193  21.293  25.954  1.00  0.00     0.136 C 
ATOM      2  O   UNL     1      38.813  21.174  24.910  1.00  0.00    -0.299 OA
ENDROOT
BRANCH   1   3
ATOM      3  C   UNL     1      38.787  22.116  27.088  1.00  0.00     0.053 C 
ATOM      4  C   UNL     1      37.698  22.529  28.089  1.00  0.00     0.016 C 
BRANCH   3   5
ATOM      5  C   UNL     1      39.918  21.344  27.798  1.00  0.00     0.015 C 
BRANCH   5   6
ATOM      6  C   UNL     1      39.392  20.069  28.489  1.00  0.00     0.028 C 
BRANCH   6   7
ATOM      7  C   UNL     1      39.961  18.809  27.899  1.00  0.00    -0.028 C 
ATOM      8  C   UNL     1      39.228  17.837  27.309  1.00  0.00    -0.070 CG0
ATOM      9  C   UNL     1      39.975  16.681  26.687  1.00  0.00     0.039 C 
ATOM     10  G   UNL     1      37.705  17.837  27.273  1.00  0.00     0.000 G0
ENDBRANCH   6   7
ENDBRANCH   5   6
ENDBRANCH   3   5
ENDBRANCH   1   3
BRANCH   1  11
ATOM     11  C   UNL     1      36.900  20.538  26.143  1.00  0.00     0.087 C 
BRANCH  11  12
ATOM     12  C   UNL     1      36.668  19.276  25.251  1.00  0.00     0.066 C 
BRANCH  12  13
ATOM     13  C   UNL     1      37.114  17.954  25.883  1.00  0.00     0.140 C 
ATOM     14  O   UNL     1      36.922  16.918  25.259  1.00  0.00    -0.299 OA
BRANCH  13  15
ATOM     15  C   UNL     1      37.700  17.848  27.276  1.00  0.00     0.106 CG0
ATOM     16  G   UNL     1      39.223  17.839  27.299  1.00  0.00     0.000 G0
ENDBRANCH  13  15
ENDBRANCH  12  13
BRANCH  12  17
ATOM     17  C   UNL     1      35.329  19.188  24.430  1.00  0.00    -0.006 C 
ATOM     18  C   UNL     1      35.047  20.459  23.611  1.00  0.00     0.008 C 
ATOM     19  C   UNL     1      34.071  18.771  25.210  1.00  0.00     0.008 C 
ENDBRANCH  12  17
ENDBRANCH  11  12
ENDBRANCH   1  11
TORSDOF 1
ENDMDL
MODEL 8
REMARK VINA RESULT:    -4.118      5.262      7.919
REMARK INTER + INTRA:          -6.245
REMARK INTER:                  -5.804
REMARK INTRA:                  -0.441
REMARK UNBOUND:                 0.040
REMARK SMILES CC1=CCC[C@H](C)C(=O)C[C@H](C(C)C)C(=O)C1
REMARK SMILES IDX 8 1 9 2 6 3 7 4 5 5 4 6 3 7 2 8 1 9 10 11 11 12 15 13 16 14
REMARK SMILES IDX 17 15 12 17 13 18 14 19
REMARK H PARENT
REMARK Flexibility Score: 70.00
ROOT
ATOM      1  C   UNL     1      39.697  19.585  24.884  1.00  0.00     0.136 C 
ATOM      2  O   UNL     1      40.543  19.716  24.014  1.00  0.00    -0.299 OA
ENDROOT
BRANCH   1   3
ATOM      3  C   UNL     1      39.762  18.385  25.817  1.00  0.00     0.053 C 
ATOM      4  C   UNL     1      39.785  17.074  25.017  1.00  0.00     0.016 C 
BRANCH   3   5
ATOM      5  C   UNL     1      40.985  18.476  26.752  1.00  0.00     0.015 C 
BRANCH   5   6
ATOM      6  C   UNL     1      41.183  19.906  27.293  1.00  0.00     0.028 C 
BRANCH   6   7
ATOM      7  C   UNL     1      40.544  20.115  28.638  1.00  0.00    -0.028 C 
ATOM      8  C   UNL     1      39.519  20.965  28.879  1.00  0.00    -0.070 CG0
ATOM      9  C   UNL     1      38.938  20.980  30.273  1.00  0.00     0.039 C 
ATOM     10  G   UNL     1      38.956  21.919  27.833  1.00  0.00     0.000 G0
ENDBRANCH   6   7
ENDBRANCH   5   6
ENDBRANCH   3   5
ENDBRANCH   1   3
BRANCH   1  11
ATOM     11  C   UNL     1      38.543  20.555  24.953  1.00  0.00     0.087 C 
BRANCH  11  12
ATOM     12  C   UNL     1      37.540  20.397  26.142  1.00  0.00     0.066 C 
BRANCH  12  13
ATOM     13  C   UNL     1      37.647  21.481  27.219  1.00  0.00     0.140 C 
ATOM     14  O   UNL     1      36.627  22.065  27.559  1.00  0.00    -0.299 OA
BRANCH  13  15
ATOM     15  C   UNL     1      38.961  21.931  27.826  1.00  0.00     0.106 CG0
ATOM     16  G   UNL     1      39.507  20.976  28.880  1.00  0.00     0.000 G0
ENDBRANCH  13  15
ENDBRANCH  12  13
BRANCH  12  17
ATOM     17  C   UNL     1      36.069  19.948  25.812  1.00  0.00    -0.006 C 
ATOM     18  C   UNL     1      35.909  18.419  25.763  1.00  0.00     0.008 C 
ATOM     19  C   UNL     1      35.417  20.589  24.576  1.00  0.00     0.008 C 
ENDBRANCH  12  17
ENDBRANCH  11  12
ENDBRANCH   1  11
TORSDOF 1
ENDMDL
MODEL 9
REMARK VINA RESULT:    -4.090      5.319      8.265
REMARK INTER + INTRA:          -6.202
REMARK INTER:                  -5.799
REMARK INTRA:                  -0.403
REMARK UNBOUND:                 0.040
REMARK SMILES CC1=CCC[C@H](C)C(=O)C[C@H](C(C)C)C(=O)C1
REMARK SMILES IDX 8 1 9 2 6 3 7 4 5 5 4 6 3 7 2 8 1 9 10 11 11 12 15 13 16 14
REMARK SMILES IDX 17 15 12 17 13 18 14 19
REMARK H PARENT
REMARK Flexibility Score: 70.00
ROOT
ATOM      1  C   UNL     1      38.141  21.097  27.668  1.00  0.00     0.136 C 
ATOM      2  O   UNL     1      37.701  21.895  28.481  1.00  0.00    -0.299 OA
ENDROOT
BRANCH   1   3
ATOM      3  C   UNL     1      39.383  21.453  26.865  1.00  0.00     0.053 C 
ATOM      4  C   UNL     1      39.223  22.825  26.194  1.00  0.00     0.016 C 
BRANCH   3   5
ATOM      5  C   UNL     1      40.643  21.422  27.754  1.00  0.00     0.015 C 
BRANCH   5   6
ATOM      6  C   UNL     1      40.984  19.989  28.211  1.00  0.00     0.028 C 
BRANCH   6   7
ATOM      7  C   UNL     1      41.567  19.149  27.109  1.00  0.00    -0.028 C 
ATOM      8  C   UNL     1      40.911  18.148  26.476  1.00  0.00    -0.070 CG0
ATOM      9  C   UNL     1      41.619  17.469  25.327  1.00  0.00     0.039 C 
ATOM     10  G   UNL     1      39.527  17.661  26.884  1.00  0.00     0.000 G0
ENDBRANCH   6   7
ENDBRANCH   5   6
ENDBRANCH   3   5
ENDBRANCH   1   3
BRANCH   1  11
ATOM     11  C   UNL     1      37.385  19.819  27.397  1.00  0.00     0.087 C 
BRANCH  11  12
ATOM     12  C   UNL     1      37.512  19.198  25.968  1.00  0.00     0.066 C 
BRANCH  12  13
ATOM     13  C   UNL     1      38.426  17.972  25.880  1.00  0.00     0.140 C 
ATOM     14  O   UNL     1      38.224  17.160  24.987  1.00  0.00    -0.299 OA
BRANCH  13  15
ATOM     15  C   UNL     1      39.512  17.664  26.891  1.00  0.00     0.106 CG0
ATOM     16  G   UNL     1      40.896  18.135  26.465  1.00  0.00     0.000 G0
ENDBRANCH  13  15
ENDBRANCH  12  13
BRANCH  12  17
ATOM     17  C   UNL     1      36.213  19.109  25.085  1.00  0.00    -0.006 C 
ATOM     18  C   UNL     1      35.879  20.434  24.380  1.00  0.00     0.008 C 
ATOM     19  C   UNL     1      34.958  18.539  25.766  1.00  0.00     0.008 C 
ENDBRANCH  12  17
ENDBRANCH  11  12
ENDBRANCH   1  11
TORSDOF 1
ENDMDL
