MODEL 1
REMARK VINA RESULT:    -3.898      0.000      0.000
REMARK INTER + INTRA:          -5.751
REMARK INTER:                  -5.606
REMARK INTRA:                  -0.145
REMARK UNBOUND:                -0.145
REMARK SMILES CCCCCCCCCO
REMARK SMILES IDX 6 1 5 2 4 3 3 4 2 5 1 6 7 7 8 8 9 9 10 10
REMARK H PARENT 10 11
REMARK Flexibility Score: inf
ROOT
ATOM      1  C   UNL     1     187.763 196.011 189.640  1.00  0.00     0.000 C 
ENDROOT
BRANCH   1   2
ATOM      2  C   UNL     1     186.525 195.107 189.765  1.00  0.00     0.000 C 
BRANCH   2   3
ATOM      3  C   UNL     1     186.784 193.678 189.253  1.00  0.00    -0.000 C 
BRANCH   3   4
ATOM      4  C   UNL     1     185.484 192.888 189.032  1.00  0.00    -0.000 C 
BRANCH   4   5
ATOM      5  C   UNL     1     185.418 192.236 187.643  1.00  0.00    -0.003 C 
ATOM      6  C   UNL     1     184.313 191.186 187.581  1.00  0.00     0.004 C 
ENDBRANCH   4   5
ENDBRANCH   3   4
ENDBRANCH   2   3
ENDBRANCH   1   2
BRANCH   1   7
ATOM      7  C   UNL     1     187.437 197.493 189.873  1.00  0.00     0.002 C 
BRANCH   7   8
ATOM      8  C   UNL     1     186.490 197.665 191.066  1.00  0.00     0.028 C 
BRANCH   8   9
ATOM      9  C   UNL     1     186.883 198.877 191.915  1.00  0.00     0.156 C 
BRANCH   9  10
ATOM     10  O   UNL     1     186.249 200.031 191.435  1.00  0.00    -0.396 OA
ATOM     11  H   UNL     1     185.581 199.731 190.765  1.00  0.00     0.210 HD
ENDBRANCH   9  10
ENDBRANCH   8   9
ENDBRANCH   7   8
ENDBRANCH   1   7
TORSDOF 8
ENDMDL
MODEL 2
REMARK VINA RESULT:    -3.865      5.082      6.413
REMARK INTER + INTRA:          -5.704
REMARK INTER:                  -5.334
REMARK INTRA:                  -0.371
REMARK UNBOUND:                -0.145
REMARK SMILES CCCCCCCCCO
REMARK SMILES IDX 6 1 5 2 4 3 3 4 2 5 1 6 7 7 8 8 9 9 10 10
REMARK H PARENT 10 11
REMARK Flexibility Score: inf
ROOT
ATOM      1  C   UNL     1     185.562 192.622 189.001  1.00  0.00     0.000 C 
ENDROOT
BRANCH   1   2
ATOM      2  C   UNL     1     185.414 192.208 187.527  1.00  0.00     0.000 C 
BRANCH   2   3
ATOM      3  C   UNL     1     186.564 191.304 187.049  1.00  0.00    -0.000 C 
BRANCH   3   4
ATOM      4  C   UNL     1     186.070 189.941 186.538  1.00  0.00    -0.000 C 
BRANCH   4   5
ATOM      5  C   UNL     1     186.496 189.662 185.090  1.00  0.00    -0.003 C 
ATOM      6  C   UNL     1     187.446 190.742 184.579  1.00  0.00     0.004 C 
ENDBRANCH   4   5
ENDBRANCH   3   4
ENDBRANCH   2   3
ENDBRANCH   1   2
BRANCH   1   7
ATOM      7  C   UNL     1     185.250 191.472 189.971  1.00  0.00     0.002 C 
BRANCH   7   8
ATOM      8  C   UNL     1     183.955 190.756 189.573  1.00  0.00     0.028 C 
BRANCH   8   9
ATOM      9  C   UNL     1     183.877 189.363 190.205  1.00  0.00     0.156 C 
BRANCH   9  10
ATOM     10  O   UNL     1     183.297 189.440 191.478  1.00  0.00    -0.396 OA
ATOM     11  H   UNL     1     182.556 190.097 191.414  1.00  0.00     0.210 HD
ENDBRANCH   9  10
ENDBRANCH   8   9
ENDBRANCH   7   8
ENDBRANCH   1   7
TORSDOF 8
ENDMDL
MODEL 3
REMARK VINA RESULT:    -3.849      5.597      8.461
REMARK INTER + INTRA:          -5.681
REMARK INTER:                  -5.418
REMARK INTRA:                  -0.264
REMARK UNBOUND:                -0.145
REMARK SMILES CCCCCCCCCO
REMARK SMILES IDX 6 1 5 2 4 3 3 4 2 5 1 6 7 7 8 8 9 9 10 10
REMARK H PARENT 10 11
REMARK Flexibility Score: inf
ROOT
ATOM      1  C   UNL     1     184.098 189.290 189.724  1.00  0.00     0.000 C 
ENDROOT
BRANCH   1   2
ATOM      2  C   UNL     1     184.012 190.813 189.531  1.00  0.00     0.000 C 
BRANCH   2   3
ATOM      3  C   UNL     1     184.298 191.241 188.080  1.00  0.00    -0.000 C 
BRANCH   3   4
ATOM      4  C   UNL     1     185.471 192.229 187.979  1.00  0.00    -0.000 C 
BRANCH   4   5
ATOM      5  C   UNL     1     185.946 192.726 189.352  1.00  0.00    -0.003 C 
ATOM      6  C   UNL     1     186.031 194.249 189.386  1.00  0.00     0.004 C 
ENDBRANCH   4   5
ENDBRANCH   3   4
ENDBRANCH   2   3
ENDBRANCH   1   2
BRANCH   1   7
ATOM      7  C   UNL     1     183.656 188.846 191.126  1.00  0.00     0.002 C 
BRANCH   7   8
ATOM      8  C   UNL     1     182.656 187.687 191.045  1.00  0.00     0.028 C 
BRANCH   8   9
ATOM      9  C   UNL     1     182.958 186.779 189.848  1.00  0.00     0.156 C 
BRANCH   9  10
ATOM     10  O   UNL     1     182.362 185.524 190.029  1.00  0.00    -0.396 OA
ATOM     11  H   UNL     1     181.527 185.526 189.493  1.00  0.00     0.210 HD
ENDBRANCH   9  10
ENDBRANCH   8   9
ENDBRANCH   7   8
ENDBRANCH   1   7
TORSDOF 8
ENDMDL
MODEL 4
REMARK VINA RESULT:    -3.849      5.541      6.870
REMARK INTER + INTRA:          -5.681
REMARK INTER:                  -5.281
REMARK INTRA:                  -0.400
REMARK UNBOUND:                -0.145
REMARK SMILES CCCCCCCCCO
REMARK SMILES IDX 6 1 5 2 4 3 3 4 2 5 1 6 7 7 8 8 9 9 10 10
REMARK H PARENT 10 11
REMARK Flexibility Score: inf
ROOT
ATOM      1  C   UNL     1     186.497 191.350 186.834  1.00  0.00     0.000 C 
ENDROOT
BRANCH   1   2
ATOM      2  C   UNL     1     186.051 190.093 186.068  1.00  0.00     0.000 C 
BRANCH   2   3
ATOM      3  C   UNL     1     186.962 189.778 184.868  1.00  0.00    -0.000 C 
BRANCH   3   4
ATOM      4  C   UNL     1     187.700 191.021 184.347  1.00  0.00    -0.000 C 
BRANCH   4   5
ATOM      5  C   UNL     1     189.209 190.789 184.186  1.00  0.00    -0.003 C 
ATOM      6  C   UNL     1     189.911 190.780 185.540  1.00  0.00     0.004 C 
ENDBRANCH   4   5
ENDBRANCH   3   4
ENDBRANCH   2   3
ENDBRANCH   1   2
BRANCH   1   7
ATOM      7  C   UNL     1     185.333 192.049 187.551  1.00  0.00     0.002 C 
BRANCH   7   8
ATOM      8  C   UNL     1     184.347 191.024 188.124  1.00  0.00     0.028 C 
BRANCH   8   9
ATOM      9  C   UNL     1     184.483 190.916 189.646  1.00  0.00     0.156 C 
BRANCH   9  10
ATOM     10  O   UNL     1     183.281 190.470 190.210  1.00  0.00    -0.396 OA
ATOM     11  H   UNL     1     183.095 191.060 190.986  1.00  0.00     0.210 HD
ENDBRANCH   9  10
ENDBRANCH   8   9
ENDBRANCH   7   8
ENDBRANCH   1   7
TORSDOF 8
ENDMDL
MODEL 5
REMARK VINA RESULT:    -3.830      4.839      5.977
REMARK INTER + INTRA:          -5.654
REMARK INTER:                  -4.906
REMARK INTRA:                  -0.748
REMARK UNBOUND:                -0.145
REMARK SMILES CCCCCCCCCO
REMARK SMILES IDX 6 1 5 2 4 3 3 4 2 5 1 6 7 7 8 8 9 9 10 10
REMARK H PARENT 10 11
REMARK Flexibility Score: inf
ROOT
ATOM      1  C   UNL     1     186.170 192.307 190.983  1.00  0.00     0.000 C 
ENDROOT
BRANCH   1   2
ATOM      2  C   UNL     1     185.363 192.617 189.712  1.00  0.00     0.000 C 
BRANCH   2   3
ATOM      3  C   UNL     1     186.254 192.742 188.463  1.00  0.00    -0.000 C 
BRANCH   3   4
ATOM      4  C   UNL     1     185.759 191.873 187.296  1.00  0.00    -0.000 C 
BRANCH   4   5
ATOM      5  C   UNL     1     184.409 191.204 187.590  1.00  0.00    -0.003 C 
ATOM      6  C   UNL     1     184.498 189.690 187.424  1.00  0.00     0.004 C 
ENDBRANCH   4   5
ENDBRANCH   3   4
ENDBRANCH   2   3
ENDBRANCH   1   2
BRANCH   1   7
ATOM      7  C   UNL     1     185.535 191.193 191.829  1.00  0.00     0.002 C 
BRANCH   7   8
ATOM      8  C   UNL     1     185.481 189.875 191.049  1.00  0.00     0.028 C 
BRANCH   8   9
ATOM      9  C   UNL     1     184.115 189.200 191.195  1.00  0.00     0.156 C 
BRANCH   9  10
ATOM     10  O   UNL     1     183.109 190.020 190.665  1.00  0.00    -0.396 OA
ATOM     11  H   UNL     1     182.297 189.864 191.214  1.00  0.00     0.210 HD
ENDBRANCH   9  10
ENDBRANCH   8   9
ENDBRANCH   7   8
ENDBRANCH   1   7
TORSDOF 8
ENDMDL
MODEL 6
REMARK VINA RESULT:    -3.795      3.737      6.647
REMARK INTER + INTRA:          -5.605
REMARK INTER:                  -5.392
REMARK INTRA:                  -0.212
REMARK UNBOUND:                -0.145
REMARK SMILES CCCCCCCCCO
REMARK SMILES IDX 6 1 5 2 4 3 3 4 2 5 1 6 7 7 8 8 9 9 10 10
REMARK H PARENT 10 11
REMARK Flexibility Score: inf
ROOT
ATOM      1  C   UNL     1     185.280 192.239 187.751  1.00  0.00     0.000 C 
ENDROOT
BRANCH   1   2
ATOM      2  C   UNL     1     186.182 192.745 188.889  1.00  0.00     0.000 C 
BRANCH   2   3
ATOM      3  C   UNL     1     185.944 194.230 189.215  1.00  0.00    -0.000 C 
BRANCH   3   4
ATOM      4  C   UNL     1     187.090 194.845 190.034  1.00  0.00    -0.000 C 
BRANCH   4   5
ATOM      5  C   UNL     1     187.291 196.339 189.741  1.00  0.00    -0.003 C 
ATOM      6  C   UNL     1     188.675 196.603 189.157  1.00  0.00     0.004 C 
ENDBRANCH   4   5
ENDBRANCH   3   4
ENDBRANCH   2   3
ENDBRANCH   1   2
BRANCH   1   7
ATOM      7  C   UNL     1     184.498 190.974 188.136  1.00  0.00     0.002 C 
BRANCH   7   8
ATOM      8  C   UNL     1     184.291 190.898 189.653  1.00  0.00     0.028 C 
BRANCH   8   9
ATOM      9  C   UNL     1     183.870 189.491 190.085  1.00  0.00     0.156 C 
BRANCH   9  10
ATOM     10  O   UNL     1     183.045 189.556 191.216  1.00  0.00    -0.396 OA
ATOM     11  H   UNL     1     183.575 190.000 191.928  1.00  0.00     0.210 HD
ENDBRANCH   9  10
ENDBRANCH   8   9
ENDBRANCH   7   8
ENDBRANCH   1   7
TORSDOF 8
ENDMDL
MODEL 7
REMARK VINA RESULT:    -3.775      5.137      7.968
REMARK INTER + INTRA:          -5.575
REMARK INTER:                  -5.251
REMARK INTRA:                  -0.325
REMARK UNBOUND:                -0.145
REMARK SMILES CCCCCCCCCO
REMARK SMILES IDX 6 1 5 2 4 3 3 4 2 5 1 6 7 7 8 8 9 9 10 10
REMARK H PARENT 10 11
REMARK Flexibility Score: inf
ROOT
ATOM      1  C   UNL     1     186.293 190.025 186.393  1.00  0.00     0.000 C 
ENDROOT
BRANCH   1   2
ATOM      2  C   UNL     1     184.785 189.956 186.687  1.00  0.00     0.000 C 
BRANCH   2   3
ATOM      3  C   UNL     1     184.314 191.084 187.623  1.00  0.00    -0.000 C 
BRANCH   3   4
ATOM      4  C   UNL     1     185.351 192.211 187.757  1.00  0.00    -0.000 C 
BRANCH   4   5
ATOM      5  C   UNL     1     185.532 192.678 189.208  1.00  0.00    -0.003 C 
ATOM      6  C   UNL     1     186.137 194.078 189.263  1.00  0.00     0.004 C 
ENDBRANCH   4   5
ENDBRANCH   3   4
ENDBRANCH   2   3
ENDBRANCH   1   2
BRANCH   1   7
ATOM      7  C   UNL     1     186.616 189.799 184.909  1.00  0.00     0.002 C 
BRANCH   7   8
ATOM      8  C   UNL     1     187.592 190.862 184.392  1.00  0.00     0.028 C 
BRANCH   8   9
ATOM      9  C   UNL     1     188.873 190.220 183.850  1.00  0.00     0.156 C 
BRANCH   9  10
ATOM     10  O   UNL     1     188.665 188.857 183.602  1.00  0.00    -0.396 OA
ATOM     11  H   UNL     1     189.561 188.430 183.591  1.00  0.00     0.210 HD
ENDBRANCH   9  10
ENDBRANCH   8   9
ENDBRANCH   7   8
ENDBRANCH   1   7
TORSDOF 8
ENDMDL
MODEL 8
REMARK VINA RESULT:    -3.757      4.832      7.270
REMARK INTER + INTRA:          -5.549
REMARK INTER:                  -4.822
REMARK INTRA:                  -0.727
REMARK UNBOUND:                -0.145
REMARK SMILES CCCCCCCCCO
REMARK SMILES IDX 6 1 5 2 4 3 3 4 2 5 1 6 7 7 8 8 9 9 10 10
REMARK H PARENT 10 11
REMARK Flexibility Score: inf
ROOT
ATOM      1  C   UNL     1     185.703 189.152 187.994  1.00  0.00     0.000 C 
ENDROOT
BRANCH   1   2
ATOM      2  C   UNL     1     184.401 189.648 187.342  1.00  0.00     0.000 C 
BRANCH   2   3
ATOM      3  C   UNL     1     184.257 191.180 187.401  1.00  0.00    -0.000 C 
BRANCH   3   4
ATOM      4  C   UNL     1     185.614 191.895 187.495  1.00  0.00    -0.000 C 
BRANCH   4   5
ATOM      5  C   UNL     1     185.641 192.968 188.593  1.00  0.00    -0.003 C 
ATOM      6  C   UNL     1     185.939 192.353 189.957  1.00  0.00     0.004 C 
ENDBRANCH   4   5
ENDBRANCH   3   4
ENDBRANCH   2   3
ENDBRANCH   1   2
BRANCH   1   7
ATOM      7  C   UNL     1     185.489 188.643 189.427  1.00  0.00     0.002 C 
BRANCH   7   8
ATOM      8  C   UNL     1     184.053 188.142 189.622  1.00  0.00     0.028 C 
BRANCH   8   9
ATOM      9  C   UNL     1     183.403 188.787 190.849  1.00  0.00     0.156 C 
BRANCH   9  10
ATOM     10  O   UNL     1     183.182 190.152 190.620  1.00  0.00    -0.396 OA
ATOM     11  H   UNL     1     182.709 190.221 189.750  1.00  0.00     0.210 HD
ENDBRANCH   9  10
ENDBRANCH   8   9
ENDBRANCH   7   8
ENDBRANCH   1   7
TORSDOF 8
ENDMDL
MODEL 9
REMARK VINA RESULT:    -3.705      1.684      2.761
REMARK INTER + INTRA:          -5.474
REMARK INTER:                  -5.219
REMARK INTRA:                  -0.255
REMARK UNBOUND:                -0.145
REMARK SMILES CCCCCCCCCO
REMARK SMILES IDX 6 1 5 2 4 3 3 4 2 5 1 6 7 7 8 8 9 9 10 10
REMARK H PARENT 10 11
REMARK Flexibility Score: inf
ROOT
ATOM      1  C   UNL     1     186.709 193.429 189.522  1.00  0.00     0.000 C 
ENDROOT
BRANCH   1   2
ATOM      2  C   UNL     1     185.480 192.587 189.140  1.00  0.00     0.000 C 
BRANCH   2   3
ATOM      3  C   UNL     1     185.428 192.268 187.635  1.00  0.00    -0.000 C 
BRANCH   3   4
ATOM      4  C   UNL     1     184.907 190.851 187.351  1.00  0.00    -0.000 C 
BRANCH   4   5
ATOM      5  C   UNL     1     185.735 190.119 186.285  1.00  0.00    -0.003 C 
ATOM      6  C   UNL     1     186.984 190.914 185.918  1.00  0.00     0.004 C 
ENDBRANCH   4   5
ENDBRANCH   3   4
ENDBRANCH   2   3
ENDBRANCH   1   2
BRANCH   1   7
ATOM      7  C   UNL     1     186.487 194.933 189.298  1.00  0.00     0.002 C 
BRANCH   7   8
ATOM      8  C   UNL     1     186.474 195.689 190.631  1.00  0.00     0.028 C 
BRANCH   8   9
ATOM      9  C   UNL     1     186.821 197.167 190.433  1.00  0.00     0.156 C 
BRANCH   9  10
ATOM     10  O   UNL     1     187.330 197.377 189.144  1.00  0.00    -0.396 OA
ATOM     11  H   UNL     1     187.758 196.525 188.866  1.00  0.00     0.210 HD
ENDBRANCH   9  10
ENDBRANCH   8   9
ENDBRANCH   7   8
ENDBRANCH   1   7
TORSDOF 8
ENDMDL
