MODEL 1
REMARK VINA RESULT:    -1.080      0.000      0.000
REMARK INTER + INTRA:          -7.459
REMARK INTER:                  -2.469
REMARK INTRA:                  -4.989
REMARK UNBOUND:                -4.989
REMARK SMILES CCCCCCCCCCCCCCCCCCCCCCCC(=O)[O-]
REMARK SMILES IDX 13 1 14 2 15 3 16 4 17 5 18 6 19 7 20 8 21 9 22 10 23 11
REMARK SMILES IDX 24 12 25 13 26 14 12 15 11 16 10 17 9 18 8 19 7 20 6 21 5 22
REMARK SMILES IDX 4 23 3 24 2 25 1 26
REMARK H PARENT
REMARK Flexibility Score: inf
ROOT
ATOM      1  C   UNL     1     145.238  40.365  -7.483  1.00  0.00     0.000 C 
ENDROOT
BRANCH   1   2
ATOM      2  C   UNL     1     146.716  40.744  -7.267  1.00  0.00     0.000 C 
BRANCH   2   3
ATOM      3  C   UNL     1     147.609  40.299  -8.439  1.00  0.00     0.000 C 
BRANCH   3   4
ATOM      4  C   UNL     1     147.980  38.809  -8.373  1.00  0.00     0.000 C 
BRANCH   4   5
ATOM      5  C   UNL     1     147.725  38.078  -9.702  1.00  0.00     0.000 C 
BRANCH   5   6
ATOM      6  C   UNL     1     146.371  37.345  -9.732  1.00  0.00     0.000 C 
BRANCH   6   7
ATOM      7  C   UNL     1     145.277  38.012 -10.589  1.00  0.00     0.000 C 
BRANCH   7   8
ATOM      8  C   UNL     1     145.721  39.259 -11.376  1.00  0.00     0.000 C 
BRANCH   8   9
ATOM      9  C   UNL     1     144.581  40.266 -11.595  1.00  0.00     0.000 C 
BRANCH   9  10
ATOM     10  C   UNL     1     144.957  41.696 -11.160  1.00  0.00     0.006 C 
BRANCH  10  11
ATOM     11  C   UNL     1     143.927  42.373 -10.241  1.00  0.00     0.053 C 
BRANCH  11  12
ATOM     12  C   UNL     1     143.312  43.580 -10.879  1.00  0.00     0.041 C 
ATOM     13  O   UNL     1     142.808  44.486 -10.164  1.00  0.00    -0.550 OA
ATOM     14  O   UNL     1     143.263  43.688 -12.263  1.00  0.00    -0.550 OA
ENDBRANCH  11  12
ENDBRANCH  10  11
ENDBRANCH   9  10
ENDBRANCH   8   9
ENDBRANCH   7   8
ENDBRANCH   6   7
ENDBRANCH   5   6
ENDBRANCH   4   5
ENDBRANCH   3   4
ENDBRANCH   2   3
ENDBRANCH   1   2
BRANCH   1  15
ATOM     15  C   UNL     1     144.801  39.099  -6.723  1.00  0.00     0.000 C 
BRANCH  15  16
ATOM     16  C   UNL     1     143.505  38.494  -7.293  1.00  0.00     0.000 C 
BRANCH  16  17
ATOM     17  C   UNL     1     142.559  39.557  -7.877  1.00  0.00     0.000 C 
BRANCH  17  18
ATOM     18  C   UNL     1     142.040  39.254  -9.296  1.00  0.00    -0.000 C 
BRANCH  18  19
ATOM     19  C   UNL     1     141.195  37.965  -9.389  1.00  0.00    -0.000 C 
BRANCH  19  20
ATOM     20  C   UNL     1     141.876  36.883 -10.245  1.00  0.00    -0.000 C 
BRANCH  20  21
ATOM     21  C   UNL     1     141.376  36.875 -11.703  1.00  0.00    -0.000 C 
BRANCH  21  22
ATOM     22  C   UNL     1     142.484  37.081 -12.753  1.00  0.00    -0.000 C 
BRANCH  22  23
ATOM     23  C   UNL     1     142.248  38.327 -13.624  1.00  0.00    -0.000 C 
BRANCH  23  24
ATOM     24  C   UNL     1     141.007  39.124 -13.189  1.00  0.00    -0.000 C 
BRANCH  24  25
ATOM     25  C   UNL     1     141.252  40.640 -13.169  1.00  0.00    -0.003 C 
ATOM     26  C   UNL     1     140.603  41.284 -11.947  1.00  0.00     0.004 C 
ENDBRANCH  24  25
ENDBRANCH  23  24
ENDBRANCH  22  23
ENDBRANCH  21  22
ENDBRANCH  20  21
ENDBRANCH  19  20
ENDBRANCH  18  19
ENDBRANCH  17  18
ENDBRANCH  16  17
ENDBRANCH  15  16
ENDBRANCH   1  15
TORSDOF 22
ENDMDL
MODEL 2
REMARK VINA RESULT:    -1.075      2.995      4.850
REMARK INTER + INTRA:          -7.446
REMARK INTER:                  -2.941
REMARK INTRA:                  -4.506
REMARK UNBOUND:                -4.989
REMARK SMILES CCCCCCCCCCCCCCCCCCCCCCCC(=O)[O-]
REMARK SMILES IDX 13 1 14 2 15 3 16 4 17 5 18 6 19 7 20 8 21 9 22 10 23 11
REMARK SMILES IDX 24 12 25 13 26 14 12 15 11 16 10 17 9 18 8 19 7 20 6 21 5 22
REMARK SMILES IDX 4 23 3 24 2 25 1 26
REMARK H PARENT
REMARK Flexibility Score: inf
ROOT
ATOM      1  C   UNL     1     143.961  41.342 -10.058  1.00  0.00     0.000 C 
ENDROOT
BRANCH   1   2
ATOM      2  C   UNL     1     144.687  42.103  -8.933  1.00  0.00     0.000 C 
BRANCH   2   3
ATOM      3  C   UNL     1     145.301  41.155  -7.888  1.00  0.00     0.000 C 
BRANCH   3   4
ATOM      4  C   UNL     1     146.523  41.761  -7.179  1.00  0.00     0.000 C 
BRANCH   4   5
ATOM      5  C   UNL     1     147.774  40.874  -7.298  1.00  0.00     0.000 C 
BRANCH   5   6
ATOM      6  C   UNL     1     147.827  40.087  -8.620  1.00  0.00     0.000 C 
BRANCH   6   7
ATOM      7  C   UNL     1     147.931  38.555  -8.475  1.00  0.00     0.000 C 
BRANCH   7   8
ATOM      8  C   UNL     1     146.688  37.763  -8.922  1.00  0.00     0.000 C 
BRANCH   8   9
ATOM      9  C   UNL     1     145.692  37.517  -7.777  1.00  0.00     0.000 C 
BRANCH   9  10
ATOM     10  C   UNL     1     146.367  37.507  -6.392  1.00  0.00     0.006 C 
BRANCH  10  11
ATOM     11  C   UNL     1     145.671  38.384  -5.339  1.00  0.00     0.053 C 
BRANCH  11  12
ATOM     12  C   UNL     1     146.599  38.774  -4.230  1.00  0.00     0.041 C 
ATOM     13  O   UNL     1     146.809  39.991  -3.981  1.00  0.00    -0.550 OA
ATOM     14  O   UNL     1     147.260  37.797  -3.497  1.00  0.00    -0.550 OA
ENDBRANCH  11  12
ENDBRANCH  10  11
ENDBRANCH   9  10
ENDBRANCH   8   9
ENDBRANCH   7   8
ENDBRANCH   6   7
ENDBRANCH   5   6
ENDBRANCH   4   5
ENDBRANCH   3   4
ENDBRANCH   2   3
ENDBRANCH   1   2
BRANCH   1  15
ATOM     15  C   UNL     1     144.885  40.438 -10.896  1.00  0.00     0.000 C 
BRANCH  15  16
ATOM     16  C   UNL     1     144.603  40.553 -12.404  1.00  0.00     0.000 C 
BRANCH  16  17
ATOM     17  C   UNL     1     144.939  39.264 -13.173  1.00  0.00     0.000 C 
BRANCH  17  18
ATOM     18  C   UNL     1     145.407  38.088 -12.294  1.00  0.00    -0.000 C 
BRANCH  18  19
ATOM     19  C   UNL     1     144.386  36.933 -12.201  1.00  0.00    -0.000 C 
BRANCH  19  20
ATOM     20  C   UNL     1     143.602  36.953 -10.878  1.00  0.00    -0.000 C 
BRANCH  20  21
ATOM     21  C   UNL     1     142.168  37.490 -11.043  1.00  0.00    -0.000 C 
BRANCH  21  22
ATOM     22  C   UNL     1     141.669  37.527 -12.500  1.00  0.00    -0.000 C 
BRANCH  22  23
ATOM     23  C   UNL     1     141.183  38.925 -12.922  1.00  0.00    -0.000 C 
BRANCH  23  24
ATOM     24  C   UNL     1     140.968  39.862 -11.721  1.00  0.00    -0.000 C 
BRANCH  24  25
ATOM     25  C   UNL     1     140.816  41.333 -12.137  1.00  0.00    -0.003 C 
ATOM     26  C   UNL     1     141.221  41.536 -13.593  1.00  0.00     0.004 C 
ENDBRANCH  24  25
ENDBRANCH  23  24
ENDBRANCH  22  23
ENDBRANCH  21  22
ENDBRANCH  20  21
ENDBRANCH  19  20
ENDBRANCH  18  19
ENDBRANCH  17  18
ENDBRANCH  16  17
ENDBRANCH  15  16
ENDBRANCH   1  15
TORSDOF 22
ENDMDL
MODEL 3
REMARK VINA RESULT:    -1.039      2.051      3.857
REMARK INTER + INTRA:          -7.365
REMARK INTER:                  -2.809
REMARK INTRA:                  -4.556
REMARK UNBOUND:                -4.989
REMARK SMILES CCCCCCCCCCCCCCCCCCCCCCCC(=O)[O-]
REMARK SMILES IDX 13 1 14 2 15 3 16 4 17 5 18 6 19 7 20 8 21 9 22 10 23 11
REMARK SMILES IDX 24 12 25 13 26 14 12 15 11 16 10 17 9 18 8 19 7 20 6 21 5 22
REMARK SMILES IDX 4 23 3 24 2 25 1 26
REMARK H PARENT
REMARK Flexibility Score: inf
ROOT
ATOM      1  C   UNL     1     143.523  39.956  -8.825  1.00  0.00     0.000 C 
ENDROOT
BRANCH   1   2
ATOM      2  C   UNL     1     143.124  39.118  -7.596  1.00  0.00     0.000 C 
BRANCH   2   3
ATOM      3  C   UNL     1     143.938  39.493  -6.345  1.00  0.00     0.000 C 
BRANCH   3   4
ATOM      4  C   UNL     1     144.740  38.309  -5.780  1.00  0.00     0.000 C 
BRANCH   4   5
ATOM      5  C   UNL     1     146.258  38.553  -5.818  1.00  0.00     0.000 C 
BRANCH   5   6
ATOM      6  C   UNL     1     146.925  37.980  -7.082  1.00  0.00     0.000 C 
BRANCH   6   7
ATOM      7  C   UNL     1     147.659  39.008  -7.967  1.00  0.00     0.000 C 
BRANCH   7   8
ATOM      8  C   UNL     1     147.208  40.470  -7.795  1.00  0.00     0.000 C 
BRANCH   8   9
ATOM      9  C   UNL     1     147.956  41.440  -8.724  1.00  0.00     0.000 C 
BRANCH   9  10
ATOM     10  C   UNL     1     147.630  41.209 -10.213  1.00  0.00     0.006 C 
BRANCH  10  11
ATOM     11  C   UNL     1     146.469  42.060 -10.749  1.00  0.00     0.053 C 
BRANCH  11  12
ATOM     12  C   UNL     1     146.805  42.711 -12.056  1.00  0.00     0.041 C 
ATOM     13  O   UNL     1     147.266  43.883 -12.079  1.00  0.00    -0.550 OA
ATOM     14  O   UNL     1     146.575  42.038 -13.249  1.00  0.00    -0.550 OA
ENDBRANCH  11  12
ENDBRANCH  10  11
ENDBRANCH   9  10
ENDBRANCH   8   9
ENDBRANCH   7   8
ENDBRANCH   6   7
ENDBRANCH   5   6
ENDBRANCH   4   5
ENDBRANCH   3   4
ENDBRANCH   2   3
ENDBRANCH   1   2
BRANCH   1  15
ATOM     15  C   UNL     1     144.398  39.196  -9.840  1.00  0.00     0.000 C 
BRANCH  15  16
ATOM     16  C   UNL     1     144.307  37.670  -9.662  1.00  0.00     0.000 C 
BRANCH  16  17
ATOM     17  C   UNL     1     145.506  36.927 -10.276  1.00  0.00     0.000 C 
BRANCH  17  18
ATOM     18  C   UNL     1     146.325  37.746 -11.292  1.00  0.00    -0.000 C 
BRANCH  18  19
ATOM     19  C   UNL     1     146.001  37.414 -12.766  1.00  0.00    -0.000 C 
BRANCH  19  20
ATOM     20  C   UNL     1     145.606  38.664 -13.570  1.00  0.00    -0.000 C 
BRANCH  20  21
ATOM     21  C   UNL     1     144.089  38.931 -13.550  1.00  0.00    -0.000 C 
BRANCH  21  22
ATOM     22  C   UNL     1     143.221  37.659 -13.598  1.00  0.00    -0.000 C 
BRANCH  22  23
ATOM     23  C   UNL     1     141.739  37.944 -13.301  1.00  0.00    -0.000 C 
BRANCH  23  24
ATOM     24  C   UNL     1     141.469  38.169 -11.804  1.00  0.00    -0.000 C 
BRANCH  24  25
ATOM     25  C   UNL     1     141.065  36.879 -11.073  1.00  0.00    -0.003 C 
ATOM     26  C   UNL     1     140.357  37.192  -9.760  1.00  0.00     0.004 C 
ENDBRANCH  24  25
ENDBRANCH  23  24
ENDBRANCH  22  23
ENDBRANCH  21  22
ENDBRANCH  20  21
ENDBRANCH  19  20
ENDBRANCH  18  19
ENDBRANCH  17  18
ENDBRANCH  16  17
ENDBRANCH  15  16
ENDBRANCH   1  15
TORSDOF 22
ENDMDL
MODEL 4
REMARK VINA RESULT:    -0.994      2.513      4.378
REMARK INTER + INTRA:          -7.263
REMARK INTER:                  -2.327
REMARK INTRA:                  -4.936
REMARK UNBOUND:                -4.989
REMARK SMILES CCCCCCCCCCCCCCCCCCCCCCCC(=O)[O-]
REMARK SMILES IDX 13 1 14 2 15 3 16 4 17 5 18 6 19 7 20 8 21 9 22 10 23 11
REMARK SMILES IDX 24 12 25 13 26 14 12 15 11 16 10 17 9 18 8 19 7 20 6 21 5 22
REMARK SMILES IDX 4 23 3 24 2 25 1 26
REMARK H PARENT
REMARK Flexibility Score: inf
ROOT
ATOM      1  C   UNL     1     146.028  41.068 -10.936  1.00  0.00     0.000 C 
ENDROOT
BRANCH   1   2
ATOM      2  C   UNL     1     147.431  40.470 -10.721  1.00  0.00     0.000 C 
BRANCH   2   3
ATOM      3  C   UNL     1     147.713  40.159  -9.240  1.00  0.00     0.000 C 
BRANCH   3   4
ATOM      4  C   UNL     1     147.826  38.652  -8.960  1.00  0.00     0.000 C 
BRANCH   4   5
ATOM      5  C   UNL     1     147.645  37.800 -10.227  1.00  0.00     0.000 C 
BRANCH   5   6
ATOM      6  C   UNL     1     146.342  36.980 -10.216  1.00  0.00     0.000 C 
BRANCH   6   7
ATOM      7  C   UNL     1     145.419  37.220  -9.004  1.00  0.00     0.000 C 
BRANCH   7   8
ATOM      8  C   UNL     1     144.060  37.869  -9.326  1.00  0.00     0.000 C 
BRANCH   8   9
ATOM      9  C   UNL     1     143.862  39.223  -8.625  1.00  0.00     0.000 C 
BRANCH   9  10
ATOM     10  C   UNL     1     144.475  39.256  -7.211  1.00  0.00     0.006 C 
BRANCH  10  11
ATOM     11  C   UNL     1     145.026  40.628  -6.790  1.00  0.00     0.053 C 
BRANCH  11  12
ATOM     12  C   UNL     1     146.024  40.515  -5.679  1.00  0.00     0.041 C 
ATOM     13  O   UNL     1     145.691  39.996  -4.580  1.00  0.00    -0.550 OA
ATOM     14  O   UNL     1     147.309  41.015  -5.842  1.00  0.00    -0.550 OA
ENDBRANCH  11  12
ENDBRANCH  10  11
ENDBRANCH   9  10
ENDBRANCH   8   9
ENDBRANCH   7   8
ENDBRANCH   6   7
ENDBRANCH   5   6
ENDBRANCH   4   5
ENDBRANCH   3   4
ENDBRANCH   2   3
ENDBRANCH   1   2
BRANCH   1  15
ATOM     15  C   UNL     1     145.169  40.294 -11.953  1.00  0.00     0.000 C 
BRANCH  15  16
ATOM     16  C   UNL     1     146.024  39.562 -13.002  1.00  0.00     0.000 C 
BRANCH  16  17
ATOM     17  C   UNL     1     145.240  38.472 -13.754  1.00  0.00     0.000 C 
BRANCH  17  18
ATOM     18  C   UNL     1     144.057  37.869 -12.973  1.00  0.00    -0.000 C 
BRANCH  18  19
ATOM     19  C   UNL     1     142.861  37.468 -13.865  1.00  0.00    -0.000 C 
BRANCH  19  20
ATOM     20  C   UNL     1     141.576  38.226 -13.492  1.00  0.00    -0.000 C 
BRANCH  20  21
ATOM     21  C   UNL     1     141.631  38.832 -12.076  1.00  0.00    -0.000 C 
BRANCH  21  22
ATOM     22  C   UNL     1     141.352  40.347 -12.024  1.00  0.00    -0.000 C 
BRANCH  22  23
ATOM     23  C   UNL     1     141.311  40.890 -10.584  1.00  0.00    -0.000 C 
BRANCH  23  24
ATOM     24  C   UNL     1     142.158  42.161 -10.409  1.00  0.00    -0.000 C 
BRANCH  24  25
ATOM     25  C   UNL     1     142.418  42.889 -11.737  1.00  0.00    -0.003 C 
ATOM     26  C   UNL     1     143.650  43.782 -11.640  1.00  0.00     0.004 C 
ENDBRANCH  24  25
ENDBRANCH  23  24
ENDBRANCH  22  23
ENDBRANCH  21  22
ENDBRANCH  20  21
ENDBRANCH  19  20
ENDBRANCH  18  19
ENDBRANCH  17  18
ENDBRANCH  16  17
ENDBRANCH  15  16
ENDBRANCH   1  15
TORSDOF 22
ENDMDL
MODEL 5
REMARK VINA RESULT:    -0.959      2.001      3.600
REMARK INTER + INTRA:          -7.181
REMARK INTER:                  -2.072
REMARK INTRA:                  -5.109
REMARK UNBOUND:                -4.989
REMARK SMILES CCCCCCCCCCCCCCCCCCCCCCCC(=O)[O-]
REMARK SMILES IDX 13 1 14 2 15 3 16 4 17 5 18 6 19 7 20 8 21 9 22 10 23 11
REMARK SMILES IDX 24 12 25 13 26 14 12 15 11 16 10 17 9 18 8 19 7 20 6 21 5 22
REMARK SMILES IDX 4 23 3 24 2 25 1 26
REMARK H PARENT
REMARK Flexibility Score: inf
ROOT
ATOM      1  C   UNL     1     143.108  41.856  -8.963  1.00  0.00     0.000 C 
ENDROOT
BRANCH   1   2
ATOM      2  C   UNL     1     143.851  42.477 -10.161  1.00  0.00     0.000 C 
BRANCH   2   3
ATOM      3  C   UNL     1     145.324  42.786  -9.837  1.00  0.00     0.000 C 
BRANCH   3   4
ATOM      4  C   UNL     1     146.303  41.867 -10.583  1.00  0.00     0.000 C 
BRANCH   4   5
ATOM      5  C   UNL     1     145.597  40.948 -11.595  1.00  0.00     0.000 C 
BRANCH   5   6
ATOM      6  C   UNL     1     146.129  39.504 -11.565  1.00  0.00     0.000 C 
BRANCH   6   7
ATOM      7  C   UNL     1     145.203  38.472 -10.887  1.00  0.00     0.000 C 
BRANCH   7   8
ATOM      8  C   UNL     1     145.661  37.984  -9.500  1.00  0.00     0.000 C 
BRANCH   8   9
ATOM      9  C   UNL     1     147.154  38.238  -9.239  1.00  0.00     0.000 C 
BRANCH   9  10
ATOM     10  C   UNL     1     147.397  39.216  -8.073  1.00  0.00     0.006 C 
BRANCH  10  11
ATOM     11  C   UNL     1     146.117  39.821  -7.474  1.00  0.00     0.053 C 
BRANCH  11  12
ATOM     12  C   UNL     1     146.403  41.039  -6.651  1.00  0.00     0.041 C 
ATOM     13  O   UNL     1     147.586  41.314  -6.318  1.00  0.00    -0.550 OA
ATOM     14  O   UNL     1     145.361  41.851  -6.222  1.00  0.00    -0.550 OA
ENDBRANCH  11  12
ENDBRANCH  10  11
ENDBRANCH   9  10
ENDBRANCH   8   9
ENDBRANCH   7   8
ENDBRANCH   6   7
ENDBRANCH   5   6
ENDBRANCH   4   5
ENDBRANCH   3   4
ENDBRANCH   2   3
ENDBRANCH   1   2
BRANCH   1  15
ATOM     15  C   UNL     1     142.758  40.368  -9.148  1.00  0.00     0.000 C 
BRANCH  15  16
ATOM     16  C   UNL     1     141.328  40.041  -8.683  1.00  0.00     0.000 C 
BRANCH  16  17
ATOM     17  C   UNL     1     141.043  38.530  -8.651  1.00  0.00     0.000 C 
BRANCH  17  18
ATOM     18  C   UNL     1     140.629  37.919 -10.004  1.00  0.00    -0.000 C 
BRANCH  18  19
ATOM     19  C   UNL     1     141.627  36.875 -10.549  1.00  0.00    -0.000 C 
BRANCH  19  20
ATOM     20  C   UNL     1     141.867  37.032 -12.061  1.00  0.00    -0.000 C 
BRANCH  20  21
ATOM     21  C   UNL     1     141.336  38.369 -12.612  1.00  0.00    -0.000 C 
BRANCH  21  22
ATOM     22  C   UNL     1     142.436  39.364 -13.029  1.00  0.00    -0.000 C 
BRANCH  22  23
ATOM     23  C   UNL     1     142.028  40.829 -12.791  1.00  0.00    -0.000 C 
BRANCH  23  24
ATOM     24  C   UNL     1     140.573  40.965 -12.313  1.00  0.00    -0.000 C 
BRANCH  24  25
ATOM     25  C   UNL     1     140.302  42.305 -11.612  1.00  0.00    -0.003 C 
ATOM     26  C   UNL     1     139.164  42.176 -10.605  1.00  0.00     0.004 C 
ENDBRANCH  24  25
ENDBRANCH  23  24
ENDBRANCH  22  23
ENDBRANCH  21  22
ENDBRANCH  20  21
ENDBRANCH  19  20
ENDBRANCH  18  19
ENDBRANCH  17  18
ENDBRANCH  16  17
ENDBRANCH  15  16
ENDBRANCH   1  15
TORSDOF 22
ENDMDL
MODEL 6
REMARK VINA RESULT:    -0.922      2.473      4.559
REMARK INTER + INTRA:          -7.096
REMARK INTER:                  -2.085
REMARK INTRA:                  -5.011
REMARK UNBOUND:                -4.989
REMARK SMILES CCCCCCCCCCCCCCCCCCCCCCCC(=O)[O-]
REMARK SMILES IDX 13 1 14 2 15 3 16 4 17 5 18 6 19 7 20 8 21 9 22 10 23 11
REMARK SMILES IDX 24 12 25 13 26 14 12 15 11 16 10 17 9 18 8 19 7 20 6 21 5 22
REMARK SMILES IDX 4 23 3 24 2 25 1 26
REMARK H PARENT
REMARK Flexibility Score: inf
ROOT
ATOM      1  C   UNL     1     144.398  41.265 -10.020  1.00  0.00     0.000 C 
ENDROOT
BRANCH   1   2
ATOM      2  C   UNL     1     145.781  41.919 -10.203  1.00  0.00     0.000 C 
BRANCH   2   3
ATOM      3  C   UNL     1     145.740  43.107 -11.181  1.00  0.00     0.000 C 
BRANCH   3   4
ATOM      4  C   UNL     1     146.526  42.841 -12.474  1.00  0.00     0.000 C 
BRANCH   4   5
ATOM      5  C   UNL     1     147.481  41.642 -12.349  1.00  0.00     0.000 C 
BRANCH   5   6
ATOM      6  C   UNL     1     147.367  40.660 -13.529  1.00  0.00     0.000 C 
BRANCH   6   7
ATOM      7  C   UNL     1     147.272  39.169 -13.143  1.00  0.00     0.000 C 
BRANCH   7   8
ATOM      8  C   UNL     1     147.552  38.851 -11.663  1.00  0.00     0.000 C 
BRANCH   8   9
ATOM      9  C   UNL     1     146.337  38.244 -10.942  1.00  0.00     0.000 C 
BRANCH   9  10
ATOM     10  C   UNL     1     146.689  37.688  -9.548  1.00  0.00     0.006 C 
BRANCH  10  11
ATOM     11  C   UNL     1     147.828  38.432  -8.835  1.00  0.00     0.053 C 
BRANCH  11  12
ATOM     12  C   UNL     1     147.315  39.486  -7.903  1.00  0.00     0.041 C 
ATOM     13  O   UNL     1     148.059  40.442  -7.557  1.00  0.00    -0.550 OA
ATOM     14  O   UNL     1     146.029  39.393  -7.386  1.00  0.00    -0.550 OA
ENDBRANCH  11  12
ENDBRANCH  10  11
ENDBRANCH   9  10
ENDBRANCH   8   9
ENDBRANCH   7   8
ENDBRANCH   6   7
ENDBRANCH   5   6
ENDBRANCH   4   5
ENDBRANCH   3   4
ENDBRANCH   2   3
ENDBRANCH   1   2
BRANCH   1  15
ATOM     15  C   UNL     1     143.282  41.922 -10.852  1.00  0.00     0.000 C 
BRANCH  15  16
ATOM     16  C   UNL     1     142.690  40.961 -11.898  1.00  0.00     0.000 C 
BRANCH  16  17
ATOM     17  C   UNL     1     143.767  40.292 -12.769  1.00  0.00     0.000 C 
BRANCH  17  18
ATOM     18  C   UNL     1     143.259  39.139 -13.656  1.00  0.00    -0.000 C 
BRANCH  18  19
ATOM     19  C   UNL     1     143.190  37.777 -12.930  1.00  0.00    -0.000 C 
BRANCH  19  20
ATOM     20  C   UNL     1     141.764  37.438 -12.463  1.00  0.00    -0.000 C 
BRANCH  20  21
ATOM     21  C   UNL     1     141.677  37.194 -10.944  1.00  0.00    -0.000 C 
BRANCH  21  22
ATOM     22  C   UNL     1     142.928  37.634 -10.159  1.00  0.00    -0.000 C 
BRANCH  22  23
ATOM     23  C   UNL     1     142.578  38.292  -8.813  1.00  0.00    -0.000 C 
BRANCH  23  24
ATOM     24  C   UNL     1     141.076  38.589  -8.673  1.00  0.00    -0.000 C 
BRANCH  24  25
ATOM     25  C   UNL     1     140.755  40.087  -8.783  1.00  0.00    -0.003 C 
ATOM     26  C   UNL     1     139.663  40.339  -9.817  1.00  0.00     0.004 C 
ENDBRANCH  24  25
ENDBRANCH  23  24
ENDBRANCH  22  23
ENDBRANCH  21  22
ENDBRANCH  20  21
ENDBRANCH  19  20
ENDBRANCH  18  19
ENDBRANCH  17  18
ENDBRANCH  16  17
ENDBRANCH  15  16
ENDBRANCH   1  15
TORSDOF 22
ENDMDL
MODEL 7
REMARK VINA RESULT:    -0.916      3.554      6.404
REMARK INTER + INTRA:          -7.084
REMARK INTER:                  -1.989
REMARK INTRA:                  -5.095
REMARK UNBOUND:                -4.989
REMARK SMILES CCCCCCCCCCCCCCCCCCCCCCCC(=O)[O-]
REMARK SMILES IDX 13 1 14 2 15 3 16 4 17 5 18 6 19 7 20 8 21 9 22 10 23 11
REMARK SMILES IDX 24 12 25 13 26 14 12 15 11 16 10 17 9 18 8 19 7 20 6 21 5 22
REMARK SMILES IDX 4 23 3 24 2 25 1 26
REMARK H PARENT
REMARK Flexibility Score: inf
ROOT
ATOM      1  C   UNL     1     146.439  42.007  -6.180  1.00  0.00     0.000 C 
ENDROOT
BRANCH   1   2
ATOM      2  C   UNL     1     145.399  42.917  -5.498  1.00  0.00     0.000 C 
BRANCH   2   3
ATOM      3  C   UNL     1     145.788  43.264  -4.050  1.00  0.00     0.000 C 
BRANCH   3   4
ATOM      4  C   UNL     1     147.246  42.903  -3.722  1.00  0.00     0.000 C 
BRANCH   4   5
ATOM      5  C   UNL     1     147.365  41.988  -2.491  1.00  0.00     0.000 C 
BRANCH   5   6
ATOM      6  C   UNL     1     148.125  40.682  -2.788  1.00  0.00     0.000 C 
BRANCH   6   7
ATOM      7  C   UNL     1     147.260  39.405  -2.817  1.00  0.00     0.000 C 
BRANCH   7   8
ATOM      8  C   UNL     1     146.609  39.078  -4.173  1.00  0.00     0.000 C 
BRANCH   8   9
ATOM      9  C   UNL     1     145.106  38.776  -4.058  1.00  0.00     0.000 C 
BRANCH   9  10
ATOM     10  C   UNL     1     144.319  39.918  -3.388  1.00  0.00     0.006 C 
BRANCH  10  11
ATOM     11  C   UNL     1     143.061  40.359  -4.154  1.00  0.00     0.053 C 
BRANCH  11  12
ATOM     12  C   UNL     1     142.160  41.211  -3.314  1.00  0.00     0.041 C 
ATOM     13  O   UNL     1     141.143  40.707  -2.767  1.00  0.00    -0.550 OA
ATOM     14  O   UNL     1     142.422  42.566  -3.164  1.00  0.00    -0.550 OA
ENDBRANCH  11  12
ENDBRANCH  10  11
ENDBRANCH   9  10
ENDBRANCH   8   9
ENDBRANCH   7   8
ENDBRANCH   6   7
ENDBRANCH   5   6
ENDBRANCH   4   5
ENDBRANCH   3   4
ENDBRANCH   2   3
ENDBRANCH   1   2
BRANCH   1  15
ATOM     15  C   UNL     1     147.125  42.650  -7.400  1.00  0.00     0.000 C 
BRANCH  15  16
ATOM     16  C   UNL     1     148.064  41.670  -8.125  1.00  0.00     0.000 C 
BRANCH  16  17
ATOM     17  C   UNL     1     147.762  40.199  -7.792  1.00  0.00     0.000 C 
BRANCH  17  18
ATOM     18  C   UNL     1     147.925  39.220  -8.971  1.00  0.00    -0.000 C 
BRANCH  18  19
ATOM     19  C   UNL     1     147.019  37.972  -8.876  1.00  0.00    -0.000 C 
BRANCH  19  20
ATOM     20  C   UNL     1     146.298  37.878  -7.520  1.00  0.00    -0.000 C 
BRANCH  20  21
ATOM     21  C   UNL     1     144.863  37.330  -7.646  1.00  0.00    -0.000 C 
BRANCH  21  22
ATOM     22  C   UNL     1     143.846  38.341  -8.208  1.00  0.00    -0.000 C 
BRANCH  22  23
ATOM     23  C   UNL     1     144.005  39.743  -7.593  1.00  0.00    -0.000 C 
BRANCH  23  24
ATOM     24  C   UNL     1     144.012  40.855  -8.654  1.00  0.00    -0.000 C 
BRANCH  24  25
ATOM     25  C   UNL     1     144.451  40.353 -10.038  1.00  0.00    -0.003 C 
ATOM     26  C   UNL     1     145.391  41.348 -10.710  1.00  0.00     0.004 C 
ENDBRANCH  24  25
ENDBRANCH  23  24
ENDBRANCH  22  23
ENDBRANCH  21  22
ENDBRANCH  20  21
ENDBRANCH  19  20
ENDBRANCH  18  19
ENDBRANCH  17  18
ENDBRANCH  16  17
ENDBRANCH  15  16
ENDBRANCH   1  15
TORSDOF 22
ENDMDL
MODEL 8
REMARK VINA RESULT:    -0.897      1.906      3.438
REMARK INTER + INTRA:          -7.039
REMARK INTER:                  -2.548
REMARK INTRA:                  -4.491
REMARK UNBOUND:                -4.989
REMARK SMILES CCCCCCCCCCCCCCCCCCCCCCCC(=O)[O-]
REMARK SMILES IDX 13 1 14 2 15 3 16 4 17 5 18 6 19 7 20 8 21 9 22 10 23 11
REMARK SMILES IDX 24 12 25 13 26 14 12 15 11 16 10 17 9 18 8 19 7 20 6 21 5 22
REMARK SMILES IDX 4 23 3 24 2 25 1 26
REMARK H PARENT
REMARK Flexibility Score: inf
ROOT
ATOM      1  C   UNL     1     143.408  38.733  -8.701  1.00  0.00     0.000 C 
ENDROOT
BRANCH   1   2
ATOM      2  C   UNL     1     144.478  38.543  -7.609  1.00  0.00     0.000 C 
BRANCH   2   3
ATOM      3  C   UNL     1     145.585  37.566  -8.041  1.00  0.00     0.000 C 
BRANCH   3   4
ATOM      4  C   UNL     1     146.981  37.999  -7.563  1.00  0.00     0.000 C 
BRANCH   4   5
ATOM      5  C   UNL     1     147.768  38.754  -8.647  1.00  0.00     0.000 C 
BRANCH   5   6
ATOM      6  C   UNL     1     147.644  38.106 -10.038  1.00  0.00     0.000 C 
BRANCH   6   7
ATOM      7  C   UNL     1     147.513  39.092 -11.217  1.00  0.00     0.000 C 
BRANCH   7   8
ATOM      8  C   UNL     1     146.122  39.728 -11.396  1.00  0.00     0.000 C 
BRANCH   8   9
ATOM      9  C   UNL     1     146.101  41.226 -11.051  1.00  0.00     0.000 C 
BRANCH   9  10
ATOM     10  C   UNL     1     145.522  41.506  -9.651  1.00  0.00     0.006 C 
BRANCH  10  11
ATOM     11  C   UNL     1     146.528  42.107  -8.656  1.00  0.00     0.053 C 
BRANCH  11  12
ATOM     12  C   UNL     1     145.857  42.619  -7.419  1.00  0.00     0.041 C 
ATOM     13  O   UNL     1     145.421  41.813  -6.555  1.00  0.00    -0.550 OA
ATOM     14  O   UNL     1     145.679  43.985  -7.237  1.00  0.00    -0.550 OA
ENDBRANCH  11  12
ENDBRANCH  10  11
ENDBRANCH   9  10
ENDBRANCH   8   9
ENDBRANCH   7   8
ENDBRANCH   6   7
ENDBRANCH   5   6
ENDBRANCH   4   5
ENDBRANCH   3   4
ENDBRANCH   2   3
ENDBRANCH   1   2
BRANCH   1  15
ATOM     15  C   UNL     1     143.529  37.740  -9.872  1.00  0.00     0.000 C 
BRANCH  15  16
ATOM     16  C   UNL     1     142.266  36.875 -10.037  1.00  0.00     0.000 C 
BRANCH  16  17
ATOM     17  C   UNL     1     141.661  36.969 -11.448  1.00  0.00     0.000 C 
BRANCH  17  18
ATOM     18  C   UNL     1     142.681  36.875 -12.599  1.00  0.00    -0.000 C 
BRANCH  18  19
ATOM     19  C   UNL     1     142.278  37.676 -13.857  1.00  0.00    -0.000 C 
BRANCH  19  20
ATOM     20  C   UNL     1     141.444  38.922 -13.511  1.00  0.00    -0.000 C 
BRANCH  20  21
ATOM     21  C   UNL     1     142.023  40.213 -14.120  1.00  0.00    -0.000 C 
BRANCH  21  22
ATOM     22  C   UNL     1     142.798  41.093 -13.120  1.00  0.00    -0.000 C 
BRANCH  22  23
ATOM     23  C   UNL     1     142.482  40.740 -11.656  1.00  0.00    -0.000 C 
BRANCH  23  24
ATOM     24  C   UNL     1     141.385  41.636 -11.057  1.00  0.00    -0.000 C 
BRANCH  24  25
ATOM     25  C   UNL     1     140.870  41.120  -9.705  1.00  0.00    -0.003 C 
ATOM     26  C   UNL     1     139.954  39.915  -9.891  1.00  0.00     0.004 C 
ENDBRANCH  24  25
ENDBRANCH  23  24
ENDBRANCH  22  23
ENDBRANCH  21  22
ENDBRANCH  20  21
ENDBRANCH  19  20
ENDBRANCH  18  19
ENDBRANCH  17  18
ENDBRANCH  16  17
ENDBRANCH  15  16
ENDBRANCH   1  15
TORSDOF 22
ENDMDL
