MODEL 1
REMARK VINA RESULT:    -4.528      0.000      0.000
REMARK INTER + INTRA:         -16.390
REMARK INTER:                 -11.939
REMARK INTRA:                  -4.451
REMARK UNBOUND:                -4.451
REMARK SMILES CCCCCCCCCCCCCCCCCCCCCCCCCCCCCC(=O)[O-]
REMARK SMILES IDX 16 1 17 2 18 3 19 4 20 5 21 6 22 7 23 8 24 9 25 10 26 11
REMARK SMILES IDX 27 12 28 13 29 14 30 15 31 16 32 17 15 18 14 19 13 20 12 21
REMARK SMILES IDX 11 22 10 23 9 24 8 25 7 26 6 27 5 28 4 29 3 30 2 31 1 32
REMARK H PARENT
REMARK Flexibility Score: inf
ROOT
ATOM      1  C   UNL     1      59.659  28.489  11.381  1.00  0.00     0.000 C 
ENDROOT
BRANCH   1   2
ATOM      2  C   UNL     1      60.382  28.123  12.689  1.00  0.00     0.000 C 
BRANCH   2   3
ATOM      3  C   UNL     1      61.551  29.074  13.003  1.00  0.00     0.000 C 
BRANCH   3   4
ATOM      4  C   UNL     1      61.158  30.175  14.003  1.00  0.00     0.000 C 
BRANCH   4   5
ATOM      5  C   UNL     1      60.038  31.090  13.476  1.00  0.00     0.000 C 
BRANCH   5   6
ATOM      6  C   UNL     1      60.525  32.339  12.722  1.00  0.00     0.000 C 
BRANCH   6   7
ATOM      7  C   UNL     1      61.635  33.093  13.470  1.00  0.00     0.000 C 
BRANCH   7   8
ATOM      8  C   UNL     1      61.043  34.078  14.488  1.00  0.00     0.000 C 
BRANCH   8   9
ATOM      9  C   UNL     1      61.886  34.184  15.769  1.00  0.00     0.000 C 
BRANCH   9  10
ATOM     10  C   UNL     1      62.027  32.837  16.499  1.00  0.00     0.000 C 
BRANCH  10  11
ATOM     11  C   UNL     1      61.781  32.954  18.011  1.00  0.00     0.000 C 
BRANCH  11  12
ATOM     12  C   UNL     1      61.620  34.414  18.472  1.00  0.00     0.000 C 
BRANCH  12  13
ATOM     13  C   UNL     1      62.854  34.936  19.224  1.00  0.00     0.006 C 
BRANCH  13  14
ATOM     14  C   UNL     1      63.770  33.806  19.713  1.00  0.00     0.053 C 
BRANCH  14  15
ATOM     15  C   UNL     1      64.538  34.240  20.922  1.00  0.00     0.041 C 
ATOM     16  O   UNL     1      64.261  33.763  22.054  1.00  0.00    -0.550 OA
ATOM     17  O   UNL     1      65.580  35.152  20.793  1.00  0.00    -0.550 OA
ENDBRANCH  14  15
ENDBRANCH  13  14
ENDBRANCH  12  13
ENDBRANCH  11  12
ENDBRANCH  10  11
ENDBRANCH   9  10
ENDBRANCH   8   9
ENDBRANCH   7   8
ENDBRANCH   6   7
ENDBRANCH   5   6
ENDBRANCH   4   5
ENDBRANCH   3   4
ENDBRANCH   2   3
ENDBRANCH   1   2
BRANCH   1  18
ATOM     18  C   UNL     1      60.568  29.226  10.380  1.00  0.00     0.000 C 
BRANCH  18  19
ATOM     19  C   UNL     1      61.450  28.316   9.505  1.00  0.00     0.000 C 
BRANCH  19  20
ATOM     20  C   UNL     1      62.941  28.684   9.573  1.00  0.00     0.000 C 
BRANCH  20  21
ATOM     21  C   UNL     1      63.177  30.179   9.851  1.00  0.00     0.000 C 
BRANCH  21  22
ATOM     22  C   UNL     1      64.519  30.529  10.534  1.00  0.00     0.000 C 
BRANCH  22  23
ATOM     23  C   UNL     1      64.416  31.357  11.833  1.00  0.00     0.000 C 
BRANCH  23  24
ATOM     24  C   UNL     1      64.701  30.561  13.127  1.00  0.00    -0.000 C 
BRANCH  24  25
ATOM     25  C   UNL     1      64.589  31.401  14.412  1.00  0.00    -0.000 C 
BRANCH  25  26
ATOM     26  C   UNL     1      65.927  31.934  14.960  1.00  0.00    -0.000 C 
BRANCH  26  27
ATOM     27  C   UNL     1      65.807  33.109  15.951  1.00  0.00    -0.000 C 
BRANCH  27  28
ATOM     28  C   UNL     1      65.479  34.472  15.311  1.00  0.00    -0.000 C 
BRANCH  28  29
ATOM     29  C   UNL     1      66.670  35.121  14.573  1.00  0.00    -0.000 C 
BRANCH  29  30
ATOM     30  C   UNL     1      66.217  36.124  13.498  1.00  0.00    -0.000 C 
BRANCH  30  31
ATOM     31  C   UNL     1      66.721  35.751  12.094  1.00  0.00    -0.003 C 
ATOM     32  C   UNL     1      66.568  34.260  11.788  1.00  0.00     0.004 C 
ENDBRANCH  30  31
ENDBRANCH  29  30
ENDBRANCH  28  29
ENDBRANCH  27  28
ENDBRANCH  26  27
ENDBRANCH  25  26
ENDBRANCH  24  25
ENDBRANCH  23  24
ENDBRANCH  22  23
ENDBRANCH  21  22
ENDBRANCH  20  21
ENDBRANCH  19  20
ENDBRANCH  18  19
ENDBRANCH   1  18
TORSDOF 28
ENDMDL
MODEL 2
REMARK VINA RESULT:    -4.423      1.167      1.994
REMARK INTER + INTRA:         -16.113
REMARK INTER:                 -11.761
REMARK INTRA:                  -4.352
REMARK UNBOUND:                -4.451
REMARK SMILES CCCCCCCCCCCCCCCCCCCCCCCCCCCCCC(=O)[O-]
REMARK SMILES IDX 16 1 17 2 18 3 19 4 20 5 21 6 22 7 23 8 24 9 25 10 26 11
REMARK SMILES IDX 27 12 28 13 29 14 30 15 31 16 32 17 15 18 14 19 13 20 12 21
REMARK SMILES IDX 11 22 10 23 9 24 8 25 7 26 6 27 5 28 4 29 3 30 2 31 1 32
REMARK H PARENT
REMARK Flexibility Score: inf
ROOT
ATOM      1  C   UNL     1      59.643  28.591  12.247  1.00  0.00     0.000 C 
ENDROOT
BRANCH   1   2
ATOM      2  C   UNL     1      61.008  28.647  12.955  1.00  0.00     0.000 C 
BRANCH   2   3
ATOM      3  C   UNL     1      61.136  29.863  13.891  1.00  0.00     0.000 C 
BRANCH   3   4
ATOM      4  C   UNL     1      60.340  31.078  13.384  1.00  0.00     0.000 C 
BRANCH   4   5
ATOM      5  C   UNL     1      61.240  32.275  13.027  1.00  0.00     0.000 C 
BRANCH   5   6
ATOM      6  C   UNL     1      60.910  33.578  13.776  1.00  0.00     0.000 C 
BRANCH   6   7
ATOM      7  C   UNL     1      61.865  33.852  14.947  1.00  0.00     0.000 C 
BRANCH   7   8
ATOM      8  C   UNL     1      61.134  34.549  16.103  1.00  0.00     0.000 C 
BRANCH   8   9
ATOM      9  C   UNL     1      61.753  34.230  17.473  1.00  0.00     0.000 C 
BRANCH   9  10
ATOM     10  C   UNL     1      63.272  33.997  17.398  1.00  0.00     0.000 C 
BRANCH  10  11
ATOM     11  C   UNL     1      64.072  35.310  17.381  1.00  0.00     0.000 C 
BRANCH  11  12
ATOM     12  C   UNL     1      65.103  35.388  18.522  1.00  0.00     0.000 C 
BRANCH  12  13
ATOM     13  C   UNL     1      65.335  34.030  19.202  1.00  0.00     0.006 C 
BRANCH  13  14
ATOM     14  C   UNL     1      65.398  34.138  20.731  1.00  0.00     0.053 C 
BRANCH  14  15
ATOM     15  C   UNL     1      64.081  33.768  21.338  1.00  0.00     0.041 C 
ATOM     16  O   UNL     1      63.029  33.811  20.646  1.00  0.00    -0.550 OA
ATOM     17  O   UNL     1      64.018  33.350  22.662  1.00  0.00    -0.550 OA
ENDBRANCH  14  15
ENDBRANCH  13  14
ENDBRANCH  12  13
ENDBRANCH  11  12
ENDBRANCH  10  11
ENDBRANCH   9  10
ENDBRANCH   8   9
ENDBRANCH   7   8
ENDBRANCH   6   7
ENDBRANCH   5   6
ENDBRANCH   4   5
ENDBRANCH   3   4
ENDBRANCH   2   3
ENDBRANCH   1   2
BRANCH   1  18
ATOM     18  C   UNL     1      59.764  28.587  10.711  1.00  0.00     0.000 C 
BRANCH  18  19
ATOM     19  C   UNL     1      60.510  29.793  10.112  1.00  0.00     0.000 C 
BRANCH  19  20
ATOM     20  C   UNL     1      61.544  29.388   9.048  1.00  0.00     0.000 C 
BRANCH  20  21
ATOM     21  C   UNL     1      62.776  28.686   9.647  1.00  0.00     0.000 C 
BRANCH  21  22
ATOM     22  C   UNL     1      64.139  29.340   9.328  1.00  0.00     0.000 C 
BRANCH  22  23
ATOM     23  C   UNL     1      64.456  30.644  10.092  1.00  0.00     0.000 C 
BRANCH  23  24
ATOM     24  C   UNL     1      63.899  30.695  11.533  1.00  0.00    -0.000 C 
BRANCH  24  25
ATOM     25  C   UNL     1      64.886  30.189  12.601  1.00  0.00    -0.000 C 
BRANCH  25  26
ATOM     26  C   UNL     1      64.329  30.155  14.037  1.00  0.00    -0.000 C 
BRANCH  26  27
ATOM     27  C   UNL     1      64.541  31.446  14.852  1.00  0.00    -0.000 C 
BRANCH  27  28
ATOM     28  C   UNL     1      65.991  31.967  14.884  1.00  0.00    -0.000 C 
BRANCH  28  29
ATOM     29  C   UNL     1      66.103  33.496  15.075  1.00  0.00    -0.000 C 
BRANCH  29  30
ATOM     30  C   UNL     1      65.384  34.278  13.962  1.00  0.00    -0.000 C 
BRANCH  30  31
ATOM     31  C   UNL     1      65.836  33.852  12.555  1.00  0.00    -0.003 C 
ATOM     32  C   UNL     1      66.506  34.989  11.780  1.00  0.00     0.004 C 
ENDBRANCH  30  31
ENDBRANCH  29  30
ENDBRANCH  28  29
ENDBRANCH  27  28
ENDBRANCH  26  27
ENDBRANCH  25  26
ENDBRANCH  24  25
ENDBRANCH  23  24
ENDBRANCH  22  23
ENDBRANCH  21  22
ENDBRANCH  20  21
ENDBRANCH  19  20
ENDBRANCH  18  19
ENDBRANCH   1  18
TORSDOF 28
ENDMDL
MODEL 3
REMARK VINA RESULT:    -4.381      6.827     12.332
REMARK INTER + INTRA:         -16.002
REMARK INTER:                 -12.904
REMARK INTRA:                  -3.097
REMARK UNBOUND:                -4.451
REMARK SMILES CCCCCCCCCCCCCCCCCCCCCCCCCCCCCC(=O)[O-]
REMARK SMILES IDX 16 1 17 2 18 3 19 4 20 5 21 6 22 7 23 8 24 9 25 10 26 11
REMARK SMILES IDX 27 12 28 13 29 14 30 15 31 16 32 17 15 18 14 19 13 20 12 21
REMARK SMILES IDX 11 22 10 23 9 24 8 25 7 26 6 27 5 28 4 29 3 30 2 31 1 32
REMARK H PARENT
REMARK Flexibility Score: inf
ROOT
ATOM      1  C   UNL     1      65.925  29.673  24.747  1.00  0.00     0.000 C 
ENDROOT
BRANCH   1   2
ATOM      2  C   UNL     1      64.812  29.749  23.688  1.00  0.00     0.000 C 
BRANCH   2   3
ATOM      3  C   UNL     1      64.105  31.116  23.674  1.00  0.00     0.000 C 
BRANCH   3   4
ATOM      4  C   UNL     1      64.802  32.128  22.748  1.00  0.00     0.000 C 
BRANCH   4   5
ATOM      5  C   UNL     1      63.890  33.303  22.351  1.00  0.00     0.000 C 
BRANCH   5   6
ATOM      6  C   UNL     1      64.322  34.056  21.082  1.00  0.00     0.000 C 
BRANCH   6   7
ATOM      7  C   UNL     1      63.295  33.949  19.945  1.00  0.00     0.000 C 
BRANCH   7   8
ATOM      8  C   UNL     1      63.991  33.845  18.581  1.00  0.00     0.000 C 
BRANCH   8   9
ATOM      9  C   UNL     1      63.065  33.292  17.485  1.00  0.00     0.000 C 
BRANCH   9  10
ATOM     10  C   UNL     1      62.951  34.235  16.275  1.00  0.00     0.000 C 
BRANCH  10  11
ATOM     11  C   UNL     1      62.756  33.477  14.951  1.00  0.00     0.000 C 
BRANCH  11  12
ATOM     12  C   UNL     1      61.289  33.470  14.486  1.00  0.00     0.000 C 
BRANCH  12  13
ATOM     13  C   UNL     1      61.123  32.912  13.064  1.00  0.00     0.006 C 
BRANCH  13  14
ATOM     14  C   UNL     1      60.115  31.757  12.996  1.00  0.00     0.053 C 
BRANCH  14  15
ATOM     15  C   UNL     1      60.823  30.453  12.797  1.00  0.00     0.041 C 
ATOM     16  O   UNL     1      60.169  29.409  12.536  1.00  0.00    -0.550 OA
ATOM     17  O   UNL     1      62.210  30.398  12.873  1.00  0.00    -0.550 OA
ENDBRANCH  14  15
ENDBRANCH  13  14
ENDBRANCH  12  13
ENDBRANCH  11  12
ENDBRANCH  10  11
ENDBRANCH   9  10
ENDBRANCH   8   9
ENDBRANCH   7   8
ENDBRANCH   6   7
ENDBRANCH   5   6
ENDBRANCH   4   5
ENDBRANCH   3   4
ENDBRANCH   2   3
ENDBRANCH   1   2
BRANCH   1  18
ATOM     18  C   UNL     1      65.414  29.205  26.122  1.00  0.00     0.000 C 
BRANCH  18  19
ATOM     19  C   UNL     1      65.775  30.125  27.302  1.00  0.00     0.000 C 
BRANCH  19  20
ATOM     20  C   UNL     1      64.662  30.206  28.360  1.00  0.00     0.000 C 
BRANCH  20  21
ATOM     21  C   UNL     1      63.262  30.377  27.744  1.00  0.00     0.000 C 
BRANCH  21  22
ATOM     22  C   UNL     1      62.101  29.727  28.530  1.00  0.00     0.000 C 
BRANCH  22  23
ATOM     23  C   UNL     1      62.310  28.254  28.943  1.00  0.00     0.000 C 
BRANCH  23  24
ATOM     24  C   UNL     1      62.134  27.233  27.797  1.00  0.00    -0.000 C 
BRANCH  24  25
ATOM     25  C   UNL     1      60.760  27.302  27.107  1.00  0.00    -0.000 C 
BRANCH  25  26
ATOM     26  C   UNL     1      60.800  27.227  25.568  1.00  0.00    -0.000 C 
BRANCH  26  27
ATOM     27  C   UNL     1      62.168  27.539  24.933  1.00  0.00    -0.000 C 
BRANCH  27  28
ATOM     28  C   UNL     1      62.893  26.328  24.315  1.00  0.00    -0.000 C 
BRANCH  28  29
ATOM     29  C   UNL     1      64.224  25.971  25.014  1.00  0.00    -0.000 C 
BRANCH  29  30
ATOM     30  C   UNL     1      65.410  25.942  24.034  1.00  0.00    -0.000 C 
BRANCH  30  31
ATOM     31  C   UNL     1      64.987  26.242  22.586  1.00  0.00    -0.003 C 
ATOM     32  C   UNL     1      66.176  26.319  21.626  1.00  0.00     0.004 C 
ENDBRANCH  30  31
ENDBRANCH  29  30
ENDBRANCH  28  29
ENDBRANCH  27  28
ENDBRANCH  26  27
ENDBRANCH  25  26
ENDBRANCH  24  25
ENDBRANCH  23  24
ENDBRANCH  22  23
ENDBRANCH  21  22
ENDBRANCH  20  21
ENDBRANCH  19  20
ENDBRANCH  18  19
ENDBRANCH   1  18
TORSDOF 28
ENDMDL
MODEL 4
REMARK VINA RESULT:    -4.363      2.585      5.816
REMARK INTER + INTRA:         -15.955
REMARK INTER:                 -11.289
REMARK INTRA:                  -4.667
REMARK UNBOUND:                -4.451
REMARK SMILES CCCCCCCCCCCCCCCCCCCCCCCCCCCCCC(=O)[O-]
REMARK SMILES IDX 16 1 17 2 18 3 19 4 20 5 21 6 22 7 23 8 24 9 25 10 26 11
REMARK SMILES IDX 27 12 28 13 29 14 30 15 31 16 32 17 15 18 14 19 13 20 12 21
REMARK SMILES IDX 11 22 10 23 9 24 8 25 7 26 6 27 5 28 4 29 3 30 2 31 1 32
REMARK H PARENT
REMARK Flexibility Score: inf
ROOT
ATOM      1  C   UNL     1      60.372  28.890  11.274  1.00  0.00     0.000 C 
ENDROOT
BRANCH   1   2
ATOM      2  C   UNL     1      60.149  29.746  10.015  1.00  0.00     0.000 C 
BRANCH   2   3
ATOM      3  C   UNL     1      61.357  29.717   9.062  1.00  0.00     0.000 C 
BRANCH   3   4
ATOM      4  C   UNL     1      62.408  28.674   9.479  1.00  0.00     0.000 C 
BRANCH   4   5
ATOM      5  C   UNL     1      63.688  29.311  10.049  1.00  0.00     0.000 C 
BRANCH   5   6
ATOM      6  C   UNL     1      64.073  30.662   9.421  1.00  0.00     0.000 C 
BRANCH   6   7
ATOM      7  C   UNL     1      65.407  31.208   9.951  1.00  0.00     0.000 C 
BRANCH   7   8
ATOM      8  C   UNL     1      65.175  32.293  11.012  1.00  0.00     0.000 C 
BRANCH   8   9
ATOM      9  C   UNL     1      66.244  33.398  10.971  1.00  0.00     0.000 C 
BRANCH   9  10
ATOM     10  C   UNL     1      66.080  34.423  12.107  1.00  0.00     0.000 C 
BRANCH  10  11
ATOM     11  C   UNL     1      65.547  33.790  13.402  1.00  0.00     0.000 C 
BRANCH  11  12
ATOM     12  C   UNL     1      66.643  33.617  14.469  1.00  0.00     0.000 C 
BRANCH  12  13
ATOM     13  C   UNL     1      66.584  32.245  15.160  1.00  0.00     0.006 C 
BRANCH  13  14
ATOM     14  C   UNL     1      65.210  31.574  15.023  1.00  0.00     0.053 C 
BRANCH  14  15
ATOM     15  C   UNL     1      65.354  30.196  14.456  1.00  0.00     0.041 C 
ATOM     16  O   UNL     1      66.203  29.399  14.934  1.00  0.00    -0.550 OA
ATOM     17  O   UNL     1      64.530  29.785  13.414  1.00  0.00    -0.550 OA
ENDBRANCH  14  15
ENDBRANCH  13  14
ENDBRANCH  12  13
ENDBRANCH  11  12
ENDBRANCH  10  11
ENDBRANCH   9  10
ENDBRANCH   8   9
ENDBRANCH   7   8
ENDBRANCH   6   7
ENDBRANCH   5   6
ENDBRANCH   4   5
ENDBRANCH   3   4
ENDBRANCH   2   3
ENDBRANCH   1   2
BRANCH   1  18
ATOM     18  C   UNL     1      60.583  29.735  12.545  1.00  0.00     0.000 C 
BRANCH  18  19
ATOM     19  C   UNL     1      60.550  31.259  12.330  1.00  0.00     0.000 C 
BRANCH  19  20
ATOM     20  C   UNL     1      61.880  31.943  12.685  1.00  0.00     0.000 C 
BRANCH  20  21
ATOM     21  C   UNL     1      61.817  32.724  14.010  1.00  0.00     0.000 C 
BRANCH  21  22
ATOM     22  C   UNL     1      61.577  31.873  15.278  1.00  0.00     0.000 C 
BRANCH  22  23
ATOM     23  C   UNL     1      61.511  32.652  16.608  1.00  0.00     0.000 C 
BRANCH  23  24
ATOM     24  C   UNL     1      61.529  34.190  16.455  1.00  0.00    -0.000 C 
BRANCH  24  25
ATOM     25  C   UNL     1      62.601  34.889  17.311  1.00  0.00    -0.000 C 
BRANCH  25  26
ATOM     26  C   UNL     1      64.056  34.523  16.957  1.00  0.00    -0.000 C 
BRANCH  26  27
ATOM     27  C   UNL     1      65.079  35.662  17.134  1.00  0.00    -0.000 C 
BRANCH  27  28
ATOM     28  C   UNL     1      66.316  35.304  17.979  1.00  0.00    -0.000 C 
BRANCH  28  29
ATOM     29  C   UNL     1      66.105  34.096  18.919  1.00  0.00    -0.000 C 
BRANCH  29  30
ATOM     30  C   UNL     1      66.359  34.451  20.394  1.00  0.00    -0.000 C 
BRANCH  30  31
ATOM     31  C   UNL     1      65.228  33.973  21.320  1.00  0.00    -0.003 C 
ATOM     32  C   UNL     1      63.852  34.038  20.653  1.00  0.00     0.004 C 
ENDBRANCH  30  31
ENDBRANCH  29  30
ENDBRANCH  28  29
ENDBRANCH  27  28
ENDBRANCH  26  27
ENDBRANCH  25  26
ENDBRANCH  24  25
ENDBRANCH  23  24
ENDBRANCH  22  23
ENDBRANCH  21  22
ENDBRANCH  20  21
ENDBRANCH  19  20
ENDBRANCH  18  19
ENDBRANCH   1  18
TORSDOF 28
ENDMDL
MODEL 5
REMARK VINA RESULT:    -4.356      0.970      2.240
REMARK INTER + INTRA:         -15.937
REMARK INTER:                 -11.583
REMARK INTRA:                  -4.354
REMARK UNBOUND:                -4.451
REMARK SMILES CCCCCCCCCCCCCCCCCCCCCCCCCCCCCC(=O)[O-]
REMARK SMILES IDX 16 1 17 2 18 3 19 4 20 5 21 6 22 7 23 8 24 9 25 10 26 11
REMARK SMILES IDX 27 12 28 13 29 14 30 15 31 16 32 17 15 18 14 19 13 20 12 21
REMARK SMILES IDX 11 22 10 23 9 24 8 25 7 26 6 27 5 28 4 29 3 30 2 31 1 32
REMARK H PARENT
REMARK Flexibility Score: inf
ROOT
ATOM      1  C   UNL     1      60.431  28.333  12.131  1.00  0.00     0.000 C 
ENDROOT
BRANCH   1   2
ATOM      2  C   UNL     1      61.653  28.514  13.048  1.00  0.00     0.000 C 
BRANCH   2   3
ATOM      3  C   UNL     1      62.150  29.971  13.085  1.00  0.00     0.000 C 
BRANCH   3   4
ATOM      4  C   UNL     1      61.288  30.862  13.996  1.00  0.00     0.000 C 
BRANCH   4   5
ATOM      5  C   UNL     1      60.517  31.943  13.218  1.00  0.00     0.000 C 
BRANCH   5   6
ATOM      6  C   UNL     1      60.966  33.387  13.502  1.00  0.00     0.000 C 
BRANCH   6   7
ATOM      7  C   UNL     1      62.304  33.460  14.252  1.00  0.00     0.000 C 
BRANCH   7   8
ATOM      8  C   UNL     1      62.120  34.073  15.647  1.00  0.00     0.000 C 
BRANCH   8   9
ATOM      9  C   UNL     1      62.556  33.121  16.774  1.00  0.00     0.000 C 
BRANCH   9  10
ATOM     10  C   UNL     1      61.711  33.286  18.049  1.00  0.00     0.000 C 
BRANCH  10  11
ATOM     11  C   UNL     1      62.184  34.458  18.924  1.00  0.00     0.000 C 
BRANCH  11  12
ATOM     12  C   UNL     1      63.632  34.879  18.616  1.00  0.00     0.000 C 
BRANCH  12  13
ATOM     13  C   UNL     1      64.237  35.765  19.716  1.00  0.00     0.006 C 
BRANCH  13  14
ATOM     14  C   UNL     1      65.680  35.375  20.062  1.00  0.00     0.053 C 
BRANCH  14  15
ATOM     15  C   UNL     1      65.705  34.108  20.858  1.00  0.00     0.041 C 
ATOM     16  O   UNL     1      64.818  33.885  21.723  1.00  0.00    -0.550 OA
ATOM     17  O   UNL     1      66.694  33.159  20.625  1.00  0.00    -0.550 OA
ENDBRANCH  14  15
ENDBRANCH  13  14
ENDBRANCH  12  13
ENDBRANCH  11  12
ENDBRANCH  10  11
ENDBRANCH   9  10
ENDBRANCH   8   9
ENDBRANCH   7   8
ENDBRANCH   6   7
ENDBRANCH   5   6
ENDBRANCH   4   5
ENDBRANCH   3   4
ENDBRANCH   2   3
ENDBRANCH   1   2
BRANCH   1  18
ATOM     18  C   UNL     1      60.547  29.121  10.813  1.00  0.00     0.000 C 
BRANCH  18  19
ATOM     19  C   UNL     1      61.264  28.380   9.670  1.00  0.00     0.000 C 
BRANCH  19  20
ATOM     20  C   UNL     1      62.774  28.668   9.624  1.00  0.00     0.000 C 
BRANCH  20  21
ATOM     21  C   UNL     1      63.097  30.173   9.644  1.00  0.00     0.000 C 
BRANCH  21  22
ATOM     22  C   UNL     1      64.509  30.547  10.152  1.00  0.00     0.000 C 
BRANCH  22  23
ATOM     23  C   UNL     1      64.582  31.765  11.097  1.00  0.00     0.000 C 
BRANCH  23  24
ATOM     24  C   UNL     1      65.670  32.799  10.730  1.00  0.00    -0.000 C 
BRANCH  24  25
ATOM     25  C   UNL     1      66.370  33.427  11.949  1.00  0.00    -0.000 C 
BRANCH  25  26
ATOM     26  C   UNL     1      66.264  34.962  12.040  1.00  0.00    -0.000 C 
BRANCH  26  27
ATOM     27  C   UNL     1      66.448  35.547  13.454  1.00  0.00    -0.000 C 
BRANCH  27  28
ATOM     28  C   UNL     1      65.611  34.870  14.556  1.00  0.00    -0.000 C 
BRANCH  28  29
ATOM     29  C   UNL     1      66.404  34.563  15.846  1.00  0.00    -0.000 C 
BRANCH  29  30
ATOM     30  C   UNL     1      66.126  33.148  16.382  1.00  0.00    -0.000 C 
BRANCH  30  31
ATOM     31  C   UNL     1      66.466  32.052  15.358  1.00  0.00    -0.003 C 
ATOM     32  C   UNL     1      65.222  31.361  14.796  1.00  0.00     0.004 C 
ENDBRANCH  30  31
ENDBRANCH  29  30
ENDBRANCH  28  29
ENDBRANCH  27  28
ENDBRANCH  26  27
ENDBRANCH  25  26
ENDBRANCH  24  25
ENDBRANCH  23  24
ENDBRANCH  22  23
ENDBRANCH  21  22
ENDBRANCH  20  21
ENDBRANCH  19  20
ENDBRANCH  18  19
ENDBRANCH   1  18
TORSDOF 28
ENDMDL
MODEL 6
REMARK VINA RESULT:    -4.354      6.326     11.931
REMARK INTER + INTRA:         -15.932
REMARK INTER:                 -12.840
REMARK INTRA:                  -3.093
REMARK UNBOUND:                -4.451
REMARK SMILES CCCCCCCCCCCCCCCCCCCCCCCCCCCCCC(=O)[O-]
REMARK SMILES IDX 16 1 17 2 18 3 19 4 20 5 21 6 22 7 23 8 24 9 25 10 26 11
REMARK SMILES IDX 27 12 28 13 29 14 30 15 31 16 32 17 15 18 14 19 13 20 12 21
REMARK SMILES IDX 11 22 10 23 9 24 8 25 7 26 6 27 5 28 4 29 3 30 2 31 1 32
REMARK H PARENT
REMARK Flexibility Score: inf
ROOT
ATOM      1  C   UNL     1      64.121  31.432  23.531  1.00  0.00     0.000 C 
ENDROOT
BRANCH   1   2
ATOM      2  C   UNL     1      64.834  32.421  22.593  1.00  0.00     0.000 C 
BRANCH   2   3
ATOM      3  C   UNL     1      63.884  33.501  22.044  1.00  0.00     0.000 C 
BRANCH   3   4
ATOM      4  C   UNL     1      64.470  34.230  20.822  1.00  0.00     0.000 C 
BRANCH   4   5
ATOM      5  C   UNL     1      63.709  33.920  19.520  1.00  0.00     0.000 C 
BRANCH   5   6
ATOM      6  C   UNL     1      62.867  35.084  18.970  1.00  0.00     0.000 C 
BRANCH   6   7
ATOM      7  C   UNL     1      61.795  34.626  17.970  1.00  0.00     0.000 C 
BRANCH   7   8
ATOM      8  C   UNL     1      61.810  33.099  17.808  1.00  0.00     0.000 C 
BRANCH   8   9
ATOM      9  C   UNL     1      61.788  32.660  16.334  1.00  0.00     0.000 C 
BRANCH   9  10
ATOM     10  C   UNL     1      61.729  33.850  15.362  1.00  0.00     0.000 C 
BRANCH  10  11
ATOM     11  C   UNL     1      60.987  33.513  14.059  1.00  0.00     0.000 C 
BRANCH  11  12
ATOM     12  C   UNL     1      61.828  32.643  13.108  1.00  0.00     0.000 C 
BRANCH  12  13
ATOM     13  C   UNL     1      61.018  31.498  12.481  1.00  0.00     0.006 C 
BRANCH  13  14
ATOM     14  C   UNL     1      60.652  30.408  13.497  1.00  0.00     0.053 C 
BRANCH  14  15
ATOM     15  C   UNL     1      61.149  29.073  13.036  1.00  0.00     0.041 C 
ATOM     16  O   UNL     1      62.381  28.880  12.864  1.00  0.00    -0.550 OA
ATOM     17  O   UNL     1      60.251  28.034  12.821  1.00  0.00    -0.550 OA
ENDBRANCH  14  15
ENDBRANCH  13  14
ENDBRANCH  12  13
ENDBRANCH  11  12
ENDBRANCH  10  11
ENDBRANCH   9  10
ENDBRANCH   8   9
ENDBRANCH   7   8
ENDBRANCH   6   7
ENDBRANCH   5   6
ENDBRANCH   4   5
ENDBRANCH   3   4
ENDBRANCH   2   3
ENDBRANCH   1   2
BRANCH   1  18
ATOM     18  C   UNL     1      64.773  30.037  23.541  1.00  0.00     0.000 C 
BRANCH  18  19
ATOM     19  C   UNL     1      66.279  30.022  23.860  1.00  0.00     0.000 C 
BRANCH  19  20
ATOM     20  C   UNL     1      66.600  29.335  25.198  1.00  0.00     0.000 C 
BRANCH  20  21
ATOM     21  C   UNL     1      66.330  30.239  26.414  1.00  0.00     0.000 C 
BRANCH  21  22
ATOM     22  C   UNL     1      65.167  29.796  27.331  1.00  0.00     0.000 C 
BRANCH  22  23
ATOM     23  C   UNL     1      63.832  30.546  27.134  1.00  0.00     0.000 C 
BRANCH  23  24
ATOM     24  C   UNL     1      62.762  30.247  28.207  1.00  0.00    -0.000 C 
BRANCH  24  25
ATOM     25  C   UNL     1      62.532  28.745  28.456  1.00  0.00    -0.000 C 
BRANCH  25  26
ATOM     26  C   UNL     1      61.082  28.265  28.244  1.00  0.00    -0.000 C 
BRANCH  26  27
ATOM     27  C   UNL     1      60.896  27.217  27.130  1.00  0.00    -0.000 C 
BRANCH  27  28
ATOM     28  C   UNL     1      61.145  27.733  25.699  1.00  0.00    -0.000 C 
BRANCH  28  29
ATOM     29  C   UNL     1      62.193  26.916  24.912  1.00  0.00    -0.000 C 
BRANCH  29  30
ATOM     30  C   UNL     1      63.633  27.229  25.356  1.00  0.00    -0.000 C 
BRANCH  30  31
ATOM     31  C   UNL     1      64.608  26.080  25.048  1.00  0.00    -0.003 C 
ATOM     32  C   UNL     1      65.170  26.148  23.627  1.00  0.00     0.004 C 
ENDBRANCH  30  31
ENDBRANCH  29  30
ENDBRANCH  28  29
ENDBRANCH  27  28
ENDBRANCH  26  27
ENDBRANCH  25  26
ENDBRANCH  24  25
ENDBRANCH  23  24
ENDBRANCH  22  23
ENDBRANCH  21  22
ENDBRANCH  20  21
ENDBRANCH  19  20
ENDBRANCH  18  19
ENDBRANCH   1  18
TORSDOF 28
ENDMDL
MODEL 7
REMARK VINA RESULT:    -4.287      6.322     10.693
REMARK INTER + INTRA:         -15.756
REMARK INTER:                 -12.490
REMARK INTRA:                  -3.266
REMARK UNBOUND:                -4.451
REMARK SMILES CCCCCCCCCCCCCCCCCCCCCCCCCCCCCC(=O)[O-]
REMARK SMILES IDX 16 1 17 2 18 3 19 4 20 5 21 6 22 7 23 8 24 9 25 10 26 11
REMARK SMILES IDX 27 12 28 13 29 14 30 15 31 16 32 17 15 18 14 19 13 20 12 21
REMARK SMILES IDX 11 22 10 23 9 24 8 25 7 26 6 27 5 28 4 29 3 30 2 31 1 32
REMARK H PARENT
REMARK Flexibility Score: inf
ROOT
ATOM      1  C   UNL     1      62.228  29.737  24.649  1.00  0.00     0.000 C 
ENDROOT
BRANCH   1   2
ATOM      2  C   UNL     1      61.965  28.223  24.560  1.00  0.00     0.000 C 
BRANCH   2   3
ATOM      3  C   UNL     1      60.530  27.849  24.972  1.00  0.00     0.000 C 
BRANCH   3   4
ATOM      4  C   UNL     1      60.494  26.935  26.209  1.00  0.00     0.000 C 
BRANCH   4   5
ATOM      5  C   UNL     1      61.823  26.930  26.986  1.00  0.00     0.000 C 
BRANCH   5   6
ATOM      6  C   UNL     1      61.679  27.055  28.513  1.00  0.00     0.000 C 
BRANCH   6   7
ATOM      7  C   UNL     1      62.461  28.244  29.091  1.00  0.00     0.000 C 
BRANCH   7   8
ATOM      8  C   UNL     1      61.987  29.567  28.473  1.00  0.00     0.000 C 
BRANCH   8   9
ATOM      9  C   UNL     1      63.154  30.457  28.014  1.00  0.00     0.000 C 
BRANCH   9  10
ATOM     10  C   UNL     1      64.464  29.671  27.834  1.00  0.00     0.000 C 
BRANCH  10  11
ATOM     11  C   UNL     1      65.570  30.508  27.172  1.00  0.00     0.000 C 
BRANCH  11  12
ATOM     12  C   UNL     1      66.352  29.718  26.107  1.00  0.00     0.000 C 
BRANCH  12  13
ATOM     13  C   UNL     1      65.585  28.485  25.604  1.00  0.00     0.006 C 
BRANCH  13  14
ATOM     14  C   UNL     1      66.038  28.036  24.209  1.00  0.00     0.053 C 
BRANCH  14  15
ATOM     15  C   UNL     1      65.369  26.752  23.828  1.00  0.00     0.041 C 
ATOM     16  O   UNL     1      65.352  26.378  22.626  1.00  0.00    -0.550 OA
ATOM     17  O   UNL     1      64.787  25.955  24.807  1.00  0.00    -0.550 OA
ENDBRANCH  14  15
ENDBRANCH  13  14
ENDBRANCH  12  13
ENDBRANCH  11  12
ENDBRANCH  10  11
ENDBRANCH   9  10
ENDBRANCH   8   9
ENDBRANCH   7   8
ENDBRANCH   6   7
ENDBRANCH   5   6
ENDBRANCH   4   5
ENDBRANCH   3   4
ENDBRANCH   2   3
ENDBRANCH   1   2
BRANCH   1  18
ATOM     18  C   UNL     1      63.349  30.207  23.703  1.00  0.00     0.000 C 
BRANCH  18  19
ATOM     19  C   UNL     1      63.788  31.672  23.888  1.00  0.00     0.000 C 
BRANCH  19  20
ATOM     20  C   UNL     1      64.545  32.227  22.671  1.00  0.00     0.000 C 
BRANCH  20  21
ATOM     21  C   UNL     1      63.902  33.501  22.095  1.00  0.00     0.000 C 
BRANCH  21  22
ATOM     22  C   UNL     1      64.723  34.234  21.009  1.00  0.00     0.000 C 
BRANCH  22  23
ATOM     23  C   UNL     1      63.916  34.788  19.816  1.00  0.00     0.000 C 
BRANCH  23  24
ATOM     24  C   UNL     1      62.705  33.923  19.401  1.00  0.00    -0.000 C 
BRANCH  24  25
ATOM     25  C   UNL     1      61.784  34.596  18.367  1.00  0.00    -0.000 C 
BRANCH  25  26
ATOM     26  C   UNL     1      62.196  34.388  16.896  1.00  0.00    -0.000 C 
BRANCH  26  27
ATOM     27  C   UNL     1      61.027  34.260  15.901  1.00  0.00    -0.000 C 
BRANCH  27  28
ATOM     28  C   UNL     1      61.405  33.696  14.518  1.00  0.00    -0.000 C 
BRANCH  28  29
ATOM     29  C   UNL     1      62.785  33.003  14.480  1.00  0.00    -0.000 C 
BRANCH  29  30
ATOM     30  C   UNL     1      63.172  32.544  13.063  1.00  0.00    -0.000 C 
BRANCH  30  31
ATOM     31  C   UNL     1      64.520  33.124  12.603  1.00  0.00    -0.003 C 
ATOM     32  C   UNL     1      65.574  33.122  13.712  1.00  0.00     0.004 C 
ENDBRANCH  30  31
ENDBRANCH  29  30
ENDBRANCH  28  29
ENDBRANCH  27  28
ENDBRANCH  26  27
ENDBRANCH  25  26
ENDBRANCH  24  25
ENDBRANCH  23  24
ENDBRANCH  22  23
ENDBRANCH  21  22
ENDBRANCH  20  21
ENDBRANCH  19  20
ENDBRANCH  18  19
ENDBRANCH   1  18
TORSDOF 28
ENDMDL
MODEL 8
REMARK VINA RESULT:    -4.282      5.974     10.684
REMARK INTER + INTRA:         -15.742
REMARK INTER:                 -12.899
REMARK INTRA:                  -2.842
REMARK UNBOUND:                -4.451
REMARK SMILES CCCCCCCCCCCCCCCCCCCCCCCCCCCCCC(=O)[O-]
REMARK SMILES IDX 16 1 17 2 18 3 19 4 20 5 21 6 22 7 23 8 24 9 25 10 26 11
REMARK SMILES IDX 27 12 28 13 29 14 30 15 31 16 32 17 15 18 14 19 13 20 12 21
REMARK SMILES IDX 11 22 10 23 9 24 8 25 7 26 6 27 5 28 4 29 3 30 2 31 1 32
REMARK H PARENT
REMARK Flexibility Score: inf
ROOT
ATOM      1  C   UNL     1      64.043  31.379  23.535  1.00  0.00     0.000 C 
ENDROOT
BRANCH   1   2
ATOM      2  C   UNL     1      64.869  30.155  23.968  1.00  0.00     0.000 C 
BRANCH   2   3
ATOM      3  C   UNL     1      64.976  30.030  25.499  1.00  0.00     0.000 C 
BRANCH   3   4
ATOM      4  C   UNL     1      63.661  30.393  26.210  1.00  0.00     0.000 C 
BRANCH   4   5
ATOM      5  C   UNL     1      63.836  30.582  27.729  1.00  0.00     0.000 C 
BRANCH   5   6
ATOM      6  C   UNL     1      62.650  30.099  28.580  1.00  0.00     0.000 C 
BRANCH   6   7
ATOM      7  C   UNL     1      61.662  29.230  27.789  1.00  0.00     0.000 C 
BRANCH   7   8
ATOM      8  C   UNL     1      61.650  27.788  28.317  1.00  0.00     0.000 C 
BRANCH   8   9
ATOM      9  C   UNL     1      61.826  26.747  27.200  1.00  0.00     0.000 C 
BRANCH   9  10
ATOM     10  C   UNL     1      61.457  27.298  25.812  1.00  0.00     0.000 C 
BRANCH  10  11
ATOM     11  C   UNL     1      62.613  27.189  24.805  1.00  0.00     0.000 C 
BRANCH  11  12
ATOM     12  C   UNL     1      63.754  26.287  25.311  1.00  0.00     0.000 C 
BRANCH  12  13
ATOM     13  C   UNL     1      65.039  26.440  24.484  1.00  0.00     0.006 C 
BRANCH  13  14
ATOM     14  C   UNL     1      64.936  25.779  23.103  1.00  0.00     0.053 C 
BRANCH  14  15
ATOM     15  C   UNL     1      66.022  26.276  22.201  1.00  0.00     0.041 C 
ATOM     16  O   UNL     1      66.374  25.599  21.199  1.00  0.00    -0.550 OA
ATOM     17  O   UNL     1      66.628  27.502  22.453  1.00  0.00    -0.550 OA
ENDBRANCH  14  15
ENDBRANCH  13  14
ENDBRANCH  12  13
ENDBRANCH  11  12
ENDBRANCH  10  11
ENDBRANCH   9  10
ENDBRANCH   8   9
ENDBRANCH   7   8
ENDBRANCH   6   7
ENDBRANCH   5   6
ENDBRANCH   4   5
ENDBRANCH   3   4
ENDBRANCH   2   3
ENDBRANCH   1   2
BRANCH   1  18
ATOM     18  C   UNL     1      64.834  32.350  22.638  1.00  0.00     0.000 C 
BRANCH  18  19
ATOM     19  C   UNL     1      64.016  33.519  22.060  1.00  0.00     0.000 C 
BRANCH  19  20
ATOM     20  C   UNL     1      64.770  34.293  20.966  1.00  0.00     0.000 C 
BRANCH  20  21
ATOM     21  C   UNL     1      63.980  34.390  19.648  1.00  0.00     0.000 C 
BRANCH  21  22
ATOM     22  C   UNL     1      62.608  33.677  19.637  1.00  0.00     0.000 C 
BRANCH  22  23
ATOM     23  C   UNL     1      61.552  34.267  18.678  1.00  0.00     0.000 C 
BRANCH  23  24
ATOM     24  C   UNL     1      62.081  34.601  17.266  1.00  0.00    -0.000 C 
BRANCH  24  25
ATOM     25  C   UNL     1      61.530  33.681  16.161  1.00  0.00    -0.000 C 
BRANCH  25  26
ATOM     26  C   UNL     1      62.367  32.415  15.891  1.00  0.00    -0.000 C 
BRANCH  26  27
ATOM     27  C   UNL     1      61.673  31.343  15.029  1.00  0.00    -0.000 C 
BRANCH  27  28
ATOM     28  C   UNL     1      60.452  31.838  14.229  1.00  0.00    -0.000 C 
BRANCH  28  29
ATOM     29  C   UNL     1      60.674  31.861  12.700  1.00  0.00    -0.000 C 
BRANCH  29  30
ATOM     30  C   UNL     1      61.537  30.684  12.216  1.00  0.00    -0.000 C 
BRANCH  30  31
ATOM     31  C   UNL     1      60.707  29.588  11.526  1.00  0.00    -0.003 C 
ATOM     32  C   UNL     1      60.007  28.662  12.523  1.00  0.00     0.004 C 
ENDBRANCH  30  31
ENDBRANCH  29  30
ENDBRANCH  28  29
ENDBRANCH  27  28
ENDBRANCH  26  27
ENDBRANCH  25  26
ENDBRANCH  24  25
ENDBRANCH  23  24
ENDBRANCH  22  23
ENDBRANCH  21  22
ENDBRANCH  20  21
ENDBRANCH  19  20
ENDBRANCH  18  19
ENDBRANCH   1  18
TORSDOF 28
ENDMDL
MODEL 9
REMARK VINA RESULT:    -4.273      6.574     12.077
REMARK INTER + INTRA:         -15.718
REMARK INTER:                 -13.240
REMARK INTRA:                  -2.478
REMARK UNBOUND:                -4.451
REMARK SMILES CCCCCCCCCCCCCCCCCCCCCCCCCCCCCC(=O)[O-]
REMARK SMILES IDX 16 1 17 2 18 3 19 4 20 5 21 6 22 7 23 8 24 9 25 10 26 11
REMARK SMILES IDX 27 12 28 13 29 14 30 15 31 16 32 17 15 18 14 19 13 20 12 21
REMARK SMILES IDX 11 22 10 23 9 24 8 25 7 26 6 27 5 28 4 29 3 30 2 31 1 32
REMARK H PARENT
REMARK Flexibility Score: inf
ROOT
ATOM      1  C   UNL     1      63.839  33.119  22.188  1.00  0.00     0.000 C 
ENDROOT
BRANCH   1   2
ATOM      2  C   UNL     1      64.835  33.899  21.312  1.00  0.00     0.000 C 
BRANCH   2   3
ATOM      3  C   UNL     1      64.137  34.683  20.185  1.00  0.00     0.000 C 
BRANCH   3   4
ATOM      4  C   UNL     1      64.178  33.937  18.841  1.00  0.00     0.000 C 
BRANCH   4   5
ATOM      5  C   UNL     1      62.783  33.501  18.357  1.00  0.00     0.000 C 
BRANCH   5   6
ATOM      6  C   UNL     1      61.789  34.653  18.130  1.00  0.00     0.000 C 
BRANCH   6   7
ATOM      7  C   UNL     1      61.147  34.622  16.735  1.00  0.00     0.000 C 
BRANCH   7   8
ATOM      8  C   UNL     1      62.036  33.869  15.736  1.00  0.00     0.000 C 
BRANCH   8   9
ATOM      9  C   UNL     1      61.301  33.529  14.429  1.00  0.00     0.000 C 
BRANCH   9  10
ATOM     10  C   UNL     1      62.009  32.428  13.620  1.00  0.00     0.000 C 
BRANCH  10  11
ATOM     11  C   UNL     1      61.557  31.015  14.023  1.00  0.00     0.000 C 
BRANCH  11  12
ATOM     12  C   UNL     1      62.007  29.941  13.015  1.00  0.00     0.000 C 
BRANCH  12  13
ATOM     13  C   UNL     1      61.124  28.684  13.058  1.00  0.00     0.006 C 
BRANCH  13  14
ATOM     14  C   UNL     1      59.992  28.722  12.023  1.00  0.00     0.053 C 
BRANCH  14  15
ATOM     15  C   UNL     1      60.530  29.062  10.669  1.00  0.00     0.041 C 
ATOM     16  O   UNL     1      60.411  30.230  10.214  1.00  0.00    -0.550 OA
ATOM     17  O   UNL     1      61.187  28.094   9.918  1.00  0.00    -0.550 OA
ENDBRANCH  14  15
ENDBRANCH  13  14
ENDBRANCH  12  13
ENDBRANCH  11  12
ENDBRANCH  10  11
ENDBRANCH   9  10
ENDBRANCH   8   9
ENDBRANCH   7   8
ENDBRANCH   6   7
ENDBRANCH   5   6
ENDBRANCH   4   5
ENDBRANCH   3   4
ENDBRANCH   2   3
ENDBRANCH   1   2
BRANCH   1  18
ATOM     18  C   UNL     1      64.532  32.255  23.259  1.00  0.00     0.000 C 
BRANCH  18  19
ATOM     19  C   UNL     1      63.865  30.895  23.534  1.00  0.00     0.000 C 
BRANCH  19  20
ATOM     20  C   UNL     1      63.468  30.710  25.008  1.00  0.00     0.000 C 
BRANCH  20  21
ATOM     21  C   UNL     1      64.527  29.945  25.821  1.00  0.00     0.000 C 
BRANCH  21  22
ATOM     22  C   UNL     1      64.322  29.944  27.354  1.00  0.00     0.000 C 
BRANCH  22  23
ATOM     23  C   UNL     1      62.930  30.397  27.846  1.00  0.00     0.000 C 
BRANCH  23  24
ATOM     24  C   UNL     1      62.348  29.548  28.997  1.00  0.00    -0.000 C 
BRANCH  24  25
ATOM     25  C   UNL     1      60.998  28.888  28.664  1.00  0.00    -0.000 C 
BRANCH  25  26
ATOM     26  C   UNL     1      61.024  27.348  28.601  1.00  0.00    -0.000 C 
BRANCH  26  27
ATOM     27  C   UNL     1      61.704  26.755  27.352  1.00  0.00    -0.000 C 
BRANCH  27  28
ATOM     28  C   UNL     1      61.173  27.285  26.006  1.00  0.00    -0.000 C 
BRANCH  28  29
ATOM     29  C   UNL     1      62.173  27.137  24.837  1.00  0.00    -0.000 C 
BRANCH  29  30
ATOM     30  C   UNL     1      63.482  26.454  25.269  1.00  0.00    -0.000 C 
BRANCH  30  31
ATOM     31  C   UNL     1      64.326  25.984  24.072  1.00  0.00    -0.003 C 
ATOM     32  C   UNL     1      65.414  26.988  23.686  1.00  0.00     0.004 C 
ENDBRANCH  30  31
ENDBRANCH  29  30
ENDBRANCH  28  29
ENDBRANCH  27  28
ENDBRANCH  26  27
ENDBRANCH  25  26
ENDBRANCH  24  25
ENDBRANCH  23  24
ENDBRANCH  22  23
ENDBRANCH  21  22
ENDBRANCH  20  21
ENDBRANCH  19  20
ENDBRANCH  18  19
ENDBRANCH   1  18
TORSDOF 28
ENDMDL
