MODEL 1
REMARK VINA RESULT:    -3.961      0.000      0.000
REMARK INTER + INTRA:          -6.268
REMARK INTER:                  -5.814
REMARK INTRA:                  -0.454
REMARK UNBOUND:                -0.454
REMARK SMILES O=C([O-])CCCCCCCC(=O)[O-]
REMARK SMILES IDX 7 1 6 2 5 3 4 4 2 5 1 6 3 7 8 8 9 9 10 10 11 11 12 12 13 13
REMARK H PARENT
REMARK Flexibility Score: inf
ROOT
ATOM      1  C   UNL     1      27.114  57.543  25.562  1.00  0.00     0.000 C 
ENDROOT
BRANCH   1   2
ATOM      2  C   UNL     1      26.465  58.886  25.197  1.00  0.00     0.000 C 
BRANCH   2   3
ATOM      3  C   UNL     1      26.433  59.828  26.407  1.00  0.00     0.006 C 
BRANCH   3   4
ATOM      4  C   UNL     1      25.008  60.310  26.692  1.00  0.00     0.053 C 
BRANCH   4   5
ATOM      5  C   UNL     1      24.985  61.196  27.897  1.00  0.00     0.041 C 
ATOM      6  O   UNL     1      24.514  60.774  28.986  1.00  0.00    -0.550 OA
ATOM      7  O   UNL     1      25.529  62.472  27.831  1.00  0.00    -0.550 OA
ENDBRANCH   4   5
ENDBRANCH   3   4
ENDBRANCH   2   3
ENDBRANCH   1   2
BRANCH   1   8
ATOM      8  C   UNL     1      26.353  56.341  24.981  1.00  0.00     0.000 C 
BRANCH   8   9
ATOM      9  C   UNL     1      24.880  56.664  24.673  1.00  0.00     0.006 C 
BRANCH   9  10
ATOM     10  C   UNL     1      23.931  56.130  25.754  1.00  0.00     0.053 C 
BRANCH  10  11
ATOM     11  C   UNL     1      22.709  55.502  25.157  1.00  0.00     0.041 C 
ATOM     12  O   UNL     1      21.879  54.908  25.894  1.00  0.00    -0.550 OA
ATOM     13  O   UNL     1      22.505  55.543  23.784  1.00  0.00    -0.550 OA
ENDBRANCH  10  11
ENDBRANCH   9  10
ENDBRANCH   8   9
ENDBRANCH   1   8
TORSDOF 8
ENDMDL
MODEL 2
REMARK VINA RESULT:    -3.904     19.152     20.937
REMARK INTER + INTRA:          -6.183
REMARK INTER:                  -5.790
REMARK INTRA:                  -0.394
REMARK UNBOUND:                -0.454
REMARK SMILES O=C([O-])CCCCCCCC(=O)[O-]
REMARK SMILES IDX 7 1 6 2 5 3 4 4 2 5 1 6 3 7 8 8 9 9 10 10 11 11 12 12 13 13
REMARK H PARENT
REMARK Flexibility Score: inf
ROOT
ATOM      1  C   UNL     1       8.950  57.672  41.970  1.00  0.00     0.000 C 
ENDROOT
BRANCH   1   2
ATOM      2  C   UNL     1       9.471  56.294  42.406  1.00  0.00     0.000 C 
BRANCH   2   3
ATOM      3  C   UNL     1      11.002  56.286  42.485  1.00  0.00     0.006 C 
BRANCH   3   4
ATOM      4  C   UNL     1      11.609  55.466  41.342  1.00  0.00     0.053 C 
BRANCH   4   5
ATOM      5  C   UNL     1      13.079  55.721  41.237  1.00  0.00     0.041 C 
ATOM      6  O   UNL     1      13.884  54.756  41.150  1.00  0.00    -0.550 OA
ATOM      7  O   UNL     1      13.557  57.024  41.187  1.00  0.00    -0.550 OA
ENDBRANCH   4   5
ENDBRANCH   3   4
ENDBRANCH   2   3
ENDBRANCH   1   2
BRANCH   1   8
ATOM      8  C   UNL     1       9.948  58.802  42.264  1.00  0.00     0.000 C 
BRANCH   8   9
ATOM      9  C   UNL     1       9.749  60.021  41.346  1.00  0.00     0.006 C 
BRANCH   9  10
ATOM     10  C   UNL     1      11.015  60.883  41.245  1.00  0.00     0.053 C 
BRANCH  10  11
ATOM     11  C   UNL     1      11.643  60.788  39.888  1.00  0.00     0.041 C 
ATOM     12  O   UNL     1      12.504  59.901  39.649  1.00  0.00    -0.550 OA
ATOM     13  O   UNL     1      11.303  61.701  38.898  1.00  0.00    -0.550 OA
ENDBRANCH  10  11
ENDBRANCH   9  10
ENDBRANCH   8   9
ENDBRANCH   1   8
TORSDOF 8
ENDMDL
MODEL 3
REMARK VINA RESULT:    -3.902      0.801      5.300
REMARK INTER + INTRA:          -6.181
REMARK INTER:                  -5.705
REMARK INTRA:                  -0.476
REMARK UNBOUND:                -0.454
REMARK SMILES O=C([O-])CCCCCCCC(=O)[O-]
REMARK SMILES IDX 7 1 6 2 5 3 4 4 2 5 1 6 3 7 8 8 9 9 10 10 11 11 12 12 13 13
REMARK H PARENT
REMARK Flexibility Score: inf
ROOT
ATOM      1  C   UNL     1      27.128  57.468  25.590  1.00  0.00     0.000 C 
ENDROOT
BRANCH   1   2
ATOM      2  C   UNL     1      26.302  56.289  25.056  1.00  0.00     0.000 C 
BRANCH   2   3
ATOM      3  C   UNL     1      24.855  56.714  24.776  1.00  0.00     0.006 C 
BRANCH   3   4
ATOM      4  C   UNL     1      23.896  56.117  25.810  1.00  0.00     0.053 C 
BRANCH   4   5
ATOM      5  C   UNL     1      22.697  55.530  25.135  1.00  0.00     0.041 C 
ATOM      6  O   UNL     1      21.807  54.953  25.814  1.00  0.00    -0.550 OA
ATOM      7  O   UNL     1      22.537  55.663  23.762  1.00  0.00    -0.550 OA
ENDBRANCH   4   5
ENDBRANCH   3   4
ENDBRANCH   2   3
ENDBRANCH   1   2
BRANCH   1   8
ATOM      8  C   UNL     1      26.489  58.830  25.274  1.00  0.00     0.000 C 
BRANCH   8   9
ATOM      9  C   UNL     1      26.635  59.835  26.430  1.00  0.00     0.006 C 
BRANCH   9  10
ATOM     10  C   UNL     1      25.475  60.839  26.475  1.00  0.00     0.053 C 
BRANCH  10  11
ATOM     11  C   UNL     1      24.407  60.411  27.434  1.00  0.00     0.041 C 
ATOM     12  O   UNL     1      24.477  60.739  28.647  1.00  0.00    -0.550 OA
ATOM     13  O   UNL     1      23.353  59.621  26.995  1.00  0.00    -0.550 OA
ENDBRANCH  10  11
ENDBRANCH   9  10
ENDBRANCH   8   9
ENDBRANCH   1   8
TORSDOF 8
ENDMDL
MODEL 4
REMARK VINA RESULT:    -3.889      2.640      3.895
REMARK INTER + INTRA:          -6.162
REMARK INTER:                  -5.397
REMARK INTRA:                  -0.765
REMARK UNBOUND:                -0.454
REMARK SMILES O=C([O-])CCCCCCCC(=O)[O-]
REMARK SMILES IDX 7 1 6 2 5 3 4 4 2 5 1 6 3 7 8 8 9 9 10 10 11 11 12 12 13 13
REMARK H PARENT
REMARK Flexibility Score: inf
ROOT
ATOM      1  C   UNL     1      25.133  60.248  26.877  1.00  0.00     0.000 C 
ENDROOT
BRANCH   1   2
ATOM      2  C   UNL     1      26.561  60.074  26.339  1.00  0.00     0.000 C 
BRANCH   2   3
ATOM      3  C   UNL     1      26.594  59.064  25.185  1.00  0.00     0.006 C 
BRANCH   3   4
ATOM      4  C   UNL     1      27.212  57.737  25.633  1.00  0.00     0.053 C 
BRANCH   4   5
ATOM      5  C   UNL     1      26.401  56.585  25.131  1.00  0.00     0.041 C 
ATOM      6  O   UNL     1      26.227  55.568  25.855  1.00  0.00    -0.550 OA
ATOM      7  O   UNL     1      25.795  56.653  23.883  1.00  0.00    -0.550 OA
ENDBRANCH   4   5
ENDBRANCH   3   4
ENDBRANCH   2   3
ENDBRANCH   1   2
BRANCH   1   8
ATOM      8  C   UNL     1      24.063  59.777  25.880  1.00  0.00     0.000 C 
BRANCH   8   9
ATOM      9  C   UNL     1      23.176  58.655  26.449  1.00  0.00     0.006 C 
BRANCH   9  10
ATOM     10  C   UNL     1      22.651  57.719  25.352  1.00  0.00     0.053 C 
BRANCH  10  11
ATOM     11  C   UNL     1      22.781  56.279  25.744  1.00  0.00     0.041 C 
ATOM     12  O   UNL     1      22.886  55.389  24.860  1.00  0.00    -0.550 OA
ATOM     13  O   UNL     1      22.749  55.917  27.085  1.00  0.00    -0.550 OA
ENDBRANCH  10  11
ENDBRANCH   9  10
ENDBRANCH   8   9
ENDBRANCH   1   8
TORSDOF 8
ENDMDL
MODEL 5
REMARK VINA RESULT:    -3.844      1.297      5.212
REMARK INTER + INTRA:          -6.097
REMARK INTER:                  -5.537
REMARK INTRA:                  -0.559
REMARK UNBOUND:                -0.454
REMARK SMILES O=C([O-])CCCCCCCC(=O)[O-]
REMARK SMILES IDX 7 1 6 2 5 3 4 4 2 5 1 6 3 7 8 8 9 9 10 10 11 11 12 12 13 13
REMARK H PARENT
REMARK Flexibility Score: inf
ROOT
ATOM      1  C   UNL     1      27.043  57.866  25.583  1.00  0.00     0.000 C 
ENDROOT
BRANCH   1   2
ATOM      2  C   UNL     1      26.312  56.746  24.828  1.00  0.00     0.000 C 
BRANCH   2   3
ATOM      3  C   UNL     1      24.997  57.257  24.226  1.00  0.00     0.006 C 
BRANCH   3   4
ATOM      4  C   UNL     1      23.818  56.377  24.652  1.00  0.00     0.053 C 
BRANCH   4   5
ATOM      5  C   UNL     1      23.248  56.855  25.949  1.00  0.00     0.041 C 
ATOM      6  O   UNL     1      23.123  58.089  26.169  1.00  0.00    -0.550 OA
ATOM      7  O   UNL     1      22.810  55.939  26.896  1.00  0.00    -0.550 OA
ENDBRANCH   4   5
ENDBRANCH   3   4
ENDBRANCH   2   3
ENDBRANCH   1   2
BRANCH   1   8
ATOM      8  C   UNL     1      26.365  59.235  25.414  1.00  0.00     0.000 C 
BRANCH   8   9
ATOM      9  C   UNL     1      26.553  60.144  26.641  1.00  0.00     0.006 C 
BRANCH   9  10
ATOM     10  C   UNL     1      25.397  61.139  26.807  1.00  0.00     0.053 C 
BRANCH  10  11
ATOM     11  C   UNL     1      24.847  61.123  28.201  1.00  0.00     0.041 C 
ATOM     12  O   UNL     1      23.919  60.330  28.506  1.00  0.00    -0.550 OA
ATOM     13  O   UNL     1      25.336  62.009  29.152  1.00  0.00    -0.550 OA
ENDBRANCH  10  11
ENDBRANCH   9  10
ENDBRANCH   8   9
ENDBRANCH   1   8
TORSDOF 8
ENDMDL
MODEL 6
REMARK VINA RESULT:    -3.842      1.390      2.164
REMARK INTER + INTRA:          -6.094
REMARK INTER:                  -5.584
REMARK INTRA:                  -0.509
REMARK UNBOUND:                -0.454
REMARK SMILES O=C([O-])CCCCCCCC(=O)[O-]
REMARK SMILES IDX 7 1 6 2 5 3 4 4 2 5 1 6 3 7 8 8 9 9 10 10 11 11 12 12 13 13
REMARK H PARENT
REMARK Flexibility Score: inf
ROOT
ATOM      1  C   UNL     1      25.405  56.963  24.126  1.00  0.00     0.000 C 
ENDROOT
BRANCH   1   2
ATOM      2  C   UNL     1      26.196  58.260  24.352  1.00  0.00     0.000 C 
BRANCH   2   3
ATOM      3  C   UNL     1      26.814  58.290  25.754  1.00  0.00     0.006 C 
BRANCH   3   4
ATOM      4  C   UNL     1      26.965  59.728  26.259  1.00  0.00     0.053 C 
BRANCH   4   5
ATOM      5  C   UNL     1      25.655  60.446  26.193  1.00  0.00     0.041 C 
ATOM      6  O   UNL     1      25.517  61.445  25.439  1.00  0.00    -0.550 OA
ATOM      7  O   UNL     1      24.571  59.984  26.928  1.00  0.00    -0.550 OA
ENDBRANCH   4   5
ENDBRANCH   3   4
ENDBRANCH   2   3
ENDBRANCH   1   2
BRANCH   1   8
ATOM      8  C   UNL     1      24.816  56.395  25.427  1.00  0.00     0.000 C 
BRANCH   8   9
ATOM      9  C   UNL     1      23.387  56.896  25.700  1.00  0.00     0.006 C 
BRANCH   9  10
ATOM     10  C   UNL     1      22.492  55.800  26.293  1.00  0.00     0.053 C 
BRANCH  10  11
ATOM     11  C   UNL     1      21.763  55.042  25.226  1.00  0.00     0.041 C 
ATOM     12  O   UNL     1      21.778  55.451  24.036  1.00  0.00    -0.550 OA
ATOM     13  O   UNL     1      21.039  53.903  25.553  1.00  0.00    -0.550 OA
ENDBRANCH  10  11
ENDBRANCH   9  10
ENDBRANCH   8   9
ENDBRANCH   1   8
TORSDOF 8
ENDMDL
MODEL 7
REMARK VINA RESULT:    -3.809      1.110      1.879
REMARK INTER + INTRA:          -6.045
REMARK INTER:                  -5.401
REMARK INTRA:                  -0.644
REMARK UNBOUND:                -0.454
REMARK SMILES O=C([O-])CCCCCCCC(=O)[O-]
REMARK SMILES IDX 7 1 6 2 5 3 4 4 2 5 1 6 3 7 8 8 9 9 10 10 11 11 12 12 13 13
REMARK H PARENT
REMARK Flexibility Score: inf
ROOT
ATOM      1  C   UNL     1      26.454  58.915  25.014  1.00  0.00     0.000 C 
ENDROOT
BRANCH   1   2
ATOM      2  C   UNL     1      25.894  59.795  26.141  1.00  0.00     0.000 C 
BRANCH   2   3
ATOM      3  C   UNL     1      24.380  59.982  25.992  1.00  0.00     0.006 C 
BRANCH   3   4
ATOM      4  C   UNL     1      23.691  60.012  27.360  1.00  0.00     0.053 C 
BRANCH   4   5
ATOM      5  C   UNL     1      24.088  61.238  28.119  1.00  0.00     0.041 C 
ATOM      6  O   UNL     1      23.648  62.367  27.776  1.00  0.00    -0.550 OA
ATOM      7  O   UNL     1      24.907  61.129  29.236  1.00  0.00    -0.550 OA
ENDBRANCH   4   5
ENDBRANCH   3   4
ENDBRANCH   2   3
ENDBRANCH   1   2
BRANCH   1   8
ATOM      8  C   UNL     1      27.056  57.599  25.533  1.00  0.00     0.000 C 
BRANCH   8   9
ATOM      9  C   UNL     1      26.343  56.358  24.968  1.00  0.00     0.006 C 
BRANCH   9  10
ATOM     10  C   UNL     1      25.179  56.730  24.040  1.00  0.00     0.053 C 
BRANCH  10  11
ATOM     11  C   UNL     1      23.860  56.305  24.608  1.00  0.00     0.041 C 
ATOM     12  O   UNL     1      22.984  55.794  23.861  1.00  0.00    -0.550 OA
ATOM     13  O   UNL     1      23.583  56.505  25.954  1.00  0.00    -0.550 OA
ENDBRANCH  10  11
ENDBRANCH   9  10
ENDBRANCH   8   9
ENDBRANCH   1   8
TORSDOF 8
ENDMDL
MODEL 8
REMARK VINA RESULT:    -3.799     14.637     15.875
REMARK INTER + INTRA:          -6.030
REMARK INTER:                  -5.209
REMARK INTRA:                  -0.821
REMARK UNBOUND:                -0.454
REMARK SMILES O=C([O-])CCCCCCCC(=O)[O-]
REMARK SMILES IDX 7 1 6 2 5 3 4 4 2 5 1 6 3 7 8 8 9 9 10 10 11 11 12 12 13 13
REMARK H PARENT
REMARK Flexibility Score: inf
ROOT
ATOM      1  C   UNL     1      20.119  53.459  37.760  1.00  0.00     0.000 C 
ENDROOT
BRANCH   1   2
ATOM      2  C   UNL     1      21.267  53.407  38.780  1.00  0.00     0.000 C 
BRANCH   2   3
ATOM      3  C   UNL     1      22.454  52.607  38.231  1.00  0.00     0.006 C 
BRANCH   3   4
ATOM      4  C   UNL     1      23.090  51.745  39.325  1.00  0.00     0.053 C 
BRANCH   4   5
ATOM      5  C   UNL     1      22.179  50.620  39.702  1.00  0.00     0.041 C 
ATOM      6  O   UNL     1      21.758  50.514  40.884  1.00  0.00    -0.550 OA
ATOM      7  O   UNL     1      21.756  49.715  38.737  1.00  0.00    -0.550 OA
ENDBRANCH   4   5
ENDBRANCH   3   4
ENDBRANCH   2   3
ENDBRANCH   1   2
BRANCH   1   8
ATOM      8  C   UNL     1      19.156  52.269  37.892  1.00  0.00     0.000 C 
BRANCH   8   9
ATOM      9  C   UNL     1      18.795  51.958  39.355  1.00  0.00     0.006 C 
BRANCH   9  10
ATOM     10  C   UNL     1      17.741  50.848  39.468  1.00  0.00     0.053 C 
BRANCH  10  11
ATOM     11  C   UNL     1      18.372  49.493  39.571  1.00  0.00     0.041 C 
ATOM     12  O   UNL     1      18.805  49.079  40.678  1.00  0.00    -0.550 OA
ATOM     13  O   UNL     1      18.513  48.703  38.437  1.00  0.00    -0.550 OA
ENDBRANCH  10  11
ENDBRANCH   9  10
ENDBRANCH   8   9
ENDBRANCH   1   8
TORSDOF 8
ENDMDL
MODEL 9
REMARK VINA RESULT:    -3.720      2.589      4.387
REMARK INTER + INTRA:          -5.914
REMARK INTER:                  -4.954
REMARK INTRA:                  -0.961
REMARK UNBOUND:                -0.454
REMARK SMILES O=C([O-])CCCCCCCC(=O)[O-]
REMARK SMILES IDX 7 1 6 2 5 3 4 4 2 5 1 6 3 7 8 8 9 9 10 10 11 11 12 12 13 13
REMARK H PARENT
REMARK Flexibility Score: inf
ROOT
ATOM      1  C   UNL     1      25.689  60.803  27.415  1.00  0.00     0.000 C 
ENDROOT
BRANCH   1   2
ATOM      2  C   UNL     1      25.708  61.251  25.946  1.00  0.00     0.000 C 
BRANCH   2   3
ATOM      3  C   UNL     1      26.209  60.124  25.034  1.00  0.00     0.006 C 
BRANCH   3   4
ATOM      4  C   UNL     1      26.590  58.885  25.850  1.00  0.00     0.053 C 
BRANCH   4   5
ATOM      5  C   UNL     1      26.346  57.640  25.056  1.00  0.00     0.041 C 
ATOM      6  O   UNL     1      25.684  57.690  23.986  1.00  0.00    -0.550 OA
ATOM      7  O   UNL     1      26.891  56.433  25.473  1.00  0.00    -0.550 OA
ENDBRANCH   4   5
ENDBRANCH   3   4
ENDBRANCH   2   3
ENDBRANCH   1   2
BRANCH   1   8
ATOM      8  C   UNL     1      24.389  61.192  28.136  1.00  0.00     0.000 C 
BRANCH   8   9
ATOM      9  C   UNL     1      23.130  60.774  27.355  1.00  0.00     0.006 C 
BRANCH   9  10
ATOM     10  C   UNL     1      22.788  59.292  27.559  1.00  0.00     0.053 C 
BRANCH  10  11
ATOM     11  C   UNL     1      22.853  58.527  26.273  1.00  0.00     0.041 C 
ATOM     12  O   UNL     1      22.850  59.137  25.171  1.00  0.00    -0.550 OA
ATOM     13  O   UNL     1      22.881  57.138  26.289  1.00  0.00    -0.550 OA
ENDBRANCH  10  11
ENDBRANCH   9  10
ENDBRANCH   8   9
ENDBRANCH   1   8
TORSDOF 8
ENDMDL
