MODEL 1
REMARK VINA RESULT:    -6.820      0.000      0.000
REMARK INTER + INTRA:          -9.573
REMARK INTER:                  -9.212
REMARK INTRA:                  -0.361
REMARK UNBOUND:                -0.361
REMARK SMILES CC(=O)CCC=C(C)CCC=C(C)C
REMARK SMILES IDX 7 1 6 2 8 3 9 4 10 5 11 6 13 7 12 8 14 9 5 10 4 11 2 12 3 13
REMARK SMILES IDX 1 14
REMARK H PARENT
REMARK Flexibility Score: inf
ROOT
ATOM      1  C   UNL     1      13.496  16.414  30.657  1.00  0.00    -0.077 C 
ATOM      2  C   UNL     1      12.376  16.376  29.898  1.00  0.00    -0.028 C 
ATOM      3  C   UNL     1      13.894  15.266  31.553  1.00  0.00     0.039 C 
ENDROOT
BRANCH   1   4
ATOM      4  C   UNL     1      14.342  17.670  30.662  1.00  0.00     0.034 C 
BRANCH   4   5
ATOM      5  C   UNL     1      15.696  17.441  31.349  1.00  0.00     0.032 C 
BRANCH   5   6
ATOM      6  C   UNL     1      16.515  18.708  31.421  1.00  0.00    -0.028 C 
ATOM      7  C   UNL     1      18.507  20.100  31.782  1.00  0.00     0.039 C 
ATOM      8  C   UNL     1      17.807  18.766  31.812  1.00  0.00    -0.080 C 
ATOM      9  C   UNL     1      18.555  17.543  32.290  1.00  0.00     0.039 C 
ENDBRANCH   5   6
ENDBRANCH   4   5
ENDBRANCH   1   4
BRANCH   2  10
ATOM     10  C   UNL     1      11.458  15.182  29.785  1.00  0.00     0.035 C 
BRANCH  10  11
ATOM     11  C   UNL     1      10.696  15.176  28.454  1.00  0.00     0.079 C 
BRANCH  11  12
ATOM     12  C   UNL     1      10.913  13.896  27.692  1.00  0.00     0.130 C 
ATOM     13  O   UNL     1      10.992  13.921  26.472  1.00  0.00    -0.300 OA
ATOM     14  C   UNL     1      11.015  12.589  28.418  1.00  0.00     0.087 C 
ENDBRANCH  11  12
ENDBRANCH  10  11
ENDBRANCH   2  10
TORSDOF 6
ENDMDL
MODEL 2
REMARK VINA RESULT:    -6.737      2.747      7.406
REMARK INTER + INTRA:          -9.462
REMARK INTER:                  -8.970
REMARK INTRA:                  -0.492
REMARK UNBOUND:                -0.361
REMARK SMILES CC(=O)CCC=C(C)CCC=C(C)C
REMARK SMILES IDX 7 1 6 2 8 3 9 4 10 5 11 6 13 7 12 8 14 9 5 10 4 11 2 12 3 13
REMARK SMILES IDX 1 14
REMARK H PARENT
REMARK Flexibility Score: inf
ROOT
ATOM      1  C   UNL     1      11.685  16.865  29.871  1.00  0.00    -0.077 C 
ATOM      2  C   UNL     1      12.933  16.506  30.252  1.00  0.00    -0.028 C 
ATOM      3  C   UNL     1      11.233  18.305  29.870  1.00  0.00     0.039 C 
ENDROOT
BRANCH   1   4
ATOM      4  C   UNL     1      10.688  15.788  29.498  1.00  0.00     0.034 C 
BRANCH   4   5
ATOM      5  C   UNL     1      11.383  14.458  29.172  1.00  0.00     0.032 C 
BRANCH   5   6
ATOM      6  C   UNL     1      11.358  14.156  27.693  1.00  0.00    -0.028 C 
ATOM      7  C   UNL     1      10.876  12.880  25.649  1.00  0.00     0.039 C 
ATOM      8  C   UNL     1      10.879  13.014  27.149  1.00  0.00    -0.080 C 
ATOM      9  C   UNL     1      10.369  11.876  28.000  1.00  0.00     0.039 C 
ENDBRANCH   5   6
ENDBRANCH   4   5
ENDBRANCH   1   4
BRANCH   2  10
ATOM     10  C   UNL     1      14.027  17.478  30.627  1.00  0.00     0.035 C 
BRANCH  10  11
ATOM     11  C   UNL     1      15.017  16.860  31.623  1.00  0.00     0.079 C 
BRANCH  11  12
ATOM     12  C   UNL     1      16.294  17.655  31.705  1.00  0.00     0.130 C 
ATOM     13  O   UNL     1      17.313  17.125  32.124  1.00  0.00    -0.300 OA
ATOM     14  C   UNL     1      16.319  19.095  31.294  1.00  0.00     0.087 C 
ENDBRANCH  11  12
ENDBRANCH  10  11
ENDBRANCH   2  10
TORSDOF 6
ENDMDL
MODEL 3
REMARK VINA RESULT:    -6.705      1.136      1.904
REMARK INTER + INTRA:          -9.418
REMARK INTER:                  -9.048
REMARK INTRA:                  -0.371
REMARK UNBOUND:                -0.361
REMARK SMILES CC(=O)CCC=C(C)CCC=C(C)C
REMARK SMILES IDX 7 1 6 2 8 3 9 4 10 5 11 6 13 7 12 8 14 9 5 10 4 11 2 12 3 13
REMARK SMILES IDX 1 14
REMARK H PARENT
REMARK Flexibility Score: inf
ROOT
ATOM      1  C   UNL     1      12.567  16.340  30.312  1.00  0.00    -0.077 C 
ATOM      2  C   UNL     1      12.096  15.150  29.873  1.00  0.00    -0.028 C 
ATOM      3  C   UNL     1      11.934  17.650  29.905  1.00  0.00     0.039 C 
ENDROOT
BRANCH   1   4
ATOM      4  C   UNL     1      13.805  16.369  31.182  1.00  0.00     0.034 C 
BRANCH   4   5
ATOM      5  C   UNL     1      14.773  17.484  30.759  1.00  0.00     0.032 C 
BRANCH   5   6
ATOM      6  C   UNL     1      16.173  17.239  31.268  1.00  0.00    -0.028 C 
ATOM      7  C   UNL     1      18.397  17.810  32.143  1.00  0.00     0.039 C 
ATOM      8  C   UNL     1      17.050  18.212  31.601  1.00  0.00    -0.080 C 
ATOM      9  C   UNL     1      16.724  19.677  31.429  1.00  0.00     0.039 C 
ENDBRANCH   5   6
ENDBRANCH   4   5
ENDBRANCH   1   4
BRANCH   2  10
ATOM     10  C   UNL     1      10.861  14.980  29.019  1.00  0.00     0.035 C 
BRANCH  10  11
ATOM     11  C   UNL     1      11.210  14.480  27.611  1.00  0.00     0.079 C 
BRANCH  11  12
ATOM     12  C   UNL     1      10.955  13.002  27.464  1.00  0.00     0.130 C 
ATOM     13  O   UNL     1      10.779  12.315  28.459  1.00  0.00    -0.300 OA
ATOM     14  C   UNL     1      10.932  12.369  26.107  1.00  0.00     0.087 C 
ENDBRANCH  11  12
ENDBRANCH  10  11
ENDBRANCH   2  10
TORSDOF 6
ENDMDL
MODEL 4
REMARK VINA RESULT:    -6.678      2.680      5.067
REMARK INTER + INTRA:          -9.381
REMARK INTER:                  -8.932
REMARK INTRA:                  -0.449
REMARK UNBOUND:                -0.361
REMARK SMILES CC(=O)CCC=C(C)CCC=C(C)C
REMARK SMILES IDX 7 1 6 2 8 3 9 4 10 5 11 6 13 7 12 8 14 9 5 10 4 11 2 12 3 13
REMARK SMILES IDX 1 14
REMARK H PARENT
REMARK Flexibility Score: inf
ROOT
ATOM      1  C   UNL     1      17.946  18.679  31.815  1.00  0.00    -0.077 C 
ATOM      2  C   UNL     1      16.628  18.568  31.532  1.00  0.00    -0.028 C 
ATOM      3  C   UNL     1      18.722  17.557  32.462  1.00  0.00     0.039 C 
ENDROOT
BRANCH   1   4
ATOM      4  C   UNL     1      18.653  19.988  31.537  1.00  0.00     0.034 C 
BRANCH   4   5
ATOM      5  C   UNL     1      17.753  21.196  31.836  1.00  0.00     0.032 C 
BRANCH   5   6
ATOM      6  C   UNL     1      18.042  21.795  33.191  1.00  0.00    -0.028 C 
ATOM      7  C   UNL     1      18.111  23.524  34.936  1.00  0.00     0.039 C 
ATOM      8  C   UNL     1      17.818  23.086  33.525  1.00  0.00    -0.080 C 
ATOM      9  C   UNL     1      17.302  24.093  32.524  1.00  0.00     0.039 C 
ENDBRANCH   5   6
ENDBRANCH   4   5
ENDBRANCH   1   4
BRANCH   2  10
ATOM     10  C   UNL     1      15.810  17.315  31.739  1.00  0.00     0.035 C 
BRANCH  10  11
ATOM     11  C   UNL     1      14.564  17.297  30.844  1.00  0.00     0.079 C 
BRANCH  11  12
ATOM     12  C   UNL     1      13.775  16.025  31.011  1.00  0.00     0.130 C 
ATOM     13  O   UNL     1      14.147  15.180  31.812  1.00  0.00    -0.300 OA
ATOM     14  C   UNL     1      12.546  15.782  30.188  1.00  0.00     0.087 C 
ENDBRANCH  11  12
ENDBRANCH  10  11
ENDBRANCH   2  10
TORSDOF 6
ENDMDL
MODEL 5
REMARK VINA RESULT:    -6.360      3.880      8.103
REMARK INTER + INTRA:          -8.953
REMARK INTER:                  -8.509
REMARK INTRA:                  -0.444
REMARK UNBOUND:                -0.361
REMARK SMILES CC(=O)CCC=C(C)CCC=C(C)C
REMARK SMILES IDX 7 1 6 2 8 3 9 4 10 5 11 6 13 7 12 8 14 9 5 10 4 11 2 12 3 13
REMARK SMILES IDX 1 14
REMARK H PARENT
REMARK Flexibility Score: inf
ROOT
ATOM      1  C   UNL     1      16.516  17.909  31.558  1.00  0.00    -0.077 C 
ATOM      2  C   UNL     1      16.504  19.256  31.439  1.00  0.00    -0.028 C 
ATOM      3  C   UNL     1      17.796  17.111  31.483  1.00  0.00     0.039 C 
ENDROOT
BRANCH   1   4
ATOM      4  C   UNL     1      15.203  17.168  31.702  1.00  0.00     0.034 C 
BRANCH   4   5
ATOM      5  C   UNL     1      14.183  17.606  30.642  1.00  0.00     0.032 C 
BRANCH   5   6
ATOM      6  C   UNL     1      13.181  16.517  30.338  1.00  0.00    -0.028 C 
ATOM      7  C   UNL     1      11.051  15.541  29.598  1.00  0.00     0.039 C 
ATOM      8  C   UNL     1      11.918  16.734  29.908  1.00  0.00    -0.080 C 
ATOM      9  C   UNL     1      11.355  18.126  29.748  1.00  0.00     0.039 C 
ENDBRANCH   5   6
ENDBRANCH   4   5
ENDBRANCH   1   4
BRANCH   2  10
ATOM     10  C   UNL     1      17.739  20.116  31.311  1.00  0.00     0.035 C 
BRANCH  10  11
ATOM     11  C   UNL     1      18.299  20.512  32.683  1.00  0.00     0.079 C 
BRANCH  11  12
ATOM     12  C   UNL     1      18.022  21.958  33.003  1.00  0.00     0.130 C 
ATOM     13  O   UNL     1      18.272  22.391  34.118  1.00  0.00    -0.300 OA
ATOM     14  C   UNL     1      17.428  22.862  31.968  1.00  0.00     0.087 C 
ENDBRANCH  11  12
ENDBRANCH  10  11
ENDBRANCH   2  10
TORSDOF 6
ENDMDL
MODEL 6
REMARK VINA RESULT:    -6.108      1.576      2.271
REMARK INTER + INTRA:          -8.611
REMARK INTER:                  -8.364
REMARK INTRA:                  -0.247
REMARK UNBOUND:                -0.361
REMARK SMILES CC(=O)CCC=C(C)CCC=C(C)C
REMARK SMILES IDX 7 1 6 2 8 3 9 4 10 5 11 6 13 7 12 8 14 9 5 10 4 11 2 12 3 13
REMARK SMILES IDX 1 14
REMARK H PARENT
REMARK Flexibility Score: inf
ROOT
ATOM      1  C   UNL     1      15.050  16.758  31.100  1.00  0.00    -0.077 C 
ATOM      2  C   UNL     1      14.111  17.421  30.387  1.00  0.00    -0.028 C 
ATOM      3  C   UNL     1      14.684  15.710  32.123  1.00  0.00     0.039 C 
ENDROOT
BRANCH   1   4
ATOM      4  C   UNL     1      16.508  17.121  30.919  1.00  0.00     0.034 C 
BRANCH   4   5
ATOM      5  C   UNL     1      16.966  18.169  31.944  1.00  0.00     0.032 C 
BRANCH   5   6
ATOM      6  C   UNL     1      16.892  19.572  31.391  1.00  0.00    -0.028 C 
ATOM      7  C   UNL     1      17.546  21.919  31.073  1.00  0.00     0.039 C 
ATOM      8  C   UNL     1      17.710  20.585  31.753  1.00  0.00    -0.080 C 
ATOM      9  C   UNL     1      18.762  20.420  32.824  1.00  0.00     0.039 C 
ENDBRANCH   5   6
ENDBRANCH   4   5
ENDBRANCH   1   4
BRANCH   2  10
ATOM     10  C   UNL     1      12.628  17.143  30.456  1.00  0.00     0.035 C 
BRANCH  10  11
ATOM     11  C   UNL     1      12.275  15.791  29.822  1.00  0.00     0.079 C 
BRANCH  11  12
ATOM     12  C   UNL     1      10.903  15.807  29.201  1.00  0.00     0.130 C 
ATOM     13  O   UNL     1      10.110  16.686  29.503  1.00  0.00    -0.300 OA
ATOM     14  C   UNL     1      10.499  14.742  28.228  1.00  0.00     0.087 C 
ENDBRANCH  11  12
ENDBRANCH  10  11
ENDBRANCH   2  10
TORSDOF 6
ENDMDL
MODEL 7
REMARK VINA RESULT:    -6.093      4.500      8.322
REMARK INTER + INTRA:          -8.591
REMARK INTER:                  -8.017
REMARK INTRA:                  -0.574
REMARK UNBOUND:                -0.361
REMARK SMILES CC(=O)CCC=C(C)CCC=C(C)C
REMARK SMILES IDX 7 1 6 2 8 3 9 4 10 5 11 6 13 7 12 8 14 9 5 10 4 11 2 12 3 13
REMARK SMILES IDX 1 14
REMARK H PARENT
REMARK Flexibility Score: inf
ROOT
ATOM      1  C   UNL     1      18.282  19.614  31.990  1.00  0.00    -0.077 C 
ATOM      2  C   UNL     1      17.677  20.591  31.277  1.00  0.00    -0.028 C 
ATOM      3  C   UNL     1      19.124  19.916  33.207  1.00  0.00     0.039 C 
ENDROOT
BRANCH   1   4
ATOM      4  C   UNL     1      18.170  18.179  31.520  1.00  0.00     0.034 C 
BRANCH   4   5
ATOM      5  C   UNL     1      16.942  17.478  32.119  1.00  0.00     0.032 C 
BRANCH   5   6
ATOM      6  C   UNL     1      15.693  17.737  31.310  1.00  0.00    -0.028 C 
ATOM      7  C   UNL     1      13.433  17.325  30.437  1.00  0.00     0.039 C 
ATOM      8  C   UNL     1      14.631  16.904  31.250  1.00  0.00    -0.080 C 
ATOM      9  C   UNL     1      14.620  15.567  31.953  1.00  0.00     0.039 C 
ENDBRANCH   5   6
ENDBRANCH   4   5
ENDBRANCH   1   4
BRANCH   2  10
ATOM     10  C   UNL     1      17.692  22.056  31.646  1.00  0.00     0.035 C 
BRANCH  10  11
ATOM     11  C   UNL     1      16.524  22.418  32.573  1.00  0.00     0.079 C 
BRANCH  11  12
ATOM     12  C   UNL     1      16.920  23.456  33.590  1.00  0.00     0.130 C 
ATOM     13  O   UNL     1      16.290  24.500  33.670  1.00  0.00    -0.300 OA
ATOM     14  C   UNL     1      18.093  23.223  34.493  1.00  0.00     0.087 C 
ENDBRANCH  11  12
ENDBRANCH  10  11
ENDBRANCH   2  10
TORSDOF 6
ENDMDL
MODEL 8
REMARK VINA RESULT:    -5.855      5.722      9.713
REMARK INTER + INTRA:          -8.270
REMARK INTER:                  -7.609
REMARK INTRA:                  -0.661
REMARK UNBOUND:                -0.361
REMARK SMILES CC(=O)CCC=C(C)CCC=C(C)C
REMARK SMILES IDX 7 1 6 2 8 3 9 4 10 5 11 6 13 7 12 8 14 9 5 10 4 11 2 12 3 13
REMARK SMILES IDX 1 14
REMARK H PARENT
REMARK Flexibility Score: inf
ROOT
ATOM      1  C   UNL     1      17.674  22.580  32.726  1.00  0.00    -0.077 C 
ATOM      2  C   UNL     1      17.261  23.125  31.558  1.00  0.00    -0.028 C 
ATOM      3  C   UNL     1      17.590  23.333  34.032  1.00  0.00     0.039 C 
ENDROOT
BRANCH   1   4
ATOM      4  C   UNL     1      18.302  21.203  32.717  1.00  0.00     0.034 C 
BRANCH   4   5
ATOM      5  C   UNL     1      18.125  20.504  31.361  1.00  0.00     0.032 C 
BRANCH   5   6
ATOM      6  C   UNL     1      16.937  19.572  31.357  1.00  0.00    -0.028 C 
ATOM      7  C   UNL     1      15.703  17.474  31.693  1.00  0.00     0.039 C 
ATOM      8  C   UNL     1      16.986  18.265  31.698  1.00  0.00    -0.080 C 
ATOM      9  C   UNL     1      18.282  17.580  32.063  1.00  0.00     0.039 C 
ENDBRANCH   5   6
ENDBRANCH   4   5
ENDBRANCH   1   4
BRANCH   2  10
ATOM     10  C   UNL     1      16.600  24.476  31.430  1.00  0.00     0.035 C 
BRANCH  10  11
ATOM     11  C   UNL     1      17.625  25.585  31.159  1.00  0.00     0.079 C 
BRANCH  11  12
ATOM     12  C   UNL     1      17.594  26.647  32.227  1.00  0.00     0.130 C 
ATOM     13  O   UNL     1      16.602  27.349  32.356  1.00  0.00    -0.300 OA
ATOM     14  C   UNL     1      18.778  26.859  33.120  1.00  0.00     0.087 C 
ENDBRANCH  11  12
ENDBRANCH  10  11
ENDBRANCH   2  10
TORSDOF 6
ENDMDL
MODEL 9
REMARK VINA RESULT:    -5.835      5.574      9.148
REMARK INTER + INTRA:          -8.243
REMARK INTER:                  -7.592
REMARK INTRA:                  -0.652
REMARK UNBOUND:                -0.361
REMARK SMILES CC(=O)CCC=C(C)CCC=C(C)C
REMARK SMILES IDX 7 1 6 2 8 3 9 4 10 5 11 6 13 7 12 8 14 9 5 10 4 11 2 12 3 13
REMARK SMILES IDX 1 14
REMARK H PARENT
REMARK Flexibility Score: inf
ROOT
ATOM      1  C   UNL     1      17.847  22.452  32.850  1.00  0.00    -0.077 C 
ATOM      2  C   UNL     1      17.817  23.063  34.057  1.00  0.00    -0.028 C 
ATOM      3  C   UNL     1      17.304  23.114  31.605  1.00  0.00     0.039 C 
ENDROOT
BRANCH   1   4
ATOM      4  C   UNL     1      18.378  21.038  32.750  1.00  0.00     0.034 C 
BRANCH   4   5
ATOM      5  C   UNL     1      18.116  20.428  31.365  1.00  0.00     0.032 C 
BRANCH   5   6
ATOM      6  C   UNL     1      16.898  19.535  31.362  1.00  0.00    -0.028 C 
ATOM      7  C   UNL     1      15.601  17.471  31.669  1.00  0.00     0.039 C 
ATOM      8  C   UNL     1      16.909  18.219  31.668  1.00  0.00    -0.080 C 
ATOM      9  C   UNL     1      18.188  17.483  31.989  1.00  0.00     0.039 C 
ENDBRANCH   5   6
ENDBRANCH   4   5
ENDBRANCH   1   4
BRANCH   2  10
ATOM     10  C   UNL     1      17.335  24.475  34.291  1.00  0.00     0.035 C 
BRANCH  10  11
ATOM     11  C   UNL     1      15.868  24.506  34.740  1.00  0.00     0.079 C 
BRANCH  11  12
ATOM     12  C   UNL     1      15.012  25.311  33.797  1.00  0.00     0.130 C 
ATOM     13  O   UNL     1      15.117  26.528  33.772  1.00  0.00    -0.300 OA
ATOM     14  C   UNL     1      14.023  24.630  32.902  1.00  0.00     0.087 C 
ENDBRANCH  11  12
ENDBRANCH  10  11
ENDBRANCH   2  10
TORSDOF 6
ENDMDL
