MODEL 1
REMARK VINA RESULT:    -5.122      0.000      0.000
REMARK INTER + INTRA:          -6.553
REMARK INTER:                  -7.218
REMARK INTRA:                   0.665
REMARK UNBOUND:                 0.665
REMARK SMILES CC1=CCC(=C(C)C)C(=O)CC(C)=CCC1
REMARK SMILES IDX 12 1 14 2 13 3 15 4 16 5 2 6 1 7 3 8 11 10 9 11 10 12 5 13
REMARK SMILES IDX 6 14 7 15 8 16 4 17
REMARK H PARENT
REMARK Flexibility Score: 60.00
ROOT
ATOM      1  C   UNL     1      31.191 -13.091  30.528  1.00  0.00    -0.070 C 
ATOM      2  C   UNL     1      31.451 -13.271  29.213  1.00  0.00    -0.027 C 
ATOM      3  C   UNL     1      32.243 -12.419  31.375  1.00  0.00     0.039 C 
ENDROOT
BRANCH   2   4
ATOM      4  C   UNL     1      30.462 -13.786  28.199  1.00  0.00     0.032 C 
BRANCH   4   5
ATOM      5  C   UNL     1      29.606 -12.628  27.671  1.00  0.00     0.034 C 
BRANCH   5   6
ATOM      6  C   UNL     1      28.244 -13.086  27.191  1.00  0.00    -0.077 C 
ATOM      7  C   UNL     1      28.148 -13.801  25.866  1.00  0.00     0.039 C 
ATOM      8  C   UNL     1      27.089 -12.827  27.853  1.00  0.00    -0.023 CG0
ATOM      9  G   UNL     1      26.932 -12.181  29.218  1.00  0.00     0.000 G0
ENDBRANCH   5   6
ENDBRANCH   4   5
ENDBRANCH   2   4
BRANCH   1  10
ATOM     10  C   UNL     1      29.908 -13.547  31.194  1.00  0.00     0.111 C 
BRANCH  10  11
ATOM     11  C   UNL     1      28.778 -12.571  30.968  1.00  0.00     0.163 C 
ATOM     12  O   UNL     1      28.985 -11.369  31.287  1.00  0.00    -0.294 OA
BRANCH  11  13
ATOM     13  C   UNL     1      27.438 -12.960  30.413  1.00  0.00    -0.002 C 
ATOM     14  C   UNL     1      26.792 -14.075  30.874  1.00  0.00    -0.069 C 
ATOM     15  C   UNL     1      27.244 -14.787  32.129  1.00  0.00     0.039 C 
ATOM     16  C   UNL     1      25.564 -14.629  30.189  1.00  0.00     0.039 C 
BRANCH  13  17
ATOM     17  C   UNL     1      26.915 -12.185  29.208  1.00  0.00     0.066 CG0
ATOM     18  G   UNL     1      27.086 -12.847  27.853  1.00  0.00     0.000 G0
ENDBRANCH  13  17
ENDBRANCH  11  13
ENDBRANCH  10  11
ENDBRANCH   1  10
TORSDOF 0
ENDMDL
MODEL 2
REMARK VINA RESULT:    -5.121      2.037      3.865
REMARK INTER + INTRA:          -6.551
REMARK INTER:                  -7.392
REMARK INTRA:                   0.841
REMARK UNBOUND:                 0.665
REMARK SMILES CC1=CCC(=C(C)C)C(=O)CC(C)=CCC1
REMARK SMILES IDX 12 1 14 2 13 3 15 4 16 5 2 6 1 7 3 8 11 10 9 11 10 12 5 13
REMARK SMILES IDX 6 14 7 15 8 16 4 17
REMARK H PARENT
REMARK Flexibility Score: 60.00
ROOT
ATOM      1  C   UNL     1      28.349 -10.926  27.931  1.00  0.00    -0.070 C 
ATOM      2  C   UNL     1      29.196 -10.262  28.751  1.00  0.00    -0.027 C 
ATOM      3  C   UNL     1      28.753 -11.107  26.489  1.00  0.00     0.039 C 
ENDROOT
BRANCH   2   4
ATOM      4  C   UNL     1      29.022 -10.120  30.241  1.00  0.00     0.032 C 
BRANCH   4   5
ATOM      5  C   UNL     1      30.292 -10.589  30.961  1.00  0.00     0.034 C 
BRANCH   5   6
ATOM      6  C   UNL     1      30.561 -12.066  30.756  1.00  0.00    -0.077 C 
ATOM      7  C   UNL     1      31.970 -12.507  30.441  1.00  0.00     0.039 C 
ATOM      8  C   UNL     1      29.592 -13.015  30.765  1.00  0.00    -0.023 CG0
ATOM      9  G   UNL     1      28.125 -12.831  31.109  1.00  0.00     0.000 G0
ENDBRANCH   5   6
ENDBRANCH   4   5
ENDBRANCH   2   4
BRANCH   1  10
ATOM     10  C   UNL     1      27.012 -11.479  28.383  1.00  0.00     0.111 C 
BRANCH  10  11
ATOM     11  C   UNL     1      27.094 -12.948  28.719  1.00  0.00     0.163 C 
ATOM     12  O   UNL     1      27.119 -13.757  27.753  1.00  0.00    -0.294 OA
BRANCH  11  13
ATOM     13  C   UNL     1      27.124 -13.483  30.122  1.00  0.00    -0.002 C 
ATOM     14  C   UNL     1      26.183 -14.383  30.542  1.00  0.00    -0.069 C 
ATOM     15  C   UNL     1      25.269 -15.085  29.563  1.00  0.00     0.039 C 
ATOM     16  C   UNL     1      26.035 -14.767  31.998  1.00  0.00     0.039 C 
BRANCH  13  17
ATOM     17  C   UNL     1      28.112 -12.858  31.101  1.00  0.00     0.066 CG0
ATOM     18  G   UNL     1      29.585 -13.016  30.768  1.00  0.00     0.000 G0
ENDBRANCH  13  17
ENDBRANCH  11  13
ENDBRANCH  10  11
ENDBRANCH   1  10
TORSDOF 0
ENDMDL
MODEL 3
REMARK VINA RESULT:    -5.046      2.116      4.850
REMARK INTER + INTRA:          -6.446
REMARK INTER:                  -6.920
REMARK INTRA:                   0.474
REMARK UNBOUND:                 0.665
REMARK SMILES CC1=CCC(=C(C)C)C(=O)CC(C)=CCC1
REMARK SMILES IDX 12 1 14 2 13 3 15 4 16 5 2 6 1 7 3 8 11 10 9 11 10 12 5 13
REMARK SMILES IDX 6 14 7 15 8 16 4 17
REMARK H PARENT
REMARK Flexibility Score: 60.00
ROOT
ATOM      1  C   UNL     1      26.808 -13.214  28.726  1.00  0.00    -0.070 C 
ATOM      2  C   UNL     1      26.736 -13.860  29.912  1.00  0.00    -0.027 C 
ATOM      3  C   UNL     1      26.624 -14.020  27.465  1.00  0.00     0.039 C 
ENDROOT
BRANCH   2   4
ATOM      4  C   UNL     1      26.748 -13.193  31.264  1.00  0.00     0.032 C 
BRANCH   4   5
ATOM      5  C   UNL     1      28.141 -12.617  31.546  1.00  0.00     0.034 C 
BRANCH   5   6
ATOM      6  C   UNL     1      28.123 -11.110  31.706  1.00  0.00    -0.077 C 
ATOM      7  C   UNL     1      27.116 -10.496  32.647  1.00  0.00     0.039 C 
ATOM      8  C   UNL     1      28.914 -10.270  30.994  1.00  0.00    -0.023 CG0
ATOM      9  G   UNL     1      30.033 -10.644  30.038  1.00  0.00     0.000 G0
ENDBRANCH   5   6
ENDBRANCH   4   5
ENDBRANCH   2   4
BRANCH   1  10
ATOM     10  C   UNL     1      27.082 -11.728  28.603  1.00  0.00     0.111 C 
BRANCH  10  11
ATOM     11  C   UNL     1      28.486 -11.452  28.121  1.00  0.00     0.163 C 
ATOM     12  O   UNL     1      28.616 -11.035  26.938  1.00  0.00    -0.294 OA
BRANCH  11  13
ATOM     13  C   UNL     1      29.714 -11.668  28.959  1.00  0.00    -0.002 C 
ATOM     14  C   UNL     1      30.418 -12.838  28.870  1.00  0.00    -0.069 C 
ATOM     15  C   UNL     1      30.175 -13.824  27.750  1.00  0.00     0.039 C 
ATOM     16  C   UNL     1      31.513 -13.190  29.853  1.00  0.00     0.039 C 
BRANCH  13  17
ATOM     17  C   UNL     1      30.037 -10.630  30.028  1.00  0.00     0.066 CG0
ATOM     18  G   UNL     1      28.913 -10.272  30.984  1.00  0.00     0.000 G0
ENDBRANCH  13  17
ENDBRANCH  11  13
ENDBRANCH  10  11
ENDBRANCH   1  10
TORSDOF 0
ENDMDL
MODEL 4
REMARK VINA RESULT:    -4.973      1.521      3.416
REMARK INTER + INTRA:          -6.343
REMARK INTER:                  -7.166
REMARK INTRA:                   0.823
REMARK UNBOUND:                 0.665
REMARK SMILES CC1=CCC(=C(C)C)C(=O)CC(C)=CCC1
REMARK SMILES IDX 12 1 14 2 13 3 15 4 16 5 2 6 1 7 3 8 11 10 9 11 10 12 5 13
REMARK SMILES IDX 6 14 7 15 8 16 4 17
REMARK H PARENT
REMARK Flexibility Score: 60.00
ROOT
ATOM      1  C   UNL     1      28.153 -12.975  31.066  1.00  0.00    -0.070 C 
ATOM      2  C   UNL     1      29.376 -13.526  31.238  1.00  0.00    -0.027 C 
ATOM      3  C   UNL     1      26.947 -13.872  31.184  1.00  0.00     0.039 C 
ENDROOT
BRANCH   2   4
ATOM      4  C   UNL     1      30.671 -12.757  31.301  1.00  0.00     0.032 C 
BRANCH   4   5
ATOM      5  C   UNL     1      30.875 -11.974  29.998  1.00  0.00     0.034 C 
BRANCH   5   6
ATOM      6  C   UNL     1      30.948 -12.879  28.785  1.00  0.00    -0.077 C 
ATOM      7  C   UNL     1      31.993 -13.967  28.756  1.00  0.00     0.039 C 
ATOM      8  C   UNL     1      30.172 -12.721  27.683  1.00  0.00    -0.023 CG0
ATOM      9  G   UNL     1      29.024 -11.746  27.495  1.00  0.00     0.000 G0
ENDBRANCH   5   6
ENDBRANCH   4   5
ENDBRANCH   2   4
BRANCH   1  10
ATOM     10  C   UNL     1      27.937 -11.509  30.743  1.00  0.00     0.111 C 
BRANCH  10  11
ATOM     11  C   UNL     1      27.311 -11.317  29.383  1.00  0.00     0.163 C 
ATOM     12  O   UNL     1      26.395 -10.456  29.290  1.00  0.00    -0.294 OA
BRANCH  11  13
ATOM     13  C   UNL     1      27.703 -12.104  28.166  1.00  0.00    -0.002 C 
ATOM     14  C   UNL     1      26.981 -13.203  27.787  1.00  0.00    -0.069 C 
ATOM     15  C   UNL     1      25.625 -13.502  28.385  1.00  0.00     0.039 C 
ATOM     16  C   UNL     1      27.470 -14.151  26.715  1.00  0.00     0.039 C 
BRANCH  13  17
ATOM     17  C   UNL     1      29.020 -11.750  27.484  1.00  0.00     0.066 CG0
ATOM     18  G   UNL     1      30.169 -12.722  27.685  1.00  0.00     0.000 G0
ENDBRANCH  13  17
ENDBRANCH  11  13
ENDBRANCH  10  11
ENDBRANCH   1  10
TORSDOF 0
ENDMDL
MODEL 5
REMARK VINA RESULT:    -4.918      1.693      3.118
REMARK INTER + INTRA:          -6.265
REMARK INTER:                  -7.200
REMARK INTRA:                   0.935
REMARK UNBOUND:                 0.665
REMARK SMILES CC1=CCC(=C(C)C)C(=O)CC(C)=CCC1
REMARK SMILES IDX 12 1 14 2 13 3 15 4 16 5 2 6 1 7 3 8 11 10 9 11 10 12 5 13
REMARK SMILES IDX 6 14 7 15 8 16 4 17
REMARK H PARENT
REMARK Flexibility Score: 60.00
ROOT
ATOM      1  C   UNL     1      30.133 -13.284  28.225  1.00  0.00    -0.070 C 
ATOM      2  C   UNL     1      29.026 -13.341  27.450  1.00  0.00    -0.027 C 
ATOM      3  C   UNL     1      31.165 -14.373  28.072  1.00  0.00     0.039 C 
ENDROOT
BRANCH   2   4
ATOM      4  C   UNL     1      27.972 -12.267  27.366  1.00  0.00     0.032 C 
BRANCH   4   5
ATOM      5  C   UNL     1      27.255 -12.135  28.715  1.00  0.00     0.034 C 
BRANCH   5   6
ATOM      6  C   UNL     1      26.594 -13.428  29.148  1.00  0.00    -0.077 C 
ATOM      7  C   UNL     1      25.633 -14.101  28.200  1.00  0.00     0.039 C 
ATOM      8  C   UNL     1      26.759 -13.982  30.376  1.00  0.00    -0.023 CG0
ATOM      9  G   UNL     1      27.706 -13.528  31.472  1.00  0.00     0.000 G0
ENDBRANCH   5   6
ENDBRANCH   4   5
ENDBRANCH   2   4
BRANCH   1  10
ATOM     10  C   UNL     1      30.378 -12.193  29.249  1.00  0.00     0.111 C 
BRANCH  10  11
ATOM     11  C   UNL     1      29.969 -12.621  30.637  1.00  0.00     0.163 C 
ATOM     12  O   UNL     1      30.820 -13.257  31.316  1.00  0.00    -0.294 OA
BRANCH  11  13
ATOM     13  C   UNL     1      28.616 -12.352  31.229  1.00  0.00    -0.002 C 
ATOM     14  C   UNL     1      28.284 -11.096  31.661  1.00  0.00    -0.069 C 
ATOM     15  C   UNL     1      29.127  -9.891  31.308  1.00  0.00     0.039 C 
ATOM     16  C   UNL     1      27.033 -10.831  32.468  1.00  0.00     0.039 C 
BRANCH  13  17
ATOM     17  C   UNL     1      27.706 -13.546  31.499  1.00  0.00     0.066 CG0
ATOM     18  G   UNL     1      26.770 -13.950  30.374  1.00  0.00     0.000 G0
ENDBRANCH  13  17
ENDBRANCH  11  13
ENDBRANCH  10  11
ENDBRANCH   1  10
TORSDOF 0
ENDMDL
MODEL 6
REMARK VINA RESULT:    -4.659      1.497      3.626
REMARK INTER + INTRA:          -5.900
REMARK INTER:                  -6.502
REMARK INTRA:                   0.601
REMARK UNBOUND:                 0.665
REMARK SMILES CC1=CCC(=C(C)C)C(=O)CC(C)=CCC1
REMARK SMILES IDX 12 1 14 2 13 3 15 4 16 5 2 6 1 7 3 8 11 10 9 11 10 12 5 13
REMARK SMILES IDX 6 14 7 15 8 16 4 17
REMARK H PARENT
REMARK Flexibility Score: 60.00
ROOT
ATOM      1  C   UNL     1      30.684 -13.051  28.937  1.00  0.00    -0.070 C 
ATOM      2  C   UNL     1      31.024 -13.423  30.192  1.00  0.00    -0.027 C 
ATOM      3  C   UNL     1      30.997 -13.997  27.806  1.00  0.00     0.039 C 
ENDROOT
BRANCH   2   4
ATOM      4  C   UNL     1      30.657 -12.673  31.447  1.00  0.00     0.032 C 
BRANCH   4   5
ATOM      5  C   UNL     1      29.223 -12.143  31.335  1.00  0.00     0.034 C 
BRANCH   5   6
ATOM      6  C   UNL     1      28.189 -13.249  31.397  1.00  0.00    -0.077 C 
ATOM      7  C   UNL     1      28.284 -14.264  32.510  1.00  0.00     0.039 C 
ATOM      8  C   UNL     1      27.221 -13.426  30.464  1.00  0.00    -0.023 CG0
ATOM      9  G   UNL     1      26.890 -12.516  29.295  1.00  0.00     0.000 G0
ENDBRANCH   5   6
ENDBRANCH   4   5
ENDBRANCH   2   4
BRANCH   1  10
ATOM     10  C   UNL     1      30.023 -11.726  28.612  1.00  0.00     0.111 C 
BRANCH  10  11
ATOM     11  C   UNL     1      28.842 -11.897  27.687  1.00  0.00     0.163 C 
ATOM     12  O   UNL     1      28.859 -11.247  26.607  1.00  0.00    -0.294 OA
BRANCH  11  13
ATOM     13  C   UNL     1      27.660 -12.770  27.997  1.00  0.00    -0.002 C 
ATOM     14  C   UNL     1      27.188 -13.656  27.067  1.00  0.00    -0.069 C 
ATOM     15  C   UNL     1      27.984 -14.000  25.828  1.00  0.00     0.039 C 
ATOM     16  C   UNL     1      25.872 -14.380  27.246  1.00  0.00     0.039 C 
BRANCH  13  17
ATOM     17  C   UNL     1      26.902 -12.507  29.294  1.00  0.00     0.066 CG0
ATOM     18  G   UNL     1      27.211 -13.433  30.457  1.00  0.00     0.000 G0
ENDBRANCH  13  17
ENDBRANCH  11  13
ENDBRANCH  10  11
ENDBRANCH   1  10
TORSDOF 0
ENDMDL
MODEL 7
REMARK VINA RESULT:    -4.532      2.192      5.204
REMARK INTER + INTRA:          -5.722
REMARK INTER:                  -5.576
REMARK INTRA:                  -0.146
REMARK UNBOUND:                 0.665
REMARK SMILES CC1=CCC(=C(C)C)C(=O)CC(C)=CCC1
REMARK SMILES IDX 12 1 14 2 13 3 15 4 16 5 2 6 1 7 3 8 11 10 9 11 10 12 5 13
REMARK SMILES IDX 6 14 7 15 8 16 4 17
REMARK H PARENT
REMARK Flexibility Score: 60.00
ROOT
ATOM      1  C   UNL     1      26.040 -14.064  28.166  1.00  0.00    -0.070 C 
ATOM      2  C   UNL     1      25.593 -14.833  29.185  1.00  0.00    -0.027 C 
ATOM      3  C   UNL     1      25.975 -14.628  26.769  1.00  0.00     0.039 C 
ENDROOT
BRANCH   2   4
ATOM      4  C   UNL     1      25.448 -14.375  30.614  1.00  0.00     0.032 C 
BRANCH   4   5
ATOM      5  C   UNL     1      26.695 -14.768  31.415  1.00  0.00     0.034 C 
BRANCH   5   6
ATOM      6  C   UNL     1      27.167 -13.659  32.333  1.00  0.00    -0.077 C 
ATOM      7  C   UNL     1      26.394 -13.391  33.600  1.00  0.00     0.039 C 
ATOM      8  C   UNL     1      28.208 -12.837  32.044  1.00  0.00    -0.023 CG0
ATOM      9  G   UNL     1      29.165 -12.939  30.870  1.00  0.00     0.000 G0
ENDBRANCH   5   6
ENDBRANCH   4   5
ENDBRANCH   2   4
BRANCH   1  10
ATOM     10  C   UNL     1      26.619 -12.677  28.361  1.00  0.00     0.111 C 
BRANCH  10  11
ATOM     11  C   UNL     1      28.119 -12.710  28.527  1.00  0.00     0.163 C 
ATOM     12  O   UNL     1      28.779 -13.341  27.658  1.00  0.00    -0.294 OA
BRANCH  11  13
ATOM     13  C   UNL     1      28.847 -12.060  29.668  1.00  0.00    -0.002 C 
ATOM     14  C   UNL     1      29.334 -10.786  29.546  1.00  0.00    -0.069 C 
ATOM     15  C   UNL     1      28.925  -9.891  28.399  1.00  0.00     0.039 C 
ATOM     16  C   UNL     1      30.266 -10.184  30.573  1.00  0.00     0.039 C 
BRANCH  13  17
ATOM     17  C   UNL     1      29.181 -12.920  30.882  1.00  0.00     0.066 CG0
ATOM     18  G   UNL     1      28.224 -12.831  32.057  1.00  0.00     0.000 G0
ENDBRANCH  13  17
ENDBRANCH  11  13
ENDBRANCH  10  11
ENDBRANCH   1  10
TORSDOF 0
ENDMDL
MODEL 8
REMARK VINA RESULT:    -4.351      1.629      4.222
REMARK INTER + INTRA:          -5.466
REMARK INTER:                  -6.155
REMARK INTRA:                   0.689
REMARK UNBOUND:                 0.665
REMARK SMILES CC1=CCC(=C(C)C)C(=O)CC(C)=CCC1
REMARK SMILES IDX 12 1 14 2 13 3 15 4 16 5 2 6 1 7 3 8 11 10 9 11 10 12 5 13
REMARK SMILES IDX 6 14 7 15 8 16 4 17
REMARK H PARENT
REMARK Flexibility Score: 60.00
ROOT
ATOM      1  C   UNL     1      28.382 -12.291  26.502  1.00  0.00    -0.070 C 
ATOM      2  C   UNL     1      27.343 -13.132  26.709  1.00  0.00    -0.027 C 
ATOM      3  C   UNL     1      28.349 -11.408  25.281  1.00  0.00     0.039 C 
ENDROOT
BRANCH   2   4
ATOM      4  C   UNL     1      27.141 -13.971  27.944  1.00  0.00     0.032 C 
BRANCH   4   5
ATOM      5  C   UNL     1      26.381 -13.165  29.004  1.00  0.00     0.034 C 
BRANCH   5   6
ATOM      6  C   UNL     1      26.681 -13.632  30.413  1.00  0.00    -0.077 C 
ATOM      7  C   UNL     1      26.019 -14.893  30.913  1.00  0.00     0.039 C 
ATOM      8  C   UNL     1      27.459 -12.941  31.284  1.00  0.00    -0.023 CG0
ATOM      9  G   UNL     1      28.271 -11.689  31.003  1.00  0.00     0.000 G0
ENDBRANCH   5   6
ENDBRANCH   4   5
ENDBRANCH   2   4
BRANCH   1  10
ATOM     10  C   UNL     1      29.582 -12.207  27.425  1.00  0.00     0.111 C 
BRANCH  10  11
ATOM     11  C   UNL     1      29.297 -11.364  28.645  1.00  0.00     0.163 C 
ATOM     12  O   UNL     1      28.919 -10.177  28.447  1.00  0.00    -0.294 OA
BRANCH  11  13
ATOM     13  C   UNL     1      29.460 -11.854  30.055  1.00  0.00    -0.002 C 
ATOM     14  C   UNL     1      30.569 -12.570  30.417  1.00  0.00    -0.069 C 
ATOM     15  C   UNL     1      31.784 -12.652  29.521  1.00  0.00     0.039 C 
ATOM     16  C   UNL     1      30.665 -13.276  31.751  1.00  0.00     0.039 C 
BRANCH  13  17
ATOM     17  C   UNL     1      28.281 -11.687  31.007  1.00  0.00     0.066 CG0
ATOM     18  G   UNL     1      27.459 -12.932  31.290  1.00  0.00     0.000 G0
ENDBRANCH  13  17
ENDBRANCH  11  13
ENDBRANCH  10  11
ENDBRANCH   1  10
TORSDOF 0
ENDMDL
MODEL 9
REMARK VINA RESULT:    -4.271      1.267      3.704
REMARK INTER + INTRA:          -5.353
REMARK INTER:                  -5.472
REMARK INTRA:                   0.119
REMARK UNBOUND:                 0.665
REMARK SMILES CC1=CCC(=C(C)C)C(=O)CC(C)=CCC1
REMARK SMILES IDX 12 1 14 2 13 3 15 4 16 5 2 6 1 7 3 8 11 10 9 11 10 12 5 13
REMARK SMILES IDX 6 14 7 15 8 16 4 17
REMARK H PARENT
REMARK Flexibility Score: 60.00
ROOT
ATOM      1  C   UNL     1      26.413 -14.125  32.257  1.00  0.00    -0.070 C 
ATOM      2  C   UNL     1      25.637 -14.489  31.211  1.00  0.00    -0.027 C 
ATOM      3  C   UNL     1      25.762 -13.984  33.610  1.00  0.00     0.039 C 
ENDROOT
BRANCH   2   4
ATOM      4  C   UNL     1      26.145 -14.817  29.830  1.00  0.00     0.032 C 
BRANCH   4   5
ATOM      5  C   UNL     1      25.753 -13.703  28.853  1.00  0.00     0.034 C 
BRANCH   5   6
ATOM      6  C   UNL     1      26.778 -13.509  27.754  1.00  0.00    -0.077 C 
ATOM      7  C   UNL     1      26.649 -14.327  26.493  1.00  0.00     0.039 C 
ATOM      8  C   UNL     1      27.854 -12.691  27.867  1.00  0.00    -0.023 CG0
ATOM      9  G   UNL     1      28.170 -11.733  29.002  1.00  0.00     0.000 G0
ENDBRANCH   5   6
ENDBRANCH   4   5
ENDBRANCH   2   4
BRANCH   1  10
ATOM     10  C   UNL     1      27.896 -13.834  32.134  1.00  0.00     0.111 C 
BRANCH  10  11
ATOM     11  C   UNL     1      28.156 -12.498  31.481  1.00  0.00     0.163 C 
ATOM     12  O   UNL     1      27.677 -11.479  32.048  1.00  0.00    -0.294 OA
BRANCH  11  13
ATOM     13  C   UNL     1      28.922 -12.330  30.201  1.00  0.00    -0.002 C 
ATOM     14  C   UNL     1      30.273 -12.547  30.166  1.00  0.00    -0.069 C 
ATOM     15  C   UNL     1      30.993 -13.228  31.308  1.00  0.00     0.039 C 
ATOM     16  C   UNL     1      31.115 -12.167  28.968  1.00  0.00     0.039 C 
BRANCH  13  17
ATOM     17  C   UNL     1      28.186 -11.739  29.003  1.00  0.00     0.066 CG0
ATOM     18  G   UNL     1      27.852 -12.698  27.874  1.00  0.00     0.000 G0
ENDBRANCH  13  17
ENDBRANCH  11  13
ENDBRANCH  10  11
ENDBRANCH   1  10
TORSDOF 0
ENDMDL
