MODEL 1
REMARK VINA RESULT:    -4.945      0.000      0.000
REMARK INTER + INTRA:          -7.579
REMARK INTER:                  -6.680
REMARK INTRA:                  -0.899
REMARK UNBOUND:                -0.899
REMARK SMILES C=CC(C)=CCC=C(C)CCC=C(C)C
REMARK SMILES IDX 8 1 7 2 9 3 10 4 11 5 12 6 14 7 13 8 15 9 6 10 5 11 3 12
REMARK SMILES IDX 4 13 2 14 1 15
REMARK H PARENT
REMARK Flexibility Score: inf
ROOT
ATOM      1  C   UNL     1      29.045  23.827  12.651  1.00  0.00    -0.077 C 
ATOM      2  C   UNL     1      30.057  24.272  11.873  1.00  0.00    -0.024 C 
ATOM      3  C   UNL     1      27.622  24.289  12.443  1.00  0.00     0.039 C 
ENDROOT
BRANCH   1   4
ATOM      4  C   UNL     1      29.348  22.845  13.761  1.00  0.00     0.034 C 
BRANCH   4   5
ATOM      5  C   UNL     1      30.304  21.751  13.274  1.00  0.00     0.032 C 
BRANCH   5   6
ATOM      6  C   UNL     1      31.176  21.261  14.402  1.00  0.00    -0.028 C 
ATOM      7  C   UNL     1      30.465  18.875  14.127  1.00  0.00     0.039 C 
ATOM      8  C   UNL     1      31.235  19.975  14.816  1.00  0.00    -0.080 C 
ATOM      9  C   UNL     1      32.122  19.600  15.975  1.00  0.00     0.039 C 
ENDBRANCH   5   6
ENDBRANCH   4   5
ENDBRANCH   1   4
BRANCH   2  10
ATOM     10  C   UNL     1      29.883  25.237  10.729  1.00  0.00     0.055 C 
BRANCH  10  11
ATOM     11  C   UNL     1      30.743  26.457  10.938  1.00  0.00    -0.020 C 
ATOM     12  C   UNL     1      30.387  27.566  11.618  1.00  0.00    -0.055 C 
ATOM     13  C   UNL     1      31.424  28.641  11.827  1.00  0.00     0.044 C 
BRANCH  12  14
ATOM     14  C   UNL     1      29.028  27.747  12.190  1.00  0.00    -0.005 C 
ATOM     15  C   UNL     1      28.033  28.316  11.509  1.00  0.00     0.009 C 
ENDBRANCH  12  14
ENDBRANCH  10  11
ENDBRANCH   2  10
TORSDOF 6
ENDMDL
MODEL 2
REMARK VINA RESULT:    -4.940      1.450      2.487
REMARK INTER + INTRA:          -7.572
REMARK INTER:                  -6.193
REMARK INTRA:                  -1.379
REMARK UNBOUND:                -0.899
REMARK SMILES C=CC(C)=CCC=C(C)CCC=C(C)C
REMARK SMILES IDX 8 1 7 2 9 3 10 4 11 5 12 6 14 7 13 8 15 9 6 10 5 11 3 12
REMARK SMILES IDX 4 13 2 14 1 15
REMARK H PARENT
REMARK Flexibility Score: inf
ROOT
ATOM      1  C   UNL     1      30.749  24.826  11.505  1.00  0.00    -0.077 C 
ATOM      2  C   UNL     1      31.698  25.756  11.756  1.00  0.00    -0.024 C 
ATOM      3  C   UNL     1      29.401  24.865  12.187  1.00  0.00     0.039 C 
ENDROOT
BRANCH   1   4
ATOM      4  C   UNL     1      31.047  23.718  10.521  1.00  0.00     0.034 C 
BRANCH   4   5
ATOM      5  C   UNL     1      32.069  22.735  11.101  1.00  0.00     0.032 C 
BRANCH   5   6
ATOM      6  C   UNL     1      31.379  21.626  11.854  1.00  0.00    -0.028 C 
ATOM      7  C   UNL     1      31.846  22.641  14.096  1.00  0.00     0.039 C 
ATOM      8  C   UNL     1      31.299  21.555  13.202  1.00  0.00    -0.080 C 
ATOM      9  C   UNL     1      30.609  20.384  13.852  1.00  0.00     0.039 C 
ENDBRANCH   5   6
ENDBRANCH   4   5
ENDBRANCH   1   4
BRANCH   2  10
ATOM     10  C   UNL     1      31.518  26.915  12.702  1.00  0.00     0.055 C 
BRANCH  10  11
ATOM     11  C   UNL     1      31.402  28.206  11.931  1.00  0.00    -0.020 C 
ATOM     12  C   UNL     1      30.292  28.964  11.824  1.00  0.00    -0.055 C 
ATOM     13  C   UNL     1      30.396  30.287  11.108  1.00  0.00     0.044 C 
BRANCH  12  14
ATOM     14  C   UNL     1      28.990  28.554  12.410  1.00  0.00    -0.005 C 
ATOM     15  C   UNL     1      27.952  28.179  11.661  1.00  0.00     0.009 C 
ENDBRANCH  12  14
ENDBRANCH  10  11
ENDBRANCH   2  10
TORSDOF 6
ENDMDL
MODEL 3
REMARK VINA RESULT:    -4.797      1.206      7.020
REMARK INTER + INTRA:          -7.380
REMARK INTER:                  -6.687
REMARK INTRA:                  -0.693
REMARK UNBOUND:                -0.899
REMARK SMILES C=CC(C)=CCC=C(C)CCC=C(C)C
REMARK SMILES IDX 8 1 7 2 9 3 10 4 11 5 12 6 14 7 13 8 15 9 6 10 5 11 3 12
REMARK SMILES IDX 4 13 2 14 1 15
REMARK H PARENT
REMARK Flexibility Score: inf
ROOT
ATOM      1  C   UNL     1      28.295  24.598  12.339  1.00  0.00    -0.077 C 
ATOM      2  C   UNL     1      29.381  24.129  12.994  1.00  0.00    -0.024 C 
ATOM      3  C   UNL     1      27.065  23.746  12.132  1.00  0.00     0.039 C 
ENDROOT
BRANCH   1   4
ATOM      4  C   UNL     1      28.316  26.010  11.797  1.00  0.00     0.034 C 
BRANCH   4   5
ATOM      5  C   UNL     1      29.510  26.214  10.859  1.00  0.00     0.032 C 
BRANCH   5   6
ATOM      6  C   UNL     1      29.738  27.681  10.593  1.00  0.00    -0.028 C 
ATOM      7  C   UNL     1      31.473  27.898  12.388  1.00  0.00     0.039 C 
ATOM      8  C   UNL     1      30.595  28.458  11.294  1.00  0.00    -0.080 C 
ATOM      9  C   UNL     1      30.724  29.921  10.962  1.00  0.00     0.039 C 
ENDBRANCH   5   6
ENDBRANCH   4   5
ENDBRANCH   1   4
BRANCH   2  10
ATOM     10  C   UNL     1      29.478  22.749  13.593  1.00  0.00     0.055 C 
BRANCH  10  11
ATOM     11  C   UNL     1      30.632  21.994  12.983  1.00  0.00    -0.020 C 
ATOM     12  C   UNL     1      31.009  20.739  13.302  1.00  0.00    -0.055 C 
ATOM     13  C   UNL     1      32.116  20.100  12.502  1.00  0.00     0.044 C 
BRANCH  12  14
ATOM     14  C   UNL     1      30.355  19.963  14.386  1.00  0.00    -0.005 C 
ATOM     15  C   UNL     1      31.038  19.430  15.400  1.00  0.00     0.009 C 
ENDBRANCH  12  14
ENDBRANCH  10  11
ENDBRANCH   2  10
TORSDOF 6
ENDMDL
MODEL 4
REMARK VINA RESULT:    -4.773      1.562      6.520
REMARK INTER + INTRA:          -7.347
REMARK INTER:                  -6.348
REMARK INTRA:                  -0.998
REMARK UNBOUND:                -0.899
REMARK SMILES C=CC(C)=CCC=C(C)CCC=C(C)C
REMARK SMILES IDX 8 1 7 2 9 3 10 4 11 5 12 6 14 7 13 8 15 9 6 10 5 11 3 12
REMARK SMILES IDX 4 13 2 14 1 15
REMARK H PARENT
REMARK Flexibility Score: inf
ROOT
ATOM      1  C   UNL     1      31.808  26.115  10.846  1.00  0.00    -0.077 C 
ATOM      2  C   UNL     1      31.242  25.024  10.281  1.00  0.00    -0.024 C 
ATOM      3  C   UNL     1      32.125  26.169  12.322  1.00  0.00     0.039 C 
ENDROOT
BRANCH   1   4
ATOM      4  C   UNL     1      32.125  27.312   9.978  1.00  0.00     0.034 C 
BRANCH   4   5
ATOM      5  C   UNL     1      31.042  28.387  10.117  1.00  0.00     0.032 C 
BRANCH   5   6
ATOM      6  C   UNL     1      29.707  27.765  10.442  1.00  0.00    -0.028 C 
ATOM      7  C   UNL     1      29.539  28.903  12.667  1.00  0.00     0.039 C 
ATOM      8  C   UNL     1      29.035  27.964  11.598  1.00  0.00    -0.080 C 
ATOM      9  C   UNL     1      27.719  27.268  11.830  1.00  0.00     0.039 C 
ENDBRANCH   5   6
ENDBRANCH   4   5
ENDBRANCH   1   4
BRANCH   2  10
ATOM     10  C   UNL     1      30.894  23.767  11.034  1.00  0.00     0.055 C 
BRANCH  10  11
ATOM     11  C   UNL     1      29.541  23.906  11.686  1.00  0.00    -0.020 C 
ATOM     12  C   UNL     1      29.206  23.451  12.911  1.00  0.00    -0.055 C 
ATOM     13  C   UNL     1      27.837  23.787  13.449  1.00  0.00     0.044 C 
BRANCH  12  14
ATOM     14  C   UNL     1      30.144  22.664  13.752  1.00  0.00    -0.005 C 
ATOM     15  C   UNL     1      30.206  21.333  13.703  1.00  0.00     0.009 C 
ENDBRANCH  12  14
ENDBRANCH  10  11
ENDBRANCH   2  10
TORSDOF 6
ENDMDL
MODEL 5
REMARK VINA RESULT:    -4.667      1.874      6.691
REMARK INTER + INTRA:          -7.204
REMARK INTER:                  -6.119
REMARK INTRA:                  -1.085
REMARK UNBOUND:                -0.899
REMARK SMILES C=CC(C)=CCC=C(C)CCC=C(C)C
REMARK SMILES IDX 8 1 7 2 9 3 10 4 11 5 12 6 14 7 13 8 15 9 6 10 5 11 3 12
REMARK SMILES IDX 4 13 2 14 1 15
REMARK H PARENT
REMARK Flexibility Score: inf
ROOT
ATOM      1  C   UNL     1      28.600  26.099  11.528  1.00  0.00    -0.077 C 
ATOM      2  C   UNL     1      29.785  25.671  11.037  1.00  0.00    -0.024 C 
ATOM      3  C   UNL     1      27.516  25.131  11.941  1.00  0.00     0.039 C 
ENDROOT
BRANCH   1   4
ATOM      4  C   UNL     1      28.352  27.585  11.660  1.00  0.00     0.034 C 
BRANCH   4   5
ATOM      5  C   UNL     1      29.520  28.269  12.377  1.00  0.00     0.032 C 
BRANCH   5   6
ATOM      6  C   UNL     1      29.951  29.511  11.637  1.00  0.00    -0.028 C 
ATOM      7  C   UNL     1      32.052  28.458  10.770  1.00  0.00     0.039 C 
ATOM      8  C   UNL     1      31.102  29.619  10.936  1.00  0.00    -0.080 C 
ATOM      9  C   UNL     1      31.447  30.919  10.257  1.00  0.00     0.039 C 
ENDBRANCH   5   6
ENDBRANCH   4   5
ENDBRANCH   1   4
BRANCH   2  10
ATOM     10  C   UNL     1      30.157  24.220  10.871  1.00  0.00     0.055 C 
BRANCH  10  11
ATOM     11  C   UNL     1      31.178  23.821  11.905  1.00  0.00    -0.020 C 
ATOM     12  C   UNL     1      30.952  23.027  12.972  1.00  0.00    -0.055 C 
ATOM     13  C   UNL     1      32.125  22.637  13.836  1.00  0.00     0.044 C 
BRANCH  12  14
ATOM     14  C   UNL     1      29.601  22.503  13.301  1.00  0.00    -0.005 C 
ATOM     15  C   UNL     1      28.824  23.058  14.232  1.00  0.00     0.009 C 
ENDBRANCH  12  14
ENDBRANCH  10  11
ENDBRANCH   2  10
TORSDOF 6
ENDMDL
MODEL 6
REMARK VINA RESULT:    -4.626      2.517      3.801
REMARK INTER + INTRA:          -7.148
REMARK INTER:                  -5.869
REMARK INTRA:                  -1.279
REMARK UNBOUND:                -0.899
REMARK SMILES C=CC(C)=CCC=C(C)CCC=C(C)C
REMARK SMILES IDX 8 1 7 2 9 3 10 4 11 5 12 6 14 7 13 8 15 9 6 10 5 11 3 12
REMARK SMILES IDX 4 13 2 14 1 15
REMARK H PARENT
REMARK Flexibility Score: inf
ROOT
ATOM      1  C   UNL     1      32.087  24.965  12.354  1.00  0.00    -0.077 C 
ATOM      2  C   UNL     1      32.082  26.222  11.857  1.00  0.00    -0.024 C 
ATOM      3  C   UNL     1      32.121  24.701  13.842  1.00  0.00     0.039 C 
ENDROOT
BRANCH   1   4
ATOM      4  C   UNL     1      32.062  23.795  11.397  1.00  0.00     0.034 C 
BRANCH   4   5
ATOM      5  C   UNL     1      30.881  22.867  11.702  1.00  0.00     0.032 C 
BRANCH   5   6
ATOM      6  C   UNL     1      29.570  23.565  11.437  1.00  0.00    -0.028 C 
ATOM      7  C   UNL     1      28.715  23.180  13.760  1.00  0.00     0.039 C 
ATOM      8  C   UNL     1      28.575  23.685  12.345  1.00  0.00    -0.080 C 
ATOM      9  C   UNL     1      27.292  24.378  11.964  1.00  0.00     0.039 C 
ENDBRANCH   5   6
ENDBRANCH   4   5
ENDBRANCH   1   4
BRANCH   2  10
ATOM     10  C   UNL     1      32.089  27.468  12.705  1.00  0.00     0.055 C 
BRANCH  10  11
ATOM     11  C   UNL     1      31.764  28.675  11.863  1.00  0.00    -0.020 C 
ATOM     12  C   UNL     1      30.547  29.242  11.733  1.00  0.00    -0.055 C 
ATOM     13  C   UNL     1      30.434  30.520  10.940  1.00  0.00     0.044 C 
BRANCH  12  14
ATOM     14  C   UNL     1      29.331  28.670  12.367  1.00  0.00    -0.005 C 
ATOM     15  C   UNL     1      28.563  27.766  11.758  1.00  0.00     0.009 C 
ENDBRANCH  12  14
ENDBRANCH  10  11
ENDBRANCH   2  10
TORSDOF 6
ENDMDL
MODEL 7
REMARK VINA RESULT:    -4.547      1.512      2.436
REMARK INTER + INTRA:          -7.041
REMARK INTER:                  -6.092
REMARK INTRA:                  -0.949
REMARK UNBOUND:                -0.899
REMARK SMILES C=CC(C)=CCC=C(C)CCC=C(C)C
REMARK SMILES IDX 8 1 7 2 9 3 10 4 11 5 12 6 14 7 13 8 15 9 6 10 5 11 3 12
REMARK SMILES IDX 4 13 2 14 1 15
REMARK H PARENT
REMARK Flexibility Score: inf
ROOT
ATOM      1  C   UNL     1      31.244  24.730  12.988  1.00  0.00    -0.077 C 
ATOM      2  C   UNL     1      30.477  24.724  11.874  1.00  0.00    -0.024 C 
ATOM      3  C   UNL     1      32.097  25.922  13.356  1.00  0.00     0.039 C 
ENDROOT
BRANCH   1   4
ATOM      4  C   UNL     1      31.252  23.512  13.883  1.00  0.00     0.034 C 
BRANCH   4   5
ATOM      5  C   UNL     1      30.103  22.564  13.523  1.00  0.00     0.032 C 
BRANCH   5   6
ATOM      6  C   UNL     1      30.475  21.133  13.821  1.00  0.00    -0.028 C 
ATOM      7  C   UNL     1      31.792  20.869  11.707  1.00  0.00     0.039 C 
ATOM      8  C   UNL     1      31.208  20.349  12.998  1.00  0.00    -0.080 C 
ATOM      9  C   UNL     1      31.497  18.922  13.382  1.00  0.00     0.039 C 
ENDBRANCH   5   6
ENDBRANCH   4   5
ENDBRANCH   1   4
BRANCH   2  10
ATOM     10  C   UNL     1      30.371  25.878  10.913  1.00  0.00     0.055 C 
BRANCH  10  11
ATOM     11  C   UNL     1      29.085  26.632  11.139  1.00  0.00    -0.020 C 
ATOM     12  C   UNL     1      28.983  27.916  11.540  1.00  0.00    -0.055 C 
ATOM     13  C   UNL     1      27.611  28.540  11.598  1.00  0.00     0.044 C 
BRANCH  12  14
ATOM     14  C   UNL     1      30.171  28.736  11.891  1.00  0.00    -0.005 C 
ATOM     15  C   UNL     1      30.483  29.860  11.245  1.00  0.00     0.009 C 
ENDBRANCH  12  14
ENDBRANCH  10  11
ENDBRANCH   2  10
TORSDOF 6
ENDMDL
MODEL 8
REMARK VINA RESULT:    -4.546      1.654      7.015
REMARK INTER + INTRA:          -7.040
REMARK INTER:                  -6.337
REMARK INTRA:                  -0.703
REMARK UNBOUND:                -0.899
REMARK SMILES C=CC(C)=CCC=C(C)CCC=C(C)C
REMARK SMILES IDX 8 1 7 2 9 3 10 4 11 5 12 6 14 7 13 8 15 9 6 10 5 11 3 12
REMARK SMILES IDX 4 13 2 14 1 15
REMARK H PARENT
REMARK Flexibility Score: inf
ROOT
ATOM      1  C   UNL     1      29.961  27.032  11.819  1.00  0.00    -0.077 C 
ATOM      2  C   UNL     1      30.683  25.915  11.576  1.00  0.00    -0.024 C 
ATOM      3  C   UNL     1      28.482  27.101  11.518  1.00  0.00     0.039 C 
ENDROOT
BRANCH   1   4
ATOM      4  C   UNL     1      30.653  28.244  12.403  1.00  0.00     0.034 C 
BRANCH   4   5
ATOM      5  C   UNL     1      32.085  28.360  11.871  1.00  0.00     0.032 C 
BRANCH   5   6
ATOM      6  C   UNL     1      32.093  28.431  10.365  1.00  0.00    -0.028 C 
ATOM      7  C   UNL     1      31.723  30.908  10.320  1.00  0.00     0.039 C 
ATOM      8  C   UNL     1      31.900  29.565   9.654  1.00  0.00    -0.080 C 
ATOM      9  C   UNL     1      31.900  29.517   8.148  1.00  0.00     0.039 C 
ENDBRANCH   5   6
ENDBRANCH   4   5
ENDBRANCH   1   4
BRANCH   2  10
ATOM     10  C   UNL     1      30.108  24.642  11.012  1.00  0.00     0.055 C 
BRANCH  10  11
ATOM     11  C   UNL     1      30.376  23.489  11.946  1.00  0.00    -0.020 C 
ATOM     12  C   UNL     1      29.601  23.120  12.987  1.00  0.00    -0.055 C 
ATOM     13  C   UNL     1      29.964  21.865  13.740  1.00  0.00     0.044 C 
BRANCH  12  14
ATOM     14  C   UNL     1      28.394  23.886  13.391  1.00  0.00    -0.005 C 
ATOM     15  C   UNL     1      27.228  23.777  12.753  1.00  0.00     0.009 C 
ENDBRANCH  12  14
ENDBRANCH  10  11
ENDBRANCH   2  10
TORSDOF 6
ENDMDL
MODEL 9
REMARK VINA RESULT:    -4.496      1.585      6.888
REMARK INTER + INTRA:          -6.973
REMARK INTER:                  -5.723
REMARK INTRA:                  -1.250
REMARK UNBOUND:                -0.899
REMARK SMILES C=CC(C)=CCC=C(C)CCC=C(C)C
REMARK SMILES IDX 8 1 7 2 9 3 10 4 11 5 12 6 14 7 13 8 15 9 6 10 5 11 3 12
REMARK SMILES IDX 4 13 2 14 1 15
REMARK H PARENT
REMARK Flexibility Score: inf
ROOT
ATOM      1  C   UNL     1      31.486  24.901  12.666  1.00  0.00    -0.077 C 
ATOM      2  C   UNL     1      30.536  24.176  13.299  1.00  0.00    -0.024 C 
ATOM      3  C   UNL     1      31.927  24.573  11.259  1.00  0.00     0.039 C 
ENDROOT
BRANCH   1   4
ATOM      4  C   UNL     1      32.125  26.067  13.388  1.00  0.00     0.034 C 
BRANCH   4   5
ATOM      5  C   UNL     1      31.930  27.367  12.601  1.00  0.00     0.032 C 
BRANCH   5   6
ATOM      6  C   UNL     1      30.513  27.865  12.732  1.00  0.00    -0.028 C 
ATOM      7  C   UNL     1      30.010  27.555  10.297  1.00  0.00     0.039 C 
ATOM      8  C   UNL     1      29.648  27.985  11.698  1.00  0.00    -0.080 C 
ATOM      9  C   UNL     1      28.262  28.522  11.939  1.00  0.00     0.039 C 
ENDBRANCH   5   6
ENDBRANCH   4   5
ENDBRANCH   1   4
BRANCH   2  10
ATOM     10  C   UNL     1      29.816  23.004  12.684  1.00  0.00     0.055 C 
BRANCH  10  11
ATOM     11  C   UNL     1      29.875  21.812  13.604  1.00  0.00    -0.020 C 
ATOM     12  C   UNL     1      30.877  20.911  13.664  1.00  0.00    -0.055 C 
ATOM     13  C   UNL     1      30.820  19.848  14.733  1.00  0.00     0.044 C 
BRANCH  12  14
ATOM     14  C   UNL     1      32.039  20.950  12.740  1.00  0.00    -0.005 C 
ATOM     15  C   UNL     1      31.971  20.510  11.483  1.00  0.00     0.009 C 
ENDBRANCH  12  14
ENDBRANCH  10  11
ENDBRANCH   2  10
TORSDOF 6
ENDMDL
