MODEL 1
REMARK VINA RESULT:    -5.068      0.000      0.000
REMARK INTER + INTRA:          -6.179
REMARK INTER:                  -6.105
REMARK INTRA:                  -0.075
REMARK UNBOUND:                -0.075
REMARK SMILES CC[C@H](C)[C@H]([NH3+])C(=O)[O-]
REMARK SMILES IDX 3 1 4 2 5 3 6 4 7 8 8 9 9 10 2 11 1 12
REMARK H PARENT 6 5 6 6 6 7
REMARK Flexibility Score: inf
ROOT
ATOM      1  C   UNL     1     -20.138  67.837  -0.854  1.00  0.00     0.050 C 
ATOM      2  C   UNL     1     -20.333  66.870  -2.037  1.00  0.00     0.014 C 
ENDROOT
BRANCH   1   3
ATOM      3  C   UNL     1     -21.306  68.867  -0.715  1.00  0.00     0.230 C 
BRANCH   3   4
ATOM      4  N   UNL     1     -20.884  70.082  -0.001  1.00  0.00    -0.350 N 
ATOM      5  H   UNL     1     -20.122  69.880   0.686  1.00  0.00     0.345 HD
ATOM      6  H   UNL     1     -21.698  70.480   0.519  1.00  0.00     0.345 HD
ATOM      7  H   UNL     1     -20.551  70.801  -0.683  1.00  0.00     0.345 HD
ENDBRANCH   3   4
BRANCH   3   8
ATOM      8  C   UNL     1     -22.534  68.272  -0.067  1.00  0.00     0.099 C 
ATOM      9  O   UNL     1     -22.698  68.372   1.179  1.00  0.00    -0.544 OA
ATOM     10  O   UNL     1     -23.502  67.635  -0.833  1.00  0.00    -0.544 OA
ENDBRANCH   3   8
ENDBRANCH   1   3
BRANCH   1  11
ATOM     11  C   UNL     1     -18.747  68.511  -0.966  1.00  0.00     0.006 C 
ATOM     12  C   UNL     1     -17.680  67.847  -0.094  1.00  0.00     0.004 C 
ENDBRANCH   1  11
TORSDOF 4
ENDMDL
MODEL 2
REMARK VINA RESULT:    -5.067      1.943      2.410
REMARK INTER + INTRA:          -6.178
REMARK INTER:                  -6.222
REMARK INTRA:                   0.044
REMARK UNBOUND:                -0.075
REMARK SMILES CC[C@H](C)[C@H]([NH3+])C(=O)[O-]
REMARK SMILES IDX 3 1 4 2 5 3 6 4 7 8 8 9 9 10 2 11 1 12
REMARK H PARENT 6 5 6 6 6 7
REMARK Flexibility Score: inf
ROOT
ATOM      1  C   UNL     1     -20.706  68.246  -1.265  1.00  0.00     0.050 C 
ATOM      2  C   UNL     1     -19.347  68.812  -0.810  1.00  0.00     0.014 C 
ENDROOT
BRANCH   1   3
ATOM      3  C   UNL     1     -21.716  68.074  -0.083  1.00  0.00     0.230 C 
BRANCH   3   4
ATOM      4  N   UNL     1     -23.109  68.240  -0.525  1.00  0.00    -0.350 N 
ATOM      5  H   UNL     1     -23.750  67.574  -0.037  1.00  0.00     0.345 HD
ATOM      6  H   UNL     1     -23.171  68.063  -1.553  1.00  0.00     0.345 HD
ATOM      7  H   UNL     1     -23.428  69.220  -0.344  1.00  0.00     0.345 HD
ENDBRANCH   3   4
BRANCH   3   8
ATOM      8  C   UNL     1     -21.416  68.990   1.079  1.00  0.00     0.099 C 
ATOM      9  O   UNL     1     -20.922  68.520   2.139  1.00  0.00    -0.544 OA
ATOM     10  O   UNL     1     -21.655  70.356   0.986  1.00  0.00    -0.544 OA
ENDBRANCH   3   8
ENDBRANCH   1   3
BRANCH   1  11
ATOM     11  C   UNL     1     -20.478  66.937  -2.062  1.00  0.00     0.006 C 
ATOM     12  C   UNL     1     -19.235  66.164  -1.617  1.00  0.00     0.004 C 
ENDBRANCH   1  11
TORSDOF 4
ENDMDL
MODEL 3
REMARK VINA RESULT:    -5.009      2.734      3.676
REMARK INTER + INTRA:          -6.109
REMARK INTER:                  -6.083
REMARK INTRA:                  -0.026
REMARK UNBOUND:                -0.075
REMARK SMILES CC[C@H](C)[C@H]([NH3+])C(=O)[O-]
REMARK SMILES IDX 3 1 4 2 5 3 6 4 7 8 8 9 9 10 2 11 1 12
REMARK H PARENT 6 5 6 6 6 7
REMARK Flexibility Score: inf
ROOT
ATOM      1  C   UNL     1     -21.324  68.940  -0.781  1.00  0.00     0.050 C 
ATOM      2  C   UNL     1     -22.493  67.982  -0.483  1.00  0.00     0.014 C 
ENDROOT
BRANCH   1   3
ATOM      3  C   UNL     1     -20.092  68.215  -1.415  1.00  0.00     0.230 C 
BRANCH   3   4
ATOM      4  N   UNL     1     -20.460  66.912  -1.992  1.00  0.00    -0.350 N 
ATOM      5  H   UNL     1     -21.405  66.942  -2.438  1.00  0.00     0.345 HD
ATOM      6  H   UNL     1     -20.476  66.190  -1.236  1.00  0.00     0.345 HD
ATOM      7  H   UNL     1     -19.751  66.622  -2.704  1.00  0.00     0.345 HD
ENDBRANCH   3   4
BRANCH   3   8
ATOM      8  C   UNL     1     -18.944  68.060  -0.446  1.00  0.00     0.099 C 
ATOM      9  O   UNL     1     -18.924  67.087   0.355  1.00  0.00    -0.544 OA
ATOM     10  O   UNL     1     -17.891  68.966  -0.443  1.00  0.00    -0.544 OA
ENDBRANCH   3   8
ENDBRANCH   1   3
BRANCH   1  11
ATOM     11  C   UNL     1     -20.967  69.730   0.503  1.00  0.00     0.006 C 
ATOM     12  C   UNL     1     -20.959  71.246   0.301  1.00  0.00     0.004 C 
ENDBRANCH   1  11
TORSDOF 4
ENDMDL
MODEL 4
REMARK VINA RESULT:    -4.954      2.577      3.606
REMARK INTER + INTRA:          -6.042
REMARK INTER:                  -5.957
REMARK INTRA:                  -0.085
REMARK UNBOUND:                -0.075
REMARK SMILES CC[C@H](C)[C@H]([NH3+])C(=O)[O-]
REMARK SMILES IDX 3 1 4 2 5 3 6 4 7 8 8 9 9 10 2 11 1 12
REMARK H PARENT 6 5 6 6 6 7
REMARK Flexibility Score: inf
ROOT
ATOM      1  C   UNL     1     -20.897  69.162   0.289  1.00  0.00     0.050 C 
ATOM      2  C   UNL     1     -21.275  68.730   1.719  1.00  0.00     0.014 C 
ENDROOT
BRANCH   1   3
ATOM      3  C   UNL     1     -19.588  68.479  -0.224  1.00  0.00     0.230 C 
BRANCH   3   4
ATOM      4  N   UNL     1     -18.689  69.440  -0.882  1.00  0.00    -0.350 N 
ATOM      5  H   UNL     1     -17.744  69.027  -1.056  1.00  0.00     0.345 HD
ATOM      6  H   UNL     1     -18.573  70.281  -0.271  1.00  0.00     0.345 HD
ATOM      7  H   UNL     1     -19.101  69.753  -1.790  1.00  0.00     0.345 HD
ENDBRANCH   3   4
BRANCH   3   8
ATOM      8  C   UNL     1     -19.861  67.303  -1.132  1.00  0.00     0.099 C 
ATOM      9  O   UNL     1     -20.950  67.236  -1.763  1.00  0.00    -0.544 OA
ATOM     10  O   UNL     1     -18.913  66.301  -1.300  1.00  0.00    -0.544 OA
ENDBRANCH   3   8
ENDBRANCH   1   3
BRANCH   1  11
ATOM     11  C   UNL     1     -20.841  70.709   0.218  1.00  0.00     0.006 C 
ATOM     12  C   UNL     1     -21.536  71.397   1.395  1.00  0.00     0.004 C 
ENDBRANCH   1  11
TORSDOF 4
ENDMDL
MODEL 5
REMARK VINA RESULT:    -4.928      1.019      1.813
REMARK INTER + INTRA:          -6.011
REMARK INTER:                  -5.944
REMARK INTRA:                  -0.067
REMARK UNBOUND:                -0.075
REMARK SMILES CC[C@H](C)[C@H]([NH3+])C(=O)[O-]
REMARK SMILES IDX 3 1 4 2 5 3 6 4 7 8 8 9 9 10 2 11 1 12
REMARK H PARENT 6 5 6 6 6 7
REMARK Flexibility Score: inf
ROOT
ATOM      1  C   UNL     1     -20.110  68.725  -1.360  1.00  0.00     0.050 C 
ATOM      2  C   UNL     1     -18.681  68.790  -0.786  1.00  0.00     0.014 C 
ENDROOT
BRANCH   1   3
ATOM      3  C   UNL     1     -21.158  69.454  -0.457  1.00  0.00     0.230 C 
BRANCH   3   4
ATOM      4  N   UNL     1     -20.645  70.734   0.055  1.00  0.00    -0.350 N 
ATOM      5  H   UNL     1     -20.263  70.636   1.023  1.00  0.00     0.345 HD
ATOM      6  H   UNL     1     -21.420  71.436   0.077  1.00  0.00     0.345 HD
ATOM      7  H   UNL     1     -19.895  71.098  -0.576  1.00  0.00     0.345 HD
ENDBRANCH   3   4
BRANCH   3   8
ATOM      8  C   UNL     1     -21.653  68.589   0.678  1.00  0.00     0.099 C 
ATOM      9  O   UNL     1     -20.939  68.431   1.704  1.00  0.00    -0.544 OA
ATOM     10  O   UNL     1     -22.901  67.983   0.616  1.00  0.00    -0.544 OA
ENDBRANCH   3   8
ENDBRANCH   1   3
BRANCH   1  11
ATOM     11  C   UNL     1     -20.482  67.249  -1.648  1.00  0.00     0.006 C 
ATOM     12  C   UNL     1     -19.287  66.296  -1.575  1.00  0.00     0.004 C 
ENDBRANCH   1  11
TORSDOF 4
ENDMDL
MODEL 6
REMARK VINA RESULT:    -4.925      2.531      3.540
REMARK INTER + INTRA:          -6.007
REMARK INTER:                  -5.907
REMARK INTRA:                  -0.099
REMARK UNBOUND:                -0.075
REMARK SMILES CC[C@H](C)[C@H]([NH3+])C(=O)[O-]
REMARK SMILES IDX 3 1 4 2 5 3 6 4 7 8 8 9 9 10 2 11 1 12
REMARK H PARENT 6 5 6 6 6 7
REMARK Flexibility Score: inf
ROOT
ATOM      1  C   UNL     1     -20.501  68.374  -1.346  1.00  0.00     0.050 C 
ATOM      2  C   UNL     1     -20.323  66.989  -1.996  1.00  0.00     0.014 C 
ENDROOT
BRANCH   1   3
ATOM      3  C   UNL     1     -19.241  68.834  -0.543  1.00  0.00     0.230 C 
BRANCH   3   4
ATOM      4  N   UNL     1     -18.240  69.473  -1.411  1.00  0.00    -0.350 N 
ATOM      5  H   UNL     1     -18.678  69.873  -2.273  1.00  0.00     0.345 HD
ATOM      6  H   UNL     1     -17.529  68.764  -1.702  1.00  0.00     0.345 HD
ATOM      7  H   UNL     1     -17.747  70.234  -0.891  1.00  0.00     0.345 HD
ENDBRANCH   3   4
BRANCH   3   8
ATOM      8  C   UNL     1     -18.613  67.711   0.250  1.00  0.00     0.099 C 
ATOM      9  O   UNL     1     -17.458  67.303  -0.044  1.00  0.00    -0.544 OA
ATOM     10  O   UNL     1     -19.287  67.137   1.322  1.00  0.00    -0.544 OA
ENDBRANCH   3   8
ENDBRANCH   1   3
BRANCH   1  11
ATOM     11  C   UNL     1     -21.796  68.380  -0.495  1.00  0.00     0.006 C 
ATOM     12  C   UNL     1     -21.835  69.500   0.545  1.00  0.00     0.004 C 
ENDBRANCH   1  11
TORSDOF 4
ENDMDL
MODEL 7
REMARK VINA RESULT:    -4.824      3.114      4.282
REMARK INTER + INTRA:          -5.886
REMARK INTER:                  -5.822
REMARK INTRA:                  -0.064
REMARK UNBOUND:                -0.075
REMARK SMILES CC[C@H](C)[C@H]([NH3+])C(=O)[O-]
REMARK SMILES IDX 3 1 4 2 5 3 6 4 7 8 8 9 9 10 2 11 1 12
REMARK H PARENT 6 5 6 6 6 7
REMARK Flexibility Score: inf
ROOT
ATOM      1  C   UNL     1     -20.665  69.082  -0.000  1.00  0.00     0.050 C 
ATOM      2  C   UNL     1     -20.932  70.588   0.179  1.00  0.00     0.014 C 
ENDROOT
BRANCH   1   3
ATOM      3  C   UNL     1     -19.689  68.776  -1.183  1.00  0.00     0.230 C 
BRANCH   3   4
ATOM      4  N   UNL     1     -19.830  67.393  -1.666  1.00  0.00    -0.350 N 
ATOM      5  H   UNL     1     -20.763  67.234  -2.110  1.00  0.00     0.345 HD
ATOM      6  H   UNL     1     -19.732  66.732  -0.862  1.00  0.00     0.345 HD
ATOM      7  H   UNL     1     -19.077  67.177  -2.359  1.00  0.00     0.345 HD
ENDBRANCH   3   4
BRANCH   3   8
ATOM      8  C   UNL     1     -18.248  69.073  -0.843  1.00  0.00     0.099 C 
ATOM      9  O   UNL     1     -17.737  70.174  -1.181  1.00  0.00    -0.544 OA
ATOM     10  O   UNL     1     -17.481  68.154  -0.137  1.00  0.00    -0.544 OA
ENDBRANCH   3   8
ENDBRANCH   1   3
BRANCH   1  11
ATOM     11  C   UNL     1     -22.015  68.331  -0.119  1.00  0.00     0.006 C 
ATOM     12  C   UNL     1     -22.787  68.259   1.200  1.00  0.00     0.004 C 
ENDBRANCH   1  11
TORSDOF 4
ENDMDL
MODEL 8
REMARK VINA RESULT:    -4.703      2.740      3.570
REMARK INTER + INTRA:          -5.739
REMARK INTER:                  -5.874
REMARK INTRA:                   0.135
REMARK UNBOUND:                -0.075
REMARK SMILES CC[C@H](C)[C@H]([NH3+])C(=O)[O-]
REMARK SMILES IDX 3 1 4 2 5 3 6 4 7 8 8 9 9 10 2 11 1 12
REMARK H PARENT 6 5 6 6 6 7
REMARK Flexibility Score: inf
ROOT
ATOM      1  C   UNL     1     -20.332  69.385  -0.794  1.00  0.00     0.050 C 
ATOM      2  C   UNL     1     -21.301  68.190  -0.875  1.00  0.00     0.014 C 
ENDROOT
BRANCH   1   3
ATOM      3  C   UNL     1     -18.859  68.952  -0.500  1.00  0.00     0.230 C 
BRANCH   3   4
ATOM      4  N   UNL     1     -17.913  69.534  -1.466  1.00  0.00    -0.350 N 
ATOM      5  H   UNL     1     -18.280  70.424  -1.875  1.00  0.00     0.345 HD
ATOM      6  H   UNL     1     -17.751  68.856  -2.245  1.00  0.00     0.345 HD
ATOM      7  H   UNL     1     -16.995  69.720  -1.001  1.00  0.00     0.345 HD
ENDBRANCH   3   4
BRANCH   3   8
ATOM      8  C   UNL     1     -18.693  67.452  -0.435  1.00  0.00     0.099 C 
ATOM      9  O   UNL     1     -18.626  66.875   0.683  1.00  0.00    -0.544 OA
ATOM     10  O   UNL     1     -18.638  66.694  -1.598  1.00  0.00    -0.544 OA
ENDBRANCH   3   8
ENDBRANCH   1   3
BRANCH   1  11
ATOM     11  C   UNL     1     -20.874  70.419   0.225  1.00  0.00     0.006 C 
ATOM     12  C   UNL     1     -21.637  69.782   1.388  1.00  0.00     0.004 C 
ENDBRANCH   1  11
TORSDOF 4
ENDMDL
MODEL 9
REMARK VINA RESULT:    -4.602      1.288      1.727
REMARK INTER + INTRA:          -5.618
REMARK INTER:                  -5.615
REMARK INTRA:                  -0.004
REMARK UNBOUND:                -0.075
REMARK SMILES CC[C@H](C)[C@H]([NH3+])C(=O)[O-]
REMARK SMILES IDX 3 1 4 2 5 3 6 4 7 8 8 9 9 10 2 11 1 12
REMARK H PARENT 6 5 6 6 6 7
REMARK Flexibility Score: inf
ROOT
ATOM      1  C   UNL     1     -20.394  67.714  -0.474  1.00  0.00     0.050 C 
ATOM      2  C   UNL     1     -20.030  67.188  -1.875  1.00  0.00     0.014 C 
ENDROOT
BRANCH   1   3
ATOM      3  C   UNL     1     -20.872  69.203  -0.490  1.00  0.00     0.230 C 
BRANCH   3   4
ATOM      4  N   UNL     1     -19.740  70.141  -0.540  1.00  0.00    -0.350 N 
ATOM      5  H   UNL     1     -20.054  71.112  -0.767  1.00  0.00     0.345 HD
ATOM      6  H   UNL     1     -19.066  69.833  -1.278  1.00  0.00     0.345 HD
ATOM      7  H   UNL     1     -19.237  70.146   0.377  1.00  0.00     0.345 HD
ENDBRANCH   3   4
BRANCH   3   8
ATOM      8  C   UNL     1     -21.785  69.536   0.666  1.00  0.00     0.099 C 
ATOM      9  O   UNL     1     -22.679  68.720   1.016  1.00  0.00    -0.544 OA
ATOM     10  O   UNL     1     -21.636  70.726   1.367  1.00  0.00    -0.544 OA
ENDBRANCH   3   8
ENDBRANCH   1   3
BRANCH   1  11
ATOM     11  C   UNL     1     -19.208  67.469   0.492  1.00  0.00     0.006 C 
ATOM     12  C   UNL     1     -17.858  67.356  -0.220  1.00  0.00     0.004 C 
ENDBRANCH   1  11
TORSDOF 4
ENDMDL
