MODEL 1
REMARK VINA RESULT:    -6.404      0.000      0.000
REMARK INTER + INTRA:          -7.688
REMARK INTER:                  -7.527
REMARK INTRA:                  -0.161
REMARK UNBOUND:                -0.161
REMARK SMILES O=c1c(O)c(-c2ccc(O)cc2)oc2cc(O)cc(O)c12
REMARK SMILES IDX 5 1 3 2 2 3 1 4 21 5 19 6 18 7 16 8 15 9 14 10 13 11 6 12
REMARK SMILES IDX 7 13 8 14 9 15 12 16 11 17 10 18 4 20 20 22 17 24
REMARK H PARENT 10 19 4 21 20 23 17 25
REMARK Flexibility Score: inf
ROOT
ATOM      1  C   UNL     1      30.408 -92.210  37.327  1.00  0.00     0.180 A 
ATOM      2  C   UNL     1      29.175 -92.801  36.999  1.00  0.00     0.208 A 
ATOM      3  C   UNL     1      29.016 -94.185  37.170  1.00  0.00     0.238 A 
ATOM      4  O   UNL     1      27.928 -94.715  36.823  1.00  0.00    -0.285 OA
ATOM      5  C   UNL     1      30.084 -94.959  37.683  1.00  0.00     0.111 A 
ATOM      6  C   UNL     1      30.021 -96.363  37.936  1.00  0.00     0.134 A 
ATOM      7  C   UNL     1      31.179 -97.048  38.319  1.00  0.00     0.093 A 
ATOM      8  C   UNL     1      32.383 -96.370  38.524  1.00  0.00     0.123 A 
ATOM      9  C   UNL     1      32.440 -94.991  38.338  1.00  0.00     0.094 A 
ATOM     10  C   UNL     1      31.310 -94.284  37.920  1.00  0.00     0.146 A 
ATOM     11  O   UNL     1      31.412 -92.973  37.744  1.00  0.00    -0.452 OA
ENDROOT
BRANCH   1  12
ATOM     12  C   UNL     1      30.643 -90.753  37.198  1.00  0.00     0.021 A 
ATOM     13  C   UNL     1      31.635 -90.289  36.316  1.00  0.00     0.016 A 
ATOM     14  C   UNL     1      31.889 -88.920  36.195  1.00  0.00     0.047 A 
ATOM     15  C   UNL     1      31.169 -88.000  36.962  1.00  0.00     0.115 A 
ATOM     16  C   UNL     1      29.936 -89.824  37.981  1.00  0.00     0.016 A 
ATOM     17  C   UNL     1      30.194 -88.455  37.858  1.00  0.00     0.047 A 
BRANCH  15  18
ATOM     18  O   UNL     1      31.433 -86.639  36.831  1.00  0.00    -0.508 OA
ATOM     19  H   UNL     1      31.984 -86.137  37.518  1.00  0.00     0.293 HD
ENDBRANCH  15  18
ENDBRANCH   1  12
BRANCH   2  20
ATOM     20  O   UNL     1      28.140 -92.021  36.473  1.00  0.00    -0.502 OA
ATOM     21  H   UNL     1      27.427 -91.601  37.056  1.00  0.00     0.293 HD
ENDBRANCH   2  20
BRANCH   6  22
ATOM     22  O   UNL     1      28.847 -97.118  37.851  1.00  0.00    -0.507 OA
ATOM     23  H   UNL     1      28.815 -98.115  37.694  1.00  0.00     0.293 HD
ENDBRANCH   6  22
BRANCH   8  24
ATOM     24  O   UNL     1      33.527 -97.059  38.922  1.00  0.00    -0.508 OA
ATOM     25  H   UNL     1      33.483 -97.821  39.588  1.00  0.00     0.293 HD
ENDBRANCH   8  24
TORSDOF 5
ENDMDL
MODEL 2
REMARK VINA RESULT:    -5.765      9.654     11.023
REMARK INTER + INTRA:          -6.937
REMARK INTER:                  -6.668
REMARK INTRA:                  -0.269
REMARK UNBOUND:                -0.161
REMARK SMILES O=c1c(O)c(-c2ccc(O)cc2)oc2cc(O)cc(O)c12
REMARK SMILES IDX 5 1 3 2 2 3 1 4 21 5 19 6 18 7 16 8 15 9 14 10 13 11 6 12
REMARK SMILES IDX 7 13 8 14 9 15 12 16 11 17 10 18 4 20 20 22 17 24
REMARK H PARENT 10 19 4 21 20 23 17 25
REMARK Flexibility Score: inf
ROOT
ATOM      1  C   UNL     1      35.852 -95.537  29.560  1.00  0.00     0.180 A 
ATOM      2  C   UNL     1      36.925 -95.855  28.709  1.00  0.00     0.208 A 
ATOM      3  C   UNL     1      38.229 -95.853  29.229  1.00  0.00     0.238 A 
ATOM      4  O   UNL     1      39.190 -96.085  28.450  1.00  0.00    -0.285 OA
ATOM      5  C   UNL     1      38.444 -95.549  30.595  1.00  0.00     0.111 A 
ATOM      6  C   UNL     1      39.719 -95.557  31.237  1.00  0.00     0.134 A 
ATOM      7  C   UNL     1      39.827 -95.113  32.560  1.00  0.00     0.093 A 
ATOM      8  C   UNL     1      38.698 -94.725  33.285  1.00  0.00     0.123 A 
ATOM      9  C   UNL     1      37.442 -94.771  32.686  1.00  0.00     0.094 A 
ATOM     10  C   UNL     1      37.306 -95.174  31.356  1.00  0.00     0.146 A 
ATOM     11  O   UNL     1      36.092 -95.193  30.820  1.00  0.00    -0.452 OA
ENDROOT
BRANCH   1  12
ATOM     12  C   UNL     1      34.447 -95.543  29.091  1.00  0.00     0.021 A 
ATOM     13  C   UNL     1      33.658 -96.690  29.286  1.00  0.00     0.016 A 
ATOM     14  C   UNL     1      32.337 -96.725  28.832  1.00  0.00     0.047 A 
ATOM     15  C   UNL     1      31.792 -95.624  28.164  1.00  0.00     0.115 A 
ATOM     16  C   UNL     1      33.900 -94.446  28.402  1.00  0.00     0.016 A 
ATOM     17  C   UNL     1      32.578 -94.485  27.947  1.00  0.00     0.047 A 
BRANCH  15  18
ATOM     18  O   UNL     1      30.474 -95.673  27.717  1.00  0.00    -0.508 OA
ATOM     19  H   UNL     1      30.205 -96.242  26.922  1.00  0.00     0.293 HD
ENDBRANCH  15  18
ENDBRANCH   1  12
BRANCH   2  20
ATOM     20  O   UNL     1      36.694 -96.130  27.359  1.00  0.00    -0.502 OA
ATOM     21  H   UNL     1      35.904 -96.681  27.044  1.00  0.00     0.293 HD
ENDBRANCH   2  20
BRANCH   6  22
ATOM     22  O   UNL     1      40.894 -96.014  30.633  1.00  0.00    -0.507 OA
ATOM     23  H   UNL     1      41.485 -95.457  30.033  1.00  0.00     0.293 HD
ENDBRANCH   6  22
BRANCH   8  24
ATOM     24  O   UNL     1      38.815 -94.300  34.607  1.00  0.00    -0.508 OA
ATOM     25  H   UNL     1      39.698 -94.342  35.102  1.00  0.00     0.293 HD
ENDBRANCH   8  24
TORSDOF 5
ENDMDL
MODEL 3
REMARK VINA RESULT:    -5.364      9.521     11.089
REMARK INTER + INTRA:          -6.466
REMARK INTER:                  -6.356
REMARK INTRA:                  -0.110
REMARK UNBOUND:                -0.161
REMARK SMILES O=c1c(O)c(-c2ccc(O)cc2)oc2cc(O)cc(O)c12
REMARK SMILES IDX 5 1 3 2 2 3 1 4 21 5 19 6 18 7 16 8 15 9 14 10 13 11 6 12
REMARK SMILES IDX 7 13 8 14 9 15 12 16 11 17 10 18 4 20 20 22 17 24
REMARK H PARENT 10 19 4 21 20 23 17 25
REMARK Flexibility Score: inf
ROOT
ATOM      1  C   UNL     1      37.235 -95.622  30.878  1.00  0.00     0.180 A 
ATOM      2  C   UNL     1      37.848 -96.306  29.813  1.00  0.00     0.208 A 
ATOM      3  C   UNL     1      37.141 -96.465  28.611  1.00  0.00     0.238 A 
ATOM      4  O   UNL     1      37.673 -97.125  27.680  1.00  0.00    -0.285 OA
ATOM      5  C   UNL     1      35.838 -95.926  28.482  1.00  0.00     0.111 A 
ATOM      6  C   UNL     1      35.046 -95.993  27.296  1.00  0.00     0.134 A 
ATOM      7  C   UNL     1      33.722 -95.541  27.324  1.00  0.00     0.093 A 
ATOM      8  C   UNL     1      33.182 -94.963  28.475  1.00  0.00     0.123 A 
ATOM      9  C   UNL     1      33.966 -94.839  29.619  1.00  0.00     0.094 A 
ATOM     10  C   UNL     1      35.279 -95.314  29.634  1.00  0.00     0.146 A 
ATOM     11  O   UNL     1      35.988 -95.186  30.748  1.00  0.00    -0.452 OA
ENDROOT
BRANCH   1  12
ATOM     12  C   UNL     1      37.927 -95.392  32.168  1.00  0.00     0.021 A 
ATOM     13  C   UNL     1      37.340 -95.854  33.359  1.00  0.00     0.016 A 
ATOM     14  C   UNL     1      37.964 -95.628  34.589  1.00  0.00     0.047 A 
ATOM     15  C   UNL     1      39.171 -94.926  34.648  1.00  0.00     0.115 A 
ATOM     16  C   UNL     1      39.131 -94.669  32.235  1.00  0.00     0.016 A 
ATOM     17  C   UNL     1      39.751 -94.444  33.468  1.00  0.00     0.047 A 
BRANCH  15  18
ATOM     18  O   UNL     1      39.781 -94.709  35.881  1.00  0.00    -0.508 OA
ATOM     19  H   UNL     1      39.312 -94.933  36.751  1.00  0.00     0.293 HD
ENDBRANCH  15  18
ENDBRANCH   1  12
BRANCH   2  20
ATOM     20  O   UNL     1      39.126 -96.849  29.969  1.00  0.00    -0.502 OA
ATOM     21  H   UNL     1      39.368 -97.773  29.633  1.00  0.00     0.293 HD
ENDBRANCH   2  20
BRANCH   6  22
ATOM     22  O   UNL     1      35.519 -96.467  26.068  1.00  0.00    -0.507 OA
ATOM     23  H   UNL     1      35.546 -97.439  25.798  1.00  0.00     0.293 HD
ENDBRANCH   6  22
BRANCH   8  24
ATOM     24  O   UNL     1      31.867 -94.502  28.488  1.00  0.00    -0.508 OA
ATOM     25  H   UNL     1      31.505 -93.952  29.259  1.00  0.00     0.293 HD
ENDBRANCH   8  24
TORSDOF 5
ENDMDL
MODEL 4
REMARK VINA RESULT:    -5.306      7.820     10.386
REMARK INTER + INTRA:          -6.397
REMARK INTER:                  -6.159
REMARK INTRA:                  -0.238
REMARK UNBOUND:                -0.161
REMARK SMILES O=c1c(O)c(-c2ccc(O)cc2)oc2cc(O)cc(O)c12
REMARK SMILES IDX 5 1 3 2 2 3 1 4 21 5 19 6 18 7 16 8 15 9 14 10 13 11 6 12
REMARK SMILES IDX 7 13 8 14 9 15 12 16 11 17 10 18 4 20 20 22 17 24
REMARK H PARENT 10 19 4 21 20 23 17 25
REMARK Flexibility Score: inf
ROOT
ATOM      1  C   UNL     1      39.473 -95.582  35.221  1.00  0.00     0.180 A 
ATOM      2  C   UNL     1      40.498 -95.178  36.094  1.00  0.00     0.208 A 
ATOM      3  C   UNL     1      40.296 -95.290  37.479  1.00  0.00     0.238 A 
ATOM      4  O   UNL     1      41.197 -94.877  38.256  1.00  0.00    -0.285 OA
ATOM      5  C   UNL     1      39.081 -95.819  37.974  1.00  0.00     0.111 A 
ATOM      6  C   UNL     1      38.784 -96.016  39.357  1.00  0.00     0.134 A 
ATOM      7  C   UNL     1      37.500 -96.422  39.736  1.00  0.00     0.093 A 
ATOM      8  C   UNL     1      36.521 -96.705  38.780  1.00  0.00     0.123 A 
ATOM      9  C   UNL     1      36.819 -96.573  37.426  1.00  0.00     0.094 A 
ATOM     10  C   UNL     1      38.080 -96.134  37.017  1.00  0.00     0.146 A 
ATOM     11  O   UNL     1      38.319 -96.012  35.717  1.00  0.00    -0.452 OA
ENDROOT
BRANCH   1  12
ATOM     12  C   UNL     1      39.621 -95.518  33.749  1.00  0.00     0.021 A 
ATOM     13  C   UNL     1      38.892 -94.561  33.022  1.00  0.00     0.016 A 
ATOM     14  C   UNL     1      38.999 -94.498  31.630  1.00  0.00     0.047 A 
ATOM     15  C   UNL     1      39.822 -95.397  30.945  1.00  0.00     0.115 A 
ATOM     16  C   UNL     1      40.431 -96.433  33.053  1.00  0.00     0.016 A 
ATOM     17  C   UNL     1      40.535 -96.367  31.660  1.00  0.00     0.047 A 
BRANCH  15  18
ATOM     18  O   UNL     1      39.919 -95.321  29.558  1.00  0.00    -0.508 OA
ATOM     19  H   UNL     1      40.735 -95.666  29.065  1.00  0.00     0.293 HD
ENDBRANCH  15  18
ENDBRANCH   1  12
BRANCH   2  20
ATOM     20  O   UNL     1      41.683 -94.639  35.585  1.00  0.00    -0.502 OA
ATOM     21  H   UNL     1      42.341 -95.186  35.043  1.00  0.00     0.293 HD
ENDBRANCH   2  20
BRANCH   6  22
ATOM     22  O   UNL     1      39.717 -95.851  40.385  1.00  0.00    -0.507 OA
ATOM     23  H   UNL     1      40.714 -95.769  40.249  1.00  0.00     0.293 HD
ENDBRANCH   6  22
BRANCH   8  24
ATOM     24  O   UNL     1      35.250 -97.125  39.167  1.00  0.00    -0.508 OA
ATOM     25  H   UNL     1      34.416 -96.628  38.878  1.00  0.00     0.293 HD
ENDBRANCH   8  24
TORSDOF 5
ENDMDL
MODEL 5
REMARK VINA RESULT:    -5.072     15.575     17.072
REMARK INTER + INTRA:          -6.123
REMARK INTER:                  -5.830
REMARK INTRA:                  -0.292
REMARK UNBOUND:                -0.161
REMARK SMILES O=c1c(O)c(-c2ccc(O)cc2)oc2cc(O)cc(O)c12
REMARK SMILES IDX 5 1 3 2 2 3 1 4 21 5 19 6 18 7 16 8 15 9 14 10 13 11 6 12
REMARK SMILES IDX 7 13 8 14 9 15 12 16 11 17 10 18 4 20 20 22 17 24
REMARK H PARENT 10 19 4 21 20 23 17 25
REMARK Flexibility Score: inf
ROOT
ATOM      1  C   UNL     1      37.171 -78.006  37.737  1.00  0.00     0.180 A 
ATOM      2  C   UNL     1      35.785 -78.238  37.807  1.00  0.00     0.208 A 
ATOM      3  C   UNL     1      35.029 -78.204  36.625  1.00  0.00     0.238 A 
ATOM      4  O   UNL     1      33.782 -78.359  36.701  1.00  0.00    -0.285 OA
ATOM      5  C   UNL     1      35.667 -77.955  35.386  1.00  0.00     0.111 A 
ATOM      6  C   UNL     1      35.005 -77.938  34.121  1.00  0.00     0.134 A 
ATOM      7  C   UNL     1      35.713 -77.551  32.977  1.00  0.00     0.093 A 
ATOM      8  C   UNL     1      37.075 -77.246  33.041  1.00  0.00     0.123 A 
ATOM      9  C   UNL     1      37.743 -77.317  34.260  1.00  0.00     0.094 A 
ATOM     10  C   UNL     1      37.056 -77.665  35.426  1.00  0.00     0.146 A 
ATOM     11  O   UNL     1      37.729 -77.710  36.569  1.00  0.00    -0.452 OA
ENDROOT
BRANCH   1  12
ATOM     12  C   UNL     1      38.038 -78.050  38.936  1.00  0.00     0.021 A 
ATOM     13  C   UNL     1      38.256 -76.875  39.675  1.00  0.00     0.016 A 
ATOM     14  C   UNL     1      39.090 -76.889  40.797  1.00  0.00     0.047 A 
ATOM     15  C   UNL     1      39.728 -78.071  41.186  1.00  0.00     0.115 A 
ATOM     16  C   UNL     1      38.698 -79.232  39.320  1.00  0.00     0.016 A 
ATOM     17  C   UNL     1      39.533 -79.242  40.443  1.00  0.00     0.047 A 
BRANCH  15  18
ATOM     18  O   UNL     1      40.555 -78.070  42.306  1.00  0.00    -0.508 OA
ATOM     19  H   UNL     1      40.306 -78.576  43.149  1.00  0.00     0.293 HD
ENDBRANCH  15  18
ENDBRANCH   1  12
BRANCH   2  20
ATOM     20  O   UNL     1      35.172 -78.461  39.043  1.00  0.00    -0.502 OA
ATOM     21  H   UNL     1      34.430 -79.138  39.167  1.00  0.00     0.293 HD
ENDBRANCH   2  20
BRANCH   6  22
ATOM     22  O   UNL     1      33.672 -78.315  33.934  1.00  0.00    -0.507 OA
ATOM     23  H   UNL     1      32.893 -77.674  33.897  1.00  0.00     0.293 HD
ENDBRANCH   6  22
BRANCH   8  24
ATOM     24  O   UNL     1      37.774 -76.877  31.894  1.00  0.00    -0.508 OA
ATOM     25  H   UNL     1      38.404 -77.519  31.427  1.00  0.00     0.293 HD
ENDBRANCH   8  24
TORSDOF 5
ENDMDL
MODEL 6
REMARK VINA RESULT:    -5.036     10.744     11.962
REMARK INTER + INTRA:          -6.081
REMARK INTER:                  -5.829
REMARK INTRA:                  -0.252
REMARK UNBOUND:                -0.161
REMARK SMILES O=c1c(O)c(-c2ccc(O)cc2)oc2cc(O)cc(O)c12
REMARK SMILES IDX 5 1 3 2 2 3 1 4 21 5 19 6 18 7 16 8 15 9 14 10 13 11 6 12
REMARK SMILES IDX 7 13 8 14 9 15 12 16 11 17 10 18 4 20 20 22 17 24
REMARK H PARENT 10 19 4 21 20 23 17 25
REMARK Flexibility Score: inf
ROOT
ATOM      1  C   UNL     1      36.049 -95.693  28.942  1.00  0.00     0.180 A 
ATOM      2  C   UNL     1      36.227 -95.763  30.335  1.00  0.00     0.208 A 
ATOM      3  C   UNL     1      37.532 -95.783  30.854  1.00  0.00     0.238 A 
ATOM      4  O   UNL     1      37.685 -95.901  32.098  1.00  0.00    -0.285 OA
ATOM      5  C   UNL     1      38.640 -95.715  29.977  1.00  0.00     0.111 A 
ATOM      6  C   UNL     1      40.005 -95.687  30.395  1.00  0.00     0.134 A 
ATOM      7  C   UNL     1      41.022 -95.752  29.436  1.00  0.00     0.093 A 
ATOM      8  C   UNL     1      40.725 -95.776  28.071  1.00  0.00     0.123 A 
ATOM      9  C   UNL     1      39.398 -95.744  27.651  1.00  0.00     0.094 A 
ATOM     10  C   UNL     1      38.360 -95.716  28.585  1.00  0.00     0.146 A 
ATOM     11  O   UNL     1      37.109 -95.697  28.143  1.00  0.00    -0.452 OA
ENDROOT
BRANCH   1  12
ATOM     12  C   UNL     1      34.705 -95.643  28.322  1.00  0.00     0.021 A 
ATOM     13  C   UNL     1      33.977 -94.441  28.344  1.00  0.00     0.016 A 
ATOM     14  C   UNL     1      32.698 -94.378  27.785  1.00  0.00     0.047 A 
ATOM     15  C   UNL     1      32.123 -95.516  27.211  1.00  0.00     0.115 A 
ATOM     16  C   UNL     1      34.113 -96.790  27.761  1.00  0.00     0.016 A 
ATOM     17  C   UNL     1      32.832 -96.723  27.204  1.00  0.00     0.047 A 
BRANCH  15  18
ATOM     18  O   UNL     1      30.847 -95.437  26.657  1.00  0.00    -0.508 OA
ATOM     19  H   UNL     1      30.094 -94.951  27.130  1.00  0.00     0.293 HD
ENDBRANCH  15  18
ENDBRANCH   1  12
BRANCH   2  20
ATOM     20  O   UNL     1      35.119 -95.851  31.182  1.00  0.00    -0.502 OA
ATOM     21  H   UNL     1      34.739 -96.739  31.489  1.00  0.00     0.293 HD
ENDBRANCH   2  20
BRANCH   6  22
ATOM     22  O   UNL     1      40.410 -95.569  31.728  1.00  0.00    -0.507 OA
ATOM     23  H   UNL     1      41.337 -95.778  32.068  1.00  0.00     0.293 HD
ENDBRANCH   6  22
BRANCH   8  24
ATOM     24  O   UNL     1      41.746 -95.825  27.123  1.00  0.00    -0.508 OA
ATOM     25  H   UNL     1      42.561 -95.227  27.189  1.00  0.00     0.293 HD
ENDBRANCH   8  24
TORSDOF 5
ENDMDL
MODEL 7
REMARK VINA RESULT:    -5.032     15.315     16.333
REMARK INTER + INTRA:          -6.075
REMARK INTER:                  -5.993
REMARK INTRA:                  -0.082
REMARK UNBOUND:                -0.161
REMARK SMILES O=c1c(O)c(-c2ccc(O)cc2)oc2cc(O)cc(O)c12
REMARK SMILES IDX 5 1 3 2 2 3 1 4 21 5 19 6 18 7 16 8 15 9 14 10 13 11 6 12
REMARK SMILES IDX 7 13 8 14 9 15 12 16 11 17 10 18 4 20 20 22 17 24
REMARK H PARENT 10 19 4 21 20 23 17 25
REMARK Flexibility Score: inf
ROOT
ATOM      1  C   UNL     1      35.936 -78.068  37.621  1.00  0.00     0.180 A 
ATOM      2  C   UNL     1      37.007 -77.709  36.784  1.00  0.00     0.208 A 
ATOM      3  C   UNL     1      38.319 -77.986  37.200  1.00  0.00     0.238 A 
ATOM      4  O   UNL     1      39.275 -77.614  36.471  1.00  0.00    -0.285 OA
ATOM      5  C   UNL     1      38.544 -78.631  38.440  1.00  0.00     0.111 A 
ATOM      6  C   UNL     1      39.829 -78.997  38.943  1.00  0.00     0.134 A 
ATOM      7  C   UNL     1      39.942 -79.512  40.239  1.00  0.00     0.093 A 
ATOM      8  C   UNL     1      38.809 -79.739  41.026  1.00  0.00     0.123 A 
ATOM      9  C   UNL     1      37.546 -79.441  40.521  1.00  0.00     0.094 A 
ATOM     10  C   UNL     1      37.404 -78.891  39.245  1.00  0.00     0.146 A 
ATOM     11  O   UNL     1      36.183 -78.613  38.807  1.00  0.00    -0.452 OA
ENDROOT
BRANCH   1  12
ATOM     12  C   UNL     1      34.524 -77.832  37.240  1.00  0.00     0.021 A 
ATOM     13  C   UNL     1      33.687 -77.107  38.105  1.00  0.00     0.016 A 
ATOM     14  C   UNL     1      32.346 -76.892  37.775  1.00  0.00     0.047 A 
ATOM     15  C   UNL     1      31.820 -77.410  36.588  1.00  0.00     0.115 A 
ATOM     16  C   UNL     1      33.985 -78.368  36.056  1.00  0.00     0.016 A 
ATOM     17  C   UNL     1      32.643 -78.152  35.731  1.00  0.00     0.047 A 
BRANCH  15  18
ATOM     18  O   UNL     1      30.482 -77.187  36.272  1.00  0.00    -0.508 OA
ATOM     19  H   UNL     1      30.192 -76.377  35.737  1.00  0.00     0.293 HD
ENDBRANCH  15  18
ENDBRANCH   1  12
BRANCH   2  20
ATOM     20  O   UNL     1      36.764 -77.053  35.574  1.00  0.00    -0.502 OA
ATOM     21  H   UNL     1      36.134 -77.423  34.872  1.00  0.00     0.293 HD
ENDBRANCH   2  20
BRANCH   6  22
ATOM     22  O   UNL     1      41.012 -78.898  38.204  1.00  0.00    -0.507 OA
ATOM     23  H   UNL     1      41.065 -78.922  37.197  1.00  0.00     0.293 HD
ENDBRANCH   6  22
BRANCH   8  24
ATOM     24  O   UNL     1      38.931 -80.267  42.309  1.00  0.00    -0.508 OA
ATOM     25  H   UNL     1      38.831 -79.687  43.134  1.00  0.00     0.293 HD
ENDBRANCH   8  24
TORSDOF 5
ENDMDL
MODEL 8
REMARK VINA RESULT:    -4.779      9.228     11.180
REMARK INTER + INTRA:          -5.778
REMARK INTER:                  -5.574
REMARK INTRA:                  -0.203
REMARK UNBOUND:                -0.161
REMARK SMILES O=c1c(O)c(-c2ccc(O)cc2)oc2cc(O)cc(O)c12
REMARK SMILES IDX 5 1 3 2 2 3 1 4 21 5 19 6 18 7 16 8 15 9 14 10 13 11 6 12
REMARK SMILES IDX 7 13 8 14 9 15 12 16 11 17 10 18 4 20 20 22 17 24
REMARK H PARENT 10 19 4 21 20 23 17 25
REMARK Flexibility Score: inf
ROOT
ATOM      1  C   UNL     1      39.049 -95.461  33.920  1.00  0.00     0.180 A 
ATOM      2  C   UNL     1      37.921 -95.156  33.137  1.00  0.00     0.208 A 
ATOM      3  C   UNL     1      38.033 -95.193  31.738  1.00  0.00     0.238 A 
ATOM      4  O   UNL     1      37.035 -94.867  31.044  1.00  0.00    -0.285 OA
ATOM      5  C   UNL     1      39.264 -95.551  31.138  1.00  0.00     0.111 A 
ATOM      6  C   UNL     1      39.479 -95.661  29.731  1.00  0.00     0.134 A 
ATOM      7  C   UNL     1      40.771 -95.893  29.247  1.00  0.00     0.093 A 
ATOM      8  C   UNL     1      41.845 -96.086  30.120  1.00  0.00     0.123 A 
ATOM      9  C   UNL     1      41.634 -96.040  31.496  1.00  0.00     0.094 A 
ATOM     10  C   UNL     1      40.362 -95.774  32.010  1.00  0.00     0.146 A 
ATOM     11  O   UNL     1      40.207 -95.728  33.327  1.00  0.00    -0.452 OA
ENDROOT
BRANCH   1  12
ATOM     12  C   UNL     1      39.003 -95.467  35.400  1.00  0.00     0.021 A 
ATOM     13  C   UNL     1      39.738 -94.508  36.118  1.00  0.00     0.016 A 
ATOM     14  C   UNL     1      39.727 -94.510  37.516  1.00  0.00     0.047 A 
ATOM     15  C   UNL     1      38.997 -95.476  38.213  1.00  0.00     0.115 A 
ATOM     16  C   UNL     1      38.287 -96.449  36.107  1.00  0.00     0.016 A 
ATOM     17  C   UNL     1      38.279 -96.448  37.506  1.00  0.00     0.047 A 
BRANCH  15  18
ATOM     18  O   UNL     1      38.995 -95.465  39.606  1.00  0.00    -0.508 OA
ATOM     19  H   UNL     1      38.780 -96.299  40.142  1.00  0.00     0.293 HD
ENDBRANCH  15  18
ENDBRANCH   1  12
BRANCH   2  20
ATOM     20  O   UNL     1      36.721 -94.784  33.750  1.00  0.00    -0.502 OA
ATOM     21  H   UNL     1      35.870 -95.324  33.649  1.00  0.00     0.293 HD
ENDBRANCH   2  20
BRANCH   6  22
ATOM     22  O   UNL     1      38.460 -95.577  28.778  1.00  0.00    -0.507 OA
ATOM     23  H   UNL     1      38.058 -94.714  28.440  1.00  0.00     0.293 HD
ENDBRANCH   6  22
BRANCH   8  24
ATOM     24  O   UNL     1      43.125 -96.332  29.628  1.00  0.00    -0.508 OA
ATOM     25  H   UNL     1      43.877 -95.663  29.746  1.00  0.00     0.293 HD
ENDBRANCH   8  24
TORSDOF 5
ENDMDL
