MODEL 1
REMARK VINA RESULT:    -3.539      0.000      0.000
REMARK INTER + INTRA:          -4.722
REMARK INTER:                  -4.987
REMARK INTRA:                   0.265
REMARK UNBOUND:                 0.265
REMARK SMILES CC1=CCC(=C(C)C)C(=O)CC(C)=CCC1
REMARK SMILES IDX 12 1 14 2 13 3 15 4 16 5 2 6 1 7 3 8 11 10 9 11 10 12 5 13
REMARK SMILES IDX 6 14 7 15 8 16 4 17
REMARK H PARENT
REMARK Flexibility Score: 60.00
ROOT
ATOM      1  C   UNL     1      13.633  78.830 -21.799  1.00  0.00    -0.070 C 
ATOM      2  C   UNL     1      13.275  77.550 -21.540  1.00  0.00    -0.027 C 
ATOM      3  C   UNL     1      14.053  79.175 -23.205  1.00  0.00     0.039 C 
ENDROOT
BRANCH   2   4
ATOM      4  C   UNL     1      12.894  76.987 -20.191  1.00  0.00     0.032 C 
BRANCH   4   5
ATOM      5  C   UNL     1      11.466  77.368 -19.764  1.00  0.00     0.034 C 
BRANCH   5   6
ATOM      6  C   UNL     1      11.419  78.016 -18.392  1.00  0.00    -0.077 C 
ATOM      7  C   UNL     1      11.902  77.218 -17.207  1.00  0.00     0.039 C 
ATOM      8  C   UNL     1      10.987  79.279 -18.169  1.00  0.00    -0.023 CG0
ATOM      9  G   UNL     1      10.522  80.254 -19.224  1.00  0.00     0.000 G0
ENDBRANCH   5   6
ENDBRANCH   4   5
ENDBRANCH   2   4
BRANCH   1  10
ATOM     10  C   UNL     1      13.655  79.929 -20.752  1.00  0.00     0.111 C 
BRANCH  10  11
ATOM     11  C   UNL     1      12.444  80.827 -20.837  1.00  0.00     0.163 C 
ATOM     12  O   UNL     1      12.161  81.337 -21.955  1.00  0.00    -0.294 OA
BRANCH  11  13
ATOM     13  C   UNL     1      11.629  81.191 -19.638  1.00  0.00    -0.002 C 
ATOM     14  C   UNL     1      11.799  82.401 -19.029  1.00  0.00    -0.069 C 
ATOM     15  C   UNL     1      12.846  83.382 -19.508  1.00  0.00     0.039 C 
ATOM     16  C   UNL     1      10.915  82.834 -17.882  1.00  0.00     0.039 C 
BRANCH  13  17
ATOM     17  C   UNL     1      10.510  80.249 -19.211  1.00  0.00     0.066 CG0
ATOM     18  G   UNL     1      10.978  79.257 -18.172  1.00  0.00     0.000 G0
ENDBRANCH  13  17
ENDBRANCH  11  13
ENDBRANCH  10  11
ENDBRANCH   1  10
TORSDOF 0
ENDMDL
MODEL 2
REMARK VINA RESULT:    -3.535      4.586      7.612
REMARK INTER + INTRA:          -4.716
REMARK INTER:                  -4.883
REMARK INTRA:                   0.167
REMARK UNBOUND:                 0.265
REMARK SMILES CC1=CCC(=C(C)C)C(=O)CC(C)=CCC1
REMARK SMILES IDX 12 1 14 2 13 3 15 4 16 5 2 6 1 7 3 8 11 10 9 11 10 12 5 13
REMARK SMILES IDX 6 14 7 15 8 16 4 17
REMARK H PARENT
REMARK Flexibility Score: 60.00
ROOT
ATOM      1  C   UNL     1      12.780  76.094 -19.065  1.00  0.00    -0.070 C 
ATOM      2  C   UNL     1      12.692  77.098 -19.969  1.00  0.00    -0.027 C 
ATOM      3  C   UNL     1      12.082  76.272 -17.741  1.00  0.00     0.039 C 
ENDROOT
BRANCH   2   4
ATOM      4  C   UNL     1      13.373  77.146 -21.317  1.00  0.00     0.032 C 
BRANCH   4   5
ATOM      5  C   UNL     1      12.494  76.596 -22.454  1.00  0.00     0.034 C 
BRANCH   5   6
ATOM      6  C   UNL     1      13.253  75.665 -23.382  1.00  0.00    -0.077 C 
ATOM      7  C   UNL     1      14.230  76.270 -24.359  1.00  0.00     0.039 C 
ATOM      8  C   UNL     1      13.121  74.319 -23.373  1.00  0.00    -0.023 CG0
ATOM      9  G   UNL     1      12.244  73.522 -22.436  1.00  0.00     0.000 G0
ENDBRANCH   5   6
ENDBRANCH   4   5
ENDBRANCH   2   4
BRANCH   1  10
ATOM     10  C   UNL     1      13.559  74.812 -19.300  1.00  0.00     0.111 C 
BRANCH  10  11
ATOM     11  C   UNL     1      12.696  73.715 -19.875  1.00  0.00     0.163 C 
ATOM     12  O   UNL     1      11.727  73.298 -19.184  1.00  0.00    -0.294 OA
BRANCH  11  13
ATOM     13  C   UNL     1      13.000  73.057 -21.182  1.00  0.00    -0.002 C 
ATOM     14  C   UNL     1      13.850  71.991 -21.238  1.00  0.00    -0.069 C 
ATOM     15  C   UNL     1      14.551  71.478 -20.000  1.00  0.00     0.039 C 
ATOM     16  C   UNL     1      14.090  71.243 -22.530  1.00  0.00     0.039 C 
BRANCH  13  17
ATOM     17  C   UNL     1      12.226  73.507 -22.416  1.00  0.00     0.066 CG0
ATOM     18  G   UNL     1      13.091  74.308 -23.360  1.00  0.00     0.000 G0
ENDBRANCH  13  17
ENDBRANCH  11  13
ENDBRANCH  10  11
ENDBRANCH   1  10
TORSDOF 0
ENDMDL
MODEL 3
REMARK VINA RESULT:    -3.440     12.801     13.901
REMARK INTER + INTRA:          -4.583
REMARK INTER:                  -4.733
REMARK INTRA:                   0.150
REMARK UNBOUND:                 0.265
REMARK SMILES CC1=CCC(=C(C)C)C(=O)CC(C)=CCC1
REMARK SMILES IDX 12 1 14 2 13 3 15 4 16 5 2 6 1 7 3 8 11 10 9 11 10 12 5 13
REMARK SMILES IDX 6 14 7 15 8 16 4 17
REMARK H PARENT
REMARK Flexibility Score: 60.00
ROOT
ATOM      1  C   UNL     1      -0.029  77.766 -25.475  1.00  0.00    -0.070 C 
ATOM      2  C   UNL     1       0.292  76.479 -25.198  1.00  0.00    -0.027 C 
ATOM      3  C   UNL     1      -0.373  78.672 -24.320  1.00  0.00     0.039 C 
ENDROOT
BRANCH   2   4
ATOM      4  C   UNL     1       0.596  75.400 -26.210  1.00  0.00     0.032 C 
BRANCH   4   5
ATOM      5  C   UNL     1       2.046  75.447 -26.720  1.00  0.00     0.034 C 
BRANCH   5   6
ATOM      6  C   UNL     1       2.133  75.461 -28.236  1.00  0.00    -0.077 C 
ATOM      7  C   UNL     1       1.658  74.244 -28.990  1.00  0.00     0.039 C 
ATOM      8  C   UNL     1       2.594  76.509 -28.955  1.00  0.00    -0.023 CG0
ATOM      9  G   UNL     1       3.057  77.833 -28.394  1.00  0.00     0.000 G0
ENDBRANCH   5   6
ENDBRANCH   4   5
ENDBRANCH   2   4
BRANCH   1  10
ATOM     10  C   UNL     1      -0.082  78.339 -26.879  1.00  0.00     0.111 C 
BRANCH  10  11
ATOM     11  C   UNL     1       1.150  79.142 -27.218  1.00  0.00     0.163 C 
ATOM     12  O   UNL     1       1.467  80.094 -26.454  1.00  0.00    -0.294 OA
BRANCH  11  13
ATOM     13  C   UNL     1       1.949  78.900 -28.458  1.00  0.00    -0.002 C 
ATOM     14  C   UNL     1       1.781  79.695 -29.554  1.00  0.00    -0.069 C 
ATOM     15  C   UNL     1       0.750  80.802 -29.572  1.00  0.00     0.039 C 
ATOM     16  C   UNL     1       2.651  79.538 -30.780  1.00  0.00     0.039 C 
BRANCH  13  17
ATOM     17  C   UNL     1       3.054  77.851 -28.413  1.00  0.00     0.066 CG0
ATOM     18  G   UNL     1       2.581  76.517 -28.941  1.00  0.00     0.000 G0
ENDBRANCH  13  17
ENDBRANCH  11  13
ENDBRANCH  10  11
ENDBRANCH   1  10
TORSDOF 0
ENDMDL
MODEL 4
REMARK VINA RESULT:    -3.339      8.322     10.253
REMARK INTER + INTRA:          -4.441
REMARK INTER:                  -4.699
REMARK INTRA:                   0.257
REMARK UNBOUND:                 0.265
REMARK SMILES CC1=CCC(=C(C)C)C(=O)CC(C)=CCC1
REMARK SMILES IDX 12 1 14 2 13 3 15 4 16 5 2 6 1 7 3 8 11 10 9 11 10 12 5 13
REMARK SMILES IDX 6 14 7 15 8 16 4 17
REMARK H PARENT
REMARK Flexibility Score: 60.00
ROOT
ATOM      1  C   UNL     1       9.852  74.474 -29.905  1.00  0.00    -0.070 C 
ATOM      2  C   UNL     1      10.309  73.988 -28.726  1.00  0.00    -0.027 C 
ATOM      3  C   UNL     1       8.784  73.691 -30.625  1.00  0.00     0.039 C 
ENDROOT
BRANCH   2   4
ATOM      4  C   UNL     1      11.419  74.580 -27.890  1.00  0.00     0.032 C 
BRANCH   4   5
ATOM      5  C   UNL     1      10.939  75.718 -26.974  1.00  0.00     0.034 C 
BRANCH   5   6
ATOM      6  C   UNL     1      11.724  77.002 -27.174  1.00  0.00    -0.077 C 
ATOM      7  C   UNL     1      13.173  77.026 -26.755  1.00  0.00     0.039 C 
ATOM      8  C   UNL     1      11.208  78.123 -27.727  1.00  0.00    -0.023 CG0
ATOM      9  G   UNL     1       9.804  78.281 -28.262  1.00  0.00     0.000 G0
ENDBRANCH   5   6
ENDBRANCH   4   5
ENDBRANCH   2   4
BRANCH   1  10
ATOM     10  C   UNL     1      10.368  75.747 -30.551  1.00  0.00     0.111 C 
BRANCH  10  11
ATOM     11  C   UNL     1       9.394  76.892 -30.418  1.00  0.00     0.163 C 
ATOM     12  O   UNL     1       8.243  76.753 -30.913  1.00  0.00    -0.294 OA
BRANCH  11  13
ATOM     13  C   UNL     1       9.773  78.200 -29.802  1.00  0.00    -0.002 C 
ATOM     14  C   UNL     1       9.944  79.308 -30.581  1.00  0.00    -0.069 C 
ATOM     15  C   UNL     1       9.813  79.238 -32.086  1.00  0.00     0.039 C 
ATOM     16  C   UNL     1      10.222  80.663 -29.971  1.00  0.00     0.039 C 
BRANCH  13  17
ATOM     17  C   UNL     1       9.811  78.298 -28.281  1.00  0.00     0.066 CG0
ATOM     18  G   UNL     1      11.212  78.120 -27.743  1.00  0.00     0.000 G0
ENDBRANCH  13  17
ENDBRANCH  11  13
ENDBRANCH  10  11
ENDBRANCH   1  10
TORSDOF 0
ENDMDL
MODEL 5
REMARK VINA RESULT:    -3.335     10.896     12.334
REMARK INTER + INTRA:          -4.435
REMARK INTER:                  -4.554
REMARK INTRA:                   0.120
REMARK UNBOUND:                 0.265
REMARK SMILES CC1=CCC(=C(C)C)C(=O)CC(C)=CCC1
REMARK SMILES IDX 12 1 14 2 13 3 15 4 16 5 2 6 1 7 3 8 11 10 9 11 10 12 5 13
REMARK SMILES IDX 6 14 7 15 8 16 4 17
REMARK H PARENT
REMARK Flexibility Score: 60.00
ROOT
ATOM      1  C   UNL     1      -0.382  79.048 -21.510  1.00  0.00    -0.070 C 
ATOM      2  C   UNL     1      -1.200  78.253 -22.239  1.00  0.00    -0.027 C 
ATOM      3  C   UNL     1      -0.827  80.463 -21.241  1.00  0.00     0.039 C 
ENDROOT
BRANCH   2   4
ATOM      4  C   UNL     1      -0.909  76.837 -22.677  1.00  0.00     0.032 C 
BRANCH   4   5
ATOM      5  C   UNL     1      -1.175  75.800 -21.572  1.00  0.00     0.034 C 
BRANCH   5   6
ATOM      6  C   UNL     1      -0.008  74.852 -21.365  1.00  0.00    -0.077 C 
ATOM      7  C   UNL     1       0.370  73.927 -22.495  1.00  0.00     0.039 C 
ATOM      8  C   UNL     1       0.731  74.801 -20.233  1.00  0.00    -0.023 CG0
ATOM      9  G   UNL     1       0.551  75.681 -19.019  1.00  0.00     0.000 G0
ENDBRANCH   5   6
ENDBRANCH   4   5
ENDBRANCH   2   4
BRANCH   1  10
ATOM     10  C   UNL     1       0.965  78.603 -20.968  1.00  0.00     0.111 C 
BRANCH  10  11
ATOM     11  C   UNL     1       0.891  78.192 -19.517  1.00  0.00     0.163 C 
ATOM     12  O   UNL     1       0.397  79.009 -18.694  1.00  0.00    -0.294 OA
BRANCH  11  13
ATOM     13  C   UNL     1       1.456  76.900 -19.020  1.00  0.00    -0.002 C 
ATOM     14  C   UNL     1       2.708  76.856 -18.478  1.00  0.00    -0.069 C 
ATOM     15  C   UNL     1       3.581  78.090 -18.415  1.00  0.00     0.039 C 
ATOM     16  C   UNL     1       3.258  75.585 -17.872  1.00  0.00     0.039 C 
BRANCH  13  17
ATOM     17  C   UNL     1       0.547  75.677 -18.993  1.00  0.00     0.066 CG0
ATOM     18  G   UNL     1       0.721  74.823 -20.227  1.00  0.00     0.000 G0
ENDBRANCH  13  17
ENDBRANCH  11  13
ENDBRANCH  10  11
ENDBRANCH   1  10
TORSDOF 0
ENDMDL
MODEL 6
REMARK VINA RESULT:    -3.302      6.474      8.347
REMARK INTER + INTRA:          -4.388
REMARK INTER:                  -4.555
REMARK INTRA:                   0.167
REMARK UNBOUND:                 0.265
REMARK SMILES CC1=CCC(=C(C)C)C(=O)CC(C)=CCC1
REMARK SMILES IDX 12 1 14 2 13 3 15 4 16 5 2 6 1 7 3 8 11 10 9 11 10 12 5 13
REMARK SMILES IDX 6 14 7 15 8 16 4 17
REMARK H PARENT
REMARK Flexibility Score: 60.00
ROOT
ATOM      1  C   UNL     1       6.513  76.498 -16.635  1.00  0.00    -0.070 C 
ATOM      2  C   UNL     1       7.717  77.119 -16.625  1.00  0.00    -0.027 C 
ATOM      3  C   UNL     1       6.346  75.268 -15.780  1.00  0.00     0.039 C 
ENDROOT
BRANCH   2   4
ATOM      4  C   UNL     1       8.109  78.316 -17.459  1.00  0.00     0.032 C 
BRANCH   4   5
ATOM      5  C   UNL     1       7.631  79.649 -16.858  1.00  0.00     0.034 C 
BRANCH   5   6
ATOM      6  C   UNL     1       6.864  80.499 -17.855  1.00  0.00    -0.077 C 
ATOM      7  C   UNL     1       7.603  81.035 -19.055  1.00  0.00     0.039 C 
ATOM      8  C   UNL     1       5.548  80.789 -17.742  1.00  0.00    -0.023 CG0
ATOM      9  G   UNL     1       4.623  80.301 -16.652  1.00  0.00     0.000 G0
ENDBRANCH   5   6
ENDBRANCH   4   5
ENDBRANCH   2   4
BRANCH   1  10
ATOM     10  C   UNL     1       5.333  76.959 -17.471  1.00  0.00     0.111 C 
BRANCH  10  11
ATOM     11  C   UNL     1       4.321  77.730 -16.659  1.00  0.00     0.163 C 
ATOM     12  O   UNL     1       3.839  77.180 -15.632  1.00  0.00    -0.294 OA
BRANCH  11  13
ATOM     13  C   UNL     1       3.816  79.074 -17.075  1.00  0.00    -0.002 C 
ATOM     14  C   UNL     1       2.607  79.196 -17.698  1.00  0.00    -0.069 C 
ATOM     15  C   UNL     1       1.772  77.981 -18.037  1.00  0.00     0.039 C 
ATOM     16  C   UNL     1       2.028  80.551 -18.032  1.00  0.00     0.039 C 
BRANCH  13  17
ATOM     17  C   UNL     1       4.607  80.307 -16.653  1.00  0.00     0.066 CG0
ATOM     18  G   UNL     1       5.539  80.776 -17.744  1.00  0.00     0.000 G0
ENDBRANCH  13  17
ENDBRANCH  11  13
ENDBRANCH  10  11
ENDBRANCH   1  10
TORSDOF 0
ENDMDL
MODEL 7
REMARK VINA RESULT:    -3.285      4.669      6.459
REMARK INTER + INTRA:          -4.365
REMARK INTER:                  -4.583
REMARK INTRA:                   0.218
REMARK UNBOUND:                 0.265
REMARK SMILES CC1=CCC(=C(C)C)C(=O)CC(C)=CCC1
REMARK SMILES IDX 12 1 14 2 13 3 15 4 16 5 2 6 1 7 3 8 11 10 9 11 10 12 5 13
REMARK SMILES IDX 6 14 7 15 8 16 4 17
REMARK H PARENT
REMARK Flexibility Score: 60.00
ROOT
ATOM      1  C   UNL     1      13.747  72.821 -25.349  1.00  0.00    -0.070 C 
ATOM      2  C   UNL     1      13.473  71.990 -24.316  1.00  0.00    -0.027 C 
ATOM      3  C   UNL     1      13.445  72.339 -26.744  1.00  0.00     0.039 C 
ENDROOT
BRANCH   2   4
ATOM      4  C   UNL     1      13.765  72.254 -22.858  1.00  0.00     0.032 C 
BRANCH   4   5
ATOM      5  C   UNL     1      12.532  72.738 -22.076  1.00  0.00     0.034 C 
BRANCH   5   6
ATOM      6  C   UNL     1      12.839  73.918 -21.172  1.00  0.00    -0.077 C 
ATOM      7  C   UNL     1      13.469  73.645 -19.829  1.00  0.00     0.039 C 
ATOM      8  C   UNL     1      12.599  75.207 -21.506  1.00  0.00    -0.023 CG0
ATOM      9  G   UNL     1      12.031  75.690 -22.820  1.00  0.00     0.000 G0
ENDBRANCH   5   6
ENDBRANCH   4   5
ENDBRANCH   2   4
BRANCH   1  10
ATOM     10  C   UNL     1      14.360  74.201 -25.182  1.00  0.00     0.111 C 
BRANCH  10  11
ATOM     11  C   UNL     1      13.313  75.282 -25.059  1.00  0.00     0.163 C 
ATOM     12  O   UNL     1      12.609  75.544 -26.072  1.00  0.00    -0.294 OA
BRANCH  11  13
ATOM     13  C   UNL     1      13.145  76.097 -23.818  1.00  0.00    -0.002 C 
ATOM     14  C   UNL     1      13.866  77.242 -23.639  1.00  0.00    -0.069 C 
ATOM     15  C   UNL     1      14.893  77.690 -24.656  1.00  0.00     0.039 C 
ATOM     16  C   UNL     1      13.636  78.138 -22.444  1.00  0.00     0.039 C 
BRANCH  13  17
ATOM     17  C   UNL     1      12.046  75.702 -22.837  1.00  0.00     0.066 CG0
ATOM     18  G   UNL     1      12.615  75.204 -21.530  1.00  0.00     0.000 G0
ENDBRANCH  13  17
ENDBRANCH  11  13
ENDBRANCH  10  11
ENDBRANCH   1  10
TORSDOF 0
ENDMDL
MODEL 8
REMARK VINA RESULT:    -3.155      7.310      8.768
REMARK INTER + INTRA:          -4.181
REMARK INTER:                  -4.516
REMARK INTRA:                   0.334
REMARK UNBOUND:                 0.265
REMARK SMILES CC1=CCC(=C(C)C)C(=O)CC(C)=CCC1
REMARK SMILES IDX 12 1 14 2 13 3 15 4 16 5 2 6 1 7 3 8 11 10 9 11 10 12 5 13
REMARK SMILES IDX 6 14 7 15 8 16 4 17
REMARK H PARENT
REMARK Flexibility Score: 60.00
ROOT
ATOM      1  C   UNL     1       2.028  77.859 -18.926  1.00  0.00    -0.070 C 
ATOM      2  C   UNL     1       2.221  76.881 -18.009  1.00  0.00    -0.027 C 
ATOM      3  C   UNL     1       0.681  77.942 -19.597  1.00  0.00     0.039 C 
ENDROOT
BRANCH   2   4
ATOM      4  C   UNL     1       3.510  76.585 -17.281  1.00  0.00     0.032 C 
BRANCH   4   5
ATOM      5  C   UNL     1       3.915  77.699 -16.300  1.00  0.00     0.034 C 
BRANCH   5   6
ATOM      6  C   UNL     1       5.358  78.138 -16.477  1.00  0.00    -0.077 C 
ATOM      7  C   UNL     1       6.430  77.078 -16.506  1.00  0.00     0.039 C 
ATOM      8  C   UNL     1       5.740  79.427 -16.631  1.00  0.00    -0.023 CG0
ATOM      9  G   UNL     1       4.818  80.623 -16.688  1.00  0.00     0.000 G0
ENDBRANCH   5   6
ENDBRANCH   4   5
ENDBRANCH   2   4
BRANCH   1  10
ATOM     10  C   UNL     1       3.095  78.860 -19.330  1.00  0.00     0.111 C 
BRANCH  10  11
ATOM     11  C   UNL     1       3.037  80.124 -18.507  1.00  0.00     0.163 C 
ATOM     12  O   UNL     1       1.902  80.596 -18.223  1.00  0.00    -0.294 OA
BRANCH  11  13
ATOM     13  C   UNL     1       4.265  80.869 -18.094  1.00  0.00    -0.002 C 
ATOM     14  C   UNL     1       4.790  81.837 -18.902  1.00  0.00    -0.069 C 
ATOM     15  C   UNL     1       4.186  82.145 -20.254  1.00  0.00     0.039 C 
ATOM     16  C   UNL     1       5.966  82.677 -18.459  1.00  0.00     0.039 C 
BRANCH  13  17
ATOM     17  C   UNL     1       4.820  80.631 -16.695  1.00  0.00     0.066 CG0
ATOM     18  G   UNL     1       5.733  79.429 -16.651  1.00  0.00     0.000 G0
ENDBRANCH  13  17
ENDBRANCH  11  13
ENDBRANCH  10  11
ENDBRANCH   1  10
TORSDOF 0
ENDMDL
MODEL 9
REMARK VINA RESULT:    -3.134      1.860      4.254
REMARK INTER + INTRA:          -4.152
REMARK INTER:                  -4.290
REMARK INTRA:                   0.138
REMARK UNBOUND:                 0.265
REMARK SMILES CC1=CCC(=C(C)C)C(=O)CC(C)=CCC1
REMARK SMILES IDX 12 1 14 2 13 3 15 4 16 5 2 6 1 7 3 8 11 10 9 11 10 12 5 13
REMARK SMILES IDX 6 14 7 15 8 16 4 17
REMARK H PARENT
REMARK Flexibility Score: 60.00
ROOT
ATOM      1  C   UNL     1      10.302  82.133 -20.115  1.00  0.00    -0.070 C 
ATOM      2  C   UNL     1       9.199  82.243 -19.338  1.00  0.00    -0.027 C 
ATOM      3  C   UNL     1      10.958  83.403 -20.593  1.00  0.00     0.039 C 
ENDROOT
BRANCH   2   4
ATOM      4  C   UNL     1       8.358  81.100 -18.818  1.00  0.00     0.032 C 
BRANCH   4   5
ATOM      5  C   UNL     1       8.879  80.527 -17.489  1.00  0.00     0.034 C 
BRANCH   5   6
ATOM      6  C   UNL     1       8.917  79.010 -17.481  1.00  0.00    -0.077 C 
ATOM      7  C   UNL     1       7.607  78.262 -17.489  1.00  0.00     0.039 C 
ATOM      8  C   UNL     1      10.059  78.284 -17.488  1.00  0.00    -0.023 CG0
ATOM      9  G   UNL     1      11.462  78.841 -17.540  1.00  0.00     0.000 G0
ENDBRANCH   5   6
ENDBRANCH   4   5
ENDBRANCH   2   4
BRANCH   1  10
ATOM     10  C   UNL     1      10.901  80.807 -20.549  1.00  0.00     0.111 C 
BRANCH  10  11
ATOM     11  C   UNL     1      11.986  80.335 -19.613  1.00  0.00     0.163 C 
ATOM     12  O   UNL     1      12.974  81.094 -19.418  1.00  0.00    -0.294 OA
BRANCH  11  13
ATOM     13  C   UNL     1      11.968  78.979 -18.983  1.00  0.00    -0.002 C 
ATOM     14  C   UNL     1      12.509  77.908 -19.634  1.00  0.00    -0.069 C 
ATOM     15  C   UNL     1      13.087  78.043 -21.025  1.00  0.00     0.039 C 
ATOM     16  C   UNL     1      12.598  76.551 -18.975  1.00  0.00     0.039 C 
BRANCH  13  17
ATOM     17  C   UNL     1      11.474  78.855 -17.547  1.00  0.00     0.066 CG0
ATOM     18  G   UNL     1      10.079  78.282 -17.481  1.00  0.00     0.000 G0
ENDBRANCH  13  17
ENDBRANCH  11  13
ENDBRANCH  10  11
ENDBRANCH   1  10
TORSDOF 0
ENDMDL
