MODEL 1
REMARK VINA RESULT:    -4.035      0.000      0.000
REMARK INTER + INTRA:          -9.045
REMARK INTER:                  -7.574
REMARK INTRA:                  -1.472
REMARK UNBOUND:                -1.472
REMARK SMILES O=C([O-])CCCCCCCCCCCCCCC(=O)[O-]
REMARK SMILES IDX 10 1 9 2 8 3 7 4 6 5 5 6 4 7 2 8 1 9 3 10 11 11 12 12 13 13
REMARK SMILES IDX 14 14 15 15 16 16 17 17 18 18 19 19 20 20
REMARK H PARENT
REMARK Flexibility Score: inf
ROOT
ATOM      1  C   UNL     1       8.389   5.232  54.411  1.00  0.00     0.000 C 
ENDROOT
BRANCH   1   2
ATOM      2  C   UNL     1       9.338   4.851  53.255  1.00  0.00     0.000 C 
BRANCH   2   3
ATOM      3  C   UNL     1      10.256   6.001  52.809  1.00  0.00     0.000 C 
BRANCH   3   4
ATOM      4  C   UNL     1      10.041   6.403  51.343  1.00  0.00     0.000 C 
BRANCH   4   5
ATOM      5  C   UNL     1      11.346   6.292  50.545  1.00  0.00     0.000 C 
BRANCH   5   6
ATOM      6  C   UNL     1      11.896   4.860  50.587  1.00  0.00     0.006 C 
BRANCH   6   7
ATOM      7  C   UNL     1      10.955   3.855  49.911  1.00  0.00     0.053 C 
BRANCH   7   8
ATOM      8  C   UNL     1      10.684   2.671  50.788  1.00  0.00     0.041 C 
ATOM      9  O   UNL     1      11.466   2.391  51.735  1.00  0.00    -0.550 OA
ATOM     10  O   UNL     1       9.550   1.896  50.581  1.00  0.00    -0.550 OA
ENDBRANCH   7   8
ENDBRANCH   6   7
ENDBRANCH   5   6
ENDBRANCH   4   5
ENDBRANCH   3   4
ENDBRANCH   2   3
ENDBRANCH   1   2
BRANCH   1  11
ATOM     11  C   UNL     1       7.038   4.504  54.317  1.00  0.00     0.000 C 
BRANCH  11  12
ATOM     12  C   UNL     1       6.865   3.838  52.947  1.00  0.00     0.000 C 
BRANCH  12  13
ATOM     13  C   UNL     1       5.782   4.552  52.123  1.00  0.00     0.000 C 
BRANCH  13  14
ATOM     14  C   UNL     1       6.348   5.242  50.871  1.00  0.00     0.000 C 
BRANCH  14  15
ATOM     15  C   UNL     1       5.453   6.384  50.369  1.00  0.00     0.000 C 
BRANCH  15  16
ATOM     16  C   UNL     1       4.074   6.337  51.043  1.00  0.00     0.006 C 
BRANCH  16  17
ATOM     17  C   UNL     1       2.967   5.910  50.071  1.00  0.00     0.053 C 
BRANCH  17  18
ATOM     18  C   UNL     1       2.072   4.867  50.668  1.00  0.00     0.041 C 
ATOM     19  O   UNL     1       2.556   3.781  51.083  1.00  0.00    -0.550 OA
ATOM     20  O   UNL     1       0.702   5.081  50.737  1.00  0.00    -0.550 OA
ENDBRANCH  17  18
ENDBRANCH  16  17
ENDBRANCH  15  16
ENDBRANCH  14  15
ENDBRANCH  13  14
ENDBRANCH  12  13
ENDBRANCH  11  12
ENDBRANCH   1  11
TORSDOF 15
ENDMDL
MODEL 2
REMARK VINA RESULT:    -3.950      2.514      4.334
REMARK INTER + INTRA:          -8.885
REMARK INTER:                  -6.815
REMARK INTRA:                  -2.070
REMARK UNBOUND:                -1.472
REMARK SMILES O=C([O-])CCCCCCCCCCCCCCC(=O)[O-]
REMARK SMILES IDX 10 1 9 2 8 3 7 4 6 5 5 6 4 7 2 8 1 9 3 10 11 11 12 12 13 13
REMARK SMILES IDX 14 14 15 15 16 16 17 17 18 18 19 19 20 20
REMARK H PARENT
REMARK Flexibility Score: inf
ROOT
ATOM      1  C   UNL     1      12.146   4.114  52.022  1.00  0.00     0.000 C 
ENDROOT
BRANCH   1   2
ATOM      2  C   UNL     1      11.972   4.674  50.595  1.00  0.00     0.000 C 
BRANCH   2   3
ATOM      3  C   UNL     1      10.804   5.665  50.460  1.00  0.00     0.000 C 
BRANCH   3   4
ATOM      4  C   UNL     1      10.224   6.093  51.815  1.00  0.00     0.000 C 
BRANCH   4   5
ATOM      5  C   UNL     1       8.815   5.520  52.016  1.00  0.00     0.000 C 
BRANCH   5   6
ATOM      6  C   UNL     1       8.755   4.633  53.268  1.00  0.00     0.006 C 
BRANCH   6   7
ATOM      7  C   UNL     1       8.702   5.454  54.561  1.00  0.00     0.053 C 
BRANCH   7   8
ATOM      8  C   UNL     1       7.739   4.873  55.550  1.00  0.00     0.041 C 
ATOM      9  O   UNL     1       8.094   4.684  56.744  1.00  0.00    -0.550 OA
ATOM     10  O   UNL     1       6.439   4.574  55.164  1.00  0.00    -0.550 OA
ENDBRANCH   7   8
ENDBRANCH   6   7
ENDBRANCH   5   6
ENDBRANCH   4   5
ENDBRANCH   3   4
ENDBRANCH   2   3
ENDBRANCH   1   2
BRANCH   1  11
ATOM     11  C   UNL     1      11.860   2.606  52.093  1.00  0.00     0.000 C 
BRANCH  11  12
ATOM     12  C   UNL     1      11.028   2.145  50.891  1.00  0.00     0.000 C 
BRANCH  12  13
ATOM     13  C   UNL     1       9.557   1.946  51.284  1.00  0.00     0.000 C 
BRANCH  13  14
ATOM     14  C   UNL     1       8.587   2.254  50.132  1.00  0.00     0.000 C 
BRANCH  14  15
ATOM     15  C   UNL     1       7.121   1.989  50.505  1.00  0.00     0.000 C 
BRANCH  15  16
ATOM     16  C   UNL     1       6.278   3.265  50.356  1.00  0.00     0.006 C 
BRANCH  16  17
ATOM     17  C   UNL     1       5.554   3.637  51.655  1.00  0.00     0.053 C 
BRANCH  17  18
ATOM     18  C   UNL     1       4.260   4.343  51.390  1.00  0.00     0.041 C 
ATOM     19  O   UNL     1       3.242   3.689  51.041  1.00  0.00    -0.550 OA
ATOM     20  O   UNL     1       4.187   5.726  51.495  1.00  0.00    -0.550 OA
ENDBRANCH  17  18
ENDBRANCH  16  17
ENDBRANCH  15  16
ENDBRANCH  14  15
ENDBRANCH  13  14
ENDBRANCH  12  13
ENDBRANCH  11  12
ENDBRANCH   1  11
TORSDOF 15
ENDMDL
MODEL 3
REMARK VINA RESULT:    -3.641      2.210      6.915
REMARK INTER + INTRA:          -8.306
REMARK INTER:                  -6.820
REMARK INTRA:                  -1.486
REMARK UNBOUND:                -1.472
REMARK SMILES O=C([O-])CCCCCCCCCCCCCCC(=O)[O-]
REMARK SMILES IDX 10 1 9 2 8 3 7 4 6 5 5 6 4 7 2 8 1 9 3 10 11 11 12 12 13 13
REMARK SMILES IDX 14 14 15 15 16 16 17 17 18 18 19 19 20 20
REMARK H PARENT
REMARK Flexibility Score: inf
ROOT
ATOM      1  C   UNL     1       7.571   3.247  50.032  1.00  0.00     0.000 C 
ENDROOT
BRANCH   1   2
ATOM      2  C   UNL     1       6.069   2.892  50.029  1.00  0.00     0.000 C 
BRANCH   2   3
ATOM      3  C   UNL     1       5.275   3.569  51.158  1.00  0.00     0.000 C 
BRANCH   3   4
ATOM      4  C   UNL     1       5.565   5.072  51.276  1.00  0.00     0.000 C 
BRANCH   4   5
ATOM      5  C   UNL     1       4.529   5.895  50.502  1.00  0.00     0.000 C 
BRANCH   5   6
ATOM      6  C   UNL     1       3.370   5.010  50.022  1.00  0.00     0.006 C 
BRANCH   6   7
ATOM      7  C   UNL     1       2.001   5.644  50.299  1.00  0.00     0.053 C 
BRANCH   7   8
ATOM      8  C   UNL     1       0.998   4.626  50.750  1.00  0.00     0.041 C 
ATOM      9  O   UNL     1       1.378   3.483  51.118  1.00  0.00    -0.550 OA
ATOM     10  O   UNL     1      -0.351   4.951  50.796  1.00  0.00    -0.550 OA
ENDBRANCH   7   8
ENDBRANCH   6   7
ENDBRANCH   5   6
ENDBRANCH   4   5
ENDBRANCH   3   4
ENDBRANCH   2   3
ENDBRANCH   1   2
BRANCH   1  11
ATOM     11  C   UNL     1       8.456   2.023  50.315  1.00  0.00     0.000 C 
BRANCH  11  12
ATOM     12  C   UNL     1       9.806   2.444  50.907  1.00  0.00     0.000 C 
BRANCH  12  13
ATOM     13  C   UNL     1      10.363   3.679  50.183  1.00  0.00     0.000 C 
BRANCH  13  14
ATOM     14  C   UNL     1      10.840   4.771  51.153  1.00  0.00     0.000 C 
BRANCH  14  15
ATOM     15  C   UNL     1       9.694   5.666  51.648  1.00  0.00     0.000 C 
BRANCH  15  16
ATOM     16  C   UNL     1       9.435   5.447  53.146  1.00  0.00     0.006 C 
BRANCH  16  17
ATOM     17  C   UNL     1       8.253   4.502  53.399  1.00  0.00     0.053 C 
BRANCH  17  18
ATOM     18  C   UNL     1       7.614   4.752  54.730  1.00  0.00     0.041 C 
ATOM     19  O   UNL     1       6.407   4.448  54.919  1.00  0.00    -0.550 OA
ATOM     20  O   UNL     1       8.341   5.351  55.751  1.00  0.00    -0.550 OA
ENDBRANCH  17  18
ENDBRANCH  16  17
ENDBRANCH  15  16
ENDBRANCH  14  15
ENDBRANCH  13  14
ENDBRANCH  12  13
ENDBRANCH  11  12
ENDBRANCH   1  11
TORSDOF 15
ENDMDL
MODEL 4
REMARK VINA RESULT:    -3.547      2.233      4.225
REMARK INTER + INTRA:          -8.129
REMARK INTER:                  -6.091
REMARK INTRA:                  -2.038
REMARK UNBOUND:                -1.472
REMARK SMILES O=C([O-])CCCCCCCCCCCCCCC(=O)[O-]
REMARK SMILES IDX 10 1 9 2 8 3 7 4 6 5 5 6 4 7 2 8 1 9 3 10 11 11 12 12 13 13
REMARK SMILES IDX 14 14 15 15 16 16 17 17 18 18 19 19 20 20
REMARK H PARENT
REMARK Flexibility Score: inf
ROOT
ATOM      1  C   UNL     1      11.806   4.221  51.972  1.00  0.00     0.000 C 
ENDROOT
BRANCH   1   2
ATOM      2  C   UNL     1      11.747   3.856  50.474  1.00  0.00     0.000 C 
BRANCH   2   3
ATOM      3  C   UNL     1      10.531   2.991  50.099  1.00  0.00     0.000 C 
BRANCH   3   4
ATOM      4  C   UNL     1       9.661   2.627  51.309  1.00  0.00     0.000 C 
BRANCH   4   5
ATOM      5  C   UNL     1       8.310   3.351  51.254  1.00  0.00     0.000 C 
BRANCH   5   6
ATOM      6  C   UNL     1       7.698   3.482  52.656  1.00  0.00     0.006 C 
BRANCH   6   7
ATOM      7  C   UNL     1       8.217   4.716  53.404  1.00  0.00     0.053 C 
BRANCH   7   8
ATOM      8  C   UNL     1       7.566   4.869  54.744  1.00  0.00     0.041 C 
ATOM      9  O   UNL     1       6.409   4.413  54.942  1.00  0.00    -0.550 OA
ATOM     10  O   UNL     1       8.250   5.484  55.785  1.00  0.00    -0.550 OA
ENDBRANCH   7   8
ENDBRANCH   6   7
ENDBRANCH   5   6
ENDBRANCH   4   5
ENDBRANCH   3   4
ENDBRANCH   2   3
ENDBRANCH   1   2
BRANCH   1  11
ATOM     11  C   UNL     1      11.370   5.671  52.233  1.00  0.00     0.000 C 
BRANCH  11  12
ATOM     12  C   UNL     1      11.047   6.395  50.921  1.00  0.00     0.000 C 
BRANCH  12  13
ATOM     13  C   UNL     1       9.636   7.002  50.961  1.00  0.00     0.000 C 
BRANCH  13  14
ATOM     14  C   UNL     1       8.713   6.426  49.875  1.00  0.00     0.000 C 
BRANCH  14  15
ATOM     15  C   UNL     1       7.293   7.011  49.934  1.00  0.00     0.000 C 
BRANCH  15  16
ATOM     16  C   UNL     1       6.244   5.893  50.033  1.00  0.00     0.006 C 
BRANCH  16  17
ATOM     17  C   UNL     1       4.825   6.445  50.223  1.00  0.00     0.053 C 
BRANCH  17  18
ATOM     18  C   UNL     1       3.908   5.426  50.827  1.00  0.00     0.041 C 
ATOM     19  O   UNL     1       2.662   5.612  50.816  1.00  0.00    -0.550 OA
ATOM     20  O   UNL     1       4.429   4.290  51.430  1.00  0.00    -0.550 OA
ENDBRANCH  17  18
ENDBRANCH  16  17
ENDBRANCH  15  16
ENDBRANCH  14  15
ENDBRANCH  13  14
ENDBRANCH  12  13
ENDBRANCH  11  12
ENDBRANCH   1  11
TORSDOF 15
ENDMDL
MODEL 5
REMARK VINA RESULT:    -3.455      2.056      7.802
REMARK INTER + INTRA:          -7.957
REMARK INTER:                  -6.706
REMARK INTRA:                  -1.252
REMARK UNBOUND:                -1.472
REMARK SMILES O=C([O-])CCCCCCCCCCCCCCC(=O)[O-]
REMARK SMILES IDX 10 1 9 2 8 3 7 4 6 5 5 6 4 7 2 8 1 9 3 10 11 11 12 12 13 13
REMARK SMILES IDX 14 14 15 15 16 16 17 17 18 18 19 19 20 20
REMARK H PARENT
REMARK Flexibility Score: inf
ROOT
ATOM      1  C   UNL     1       7.343   5.465  50.912  1.00  0.00     0.000 C 
ENDROOT
BRANCH   1   2
ATOM      2  C   UNL     1       6.084   5.578  50.026  1.00  0.00     0.000 C 
BRANCH   2   3
ATOM      3  C   UNL     1       5.381   6.942  50.126  1.00  0.00     0.000 C 
BRANCH   3   4
ATOM      4  C   UNL     1       3.977   6.848  50.738  1.00  0.00     0.000 C 
BRANCH   4   5
ATOM      5  C   UNL     1       3.627   5.398  51.094  1.00  0.00     0.000 C 
BRANCH   5   6
ATOM      6  C   UNL     1       2.658   4.797  50.066  1.00  0.00     0.006 C 
BRANCH   6   7
ATOM      7  C   UNL     1       1.467   4.096  50.730  1.00  0.00     0.053 C 
BRANCH   7   8
ATOM      8  C   UNL     1       0.178   4.809  50.458  1.00  0.00     0.041 C 
ATOM      9  O   UNL     1       0.184   6.030  50.148  1.00  0.00    -0.550 OA
ATOM     10  O   UNL     1      -1.025   4.119  50.512  1.00  0.00    -0.550 OA
ENDBRANCH   7   8
ENDBRANCH   6   7
ENDBRANCH   5   6
ENDBRANCH   4   5
ENDBRANCH   3   4
ENDBRANCH   2   3
ENDBRANCH   1   2
BRANCH   1  11
ATOM     11  C   UNL     1       7.140   4.498  52.088  1.00  0.00     0.000 C 
BRANCH  11  12
ATOM     12  C   UNL     1       7.518   3.065  51.696  1.00  0.00     0.000 C 
BRANCH  12  13
ATOM     13  C   UNL     1       8.655   3.059  50.664  1.00  0.00     0.000 C 
BRANCH  13  14
ATOM     14  C   UNL     1       9.633   1.890  50.864  1.00  0.00     0.000 C 
BRANCH  14  15
ATOM     15  C   UNL     1      10.947   2.324  51.531  1.00  0.00     0.000 C 
BRANCH  15  16
ATOM     16  C   UNL     1      11.350   3.736  51.080  1.00  0.00     0.006 C 
BRANCH  16  17
ATOM     17  C   UNL     1      11.277   4.754  52.225  1.00  0.00     0.053 C 
BRANCH  17  18
ATOM     18  C   UNL     1      11.058   6.147  51.720  1.00  0.00     0.041 C 
ATOM     19  O   UNL     1      10.724   6.340  50.521  1.00  0.00    -0.550 OA
ATOM     20  O   UNL     1      11.253   7.233  52.564  1.00  0.00    -0.550 OA
ENDBRANCH  17  18
ENDBRANCH  16  17
ENDBRANCH  15  16
ENDBRANCH  14  15
ENDBRANCH  13  14
ENDBRANCH  12  13
ENDBRANCH  11  12
ENDBRANCH   1  11
TORSDOF 15
ENDMDL
MODEL 6
REMARK VINA RESULT:    -3.411      1.439      6.639
REMARK INTER + INTRA:          -7.874
REMARK INTER:                  -6.719
REMARK INTRA:                  -1.156
REMARK UNBOUND:                -1.472
REMARK SMILES O=C([O-])CCCCCCCCCCCCCCC(=O)[O-]
REMARK SMILES IDX 10 1 9 2 8 3 7 4 6 5 5 6 4 7 2 8 1 9 3 10 11 11 12 12 13 13
REMARK SMILES IDX 14 14 15 15 16 16 17 17 18 18 19 19 20 20
REMARK H PARENT
REMARK Flexibility Score: inf
ROOT
ATOM      1  C   UNL     1       8.720   5.660  54.552  1.00  0.00     0.000 C 
ENDROOT
BRANCH   1   2
ATOM      2  C   UNL     1       7.960   4.800  55.583  1.00  0.00     0.000 C 
BRANCH   2   3
ATOM      3  C   UNL     1       6.546   4.401  55.129  1.00  0.00     0.000 C 
BRANCH   3   4
ATOM      4  C   UNL     1       6.244   4.813  53.682  1.00  0.00     0.000 C 
BRANCH   4   5
ATOM      5  C   UNL     1       5.809   3.605  52.844  1.00  0.00     0.000 C 
BRANCH   5   6
ATOM      6  C   UNL     1       5.379   4.038  51.435  1.00  0.00     0.006 C 
BRANCH   6   7
ATOM      7  C   UNL     1       4.495   5.290  51.456  1.00  0.00     0.053 C 
BRANCH   7   8
ATOM      8  C   UNL     1       3.141   5.024  50.873  1.00  0.00     0.041 C 
ATOM      9  O   UNL     1       2.506   5.949  50.300  1.00  0.00    -0.550 OA
ATOM     10  O   UNL     1       2.595   3.749  50.930  1.00  0.00    -0.550 OA
ENDBRANCH   7   8
ENDBRANCH   6   7
ENDBRANCH   5   6
ENDBRANCH   4   5
ENDBRANCH   3   4
ENDBRANCH   2   3
ENDBRANCH   1   2
BRANCH   1  11
ATOM     11  C   UNL     1       9.147   4.847  53.320  1.00  0.00     0.000 C 
BRANCH  11  12
ATOM     12  C   UNL     1       9.633   5.766  52.194  1.00  0.00     0.000 C 
BRANCH  12  13
ATOM     13  C   UNL     1       8.669   5.729  50.999  1.00  0.00     0.000 C 
BRANCH  13  14
ATOM     14  C   UNL     1       9.088   4.708  49.929  1.00  0.00     0.000 C 
BRANCH  14  15
ATOM     15  C   UNL     1       8.349   3.368  50.068  1.00  0.00     0.000 C 
BRANCH  15  16
ATOM     16  C   UNL     1       9.296   2.270  50.577  1.00  0.00     0.006 C 
BRANCH  16  17
ATOM     17  C   UNL     1      10.769   2.609  50.318  1.00  0.00     0.053 C 
BRANCH  17  18
ATOM     18  C   UNL     1      11.535   2.774  51.594  1.00  0.00     0.041 C 
ATOM     19  O   UNL     1      11.500   1.875  52.475  1.00  0.00    -0.550 OA
ATOM     20  O   UNL     1      12.262   3.936  51.825  1.00  0.00    -0.550 OA
ENDBRANCH  17  18
ENDBRANCH  16  17
ENDBRANCH  15  16
ENDBRANCH  14  15
ENDBRANCH  13  14
ENDBRANCH  12  13
ENDBRANCH  11  12
ENDBRANCH   1  11
TORSDOF 15
ENDMDL
MODEL 7
REMARK VINA RESULT:    -3.229      2.532      8.509
REMARK INTER + INTRA:          -7.532
REMARK INTER:                  -6.687
REMARK INTRA:                  -0.846
REMARK UNBOUND:                -1.472
REMARK SMILES O=C([O-])CCCCCCCCCCCCCCC(=O)[O-]
REMARK SMILES IDX 10 1 9 2 8 3 7 4 6 5 5 6 4 7 2 8 1 9 3 10 11 11 12 12 13 13
REMARK SMILES IDX 14 14 15 15 16 16 17 17 18 18 19 19 20 20
REMARK H PARENT
REMARK Flexibility Score: inf
ROOT
ATOM      1  C   UNL     1       6.066   4.882  51.850  1.00  0.00     0.000 C 
ENDROOT
BRANCH   1   2
ATOM      2  C   UNL     1       4.760   4.209  51.375  1.00  0.00     0.000 C 
BRANCH   2   3
ATOM      3  C   UNL     1       3.636   5.207  51.052  1.00  0.00     0.000 C 
BRANCH   3   4
ATOM      4  C   UNL     1       2.528   4.598  50.182  1.00  0.00     0.000 C 
BRANCH   4   5
ATOM      5  C   UNL     1       1.752   3.523  50.952  1.00  0.00     0.000 C 
BRANCH   5   6
ATOM      6  C   UNL     1       0.914   2.659  49.999  1.00  0.00     0.006 C 
BRANCH   6   7
ATOM      7  C   UNL     1      -0.258   1.975  50.712  1.00  0.00     0.053 C 
BRANCH   7   8
ATOM      8  C   UNL     1      -1.556   2.676  50.449  1.00  0.00     0.041 C 
ATOM      9  O   UNL     1      -1.569   3.909  50.192  1.00  0.00    -0.550 OA
ATOM     10  O   UNL     1      -2.747   1.961  50.452  1.00  0.00    -0.550 OA
ENDBRANCH   7   8
ENDBRANCH   6   7
ENDBRANCH   5   6
ENDBRANCH   4   5
ENDBRANCH   3   4
ENDBRANCH   2   3
ENDBRANCH   1   2
BRANCH   1  11
ATOM     11  C   UNL     1       7.179   3.859  52.123  1.00  0.00     0.000 C 
BRANCH  11  12
ATOM     12  C   UNL     1       6.875   2.517  51.446  1.00  0.00     0.000 C 
BRANCH  12  13
ATOM     13  C   UNL     1       7.712   2.342  50.170  1.00  0.00     0.000 C 
BRANCH  13  14
ATOM     14  C   UNL     1       9.147   1.875  50.461  1.00  0.00     0.000 C 
BRANCH  14  15
ATOM     15  C   UNL     1      10.168   3.020  50.389  1.00  0.00     0.000 C 
BRANCH  15  16
ATOM     16  C   UNL     1      10.913   3.175  51.723  1.00  0.00     0.006 C 
BRANCH  16  17
ATOM     17  C   UNL     1      11.779   4.441  51.760  1.00  0.00     0.053 C 
BRANCH  17  18
ATOM     18  C   UNL     1      10.961   5.668  52.024  1.00  0.00     0.041 C 
ATOM     19  O   UNL     1      11.123   6.700  51.320  1.00  0.00    -0.550 OA
ATOM     20  O   UNL     1      10.044   5.683  53.067  1.00  0.00    -0.550 OA
ENDBRANCH  17  18
ENDBRANCH  16  17
ENDBRANCH  15  16
ENDBRANCH  14  15
ENDBRANCH  13  14
ENDBRANCH  12  13
ENDBRANCH  11  12
ENDBRANCH   1  11
TORSDOF 15
ENDMDL
MODEL 8
REMARK VINA RESULT:    -3.184      2.410      3.950
REMARK INTER + INTRA:          -7.448
REMARK INTER:                  -6.189
REMARK INTRA:                  -1.259
REMARK UNBOUND:                -1.472
REMARK SMILES O=C([O-])CCCCCCCCCCCCCCC(=O)[O-]
REMARK SMILES IDX 10 1 9 2 8 3 7 4 6 5 5 6 4 7 2 8 1 9 3 10 11 11 12 12 13 13
REMARK SMILES IDX 14 14 15 15 16 16 17 17 18 18 19 19 20 20
REMARK H PARENT
REMARK Flexibility Score: inf
ROOT
ATOM      1  C   UNL     1       6.351   4.684  52.296  1.00  0.00     0.000 C 
ENDROOT
BRANCH   1   2
ATOM      2  C   UNL     1       6.838   3.224  52.412  1.00  0.00     0.000 C 
BRANCH   2   3
ATOM      3  C   UNL     1       6.726   2.432  51.098  1.00  0.00     0.000 C 
BRANCH   3   4
ATOM      4  C   UNL     1       8.074   1.878  50.618  1.00  0.00     0.000 C 
BRANCH   4   5
ATOM      5  C   UNL     1       8.984   3.004  50.114  1.00  0.00     0.000 C 
BRANCH   5   6
ATOM      6  C   UNL     1      10.221   3.155  51.011  1.00  0.00     0.006 C 
BRANCH   6   7
ATOM      7  C   UNL     1      10.080   4.313  52.006  1.00  0.00     0.053 C 
BRANCH   7   8
ATOM      8  C   UNL     1      10.242   5.644  51.337  1.00  0.00     0.041 C 
ATOM      9  O   UNL     1       9.229   6.290  50.960  1.00  0.00    -0.550 OA
ATOM     10  O   UNL     1      11.509   6.187  51.163  1.00  0.00    -0.550 OA
ENDBRANCH   7   8
ENDBRANCH   6   7
ENDBRANCH   5   6
ENDBRANCH   4   5
ENDBRANCH   3   4
ENDBRANCH   2   3
ENDBRANCH   1   2
BRANCH   1  11
ATOM     11  C   UNL     1       5.883   5.029  50.874  1.00  0.00     0.000 C 
BRANCH  11  12
ATOM     12  C   UNL     1       4.436   5.535  50.878  1.00  0.00     0.000 C 
BRANCH  12  13
ATOM     13  C   UNL     1       3.445   4.368  51.004  1.00  0.00     0.000 C 
BRANCH  13  14
ATOM     14  C   UNL     1       2.335   4.414  49.942  1.00  0.00     0.000 C 
BRANCH  14  15
ATOM     15  C   UNL     1       1.527   5.720  49.986  1.00  0.00     0.000 C 
BRANCH  15  16
ATOM     16  C   UNL     1       0.039   5.436  50.236  1.00  0.00     0.006 C 
BRANCH  16  17
ATOM     17  C   UNL     1      -0.272   3.934  50.242  1.00  0.00     0.053 C 
BRANCH  17  18
ATOM     18  C   UNL     1      -1.726   3.665  50.001  1.00  0.00     0.041 C 
ATOM     19  O   UNL     1      -2.545   4.619  49.941  1.00  0.00    -0.550 OA
ATOM     20  O   UNL     1      -2.181   2.359  49.875  1.00  0.00    -0.550 OA
ENDBRANCH  17  18
ENDBRANCH  16  17
ENDBRANCH  15  16
ENDBRANCH  14  15
ENDBRANCH  13  14
ENDBRANCH  12  13
ENDBRANCH  11  12
ENDBRANCH   1  11
TORSDOF 15
ENDMDL
MODEL 9
REMARK VINA RESULT:    -3.123      3.500     10.278
REMARK INTER + INTRA:          -7.333
REMARK INTER:                  -6.638
REMARK INTRA:                  -0.695
REMARK UNBOUND:                -1.472
REMARK SMILES O=C([O-])CCCCCCCCCCCCCCC(=O)[O-]
REMARK SMILES IDX 10 1 9 2 8 3 7 4 6 5 5 6 4 7 2 8 1 9 3 10 11 11 12 12 13 13
REMARK SMILES IDX 14 14 15 15 16 16 17 17 18 18 19 19 20 20
REMARK H PARENT
REMARK Flexibility Score: inf
ROOT
ATOM      1  C   UNL     1       3.449   4.231  51.010  1.00  0.00     0.000 C 
ENDROOT
BRANCH   1   2
ATOM      2  C   UNL     1       2.036   3.709  51.345  1.00  0.00     0.000 C 
BRANCH   2   3
ATOM      3  C   UNL     1       1.233   3.268  50.110  1.00  0.00     0.000 C 
BRANCH   3   4
ATOM      4  C   UNL     1      -0.065   4.066  49.924  1.00  0.00     0.000 C 
BRANCH   4   5
ATOM      5  C   UNL     1      -1.282   3.134  49.875  1.00  0.00     0.000 C 
BRANCH   5   6
ATOM      6  C   UNL     1      -2.584   3.917  50.092  1.00  0.00     0.006 C 
BRANCH   6   7
ATOM      7  C   UNL     1      -3.788   2.994  50.312  1.00  0.00     0.053 C 
BRANCH   7   8
ATOM      8  C   UNL     1      -5.028   3.767  50.644  1.00  0.00     0.041 C 
ATOM      9  O   UNL     1      -5.805   3.359  51.548  1.00  0.00    -0.550 OA
ATOM     10  O   UNL     1      -5.308   4.954  49.980  1.00  0.00    -0.550 OA
ENDBRANCH   7   8
ENDBRANCH   6   7
ENDBRANCH   5   6
ENDBRANCH   4   5
ENDBRANCH   3   4
ENDBRANCH   2   3
ENDBRANCH   1   2
BRANCH   1  11
ATOM     11  C   UNL     1       3.471   5.753  50.801  1.00  0.00     0.000 C 
BRANCH  11  12
ATOM     12  C   UNL     1       4.766   6.196  50.110  1.00  0.00     0.000 C 
BRANCH  12  13
ATOM     13  C   UNL     1       5.801   5.060  50.101  1.00  0.00     0.000 C 
BRANCH  13  14
ATOM     14  C   UNL     1       7.005   5.348  51.012  1.00  0.00     0.000 C 
BRANCH  14  15
ATOM     15  C   UNL     1       7.335   4.174  51.946  1.00  0.00     0.000 C 
BRANCH  15  16
ATOM     16  C   UNL     1       8.688   4.389  52.641  1.00  0.00     0.006 C 
BRANCH  16  17
ATOM     17  C   UNL     1       9.751   3.392  52.162  1.00  0.00     0.053 C 
BRANCH  17  18
ATOM     18  C   UNL     1      10.997   4.084  51.702  1.00  0.00     0.041 C 
ATOM     19  O   UNL     1      10.923   5.068  50.920  1.00  0.00    -0.550 OA
ATOM     20  O   UNL     1      12.241   3.623  52.112  1.00  0.00    -0.550 OA
ENDBRANCH  17  18
ENDBRANCH  16  17
ENDBRANCH  15  16
ENDBRANCH  14  15
ENDBRANCH  13  14
ENDBRANCH  12  13
ENDBRANCH  11  12
ENDBRANCH   1  11
TORSDOF 15
ENDMDL
