MODEL 1
REMARK VINA RESULT:    -4.060      0.000      0.000
REMARK INTER + INTRA:          -4.993
REMARK INTER:                  -4.773
REMARK INTRA:                  -0.220
REMARK UNBOUND:                -0.220
REMARK SMILES [NH3+][C@@H](CO)C(=O)[O-]
REMARK SMILES IDX 3 1 2 2 1 3 5 7 6 8 7 9 4 10
REMARK H PARENT 1 4 1 5 1 6 4 11
REMARK Flexibility Score: inf
ROOT
ATOM      1  C   UNL     1     -18.618  13.851 -12.163  1.00  0.00     0.227 C 
ENDROOT
BRANCH   1   2
ATOM      2  C   UNL     1     -18.293  12.812 -13.252  1.00  0.00     0.253 C 
BRANCH   2   3
ATOM      3  N   UNL     1     -18.618  11.459 -12.789  1.00  0.00    -0.348 N 
ATOM      4  H   UNL     1     -17.853  11.103 -12.170  1.00  0.00     0.345 HD
ATOM      5  H   UNL     1     -18.701  10.814 -13.609  1.00  0.00     0.345 HD
ATOM      6  H   UNL     1     -19.520  11.455 -12.258  1.00  0.00     0.345 HD
ENDBRANCH   2   3
BRANCH   2   7
ATOM      7  C   UNL     1     -16.842  12.895 -13.645  1.00  0.00     0.102 C 
ATOM      8  O   UNL     1     -15.984  13.293 -12.814  1.00  0.00    -0.544 OA
ATOM      9  O   UNL     1     -16.438  12.523 -14.922  1.00  0.00    -0.544 OA
ENDBRANCH   2   7
ENDBRANCH   1   2
BRANCH   1  10
ATOM     10  O   UNL     1     -18.309  13.352 -10.889  1.00  0.00    -0.390 OA
ATOM     11  H   UNL     1     -18.418  12.366 -10.936  1.00  0.00     0.210 HD
ENDBRANCH   1  10
TORSDOF 4
ENDMDL
MODEL 2
REMARK VINA RESULT:    -4.059      2.303      3.256
REMARK INTER + INTRA:          -4.992
REMARK INTER:                  -4.606
REMARK INTRA:                  -0.385
REMARK UNBOUND:                -0.220
REMARK SMILES [NH3+][C@@H](CO)C(=O)[O-]
REMARK SMILES IDX 3 1 2 2 1 3 5 7 6 8 7 9 4 10
REMARK H PARENT 1 4 1 5 1 6 4 11
REMARK Flexibility Score: inf
ROOT
ATOM      1  C   UNL     1     -17.221  12.809 -13.224  1.00  0.00     0.227 C 
ENDROOT
BRANCH   1   2
ATOM      2  C   UNL     1     -18.349  13.721 -12.706  1.00  0.00     0.253 C 
BRANCH   2   3
ATOM      3  N   UNL     1     -18.409  13.687 -11.241  1.00  0.00    -0.348 N 
ATOM      4  H   UNL     1     -17.935  12.823 -10.887  1.00  0.00     0.345 HD
ATOM      5  H   UNL     1     -19.407  13.662 -10.928  1.00  0.00     0.345 HD
ATOM      6  H   UNL     1     -17.943  14.529 -10.831  1.00  0.00     0.345 HD
ENDBRANCH   2   3
BRANCH   2   7
ATOM      7  C   UNL     1     -19.673  13.307 -13.292  1.00  0.00     0.102 C 
ATOM      8  O   UNL     1     -20.158  13.940 -14.266  1.00  0.00    -0.544 OA
ATOM      9  O   UNL     1     -20.361  12.218 -12.771  1.00  0.00    -0.544 OA
ENDBRANCH   2   7
ENDBRANCH   1   2
BRANCH   1  10
ATOM     10  O   UNL     1     -17.716  11.879 -14.148  1.00  0.00    -0.390 OA
ATOM     11  H   UNL     1     -18.132  11.148 -13.620  1.00  0.00     0.210 HD
ENDBRANCH   1  10
TORSDOF 4
ENDMDL
MODEL 3
REMARK VINA RESULT:    -3.964     18.705     19.773
REMARK INTER + INTRA:          -4.880
REMARK INTER:                  -4.657
REMARK INTRA:                  -0.222
REMARK UNBOUND:                -0.220
REMARK SMILES [NH3+][C@@H](CO)C(=O)[O-]
REMARK SMILES IDX 3 1 2 2 1 3 5 7 6 8 7 9 4 10
REMARK H PARENT 1 4 1 5 1 6 4 11
REMARK Flexibility Score: inf
ROOT
ATOM      1  C   UNL     1     -12.477  -4.917 -22.880  1.00  0.00     0.227 C 
ENDROOT
BRANCH   1   2
ATOM      2  C   UNL     1     -13.153  -3.934 -21.907  1.00  0.00     0.253 C 
BRANCH   2   3
ATOM      3  N   UNL     1     -13.502  -2.686 -22.593  1.00  0.00    -0.348 N 
ATOM      4  H   UNL     1     -13.483  -2.834 -23.629  1.00  0.00     0.345 HD
ATOM      5  H   UNL     1     -12.802  -1.944 -22.357  1.00  0.00     0.345 HD
ATOM      6  H   UNL     1     -14.455  -2.359 -22.309  1.00  0.00     0.345 HD
ENDBRANCH   2   3
BRANCH   2   7
ATOM      7  C   UNL     1     -12.254  -3.650 -20.733  1.00  0.00     0.102 C 
ATOM      8  O   UNL     1     -11.018  -3.876 -20.813  1.00  0.00    -0.544 OA
ATOM      9  O   UNL     1     -12.779  -3.127 -19.557  1.00  0.00    -0.544 OA
ENDBRANCH   2   7
ENDBRANCH   1   2
BRANCH   1  10
ATOM     10  O   UNL     1     -11.597  -4.243 -23.739  1.00  0.00    -0.390 OA
ATOM     11  H   UNL     1     -12.143  -3.909 -24.499  1.00  0.00     0.210 HD
ENDBRANCH   1  10
TORSDOF 4
ENDMDL
MODEL 4
REMARK VINA RESULT:    -3.961     19.430     20.256
REMARK INTER + INTRA:          -4.877
REMARK INTER:                  -4.484
REMARK INTRA:                  -0.392
REMARK UNBOUND:                -0.220
REMARK SMILES [NH3+][C@@H](CO)C(=O)[O-]
REMARK SMILES IDX 3 1 2 2 1 3 5 7 6 8 7 9 4 10
REMARK H PARENT 1 4 1 5 1 6 4 11
REMARK Flexibility Score: inf
ROOT
ATOM      1  C   UNL     1     -12.124  -3.851 -21.514  1.00  0.00     0.227 C 
ENDROOT
BRANCH   1   2
ATOM      2  C   UNL     1     -12.599  -4.698 -22.709  1.00  0.00     0.253 C 
BRANCH   2   3
ATOM      3  N   UNL     1     -11.913  -4.288 -23.939  1.00  0.00    -0.348 N 
ATOM      4  H   UNL     1     -11.194  -3.560 -23.717  1.00  0.00     0.345 HD
ATOM      5  H   UNL     1     -12.602  -3.873 -24.608  1.00  0.00     0.345 HD
ATOM      6  H   UNL     1     -11.446  -5.107 -24.393  1.00  0.00     0.345 HD
ENDBRANCH   2   3
BRANCH   2   7
ATOM      7  C   UNL     1     -14.091  -4.580 -22.880  1.00  0.00     0.102 C 
ATOM      8  O   UNL     1     -14.571  -3.755 -23.700  1.00  0.00    -0.544 OA
ATOM      9  O   UNL     1     -14.947  -5.389 -22.142  1.00  0.00    -0.544 OA
ENDBRANCH   2   7
ENDBRANCH   1   2
BRANCH   1  10
ATOM     10  O   UNL     1     -13.184  -3.106 -20.978  1.00  0.00    -0.390 OA
ATOM     11  H   UNL     1     -12.792  -2.512 -20.285  1.00  0.00     0.210 HD
ENDBRANCH   1  10
TORSDOF 4
ENDMDL
MODEL 5
REMARK VINA RESULT:    -3.915      2.232      2.797
REMARK INTER + INTRA:          -4.822
REMARK INTER:                  -4.605
REMARK INTRA:                  -0.217
REMARK UNBOUND:                -0.220
REMARK SMILES [NH3+][C@@H](CO)C(=O)[O-]
REMARK SMILES IDX 3 1 2 2 1 3 5 7 6 8 7 9 4 10
REMARK H PARENT 1 4 1 5 1 6 4 11
REMARK Flexibility Score: inf
ROOT
ATOM      1  C   UNL     1     -17.662  13.462 -12.366  1.00  0.00     0.227 C 
ENDROOT
BRANCH   1   2
ATOM      2  C   UNL     1     -18.376  12.414 -13.242  1.00  0.00     0.253 C 
BRANCH   2   3
ATOM      3  N   UNL     1     -17.707  12.284 -14.540  1.00  0.00    -0.348 N 
ATOM      4  H   UNL     1     -16.669  12.315 -14.408  1.00  0.00     0.345 HD
ATOM      5  H   UNL     1     -17.981  13.080 -15.162  1.00  0.00     0.345 HD
ATOM      6  H   UNL     1     -17.968  11.383 -15.003  1.00  0.00     0.345 HD
ENDBRANCH   2   3
BRANCH   2   7
ATOM      7  C   UNL     1     -19.822  12.785 -13.435  1.00  0.00     0.102 C 
ATOM      8  O   UNL     1     -20.720  12.196 -12.777  1.00  0.00    -0.544 OA
ATOM      9  O   UNL     1     -20.176  13.787 -14.331  1.00  0.00    -0.544 OA
ENDBRANCH   2   7
ENDBRANCH   1   2
BRANCH   1  10
ATOM     10  O   UNL     1     -18.471  13.843 -11.286  1.00  0.00    -0.390 OA
ATOM     11  H   UNL     1     -18.846  14.734 -11.513  1.00  0.00     0.210 HD
ENDBRANCH   1  10
TORSDOF 4
ENDMDL
MODEL 6
REMARK VINA RESULT:    -3.887     19.709     20.275
REMARK INTER + INTRA:          -4.789
REMARK INTER:                  -4.483
REMARK INTRA:                  -0.307
REMARK UNBOUND:                -0.220
REMARK SMILES [NH3+][C@@H](CO)C(=O)[O-]
REMARK SMILES IDX 3 1 2 2 1 3 5 7 6 8 7 9 4 10
REMARK H PARENT 1 4 1 5 1 6 4 11
REMARK Flexibility Score: inf
ROOT
ATOM      1  C   UNL     1     -11.969  -4.245 -22.454  1.00  0.00     0.227 C 
ENDROOT
BRANCH   1   2
ATOM      2  C   UNL     1     -13.321  -3.569 -22.158  1.00  0.00     0.253 C 
BRANCH   2   3
ATOM      3  N   UNL     1     -13.531  -3.447 -20.712  1.00  0.00    -0.348 N 
ATOM      4  H   UNL     1     -14.328  -4.058 -20.416  1.00  0.00     0.345 HD
ATOM      5  H   UNL     1     -13.771  -2.458 -20.470  1.00  0.00     0.345 HD
ATOM      6  H   UNL     1     -12.670  -3.727 -20.187  1.00  0.00     0.345 HD
ENDBRANCH   2   3
BRANCH   2   7
ATOM      7  C   UNL     1     -14.448  -4.345 -22.786  1.00  0.00     0.102 C 
ATOM      8  O   UNL     1     -14.842  -5.422 -22.266  1.00  0.00    -0.544 OA
ATOM      9  O   UNL     1     -15.069  -3.872 -23.936  1.00  0.00    -0.544 OA
ENDBRANCH   2   7
ENDBRANCH   1   2
BRANCH   1  10
ATOM     10  O   UNL     1     -12.012  -4.932 -23.677  1.00  0.00    -0.390 OA
ATOM     11  H   UNL     1     -11.082  -5.216 -23.876  1.00  0.00     0.210 HD
ENDBRANCH   1  10
TORSDOF 4
ENDMDL
MODEL 7
REMARK VINA RESULT:    -3.829      1.974      2.072
REMARK INTER + INTRA:          -4.721
REMARK INTER:                  -4.471
REMARK INTRA:                  -0.250
REMARK UNBOUND:                -0.220
REMARK SMILES [NH3+][C@@H](CO)C(=O)[O-]
REMARK SMILES IDX 3 1 2 2 1 3 5 7 6 8 7 9 4 10
REMARK H PARENT 1 4 1 5 1 6 4 11
REMARK Flexibility Score: inf
ROOT
ATOM      1  C   UNL     1     -18.668  12.364 -13.861  1.00  0.00     0.227 C 
ENDROOT
BRANCH   1   2
ATOM      2  C   UNL     1     -17.326  12.769 -14.497  1.00  0.00     0.253 C 
BRANCH   2   3
ATOM      3  N   UNL     1     -16.938  11.814 -15.539  1.00  0.00    -0.348 N 
ATOM      4  H   UNL     1     -15.969  11.464 -15.357  1.00  0.00     0.345 HD
ATOM      5  H   UNL     1     -16.944  12.286 -16.474  1.00  0.00     0.345 HD
ATOM      6  H   UNL     1     -17.598  11.002 -15.563  1.00  0.00     0.345 HD
ENDBRANCH   2   3
BRANCH   2   7
ATOM      7  C   UNL     1     -16.250  12.861 -13.447  1.00  0.00     0.102 C 
ATOM      8  O   UNL     1     -16.384  13.644 -12.471  1.00  0.00    -0.544 OA
ATOM      9  O   UNL     1     -15.108  12.074 -13.542  1.00  0.00    -0.544 OA
ENDBRANCH   2   7
ENDBRANCH   1   2
BRANCH   1  10
ATOM     10  O   UNL     1     -18.468  11.460 -12.807  1.00  0.00    -0.390 OA
ATOM     11  H   UNL     1     -17.553  11.091 -12.920  1.00  0.00     0.210 HD
ENDBRANCH   1  10
TORSDOF 4
ENDMDL
MODEL 8
REMARK VINA RESULT:    -3.814     19.669     20.297
REMARK INTER + INTRA:          -4.703
REMARK INTER:                  -4.358
REMARK INTRA:                  -0.345
REMARK UNBOUND:                -0.220
REMARK SMILES [NH3+][C@@H](CO)C(=O)[O-]
REMARK SMILES IDX 3 1 2 2 1 3 5 7 6 8 7 9 4 10
REMARK H PARENT 1 4 1 5 1 6 4 11
REMARK Flexibility Score: inf
ROOT
ATOM      1  C   UNL     1     -13.440  -3.183 -24.510  1.00  0.00     0.227 C 
ENDROOT
BRANCH   1   2
ATOM      2  C   UNL     1     -12.749  -3.779 -23.269  1.00  0.00     0.253 C 
BRANCH   2   3
ATOM      3  N   UNL     1     -11.932  -4.939 -23.640  1.00  0.00    -0.348 N 
ATOM      4  H   UNL     1     -12.257  -5.322 -24.558  1.00  0.00     0.345 HD
ATOM      5  H   UNL     1     -12.035  -5.690 -22.918  1.00  0.00     0.345 HD
ATOM      6  H   UNL     1     -10.923  -4.673 -23.715  1.00  0.00     0.345 HD
ENDBRANCH   2   3
BRANCH   2   7
ATOM      7  C   UNL     1     -13.770  -4.169 -22.233  1.00  0.00     0.102 C 
ATOM      8  O   UNL     1     -13.956  -3.441 -21.223  1.00  0.00    -0.544 OA
ATOM      9  O   UNL     1     -14.521  -5.328 -22.390  1.00  0.00    -0.544 OA
ENDBRANCH   2   7
ENDBRANCH   1   2
BRANCH   1  10
ATOM     10  O   UNL     1     -14.835  -3.238 -24.379  1.00  0.00    -0.390 OA
ATOM     11  H   UNL     1     -15.022  -3.551 -23.455  1.00  0.00     0.210 HD
ENDBRANCH   1  10
TORSDOF 4
ENDMDL
MODEL 9
REMARK VINA RESULT:    -3.746      1.833      2.293
REMARK INTER + INTRA:          -4.624
REMARK INTER:                  -4.414
REMARK INTRA:                  -0.210
REMARK UNBOUND:                -0.220
REMARK SMILES [NH3+][C@@H](CO)C(=O)[O-]
REMARK SMILES IDX 3 1 2 2 1 3 5 7 6 8 7 9 4 10
REMARK H PARENT 1 4 1 5 1 6 4 11
REMARK Flexibility Score: inf
ROOT
ATOM      1  C   UNL     1     -19.809  13.301 -13.253  1.00  0.00     0.227 C 
ENDROOT
BRANCH   1   2
ATOM      2  C   UNL     1     -18.576  12.890 -12.428  1.00  0.00     0.253 C 
BRANCH   2   3
ATOM      3  N   UNL     1     -18.438  13.744 -11.244  1.00  0.00    -0.348 N 
ATOM      4  H   UNL     1     -19.385  14.016 -10.891  1.00  0.00     0.345 HD
ATOM      5  H   UNL     1     -17.922  14.619 -11.496  1.00  0.00     0.345 HD
ATOM      6  H   UNL     1     -17.917  13.247 -10.486  1.00  0.00     0.345 HD
ENDBRANCH   2   3
BRANCH   2   7
ATOM      7  C   UNL     1     -17.330  12.961 -13.271  1.00  0.00     0.102 C 
ATOM      8  O   UNL     1     -17.226  12.254 -14.307  1.00  0.00    -0.544 OA
ATOM      9  O   UNL     1     -16.292  13.816 -12.917  1.00  0.00    -0.544 OA
ENDBRANCH   2   7
ENDBRANCH   1   2
BRANCH   1  10
ATOM     10  O   UNL     1     -19.428  13.801 -14.506  1.00  0.00    -0.390 OA
ATOM     11  H   UNL     1     -19.132  14.737 -14.360  1.00  0.00     0.210 HD
ENDBRANCH   1  10
TORSDOF 4
ENDMDL
