MODEL 1
REMARK VINA RESULT:    -4.997      0.000      0.000
REMARK INTER + INTRA:          -5.679
REMARK INTER:                  -5.435
REMARK INTRA:                  -0.243
REMARK UNBOUND:                -0.243
REMARK SMILES O=C([O-])c1ccccc1O
REMARK SMILES IDX 4 1 9 2 5 3 8 4 6 5 7 6 2 7 1 8 3 9 10 10
REMARK H PARENT 10 11
REMARK Flexibility Score: inf
ROOT
ATOM      1  C   UNL     1       8.916  11.909 -20.455  1.00  0.00     0.039 A 
ATOM      2  C   UNL     1       7.677  12.434 -20.019  1.00  0.00     0.124 A 
ATOM      3  C   UNL     1       9.034  11.460 -21.784  1.00  0.00     0.014 A 
ATOM      4  C   UNL     1       6.593  12.500 -20.908  1.00  0.00     0.047 A 
ATOM      5  C   UNL     1       7.947  11.531 -22.659  1.00  0.00     0.001 A 
ATOM      6  C   UNL     1       6.729  12.049 -22.223  1.00  0.00     0.004 A 
ENDROOT
BRANCH   1   7
ATOM      7  C   UNL     1      10.093  11.819 -19.552  1.00  0.00     0.075 C 
ATOM      8  O   UNL     1      10.026  11.199 -18.458  1.00  0.00    -0.545 OA
ATOM      9  O   UNL     1      11.295  12.422 -19.905  1.00  0.00    -0.545 OA
ENDBRANCH   1   7
BRANCH   2  10
ATOM     10  O   UNL     1       7.514  12.891 -18.710  1.00  0.00    -0.507 OA
ATOM     11  H   UNL     1       7.079  12.319 -17.996  1.00  0.00     0.293 HD
ENDBRANCH   2  10
TORSDOF 2
ENDMDL
MODEL 2
REMARK VINA RESULT:    -4.871      1.439      3.166
REMARK INTER + INTRA:          -5.541
REMARK INTER:                  -5.325
REMARK INTRA:                  -0.216
REMARK UNBOUND:                -0.243
REMARK SMILES O=C([O-])c1ccccc1O
REMARK SMILES IDX 4 1 9 2 5 3 8 4 6 5 7 6 2 7 1 8 3 9 10 10
REMARK H PARENT 10 11
REMARK Flexibility Score: inf
ROOT
ATOM      1  C   UNL     1       7.103  12.563 -20.376  1.00  0.00     0.039 A 
ATOM      2  C   UNL     1       8.212  11.916 -19.781  1.00  0.00     0.124 A 
ATOM      3  C   UNL     1       6.730  12.205 -21.686  1.00  0.00     0.014 A 
ATOM      4  C   UNL     1       8.919  10.938 -20.497  1.00  0.00     0.047 A 
ATOM      5  C   UNL     1       7.442  11.229 -22.387  1.00  0.00     0.001 A 
ATOM      6  C   UNL     1       8.535  10.597 -21.795  1.00  0.00     0.004 A 
ENDROOT
BRANCH   1   7
ATOM      7  C   UNL     1       6.323  13.604 -19.659  1.00  0.00     0.075 C 
ATOM      8  O   UNL     1       6.277  13.631 -18.401  1.00  0.00    -0.545 OA
ATOM      9  O   UNL     1       5.625  14.573 -20.373  1.00  0.00    -0.545 OA
ENDBRANCH   1   7
BRANCH   2  10
ATOM     10  O   UNL     1       8.617  12.239 -18.485  1.00  0.00    -0.507 OA
ATOM     11  H   UNL     1       9.471  11.868 -18.085  1.00  0.00     0.293 HD
ENDBRANCH   2  10
TORSDOF 2
ENDMDL
MODEL 3
REMARK VINA RESULT:    -4.807     15.456     16.311
REMARK INTER + INTRA:          -5.472
REMARK INTER:                  -5.235
REMARK INTRA:                  -0.237
REMARK UNBOUND:                -0.243
REMARK SMILES O=C([O-])c1ccccc1O
REMARK SMILES IDX 4 1 9 2 5 3 8 4 6 5 7 6 2 7 1 8 3 9 10 10
REMARK H PARENT 10 11
REMARK Flexibility Score: inf
ROOT
ATOM      1  C   UNL     1      -3.041  11.605  -9.433  1.00  0.00     0.039 A 
ATOM      2  C   UNL     1      -4.059  12.467  -8.961  1.00  0.00     0.124 A 
ATOM      3  C   UNL     1      -3.349  10.687 -10.456  1.00  0.00     0.014 A 
ATOM      4  C   UNL     1      -5.347  12.397  -9.513  1.00  0.00     0.047 A 
ATOM      5  C   UNL     1      -4.635  10.628 -10.996  1.00  0.00     0.001 A 
ATOM      6  C   UNL     1      -5.633  11.480 -10.526  1.00  0.00     0.004 A 
ENDROOT
BRANCH   1   7
ATOM      7  C   UNL     1      -1.662  11.641  -8.882  1.00  0.00     0.075 C 
ATOM      8  O   UNL     1      -0.970  10.593  -8.795  1.00  0.00    -0.545 OA
ATOM      9  O   UNL     1      -1.111  12.842  -8.449  1.00  0.00    -0.545 OA
ENDBRANCH   1   7
BRANCH   2  10
ATOM     10  O   UNL     1      -3.799  13.393  -7.949  1.00  0.00    -0.507 OA
ATOM     11  H   UNL     1      -2.985  13.314  -7.351  1.00  0.00     0.293 HD
ENDBRANCH   2  10
TORSDOF 2
ENDMDL
MODEL 4
REMARK VINA RESULT:    -4.799     15.422     15.824
REMARK INTER + INTRA:          -5.463
REMARK INTER:                  -5.218
REMARK INTRA:                  -0.245
REMARK UNBOUND:                -0.243
REMARK SMILES O=C([O-])c1ccccc1O
REMARK SMILES IDX 4 1 9 2 5 3 8 4 6 5 7 6 2 7 1 8 3 9 10 10
REMARK H PARENT 10 11
REMARK Flexibility Score: inf
ROOT
ATOM      1  C   UNL     1      -1.478  11.363  -8.793  1.00  0.00     0.039 A 
ATOM      2  C   UNL     1      -0.812  12.465  -8.207  1.00  0.00     0.124 A 
ATOM      3  C   UNL     1      -0.898  10.084  -8.685  1.00  0.00     0.014 A 
ATOM      4  C   UNL     1       0.404  12.271  -7.534  1.00  0.00     0.047 A 
ATOM      5  C   UNL     1       0.312   9.905  -8.013  1.00  0.00     0.001 A 
ATOM      6  C   UNL     1       0.963  10.995  -7.438  1.00  0.00     0.004 A 
ENDROOT
BRANCH   1   7
ATOM      7  C   UNL     1      -2.767  11.517  -9.515  1.00  0.00     0.075 C 
ATOM      8  O   UNL     1      -3.019  10.839 -10.546  1.00  0.00    -0.545 OA
ATOM      9  O   UNL     1      -3.723  12.418  -9.060  1.00  0.00    -0.545 OA
ENDBRANCH   1   7
BRANCH   2  10
ATOM     10  O   UNL     1      -1.349  13.751  -8.288  1.00  0.00    -0.507 OA
ATOM     11  H   UNL     1      -1.455  14.337  -7.469  1.00  0.00     0.293 HD
ENDBRANCH   2  10
TORSDOF 2
ENDMDL
MODEL 5
REMARK VINA RESULT:    -4.792     14.312     15.622
REMARK INTER + INTRA:          -5.456
REMARK INTER:                  -5.203
REMARK INTRA:                  -0.252
REMARK UNBOUND:                -0.243
REMARK SMILES O=C([O-])c1ccccc1O
REMARK SMILES IDX 4 1 9 2 5 3 8 4 6 5 7 6 2 7 1 8 3 9 10 10
REMARK H PARENT 10 11
REMARK Flexibility Score: inf
ROOT
ATOM      1  C   UNL     1       1.066  11.550  -6.863  1.00  0.00     0.039 A 
ATOM      2  C   UNL     1       2.468  11.518  -6.679  1.00  0.00     0.124 A 
ATOM      3  C   UNL     1       0.496  10.753  -7.874  1.00  0.00     0.014 A 
ATOM      4  C   UNL     1       3.264  10.702  -7.497  1.00  0.00     0.047 A 
ATOM      5  C   UNL     1       1.299   9.945  -8.682  1.00  0.00     0.001 A 
ATOM      6  C   UNL     1       2.680   9.919  -8.495  1.00  0.00     0.004 A 
ENDROOT
BRANCH   1   7
ATOM      7  C   UNL     1       0.181  12.397  -6.022  1.00  0.00     0.075 C 
ATOM      8  O   UNL     1      -0.829  11.912  -5.447  1.00  0.00    -0.545 OA
ATOM      9  O   UNL     1       0.457  13.750  -5.855  1.00  0.00    -0.545 OA
ENDBRANCH   1   7
BRANCH   2  10
ATOM     10  O   UNL     1       3.077  12.291  -5.688  1.00  0.00    -0.507 OA
ATOM     11  H   UNL     1       4.084  12.318  -5.576  1.00  0.00     0.293 HD
ENDBRANCH   2  10
TORSDOF 2
ENDMDL
MODEL 6
REMARK VINA RESULT:    -4.666     14.261     15.511
REMARK INTER + INTRA:          -5.318
REMARK INTER:                  -5.108
REMARK INTRA:                  -0.210
REMARK UNBOUND:                -0.243
REMARK SMILES O=C([O-])c1ccccc1O
REMARK SMILES IDX 4 1 9 2 5 3 8 4 6 5 7 6 2 7 1 8 3 9 10 10
REMARK H PARENT 10 11
REMARK Flexibility Score: inf
ROOT
ATOM      1  C   UNL     1       1.487  11.632  -7.253  1.00  0.00     0.039 A 
ATOM      2  C   UNL     1       2.183  12.163  -6.141  1.00  0.00     0.124 A 
ATOM      3  C   UNL     1       0.198  12.119  -7.543  1.00  0.00     0.014 A 
ATOM      4  C   UNL     1       1.586  13.157  -5.351  1.00  0.00     0.047 A 
ATOM      5  C   UNL     1      -0.385  13.109  -6.749  1.00  0.00     0.001 A 
ATOM      6  C   UNL     1       0.306  13.627  -5.654  1.00  0.00     0.004 A 
ENDROOT
BRANCH   1   7
ATOM      7  C   UNL     1       2.077  10.579  -8.119  1.00  0.00     0.075 C 
ATOM      8  O   UNL     1       3.324  10.421  -8.192  1.00  0.00    -0.545 OA
ATOM      9  O   UNL     1       1.254   9.747  -8.870  1.00  0.00    -0.545 OA
ENDBRANCH   1   7
BRANCH   2  10
ATOM     10  O   UNL     1       3.463  11.711  -5.816  1.00  0.00    -0.507 OA
ATOM     11  H   UNL     1       4.009  12.141  -5.079  1.00  0.00     0.293 HD
ENDBRANCH   2  10
TORSDOF 2
ENDMDL
MODEL 7
REMARK VINA RESULT:    -4.566      1.838      3.462
REMARK INTER + INTRA:          -5.210
REMARK INTER:                  -5.021
REMARK INTRA:                  -0.188
REMARK UNBOUND:                -0.243
REMARK SMILES O=C([O-])c1ccccc1O
REMARK SMILES IDX 4 1 9 2 5 3 8 4 6 5 7 6 2 7 1 8 3 9 10 10
REMARK H PARENT 10 11
REMARK Flexibility Score: inf
ROOT
ATOM      1  C   UNL     1       8.333  11.580 -20.742  1.00  0.00     0.039 A 
ATOM      2  C   UNL     1       8.598  11.962 -19.405  1.00  0.00     0.124 A 
ATOM      3  C   UNL     1       9.293  10.816 -21.432  1.00  0.00     0.014 A 
ATOM      4  C   UNL     1       9.801  11.580 -18.793  1.00  0.00     0.047 A 
ATOM      5  C   UNL     1      10.487  10.442 -20.811  1.00  0.00     0.001 A 
ATOM      6  C   UNL     1      10.742  10.822 -19.495  1.00  0.00     0.004 A 
ENDROOT
BRANCH   1   7
ATOM      7  C   UNL     1       7.074  11.959 -21.433  1.00  0.00     0.075 C 
ATOM      8  O   UNL     1       6.365  12.913 -21.015  1.00  0.00    -0.545 OA
ATOM      9  O   UNL     1       6.656  11.262 -22.562  1.00  0.00    -0.545 OA
ENDBRANCH   1   7
BRANCH   2  10
ATOM     10  O   UNL     1       7.675  12.719 -18.682  1.00  0.00    -0.507 OA
ATOM     11  H   UNL     1       6.678  12.548 -18.745  1.00  0.00     0.293 HD
ENDBRANCH   2  10
TORSDOF 2
ENDMDL
MODEL 8
REMARK VINA RESULT:    -4.544     14.439     15.254
REMARK INTER + INTRA:          -5.186
REMARK INTER:                  -4.931
REMARK INTRA:                  -0.255
REMARK UNBOUND:                -0.243
REMARK SMILES O=C([O-])c1ccccc1O
REMARK SMILES IDX 4 1 9 2 5 3 8 4 6 5 7 6 2 7 1 8 3 9 10 10
REMARK H PARENT 10 11
REMARK Flexibility Score: inf
ROOT
ATOM      1  C   UNL     1       0.554  10.992  -8.073  1.00  0.00     0.039 A 
ATOM      2  C   UNL     1       1.074  11.782  -7.020  1.00  0.00     0.124 A 
ATOM      3  C   UNL     1       1.408  10.079  -8.721  1.00  0.00     0.014 A 
ATOM      4  C   UNL     1       2.418  11.647  -6.641  1.00  0.00     0.047 A 
ATOM      5  C   UNL     1       2.744   9.954  -8.334  1.00  0.00     0.001 A 
ATOM      6  C   UNL     1       3.249  10.736  -7.296  1.00  0.00     0.004 A 
ENDROOT
BRANCH   1   7
ATOM      7  C   UNL     1      -0.861  11.098  -8.512  1.00  0.00     0.075 C 
ATOM      8  O   UNL     1      -1.560  10.069  -8.706  1.00  0.00    -0.545 OA
ATOM      9  O   UNL     1      -1.440  12.346  -8.716  1.00  0.00    -0.545 OA
ENDBRANCH   1   7
BRANCH   2  10
ATOM     10  O   UNL     1       0.264  12.700  -6.349  1.00  0.00    -0.507 OA
ATOM     11  H   UNL     1       0.643  13.547  -5.941  1.00  0.00     0.293 HD
ENDBRANCH   2  10
TORSDOF 2
ENDMDL
MODEL 9
REMARK VINA RESULT:    -4.452     14.201     15.451
REMARK INTER + INTRA:          -5.086
REMARK INTER:                  -4.838
REMARK INTRA:                  -0.248
REMARK UNBOUND:                -0.243
REMARK SMILES O=C([O-])c1ccccc1O
REMARK SMILES IDX 4 1 9 2 5 3 8 4 6 5 7 6 2 7 1 8 3 9 10 10
REMARK H PARENT 10 11
REMARK Flexibility Score: inf
ROOT
ATOM      1  C   UNL     1       1.299  11.609  -7.355  1.00  0.00     0.039 A 
ATOM      2  C   UNL     1       0.109  12.334  -7.602  1.00  0.00     0.124 A 
ATOM      3  C   UNL     1       2.028  11.881  -6.181  1.00  0.00     0.014 A 
ATOM      4  C   UNL     1      -0.323  13.304  -6.685  1.00  0.00     0.047 A 
ATOM      5  C   UNL     1       1.587  12.849  -5.277  1.00  0.00     0.001 A 
ATOM      6  C   UNL     1       0.414  13.560  -5.527  1.00  0.00     0.004 A 
ENDROOT
BRANCH   1   7
ATOM      7  C   UNL     1       1.797  10.572  -8.295  1.00  0.00     0.075 C 
ATOM      8  O   UNL     1       1.011   9.744  -8.826  1.00  0.00    -0.545 OA
ATOM      9  O   UNL     1       3.151  10.499  -8.604  1.00  0.00    -0.545 OA
ENDBRANCH   1   7
BRANCH   2  10
ATOM     10  O   UNL     1      -0.646  12.097  -8.752  1.00  0.00    -0.507 OA
ATOM     11  H   UNL     1      -1.582  11.711  -8.705  1.00  0.00     0.293 HD
ENDBRANCH   2  10
TORSDOF 2
ENDMDL
