MODEL 1
REMARK VINA RESULT:    -3.126      0.000      0.000
REMARK INTER + INTRA:          -4.989
REMARK INTER:                  -4.770
REMARK INTRA:                  -0.219
REMARK UNBOUND:                -0.219
REMARK SMILES CC1=CCC[C@H](C)C(=O)C[C@@H](C(C)C)C(=O)C1
REMARK SMILES IDX 8 1 9 2 6 3 7 4 5 5 4 6 3 7 2 8 1 9 10 11 11 12 15 13 16 14
REMARK SMILES IDX 17 15 12 17 13 18 14 19
REMARK H PARENT
REMARK Flexibility Score: 70.00
ROOT
ATOM      1  C   UNL     1      15.145  61.074  20.550  1.00  0.00     0.136 C 
ATOM      2  O   UNL     1      15.585  60.301  19.711  1.00  0.00    -0.299 OA
ENDROOT
BRANCH   1   3
ATOM      3  C   UNL     1      13.647  61.220  20.728  1.00  0.00     0.053 C 
ATOM      4  C   UNL     1      13.006  61.550  19.377  1.00  0.00     0.016 C 
BRANCH   3   5
ATOM      5  C   UNL     1      13.013  59.942  21.325  1.00  0.00     0.015 C 
BRANCH   5   6
ATOM      6  C   UNL     1      12.955  59.952  22.860  1.00  0.00     0.028 C 
BRANCH   6   7
ATOM      7  C   UNL     1      12.746  61.351  23.391  1.00  0.00    -0.028 C 
ATOM      8  C   UNL     1      13.584  62.012  24.222  1.00  0.00    -0.070 CG0
ATOM      9  C   UNL     1      13.203  63.408  24.647  1.00  0.00     0.039 C 
ATOM     10  G   UNL     1      14.897  61.432  24.711  1.00  0.00     0.000 G0
ENDBRANCH   6   7
ENDBRANCH   5   6
ENDBRANCH   3   5
ENDBRANCH   1   3
BRANCH   1  11
ATOM     11  C   UNL     1      16.110  61.881  21.379  1.00  0.00     0.087 C 
BRANCH  11  12
ATOM     12  C   UNL     1      16.524  61.138  22.674  1.00  0.00     0.066 C 
BRANCH  12  13
ATOM     13  C   UNL     1      16.073  61.903  23.907  1.00  0.00     0.140 C 
ATOM     14  O   UNL     1      16.689  62.897  24.265  1.00  0.00    -0.299 OA
BRANCH  13  15
ATOM     15  C   UNL     1      14.908  61.432  24.739  1.00  0.00     0.106 CG0
ATOM     16  G   UNL     1      13.603  61.999  24.214  1.00  0.00     0.000 G0
ENDBRANCH  13  15
ENDBRANCH  12  13
BRANCH  12  17
ATOM     17  C   UNL     1      18.052  60.829  22.756  1.00  0.00    -0.006 C 
ATOM     18  C   UNL     1      18.583  59.996  21.574  1.00  0.00     0.008 C 
ATOM     19  C   UNL     1      18.424  60.151  24.085  1.00  0.00     0.008 C 
ENDBRANCH  12  17
ENDBRANCH  11  12
ENDBRANCH   1  11
TORSDOF 1
ENDMDL
MODEL 2
REMARK VINA RESULT:    -3.050     12.670     14.310
REMARK INTER + INTRA:          -4.873
REMARK INTER:                  -4.687
REMARK INTRA:                  -0.187
REMARK UNBOUND:                -0.219
REMARK SMILES CC1=CCC[C@H](C)C(=O)C[C@@H](C(C)C)C(=O)C1
REMARK SMILES IDX 8 1 9 2 6 3 7 4 5 5 4 6 3 7 2 8 1 9 10 11 11 12 15 13 16 14
REMARK SMILES IDX 17 15 12 17 13 18 14 19
REMARK H PARENT
REMARK Flexibility Score: 70.00
ROOT
ATOM      1  C   UNL     1      17.183  52.615  35.181  1.00  0.00     0.136 C 
ATOM      2  O   UNL     1      17.539  53.343  36.097  1.00  0.00    -0.299 OA
ENDROOT
BRANCH   1   3
ATOM      3  C   UNL     1      15.738  52.169  35.090  1.00  0.00     0.053 C 
ATOM      4  C   UNL     1      15.330  51.500  36.406  1.00  0.00     0.016 C 
BRANCH   3   5
ATOM      5  C   UNL     1      14.792  53.351  34.775  1.00  0.00     0.015 C 
BRANCH   5   6
ATOM      6  C   UNL     1      14.360  53.407  33.302  1.00  0.00     0.028 C 
BRANCH   6   7
ATOM      7  C   UNL     1      14.217  52.021  32.720  1.00  0.00    -0.028 C 
ATOM      8  C   UNL     1      14.972  51.501  31.725  1.00  0.00    -0.070 CG0
ATOM      9  C   UNL     1      14.676  50.093  31.274  1.00  0.00     0.039 C 
ATOM     10  G   UNL     1      16.117  52.252  31.073  1.00  0.00     0.000 G0
ENDBRANCH   6   7
ENDBRANCH   5   6
ENDBRANCH   3   5
ENDBRANCH   1   3
BRANCH   1  11
ATOM     11  C   UNL     1      18.203  52.161  34.169  1.00  0.00     0.087 C 
BRANCH  11  12
ATOM     12  C   UNL     1      18.027  52.879  32.808  1.00  0.00     0.066 C 
BRANCH  12  13
ATOM     13  C   UNL     1      17.441  51.937  31.768  1.00  0.00     0.140 C 
ATOM     14  O   UNL     1      18.054  50.930  31.446  1.00  0.00    -0.299 OA
BRANCH  13  15
ATOM     15  C   UNL     1      16.137  52.244  31.079  1.00  0.00     0.106 CG0
ATOM     16  G   UNL     1      14.990  51.498  31.734  1.00  0.00     0.000 G0
ENDBRANCH  13  15
ENDBRANCH  12  13
BRANCH  12  17
ATOM     17  C   UNL     1      19.340  53.530  32.270  1.00  0.00    -0.006 C 
ATOM     18  C   UNL     1      20.625  52.862  32.791  1.00  0.00     0.008 C 
ATOM     19  C   UNL     1      19.382  55.041  32.552  1.00  0.00     0.008 C 
ENDBRANCH  12  17
ENDBRANCH  11  12
ENDBRANCH   1  11
TORSDOF 1
ENDMDL
MODEL 3
REMARK VINA RESULT:    -2.984      2.962      4.924
REMARK INTER + INTRA:          -4.773
REMARK INTER:                  -4.537
REMARK INTRA:                  -0.236
REMARK UNBOUND:                -0.219
REMARK SMILES CC1=CCC[C@H](C)C(=O)C[C@@H](C(C)C)C(=O)C1
REMARK SMILES IDX 8 1 9 2 6 3 7 4 5 5 4 6 3 7 2 8 1 9 10 11 11 12 15 13 16 14
REMARK SMILES IDX 17 15 12 17 13 18 14 19
REMARK H PARENT
REMARK Flexibility Score: 70.00
ROOT
ATOM      1  C   UNL     1      13.233  59.972  21.460  1.00  0.00     0.136 C 
ATOM      2  O   UNL     1      12.677  60.577  22.365  1.00  0.00    -0.299 OA
ENDROOT
BRANCH   1   3
ATOM      3  C   UNL     1      13.790  60.732  20.274  1.00  0.00     0.053 C 
ATOM      4  C   UNL     1      12.718  61.681  19.731  1.00  0.00     0.016 C 
BRANCH   3   5
ATOM      5  C   UNL     1      15.065  61.523  20.648  1.00  0.00     0.015 C 
BRANCH   5   6
ATOM      6  C   UNL     1      16.362  60.830  20.203  1.00  0.00     0.028 C 
BRANCH   6   7
ATOM      7  C   UNL     1      17.161  60.347  21.391  1.00  0.00    -0.028 C 
ATOM      8  C   UNL     1      17.182  59.080  21.864  1.00  0.00    -0.070 CG0
ATOM      9  C   UNL     1      18.043  58.788  23.067  1.00  0.00     0.039 C 
ATOM     10  G   UNL     1      16.414  57.940  21.222  1.00  0.00     0.000 G0
ENDBRANCH   6   7
ENDBRANCH   5   6
ENDBRANCH   3   5
ENDBRANCH   1   3
BRANCH   1  11
ATOM     11  C   UNL     1      13.334  58.470  21.539  1.00  0.00     0.087 C 
BRANCH  11  12
ATOM     12  C   UNL     1      14.232  58.011  22.715  1.00  0.00     0.066 C 
BRANCH  12  13
ATOM     13  C   UNL     1      15.462  57.277  22.206  1.00  0.00     0.140 C 
ATOM     14  O   UNL     1      15.719  56.158  22.625  1.00  0.00    -0.299 OA
BRANCH  13  15
ATOM     15  C   UNL     1      16.411  57.922  21.228  1.00  0.00     0.106 CG0
ATOM     16  G   UNL     1      17.167  59.064  21.880  1.00  0.00     0.000 G0
ENDBRANCH  13  15
ENDBRANCH  12  13
BRANCH  12  17
ATOM     17  C   UNL     1      13.482  57.142  23.773  1.00  0.00    -0.006 C 
ATOM     18  C   UNL     1      12.203  56.474  23.236  1.00  0.00     0.008 C 
ATOM     19  C   UNL     1      13.161  57.946  25.044  1.00  0.00     0.008 C 
ENDBRANCH  12  17
ENDBRANCH  11  12
ENDBRANCH   1  11
TORSDOF 1
ENDMDL
MODEL 4
REMARK VINA RESULT:    -2.814      2.481      3.600
REMARK INTER + INTRA:          -4.514
REMARK INTER:                  -4.605
REMARK INTRA:                   0.091
REMARK UNBOUND:                -0.219
REMARK SMILES CC1=CCC[C@H](C)C(=O)C[C@@H](C(C)C)C(=O)C1
REMARK SMILES IDX 8 1 9 2 6 3 7 4 5 5 4 6 3 7 2 8 1 9 10 11 11 12 15 13 16 14
REMARK SMILES IDX 17 15 12 17 13 18 14 19
REMARK H PARENT
REMARK Flexibility Score: 70.00
ROOT
ATOM      1  C   UNL     1      15.195  57.704  22.015  1.00  0.00     0.136 C 
ATOM      2  O   UNL     1      15.384  57.226  23.124  1.00  0.00    -0.299 OA
ENDROOT
BRANCH   1   3
ATOM      3  C   UNL     1      13.855  57.523  21.333  1.00  0.00     0.053 C 
ATOM      4  C   UNL     1      13.588  56.029  21.127  1.00  0.00     0.016 C 
BRANCH   3   5
ATOM      5  C   UNL     1      12.707  58.165  22.147  1.00  0.00     0.015 C 
BRANCH   5   6
ATOM      6  C   UNL     1      12.893  59.672  22.376  1.00  0.00     0.028 C 
BRANCH   6   7
ATOM      7  C   UNL     1      12.382  60.473  21.201  1.00  0.00    -0.028 C 
ATOM      8  C   UNL     1      13.073  61.426  20.536  1.00  0.00    -0.070 CG0
ATOM      9  C   UNL     1      12.390  62.121  19.385  1.00  0.00     0.039 C 
ATOM     10  G   UNL     1      14.505  61.799  20.869  1.00  0.00     0.000 G0
ENDBRANCH   6   7
ENDBRANCH   5   6
ENDBRANCH   3   5
ENDBRANCH   1   3
BRANCH   1  11
ATOM     11  C   UNL     1      16.317  58.450  21.341  1.00  0.00     0.087 C 
BRANCH  11  12
ATOM     12  C   UNL     1      16.252  59.972  21.622  1.00  0.00     0.066 C 
BRANCH  12  13
ATOM     13  C   UNL     1      15.477  60.694  20.531  1.00  0.00     0.140 C 
ATOM     14  O   UNL     1      15.660  60.399  19.359  1.00  0.00    -0.299 OA
BRANCH  13  15
ATOM     15  C   UNL     1      14.521  61.812  20.858  1.00  0.00     0.106 CG0
ATOM     16  G   UNL     1      13.092  61.412  20.544  1.00  0.00     0.000 G0
ENDBRANCH  13  15
ENDBRANCH  12  13
BRANCH  12  17
ATOM     17  C   UNL     1      17.653  60.632  21.820  1.00  0.00    -0.006 C 
ATOM     18  C   UNL     1      18.780  59.625  22.113  1.00  0.00     0.008 C 
ATOM     19  C   UNL     1      17.621  61.717  22.908  1.00  0.00     0.008 C 
ENDBRANCH  12  17
ENDBRANCH  11  12
ENDBRANCH   1  11
TORSDOF 1
ENDMDL
MODEL 5
REMARK VINA RESULT:    -2.807      2.837      5.016
REMARK INTER + INTRA:          -4.502
REMARK INTER:                  -4.316
REMARK INTRA:                  -0.186
REMARK UNBOUND:                -0.219
REMARK SMILES CC1=CCC[C@H](C)C(=O)C[C@@H](C(C)C)C(=O)C1
REMARK SMILES IDX 8 1 9 2 6 3 7 4 5 5 4 6 3 7 2 8 1 9 10 11 11 12 15 13 16 14
REMARK SMILES IDX 17 15 12 17 13 18 14 19
REMARK H PARENT
REMARK Flexibility Score: 70.00
ROOT
ATOM      1  C   UNL     1      14.033  58.236  22.789  1.00  0.00     0.136 C 
ATOM      2  O   UNL     1      12.925  57.990  22.336  1.00  0.00    -0.299 OA
ENDROOT
BRANCH   1   3
ATOM      3  C   UNL     1      14.948  57.101  23.203  1.00  0.00     0.053 C 
ATOM      4  C   UNL     1      14.195  56.163  24.151  1.00  0.00     0.016 C 
BRANCH   3   5
ATOM      5  C   UNL     1      15.477  56.316  21.980  1.00  0.00     0.015 C 
BRANCH   5   6
ATOM      6  C   UNL     1      16.659  57.004  21.281  1.00  0.00     0.028 C 
BRANCH   6   7
ATOM      7  C   UNL     1      17.525  57.746  22.271  1.00  0.00    -0.028 C 
ATOM      8  C   UNL     1      17.871  59.051  22.194  1.00  0.00    -0.070 CG0
ATOM      9  C   UNL     1      18.749  59.616  23.282  1.00  0.00     0.039 C 
ATOM     10  G   UNL     1      17.389  59.974  21.092  1.00  0.00     0.000 G0
ENDBRANCH   6   7
ENDBRANCH   5   6
ENDBRANCH   3   5
ENDBRANCH   1   3
BRANCH   1  11
ATOM     11  C   UNL     1      14.457  59.674  22.942  1.00  0.00     0.087 C 
BRANCH  11  12
ATOM     12  C   UNL     1      14.817  60.320  21.580  1.00  0.00     0.066 C 
BRANCH  12  13
ATOM     13  C   UNL     1      16.247  60.833  21.583  1.00  0.00     0.140 C 
ATOM     14  O   UNL     1      16.482  61.977  21.946  1.00  0.00    -0.299 OA
BRANCH  13  15
ATOM     15  C   UNL     1      17.388  59.979  21.094  1.00  0.00     0.106 CG0
ATOM     16  G   UNL     1      17.890  59.064  22.194  1.00  0.00     0.000 G0
ENDBRANCH  13  15
ENDBRANCH  12  13
BRANCH  12  17
ATOM     17  C   UNL     1      13.834  61.453  21.148  1.00  0.00    -0.006 C 
ATOM     18  C   UNL     1      12.882  61.913  22.267  1.00  0.00     0.008 C 
ATOM     19  C   UNL     1      13.027  61.060  19.900  1.00  0.00     0.008 C 
ENDBRANCH  12  17
ENDBRANCH  11  12
ENDBRANCH   1  11
TORSDOF 1
ENDMDL
MODEL 6
REMARK VINA RESULT:    -2.796      2.796      4.419
REMARK INTER + INTRA:          -4.486
REMARK INTER:                  -4.308
REMARK INTRA:                  -0.178
REMARK UNBOUND:                -0.219
REMARK SMILES CC1=CCC[C@H](C)C(=O)C[C@@H](C(C)C)C(=O)C1
REMARK SMILES IDX 8 1 9 2 6 3 7 4 5 5 4 6 3 7 2 8 1 9 10 11 11 12 15 13 16 14
REMARK SMILES IDX 17 15 12 17 13 18 14 19
REMARK H PARENT
REMARK Flexibility Score: 70.00
ROOT
ATOM      1  C   UNL     1      16.503  58.894  22.204  1.00  0.00     0.136 C 
ATOM      2  O   UNL     1      17.283  58.066  21.756  1.00  0.00    -0.299 OA
ENDROOT
BRANCH   1   3
ATOM      3  C   UNL     1      16.666  60.357  21.846  1.00  0.00     0.053 C 
ATOM      4  C   UNL     1      18.099  60.799  22.159  1.00  0.00     0.016 C 
BRANCH   3   5
ATOM      5  C   UNL     1      16.337  60.622  20.358  1.00  0.00     0.015 C 
BRANCH   5   6
ATOM      6  C   UNL     1      14.869  61.006  20.120  1.00  0.00     0.028 C 
BRANCH   6   7
ATOM      7  C   UNL     1      14.237  61.560  21.375  1.00  0.00    -0.028 C 
ATOM      8  C   UNL     1      13.199  61.009  22.045  1.00  0.00    -0.070 CG0
ATOM      9  C   UNL     1      12.702  61.712  23.283  1.00  0.00     0.039 C 
ATOM     10  G   UNL     1      12.542  59.706  21.632  1.00  0.00     0.000 G0
ENDBRANCH   6   7
ENDBRANCH   5   6
ENDBRANCH   3   5
ENDBRANCH   1   3
BRANCH   1  11
ATOM     11  C   UNL     1      15.401  58.436  23.125  1.00  0.00     0.087 C 
BRANCH  11  12
ATOM     12  C   UNL     1      14.221  57.803  22.346  1.00  0.00     0.066 C 
BRANCH  12  13
ATOM     13  C   UNL     1      12.937  58.583  22.575  1.00  0.00     0.140 C 
ATOM     14  O   UNL     1      12.195  58.276  23.498  1.00  0.00    -0.299 OA
BRANCH  13  15
ATOM     15  C   UNL     1      12.523  59.700  21.653  1.00  0.00     0.106 CG0
ATOM     16  G   UNL     1      13.211  60.998  22.032  1.00  0.00     0.000 G0
ENDBRANCH  13  15
ENDBRANCH  12  13
BRANCH  12  17
ATOM     17  C   UNL     1      14.001  56.290  22.666  1.00  0.00    -0.006 C 
ATOM     18  C   UNL     1      15.266  55.571  23.169  1.00  0.00     0.008 C 
ATOM     19  C   UNL     1      13.410  55.536  21.464  1.00  0.00     0.008 C 
ENDBRANCH  12  17
ENDBRANCH  11  12
ENDBRANCH   1  11
TORSDOF 1
ENDMDL
MODEL 7
REMARK VINA RESULT:    -2.746      2.230      3.922
REMARK INTER + INTRA:          -4.410
REMARK INTER:                  -4.497
REMARK INTRA:                   0.086
REMARK UNBOUND:                -0.219
REMARK SMILES CC1=CCC[C@H](C)C(=O)C[C@@H](C(C)C)C(=O)C1
REMARK SMILES IDX 8 1 9 2 6 3 7 4 5 5 4 6 3 7 2 8 1 9 10 11 11 12 15 13 16 14
REMARK SMILES IDX 17 15 12 17 13 18 14 19
REMARK H PARENT
REMARK Flexibility Score: 70.00
ROOT
ATOM      1  C   UNL     1      13.468  61.666  22.300  1.00  0.00     0.136 C 
ATOM      2  O   UNL     1      12.649  62.571  22.365  1.00  0.00    -0.299 OA
ENDROOT
BRANCH   1   3
ATOM      3  C   UNL     1      14.019  61.241  20.954  1.00  0.00     0.053 C 
ATOM      4  C   UNL     1      13.039  61.656  19.852  1.00  0.00     0.016 C 
BRANCH   3   5
ATOM      5  C   UNL     1      15.415  61.851  20.687  1.00  0.00     0.015 C 
BRANCH   5   6
ATOM      6  C   UNL     1      16.496  60.795  20.411  1.00  0.00     0.028 C 
BRANCH   6   7
ATOM      7  C   UNL     1      16.113  59.454  20.991  1.00  0.00    -0.028 C 
ATOM      8  C   UNL     1      16.415  59.017  22.234  1.00  0.00    -0.070 CG0
ATOM      9  C   UNL     1      15.945  57.641  22.635  1.00  0.00     0.039 C 
ATOM     10  G   UNL     1      17.167  59.856  23.250  1.00  0.00     0.000 G0
ENDBRANCH   6   7
ENDBRANCH   5   6
ENDBRANCH   3   5
ENDBRANCH   1   3
BRANCH   1  11
ATOM     11  C   UNL     1      13.899  60.978  23.570  1.00  0.00     0.087 C 
BRANCH  11  12
ATOM     12  C   UNL     1      15.265  61.504  24.079  1.00  0.00     0.066 C 
BRANCH  12  13
ATOM     13  C   UNL     1      16.227  60.357  24.339  1.00  0.00     0.140 C 
ATOM     14  O   UNL     1      16.285  59.852  25.451  1.00  0.00    -0.299 OA
BRANCH  13  15
ATOM     15  C   UNL     1      17.158  59.855  23.265  1.00  0.00     0.106 CG0
ATOM     16  G   UNL     1      16.410  59.008  22.253  1.00  0.00     0.000 G0
ENDBRANCH  13  15
ENDBRANCH  12  13
BRANCH  12  17
ATOM     17  C   UNL     1      15.153  62.415  25.342  1.00  0.00    -0.006 C 
ATOM     18  C   UNL     1      13.857  63.245  25.398  1.00  0.00     0.008 C 
ATOM     19  C   UNL     1      16.375  63.336  25.489  1.00  0.00     0.008 C 
ENDBRANCH  12  17
ENDBRANCH  11  12
ENDBRANCH   1  11
TORSDOF 1
ENDMDL
MODEL 8
REMARK VINA RESULT:    -2.715     11.793     13.806
REMARK INTER + INTRA:          -4.362
REMARK INTER:                  -4.238
REMARK INTRA:                  -0.124
REMARK UNBOUND:                -0.219
REMARK SMILES CC1=CCC[C@H](C)C(=O)C[C@@H](C(C)C)C(=O)C1
REMARK SMILES IDX 8 1 9 2 6 3 7 4 5 5 4 6 3 7 2 8 1 9 10 11 11 12 15 13 16 14
REMARK SMILES IDX 17 15 12 17 13 18 14 19
REMARK H PARENT
REMARK Flexibility Score: 70.00
ROOT
ATOM      1  C   UNL     1      18.390  53.085  34.613  1.00  0.00     0.136 C 
ATOM      2  O   UNL     1      18.616  51.900  34.810  1.00  0.00    -0.299 OA
ENDROOT
BRANCH   1   3
ATOM      3  C   UNL     1      19.324  53.896  33.737  1.00  0.00     0.053 C 
ATOM      4  C   UNL     1      19.240  53.383  32.296  1.00  0.00     0.016 C 
BRANCH   3   5
ATOM      5  C   UNL     1      18.991  55.405  33.788  1.00  0.00     0.015 C 
BRANCH   5   6
ATOM      6  C   UNL     1      18.276  55.912  32.526  1.00  0.00     0.028 C 
BRANCH   6   7
ATOM      7  C   UNL     1      17.312  57.029  32.853  1.00  0.00    -0.028 C 
ATOM      8  C   UNL     1      15.975  56.897  33.004  1.00  0.00    -0.070 CG0
ATOM      9  C   UNL     1      15.174  58.133  33.330  1.00  0.00     0.039 C 
ATOM     10  G   UNL     1      15.254  55.566  32.899  1.00  0.00     0.000 G0
ENDBRANCH   6   7
ENDBRANCH   5   6
ENDBRANCH   3   5
ENDBRANCH   1   3
BRANCH   1  11
ATOM     11  C   UNL     1      17.189  53.719  35.266  1.00  0.00     0.087 C 
BRANCH  11  12
ATOM     12  C   UNL     1      15.903  53.526  34.424  1.00  0.00     0.066 C 
BRANCH  12  13
ATOM     13  C   UNL     1      15.192  54.852  34.206  1.00  0.00     0.140 C 
ATOM     14  O   UNL     1      14.522  55.338  35.106  1.00  0.00    -0.299 OA
BRANCH  13  15
ATOM     15  C   UNL     1      15.249  55.563  32.878  1.00  0.00     0.106 CG0
ATOM     16  G   UNL     1      15.961  56.896  33.008  1.00  0.00     0.000 G0
ENDBRANCH  13  15
ENDBRANCH  12  13
BRANCH  12  17
ATOM     17  C   UNL     1      14.917  52.474  35.022  1.00  0.00    -0.006 C 
ATOM     18  C   UNL     1      15.410  51.832  36.331  1.00  0.00     0.008 C 
ATOM     19  C   UNL     1      14.565  51.380  34.000  1.00  0.00     0.008 C 
ENDBRANCH  12  17
ENDBRANCH  11  12
ENDBRANCH   1  11
TORSDOF 1
ENDMDL
MODEL 9
REMARK VINA RESULT:    -2.712     12.280     14.163
REMARK INTER + INTRA:          -4.358
REMARK INTER:                  -4.203
REMARK INTRA:                  -0.155
REMARK UNBOUND:                -0.219
REMARK SMILES CC1=CCC[C@H](C)C(=O)C[C@@H](C(C)C)C(=O)C1
REMARK SMILES IDX 8 1 9 2 6 3 7 4 5 5 4 6 3 7 2 8 1 9 10 11 11 12 15 13 16 14
REMARK SMILES IDX 17 15 12 17 13 18 14 19
REMARK H PARENT
REMARK Flexibility Score: 70.00
ROOT
ATOM      1  C   UNL     1      14.941  52.154  34.533  1.00  0.00     0.136 C 
ATOM      2  O   UNL     1      14.276  51.163  34.796  1.00  0.00    -0.299 OA
ENDROOT
BRANCH   1   3
ATOM      3  C   UNL     1      15.932  52.689  35.546  1.00  0.00     0.053 C 
ATOM      4  C   UNL     1      15.376  52.482  36.958  1.00  0.00     0.016 C 
BRANCH   3   5
ATOM      5  C   UNL     1      17.315  52.009  35.410  1.00  0.00     0.015 C 
BRANCH   5   6
ATOM      6  C   UNL     1      18.453  52.999  35.121  1.00  0.00     0.028 C 
BRANCH   6   7
ATOM      7  C   UNL     1      17.923  54.400  34.921  1.00  0.00    -0.028 C 
ATOM      8  C   UNL     1      17.697  54.995  33.728  1.00  0.00    -0.070 CG0
ATOM      9  C   UNL     1      17.166  56.406  33.730  1.00  0.00     0.039 C 
ATOM     10  G   UNL     1      17.916  54.299  32.398  1.00  0.00     0.000 G0
ENDBRANCH   6   7
ENDBRANCH   5   6
ENDBRANCH   3   5
ENDBRANCH   1   3
BRANCH   1  11
ATOM     11  C   UNL     1      14.743  52.835  33.203  1.00  0.00     0.087 C 
BRANCH  11  12
ATOM     12  C   UNL     1      15.916  52.560  32.230  1.00  0.00     0.066 C 
BRANCH  12  13
ATOM     13  C   UNL     1      16.588  53.856  31.808  1.00  0.00     0.140 C 
ATOM     14  O   UNL     1      16.076  54.553  30.944  1.00  0.00    -0.299 OA
BRANCH  13  15
ATOM     15  C   UNL     1      17.910  54.281  32.394  1.00  0.00     0.106 CG0
ATOM     16  G   UNL     1      17.712  54.991  33.719  1.00  0.00     0.000 G0
ENDBRANCH  13  15
ENDBRANCH  12  13
BRANCH  12  17
ATOM     17  C   UNL     1      15.505  51.728  30.975  1.00  0.00    -0.006 C 
ATOM     18  C   UNL     1      14.103  51.100  31.076  1.00  0.00     0.008 C 
ATOM     19  C   UNL     1      16.544  50.643  30.647  1.00  0.00     0.008 C 
ENDBRANCH  12  17
ENDBRANCH  11  12
ENDBRANCH   1  11
TORSDOF 1
ENDMDL
