MODEL 1
REMARK VINA RESULT:    -3.440      0.000      0.000
REMARK INTER + INTRA:          -4.888
REMARK INTER:                  -4.446
REMARK INTRA:                  -0.442
REMARK UNBOUND:                -0.442
REMARK SMILES CCO[C@@H]1O[C@H](CO)[C@H](O)[C@@H](O)[C@H]1O
REMARK SMILES IDX 4 1 13 2 11 3 9 4 6 5 5 6 3 7 2 8 1 9 14 10 12 12 7 14 8 15
REMARK SMILES IDX 10 17
REMARK H PARENT 14 11 12 13 8 16 10 18
REMARK Flexibility Score: inf
ROOT
ATOM      1  C   UNL     1      17.104  -7.102   6.008  1.00  0.00     0.281 C 
ATOM      2  C   UNL     1      17.725  -7.596   7.327  1.00  0.00     0.202 C 
ATOM      3  C   UNL     1      19.273  -7.503   7.285  1.00  0.00     0.179 C 
ATOM      4  C   UNL     1      19.792  -7.383   5.839  1.00  0.00     0.177 C 
ATOM      5  C   UNL     1      18.908  -8.195   4.844  1.00  0.00     0.178 C 
ATOM      6  O   UNL     1      17.509  -7.914   4.913  1.00  0.00    -0.341 OA
ENDROOT
BRANCH   1   7
ATOM      7  O   UNL     1      15.695  -7.169   6.131  1.00  0.00    -0.350 OA
BRANCH   7   8
ATOM      8  C   UNL     1      15.266  -8.515   6.121  1.00  0.00     0.160 C 
ATOM      9  C   UNL     1      14.028  -8.649   6.995  1.00  0.00     0.035 C 
ENDBRANCH   7   8
ENDBRANCH   1   7
BRANCH   2  10
ATOM     10  O   UNL     1      17.201  -6.852   8.399  1.00  0.00    -0.385 OA
ATOM     11  H   UNL     1      17.417  -5.900   8.218  1.00  0.00     0.211 HD
ENDBRANCH   2  10
BRANCH   3  12
ATOM     12  O   UNL     1      19.732  -6.392   8.016  1.00  0.00    -0.387 OA
ATOM     13  H   UNL     1      20.684  -6.253   7.768  1.00  0.00     0.211 HD
ENDBRANCH   3  12
BRANCH   5  14
ATOM     14  C   UNL     1      19.103  -9.720   4.975  1.00  0.00     0.191 C 
BRANCH  14  15
ATOM     15  O   UNL     1      20.335 -10.125   4.442  1.00  0.00    -0.394 OA
ATOM     16  H   UNL     1      20.262 -10.032   3.456  1.00  0.00     0.210 HD
ENDBRANCH  14  15
ENDBRANCH   5  14
BRANCH   4  17
ATOM     17  O   UNL     1      21.136  -7.789   5.784  1.00  0.00    -0.387 OA
ATOM     18  H   UNL     1      21.503  -7.447   4.929  1.00  0.00     0.211 HD
ENDBRANCH   4  17
TORSDOF 7
ENDMDL
MODEL 2
REMARK VINA RESULT:    -3.227      2.146      4.445
REMARK INTER + INTRA:          -4.612
REMARK INTER:                  -4.271
REMARK INTRA:                  -0.341
REMARK UNBOUND:                -0.442
REMARK SMILES CCO[C@@H]1O[C@H](CO)[C@H](O)[C@@H](O)[C@H]1O
REMARK SMILES IDX 4 1 13 2 11 3 9 4 6 5 5 6 3 7 2 8 1 9 14 10 12 12 7 14 8 15
REMARK SMILES IDX 10 17
REMARK H PARENT 14 11 12 13 8 16 10 18
REMARK Flexibility Score: inf
ROOT
ATOM      1  C   UNL     1      19.617  -7.137   5.372  1.00  0.00     0.281 C 
ATOM      2  C   UNL     1      18.871  -7.482   6.673  1.00  0.00     0.202 C 
ATOM      3  C   UNL     1      17.914  -8.686   6.466  1.00  0.00     0.179 C 
ATOM      4  C   UNL     1      17.622  -8.923   4.972  1.00  0.00     0.177 C 
ATOM      5  C   UNL     1      17.573  -7.583   4.178  1.00  0.00     0.178 C 
ATOM      6  O   UNL     1      18.712  -6.738   4.350  1.00  0.00    -0.341 OA
ENDROOT
BRANCH   1   7
ATOM      7  O   UNL     1      20.503  -6.066   5.642  1.00  0.00    -0.350 OA
BRANCH   7   8
ATOM      8  C   UNL     1      21.396  -5.884   4.562  1.00  0.00     0.160 C 
ATOM      9  C   UNL     1      21.226  -4.478   4.007  1.00  0.00     0.035 C 
ENDBRANCH   7   8
ENDBRANCH   1   7
BRANCH   2  10
ATOM     10  O   UNL     1      19.804  -7.746   7.692  1.00  0.00    -0.385 OA
ATOM     11  H   UNL     1      20.670  -7.934   7.244  1.00  0.00     0.211 HD
ENDBRANCH   2  10
BRANCH   3  12
ATOM     12  O   UNL     1      18.462  -9.865   7.004  1.00  0.00    -0.387 OA
ATOM     13  H   UNL     1      17.834 -10.185   7.704  1.00  0.00     0.211 HD
ENDBRANCH   3  12
BRANCH   5  14
ATOM     14  C   UNL     1      16.306  -6.755   4.476  1.00  0.00     0.191 C 
BRANCH  14  15
ATOM     15  O   UNL     1      15.169  -7.332   3.889  1.00  0.00    -0.394 OA
ATOM     16  H   UNL     1      14.766  -7.924   4.576  1.00  0.00     0.210 HD
ENDBRANCH  14  15
ENDBRANCH   5  14
BRANCH   4  17
ATOM     17  O   UNL     1      16.427  -9.648   4.833  1.00  0.00    -0.387 OA
ATOM     18  H   UNL     1      16.238  -9.707   3.861  1.00  0.00     0.211 HD
ENDBRANCH   4  17
TORSDOF 7
ENDMDL
MODEL 3
REMARK VINA RESULT:    -3.108      1.495      4.136
REMARK INTER + INTRA:          -4.458
REMARK INTER:                  -4.069
REMARK INTRA:                  -0.389
REMARK UNBOUND:                -0.442
REMARK SMILES CCO[C@@H]1O[C@H](CO)[C@H](O)[C@@H](O)[C@H]1O
REMARK SMILES IDX 4 1 13 2 11 3 9 4 6 5 5 6 3 7 2 8 1 9 14 10 12 12 7 14 8 15
REMARK SMILES IDX 10 17
REMARK H PARENT 14 11 12 13 8 16 10 18
REMARK Flexibility Score: inf
ROOT
ATOM      1  C   UNL     1      18.865  -9.221   6.175  1.00  0.00     0.281 C 
ATOM      2  C   UNL     1      19.208  -7.851   6.785  1.00  0.00     0.202 C 
ATOM      3  C   UNL     1      17.922  -7.087   7.201  1.00  0.00     0.179 C 
ATOM      4  C   UNL     1      16.674  -7.666   6.508  1.00  0.00     0.177 C 
ATOM      5  C   UNL     1      16.999  -8.172   5.070  1.00  0.00     0.178 C 
ATOM      6  O   UNL     1      18.101  -9.078   4.984  1.00  0.00    -0.341 OA
ENDROOT
BRANCH   1   7
ATOM      7  O   UNL     1      20.079  -9.881   5.862  1.00  0.00    -0.350 OA
BRANCH   7   8
ATOM      8  C   UNL     1      20.236  -9.981   4.461  1.00  0.00     0.160 C 
ATOM      9  C   UNL     1      21.431  -9.143   4.033  1.00  0.00     0.035 C 
ENDBRANCH   7   8
ENDBRANCH   1   7
BRANCH   2  10
ATOM     10  O   UNL     1      20.069  -8.028   7.882  1.00  0.00    -0.385 OA
ATOM     11  H   UNL     1      20.815  -7.383   7.767  1.00  0.00     0.211 HD
ENDBRANCH   2  10
BRANCH   3  12
ATOM     12  O   UNL     1      17.727  -7.148   8.592  1.00  0.00    -0.387 OA
ATOM     13  H   UNL     1      17.793  -8.103   8.856  1.00  0.00     0.211 HD
ENDBRANCH   3  12
BRANCH   5  14
ATOM     14  C   UNL     1      17.238  -7.023   4.070  1.00  0.00     0.191 C 
BRANCH  14  15
ATOM     15  O   UNL     1      16.079  -6.254   3.888  1.00  0.00    -0.394 OA
ATOM     16  H   UNL     1      15.313  -6.885   3.916  1.00  0.00     0.210 HD
ENDBRANCH  14  15
ENDBRANCH   5  14
BRANCH   4  17
ATOM     17  O   UNL     1      15.650  -6.705   6.497  1.00  0.00    -0.387 OA
ATOM     18  H   UNL     1      16.080  -5.830   6.315  1.00  0.00     0.211 HD
ENDBRANCH   4  17
TORSDOF 7
ENDMDL
MODEL 4
REMARK VINA RESULT:    -3.056      1.956      2.708
REMARK INTER + INTRA:          -4.391
REMARK INTER:                  -3.998
REMARK INTRA:                  -0.393
REMARK UNBOUND:                -0.442
REMARK SMILES CCO[C@@H]1O[C@H](CO)[C@H](O)[C@@H](O)[C@H]1O
REMARK SMILES IDX 4 1 13 2 11 3 9 4 6 5 5 6 3 7 2 8 1 9 14 10 12 12 7 14 8 15
REMARK SMILES IDX 10 17
REMARK H PARENT 14 11 12 13 8 16 10 18
REMARK Flexibility Score: inf
ROOT
ATOM      1  C   UNL     1      18.281  -8.620   5.163  1.00  0.00     0.281 C 
ATOM      2  C   UNL     1      19.034  -9.183   6.381  1.00  0.00     0.202 C 
ATOM      3  C   UNL     1      19.504  -8.042   7.323  1.00  0.00     0.179 C 
ATOM      4  C   UNL     1      19.503  -6.680   6.603  1.00  0.00     0.177 C 
ATOM      5  C   UNL     1      19.888  -6.826   5.099  1.00  0.00     0.178 C 
ATOM      6  O   UNL     1      19.125  -7.792   4.373  1.00  0.00    -0.341 OA
ENDROOT
BRANCH   1   7
ATOM      7  O   UNL     1      17.842  -9.710   4.373  1.00  0.00    -0.350 OA
BRANCH   7   8
ATOM      8  C   UNL     1      16.542  -9.464   3.875  1.00  0.00     0.160 C 
ATOM      9  C   UNL     1      15.786  -8.594   4.867  1.00  0.00     0.035 C 
ENDBRANCH   7   8
ENDBRANCH   1   7
BRANCH   2  10
ATOM     10  O   UNL     1      18.209 -10.095   7.062  1.00  0.00    -0.385 OA
ATOM     11  H   UNL     1      18.796 -10.832   7.375  1.00  0.00     0.211 HD
ENDBRANCH   2  10
BRANCH   3  12
ATOM     12  O   UNL     1      18.673  -7.948   8.454  1.00  0.00    -0.387 OA
ATOM     13  H   UNL     1      19.022  -8.589   9.127  1.00  0.00     0.211 HD
ENDBRANCH   3  12
BRANCH   5  14
ATOM     14  C   UNL     1      21.385  -7.135   4.890  1.00  0.00     0.191 C 
BRANCH  14  15
ATOM     15  O   UNL     1      22.188  -6.053   5.277  1.00  0.00    -0.394 OA
ATOM     16  H   UNL     1      21.956  -5.849   6.220  1.00  0.00     0.210 HD
ENDBRANCH  14  15
ENDBRANCH   5  14
BRANCH   4  17
ATOM     17  O   UNL     1      20.363  -5.792   7.270  1.00  0.00    -0.387 OA
ATOM     18  H   UNL     1      21.132  -6.327   7.595  1.00  0.00     0.211 HD
ENDBRANCH   4  17
TORSDOF 7
ENDMDL
MODEL 5
REMARK VINA RESULT:    -2.989      1.129      3.070
REMARK INTER + INTRA:          -4.304
REMARK INTER:                  -4.198
REMARK INTRA:                  -0.106
REMARK UNBOUND:                -0.442
REMARK SMILES CCO[C@@H]1O[C@H](CO)[C@H](O)[C@@H](O)[C@H]1O
REMARK SMILES IDX 4 1 13 2 11 3 9 4 6 5 5 6 3 7 2 8 1 9 14 10 12 12 7 14 8 15
REMARK SMILES IDX 10 17
REMARK H PARENT 14 11 12 13 8 16 10 18
REMARK Flexibility Score: inf
ROOT
ATOM      1  C   UNL     1      16.878  -7.791   6.213  1.00  0.00     0.281 C 
ATOM      2  C   UNL     1      17.731  -7.136   5.113  1.00  0.00     0.202 C 
ATOM      3  C   UNL     1      19.151  -7.760   5.061  1.00  0.00     0.179 C 
ATOM      4  C   UNL     1      19.483  -8.516   6.361  1.00  0.00     0.177 C 
ATOM      5  C   UNL     1      18.845  -7.825   7.604  1.00  0.00     0.178 C 
ATOM      6  O   UNL     1      17.442  -7.573   7.500  1.00  0.00    -0.341 OA
ENDROOT
BRANCH   1   7
ATOM      7  O   UNL     1      15.587  -7.210   6.176  1.00  0.00    -0.350 OA
BRANCH   7   8
ATOM      8  C   UNL     1      14.611  -8.200   5.923  1.00  0.00     0.160 C 
ATOM      9  C   UNL     1      13.980  -8.625   7.239  1.00  0.00     0.035 C 
ENDBRANCH   7   8
ENDBRANCH   1   7
BRANCH   2  10
ATOM     10  O   UNL     1      17.076  -7.261   3.875  1.00  0.00    -0.385 OA
ATOM     11  H   UNL     1      16.530  -6.441   3.757  1.00  0.00     0.211 HD
ENDBRANCH   2  10
BRANCH   3  12
ATOM     12  O   UNL     1      19.269  -8.656   3.983  1.00  0.00    -0.387 OA
ATOM     13  H   UNL     1      18.822  -8.236   3.202  1.00  0.00     0.211 HD
ENDBRANCH   3  12
BRANCH   5  14
ATOM     14  C   UNL     1      19.548  -6.506   7.984  1.00  0.00     0.191 C 
BRANCH  14  15
ATOM     15  O   UNL     1      19.058  -5.997   9.196  1.00  0.00    -0.394 OA
ATOM     16  H   UNL     1      18.251  -6.528   9.422  1.00  0.00     0.210 HD
ENDBRANCH  14  15
ENDBRANCH   5  14
BRANCH   4  17
ATOM     17  O   UNL     1      20.876  -8.636   6.497  1.00  0.00    -0.387 OA
ATOM     18  H   UNL     1      21.191  -7.813   6.950  1.00  0.00     0.211 HD
ENDBRANCH   4  17
TORSDOF 7
ENDMDL
MODEL 6
REMARK VINA RESULT:    -2.878      2.229      4.521
REMARK INTER + INTRA:          -4.161
REMARK INTER:                  -3.895
REMARK INTRA:                  -0.267
REMARK UNBOUND:                -0.442
REMARK SMILES CCO[C@@H]1O[C@H](CO)[C@H](O)[C@@H](O)[C@H]1O
REMARK SMILES IDX 4 1 13 2 11 3 9 4 6 5 5 6 3 7 2 8 1 9 14 10 12 12 7 14 8 15
REMARK SMILES IDX 10 17
REMARK H PARENT 14 11 12 13 8 16 10 18
REMARK Flexibility Score: inf
ROOT
ATOM      1  C   UNL     1      20.805  -7.231   4.751  1.00  0.00     0.281 C 
ATOM      2  C   UNL     1      20.030  -6.390   5.781  1.00  0.00     0.202 C 
ATOM      3  C   UNL     1      19.196  -7.295   6.726  1.00  0.00     0.179 C 
ATOM      4  C   UNL     1      19.001  -8.703   6.132  1.00  0.00     0.177 C 
ATOM      5  C   UNL     1      18.871  -8.657   4.580  1.00  0.00     0.178 C 
ATOM      6  O   UNL     1      19.920  -7.957   3.908  1.00  0.00    -0.341 OA
ENDROOT
BRANCH   1   7
ATOM      7  O   UNL     1      21.577  -6.351   3.954  1.00  0.00    -0.350 OA
BRANCH   7   8
ATOM      8  C   UNL     1      22.953  -6.627   4.109  1.00  0.00     0.160 C 
ATOM      9  C   UNL     1      23.125  -8.078   4.532  1.00  0.00     0.035 C 
ENDBRANCH   7   8
ENDBRANCH   1   7
BRANCH   2  10
ATOM     10  O   UNL     1      20.930  -5.591   6.507  1.00  0.00    -0.385 OA
ATOM     11  H   UNL     1      20.449  -4.753   6.734  1.00  0.00     0.211 HD
ENDBRANCH   2  10
BRANCH   3  12
ATOM     12  O   UNL     1      19.820  -7.425   7.981  1.00  0.00    -0.387 OA
ATOM     13  H   UNL     1      19.336  -6.830   8.611  1.00  0.00     0.211 HD
ENDBRANCH   3  12
BRANCH   5  14
ATOM     14  C   UNL     1      17.522  -8.078   4.107  1.00  0.00     0.191 C 
BRANCH  14  15
ATOM     15  O   UNL     1      16.488  -9.017   4.241  1.00  0.00    -0.394 OA
ATOM     16  H   UNL     1      16.336  -9.402   3.339  1.00  0.00     0.210 HD
ENDBRANCH  14  15
ENDBRANCH   5  14
BRANCH   4  17
ATOM     17  O   UNL     1      17.884  -9.316   6.724  1.00  0.00    -0.387 OA
ATOM     18  H   UNL     1      17.103  -8.737   6.530  1.00  0.00     0.211 HD
ENDBRANCH   4  17
TORSDOF 7
ENDMDL
MODEL 7
REMARK VINA RESULT:    -2.875      5.671      9.211
REMARK INTER + INTRA:          -4.157
REMARK INTER:                  -3.803
REMARK INTRA:                  -0.355
REMARK UNBOUND:                -0.442
REMARK SMILES CCO[C@@H]1O[C@H](CO)[C@H](O)[C@@H](O)[C@H]1O
REMARK SMILES IDX 4 1 13 2 11 3 9 4 6 5 5 6 3 7 2 8 1 9 14 10 12 12 7 14 8 15
REMARK SMILES IDX 10 17
REMARK H PARENT 14 11 12 13 8 16 10 18
REMARK Flexibility Score: inf
ROOT
ATOM      1  C   UNL     1      11.020  -8.080   5.675  1.00  0.00     0.281 C 
ATOM      2  C   UNL     1      10.759  -7.584   4.241  1.00  0.00     0.202 C 
ATOM      3  C   UNL     1       9.343  -6.962   4.115  1.00  0.00     0.179 C 
ATOM      4  C   UNL     1       8.430  -7.395   5.278  1.00  0.00     0.177 C 
ATOM      5  C   UNL     1       8.739  -8.853   5.736  1.00  0.00     0.178 C 
ATOM      6  O   UNL     1      10.112  -9.113   6.036  1.00  0.00    -0.341 OA
ENDROOT
BRANCH   1   7
ATOM      7  O   UNL     1      12.339  -8.590   5.731  1.00  0.00    -0.350 OA
BRANCH   7   8
ATOM      8  C   UNL     1      12.850  -8.487   7.045  1.00  0.00     0.160 C 
ATOM      9  C   UNL     1      14.368  -8.432   6.986  1.00  0.00     0.035 C 
ENDBRANCH   7   8
ENDBRANCH   1   7
BRANCH   2  10
ATOM     10  O   UNL     1      11.753  -6.660   3.876  1.00  0.00    -0.385 OA
ATOM     11  H   UNL     1      12.101  -6.267   4.719  1.00  0.00     0.211 HD
ENDBRANCH   2  10
BRANCH   3  12
ATOM     12  O   UNL     1       9.408  -5.557   4.101  1.00  0.00    -0.387 OA
ATOM     13  H   UNL     1      10.322  -5.310   3.803  1.00  0.00     0.211 HD
ENDBRANCH   3  12
BRANCH   5  14
ATOM     14  C   UNL     1       8.254  -9.914   4.728  1.00  0.00     0.191 C 
BRANCH  14  15
ATOM     15  O   UNL     1       6.858 -10.048   4.759  1.00  0.00    -0.394 OA
ATOM     16  H   UNL     1       6.652 -10.704   5.474  1.00  0.00     0.210 HD
ENDBRANCH  14  15
ENDBRANCH   5  14
BRANCH   4  17
ATOM     17  O   UNL     1       7.084  -7.247   4.905  1.00  0.00    -0.387 OA
ATOM     18  H   UNL     1       6.967  -7.743   4.054  1.00  0.00     0.211 HD
ENDBRANCH   4  17
TORSDOF 7
ENDMDL
MODEL 8
REMARK VINA RESULT:    -2.705      2.192      3.008
REMARK INTER + INTRA:          -3.937
REMARK INTER:                  -3.557
REMARK INTRA:                  -0.381
REMARK UNBOUND:                -0.442
REMARK SMILES CCO[C@@H]1O[C@H](CO)[C@H](O)[C@@H](O)[C@H]1O
REMARK SMILES IDX 4 1 13 2 11 3 9 4 6 5 5 6 3 7 2 8 1 9 14 10 12 12 7 14 8 15
REMARK SMILES IDX 10 17
REMARK H PARENT 14 11 12 13 8 16 10 18
REMARK Flexibility Score: inf
ROOT
ATOM      1  C   UNL     1      14.397  -7.999   4.973  1.00  0.00     0.281 C 
ATOM      2  C   UNL     1      14.928  -8.536   6.314  1.00  0.00     0.202 C 
ATOM      3  C   UNL     1      16.327  -7.947   6.636  1.00  0.00     0.179 C 
ATOM      4  C   UNL     1      16.998  -7.366   5.377  1.00  0.00     0.177 C 
ATOM      5  C   UNL     1      16.635  -8.188   4.104  1.00  0.00     0.178 C 
ATOM      6  O   UNL     1      15.236  -8.389   3.894  1.00  0.00    -0.341 OA
ENDROOT
BRANCH   1   7
ATOM      7  O   UNL     1      13.104  -8.538   4.764  1.00  0.00    -0.350 OA
BRANCH   7   8
ATOM      8  C   UNL     1      12.204  -7.518   4.380  1.00  0.00     0.160 C 
ATOM      9  C   UNL     1      11.007  -7.532   5.319  1.00  0.00     0.035 C 
ENDBRANCH   7   8
ENDBRANCH   1   7
BRANCH   2  10
ATOM     10  O   UNL     1      14.007  -8.242   7.335  1.00  0.00    -0.385 OA
ATOM     11  H   UNL     1      14.079  -8.972   8.003  1.00  0.00     0.211 HD
ENDBRANCH   2  10
BRANCH   3  12
ATOM     12  O   UNL     1      16.235  -6.928   7.602  1.00  0.00    -0.387 OA
ATOM     13  H   UNL     1      16.463  -7.334   8.478  1.00  0.00     0.211 HD
ENDBRANCH   3  12
BRANCH   5  14
ATOM     14  C   UNL     1      17.335  -9.562   4.057  1.00  0.00     0.191 C 
BRANCH  14  15
ATOM     15  O   UNL     1      18.719  -9.424   3.875  1.00  0.00    -0.394 OA
ATOM     16  H   UNL     1      19.135 -10.255   4.224  1.00  0.00     0.210 HD
ENDBRANCH  14  15
ENDBRANCH   5  14
BRANCH   4  17
ATOM     17  O   UNL     1      18.388  -7.300   5.569  1.00  0.00    -0.387 OA
ATOM     18  H   UNL     1      18.723  -8.233   5.563  1.00  0.00     0.211 HD
ENDBRANCH   4  17
TORSDOF 7
ENDMDL
