MODEL 1
REMARK VINA RESULT:    -3.442      0.000      0.000
REMARK INTER + INTRA:          -6.252
REMARK INTER:                  -5.454
REMARK INTRA:                  -0.798
REMARK UNBOUND:                -0.798
REMARK SMILES CCCCCCCCCCCC(=O)[O-]
REMARK SMILES IDX 7 1 8 2 9 3 10 4 11 5 12 6 13 7 14 8 6 9 5 10 4 11 3 12 2 13
REMARK SMILES IDX 1 14
REMARK H PARENT
REMARK Flexibility Score: inf
ROOT
ATOM      1  C   UNL     1     -18.729  14.550  -3.875  1.00  0.00     0.000 C 
ENDROOT
BRANCH   1   2
ATOM      2  C   UNL     1     -19.527  13.835  -4.980  1.00  0.00     0.000 C 
BRANCH   2   3
ATOM      3  C   UNL     1     -19.014  12.412  -5.253  1.00  0.00     0.000 C 
BRANCH   3   4
ATOM      4  C   UNL     1     -19.178  11.993  -6.722  1.00  0.00     0.006 C 
BRANCH   4   5
ATOM      5  C   UNL     1     -18.201  10.868  -7.082  1.00  0.00     0.053 C 
BRANCH   5   6
ATOM      6  C   UNL     1     -18.901   9.546  -7.081  1.00  0.00     0.041 C 
ATOM      7  O   UNL     1     -18.239   8.480  -7.185  1.00  0.00    -0.550 OA
ATOM      8  O   UNL     1     -20.279   9.487  -6.917  1.00  0.00    -0.550 OA
ENDBRANCH   5   6
ENDBRANCH   4   5
ENDBRANCH   3   4
ENDBRANCH   2   3
ENDBRANCH   1   2
BRANCH   1   9
ATOM      9  C   UNL     1     -18.484  16.034  -4.190  1.00  0.00     0.000 C 
BRANCH   9  10
ATOM     10  C   UNL     1     -19.790  16.844  -4.279  1.00  0.00    -0.000 C 
BRANCH  10  11
ATOM     11  C   UNL     1     -19.703  17.995  -5.293  1.00  0.00    -0.000 C 
BRANCH  11  12
ATOM     12  C   UNL     1     -20.547  17.740  -6.556  1.00  0.00    -0.000 C 
BRANCH  12  13
ATOM     13  C   UNL     1     -21.508  16.553  -6.390  1.00  0.00    -0.003 C 
ATOM     14  C   UNL     1     -21.441  15.571  -7.558  1.00  0.00     0.004 C 
ENDBRANCH  12  13
ENDBRANCH  11  12
ENDBRANCH  10  11
ENDBRANCH   9  10
ENDBRANCH   1   9
TORSDOF 10
ENDMDL
MODEL 2
REMARK VINA RESULT:    -3.406      3.439      6.548
REMARK INTER + INTRA:          -6.195
REMARK INTER:                  -5.243
REMARK INTRA:                  -0.953
REMARK UNBOUND:                -0.798
REMARK SMILES CCCCCCCCCCCC(=O)[O-]
REMARK SMILES IDX 7 1 8 2 9 3 10 4 11 5 12 6 13 7 14 8 6 9 5 10 4 11 3 12 2 13
REMARK SMILES IDX 1 14
REMARK H PARENT
REMARK Flexibility Score: inf
ROOT
ATOM      1  C   UNL     1     -20.074  13.249  -5.052  1.00  0.00     0.000 C 
ENDROOT
BRANCH   1   2
ATOM      2  C   UNL     1     -21.153  13.235  -6.150  1.00  0.00     0.000 C 
BRANCH   2   3
ATOM      3  C   UNL     1     -21.155  14.521  -6.991  1.00  0.00     0.000 C 
BRANCH   3   4
ATOM      4  C   UNL     1     -21.477  15.773  -6.161  1.00  0.00     0.006 C 
BRANCH   4   5
ATOM      5  C   UNL     1     -20.754  17.002  -6.722  1.00  0.00     0.053 C 
BRANCH   5   6
ATOM      6  C   UNL     1     -19.811  17.564  -5.705  1.00  0.00     0.041 C 
ATOM      7  O   UNL     1     -19.680  18.811  -5.585  1.00  0.00    -0.550 OA
ATOM      8  O   UNL     1     -19.114  16.715  -4.857  1.00  0.00    -0.550 OA
ENDBRANCH   5   6
ENDBRANCH   4   5
ENDBRANCH   3   4
ENDBRANCH   2   3
ENDBRANCH   1   2
BRANCH   1   9
ATOM      9  C   UNL     1     -19.120  12.046  -5.146  1.00  0.00     0.000 C 
BRANCH   9  10
ATOM     10  C   UNL     1     -18.448  11.932  -6.526  1.00  0.00    -0.000 C 
BRANCH  10  11
ATOM     11  C   UNL     1     -18.378  10.482  -7.029  1.00  0.00    -0.000 C 
BRANCH  11  12
ATOM     12  C   UNL     1     -19.069   9.489  -6.077  1.00  0.00    -0.000 C 
BRANCH  12  13
ATOM     13  C   UNL     1     -20.209   8.717  -6.759  1.00  0.00    -0.003 C 
ATOM     14  C   UNL     1     -21.358   9.625  -7.197  1.00  0.00     0.004 C 
ENDBRANCH  12  13
ENDBRANCH  11  12
ENDBRANCH  10  11
ENDBRANCH   9  10
ENDBRANCH   1   9
TORSDOF 10
ENDMDL
MODEL 3
REMARK VINA RESULT:    -3.373      4.088      6.816
REMARK INTER + INTRA:          -6.143
REMARK INTER:                  -5.447
REMARK INTRA:                  -0.697
REMARK UNBOUND:                -0.798
REMARK SMILES CCCCCCCCCCCC(=O)[O-]
REMARK SMILES IDX 7 1 8 2 9 3 10 4 11 5 12 6 13 7 14 8 6 9 5 10 4 11 3 12 2 13
REMARK SMILES IDX 1 14
REMARK H PARENT
REMARK Flexibility Score: inf
ROOT
ATOM      1  C   UNL     1     -18.683  14.203  -4.607  1.00  0.00     0.000 C 
ENDROOT
BRANCH   1   2
ATOM      2  C   UNL     1     -19.196  15.561  -4.097  1.00  0.00     0.000 C 
BRANCH   2   3
ATOM      3  C   UNL     1     -20.712  15.729  -4.284  1.00  0.00     0.000 C 
BRANCH   3   4
ATOM      4  C   UNL     1     -21.089  16.179  -5.704  1.00  0.00     0.006 C 
BRANCH   4   5
ATOM      5  C   UNL     1     -20.135  17.268  -6.204  1.00  0.00     0.053 C 
BRANCH   5   6
ATOM      6  C   UNL     1     -20.601  18.618  -5.758  1.00  0.00     0.041 C 
ATOM      7  O   UNL     1     -21.481  19.233  -6.417  1.00  0.00    -0.550 OA
ATOM      8  O   UNL     1     -20.102  19.177  -4.590  1.00  0.00    -0.550 OA
ENDBRANCH   5   6
ENDBRANCH   4   5
ENDBRANCH   3   4
ENDBRANCH   2   3
ENDBRANCH   1   2
BRANCH   1   9
ATOM      9  C   UNL     1     -19.478  13.018  -4.032  1.00  0.00     0.000 C 
BRANCH   9  10
ATOM     10  C   UNL     1     -19.265  11.721  -4.833  1.00  0.00    -0.000 C 
BRANCH  10  11
ATOM     11  C   UNL     1     -18.844  11.988  -6.286  1.00  0.00    -0.000 C 
BRANCH  11  12
ATOM     12  C   UNL     1     -18.315  10.726  -6.993  1.00  0.00    -0.000 C 
BRANCH  12  13
ATOM     13  C   UNL     1     -18.855   9.431  -6.366  1.00  0.00    -0.003 C 
ATOM     14  C   UNL     1     -18.482   8.186  -7.167  1.00  0.00     0.004 C 
ENDBRANCH  12  13
ENDBRANCH  11  12
ENDBRANCH  10  11
ENDBRANCH   9  10
ENDBRANCH   1   9
TORSDOF 10
ENDMDL
MODEL 4
REMARK VINA RESULT:    -3.355     15.567     17.735
REMARK INTER + INTRA:          -6.114
REMARK INTER:                  -4.930
REMARK INTRA:                  -1.184
REMARK UNBOUND:                -0.798
REMARK SMILES CCCCCCCCCCCC(=O)[O-]
REMARK SMILES IDX 7 1 8 2 9 3 10 4 11 5 12 6 13 7 14 8 6 9 5 10 4 11 3 12 2 13
REMARK SMILES IDX 1 14
REMARK H PARENT
REMARK Flexibility Score: inf
ROOT
ATOM      1  C   UNL     1     -16.274  11.439 -21.985  1.00  0.00     0.000 C 
ENDROOT
BRANCH   1   2
ATOM      2  C   UNL     1     -17.498  11.574 -22.909  1.00  0.00     0.000 C 
BRANCH   2   3
ATOM      3  C   UNL     1     -17.962  10.222 -23.474  1.00  0.00     0.000 C 
BRANCH   3   4
ATOM      4  C   UNL     1     -19.089   9.587 -22.645  1.00  0.00     0.006 C 
BRANCH   4   5
ATOM      5  C   UNL     1     -20.446   9.772 -23.331  1.00  0.00     0.053 C 
BRANCH   5   6
ATOM      6  C   UNL     1     -21.066  11.071 -22.922  1.00  0.00     0.041 C 
ATOM      7  O   UNL     1     -21.381  11.271 -21.719  1.00  0.00    -0.550 OA
ATOM      8  O   UNL     1     -21.252  12.079 -23.858  1.00  0.00    -0.550 OA
ENDBRANCH   5   6
ENDBRANCH   4   5
ENDBRANCH   3   4
ENDBRANCH   2   3
ENDBRANCH   1   2
BRANCH   1   9
ATOM      9  C   UNL     1     -14.946  11.436 -22.760  1.00  0.00     0.000 C 
BRANCH   9  10
ATOM     10  C   UNL     1     -14.032  10.264 -22.360  1.00  0.00    -0.000 C 
BRANCH  10  11
ATOM     11  C   UNL     1     -14.620   8.899 -22.747  1.00  0.00    -0.000 C 
BRANCH  11  12
ATOM     12  C   UNL     1     -14.715   7.933 -21.551  1.00  0.00    -0.000 C 
BRANCH  12  13
ATOM     13  C   UNL     1     -16.074   8.010 -20.839  1.00  0.00    -0.003 C 
ATOM     14  C   UNL     1     -15.999   8.744 -19.501  1.00  0.00     0.004 C 
ENDBRANCH  12  13
ENDBRANCH  11  12
ENDBRANCH  10  11
ENDBRANCH   9  10
ENDBRANCH   1   9
TORSDOF 10
ENDMDL
MODEL 5
REMARK VINA RESULT:    -3.347      2.515      5.950
REMARK INTER + INTRA:          -6.101
REMARK INTER:                  -5.207
REMARK INTRA:                  -0.894
REMARK UNBOUND:                -0.798
REMARK SMILES CCCCCCCCCCCC(=O)[O-]
REMARK SMILES IDX 7 1 8 2 9 3 10 4 11 5 12 6 13 7 14 8 6 9 5 10 4 11 3 12 2 13
REMARK SMILES IDX 1 14
REMARK H PARENT
REMARK Flexibility Score: inf
ROOT
ATOM      1  C   UNL     1     -19.685  13.082  -4.168  1.00  0.00     0.000 C 
ENDROOT
BRANCH   1   2
ATOM      2  C   UNL     1     -18.806  14.316  -4.438  1.00  0.00     0.000 C 
BRANCH   2   3
ATOM      3  C   UNL     1     -19.538  15.636  -4.155  1.00  0.00     0.000 C 
BRANCH   3   4
ATOM      4  C   UNL     1     -20.955  15.668  -4.747  1.00  0.00     0.006 C 
BRANCH   4   5
ATOM      5  C   UNL     1     -20.995  16.511  -6.026  1.00  0.00     0.053 C 
BRANCH   5   6
ATOM      6  C   UNL     1     -21.294  15.650  -7.213  1.00  0.00     0.041 C 
ATOM      7  O   UNL     1     -21.408  16.165  -8.356  1.00  0.00    -0.550 OA
ATOM      8  O   UNL     1     -21.396  14.273  -7.065  1.00  0.00    -0.550 OA
ENDBRANCH   5   6
ENDBRANCH   4   5
ENDBRANCH   3   4
ENDBRANCH   2   3
ENDBRANCH   1   2
BRANCH   1   9
ATOM      9  C   UNL     1     -19.133  11.807  -4.827  1.00  0.00     0.000 C 
BRANCH   9  10
ATOM     10  C   UNL     1     -18.766  12.019  -6.306  1.00  0.00    -0.000 C 
BRANCH  10  11
ATOM     11  C   UNL     1     -18.363  10.712  -7.007  1.00  0.00    -0.000 C 
BRANCH  11  12
ATOM     12  C   UNL     1     -18.839   9.460  -6.247  1.00  0.00    -0.000 C 
BRANCH  12  13
ATOM     13  C   UNL     1     -20.009   8.755  -6.951  1.00  0.00    -0.003 C 
ATOM     14  C   UNL     1     -21.372   9.280  -6.502  1.00  0.00     0.004 C 
ENDBRANCH  12  13
ENDBRANCH  11  12
ENDBRANCH  10  11
ENDBRANCH   9  10
ENDBRANCH   1   9
TORSDOF 10
ENDMDL
MODEL 6
REMARK VINA RESULT:    -3.332      3.499      6.513
REMARK INTER + INTRA:          -6.078
REMARK INTER:                  -5.223
REMARK INTRA:                  -0.855
REMARK UNBOUND:                -0.798
REMARK SMILES CCCCCCCCCCCC(=O)[O-]
REMARK SMILES IDX 7 1 8 2 9 3 10 4 11 5 12 6 13 7 14 8 6 9 5 10 4 11 3 12 2 13
REMARK SMILES IDX 1 14
REMARK H PARENT
REMARK Flexibility Score: inf
ROOT
ATOM      1  C   UNL     1     -21.286  13.493  -6.639  1.00  0.00     0.000 C 
ENDROOT
BRANCH   1   2
ATOM      2  C   UNL     1     -22.118  14.776  -6.814  1.00  0.00     0.000 C 
BRANCH   2   3
ATOM      3  C   UNL     1     -21.620  15.650  -7.975  1.00  0.00     0.000 C 
BRANCH   3   4
ATOM      4  C   UNL     1     -21.357  17.104  -7.554  1.00  0.00     0.006 C 
BRANCH   4   5
ATOM      5  C   UNL     1     -21.357  17.241  -6.029  1.00  0.00     0.053 C 
BRANCH   5   6
ATOM      6  C   UNL     1     -20.033  17.743  -5.547  1.00  0.00     0.041 C 
ATOM      7  O   UNL     1     -19.253  16.975  -4.925  1.00  0.00    -0.550 OA
ATOM      8  O   UNL     1     -19.637  19.044  -5.829  1.00  0.00    -0.550 OA
ENDBRANCH   5   6
ENDBRANCH   4   5
ENDBRANCH   3   4
ENDBRANCH   2   3
ENDBRANCH   1   2
BRANCH   1   9
ATOM      9  C   UNL     1     -20.237  13.616  -5.522  1.00  0.00     0.000 C 
BRANCH   9  10
ATOM     10  C   UNL     1     -20.243  12.407  -4.569  1.00  0.00    -0.000 C 
BRANCH  10  11
ATOM     11  C   UNL     1     -19.025  11.493  -4.770  1.00  0.00    -0.000 C 
BRANCH  11  12
ATOM     12  C   UNL     1     -19.397  10.136  -5.396  1.00  0.00    -0.000 C 
BRANCH  12  13
ATOM     13  C   UNL     1     -18.689   9.894  -6.737  1.00  0.00    -0.003 C 
ATOM     14  C   UNL     1     -18.045  11.159  -7.302  1.00  0.00     0.004 C 
ENDBRANCH  12  13
ENDBRANCH  11  12
ENDBRANCH  10  11
ENDBRANCH   9  10
ENDBRANCH   1   9
TORSDOF 10
ENDMDL
MODEL 7
REMARK VINA RESULT:    -3.331     22.571     23.962
REMARK INTER + INTRA:          -6.076
REMARK INTER:                  -4.694
REMARK INTRA:                  -1.382
REMARK UNBOUND:                -0.798
REMARK SMILES CCCCCCCCCCCC(=O)[O-]
REMARK SMILES IDX 7 1 8 2 9 3 10 4 11 5 12 6 13 7 14 8 6 9 5 10 4 11 3 12 2 13
REMARK SMILES IDX 1 14
REMARK H PARENT
REMARK Flexibility Score: inf
ROOT
ATOM      1  C   UNL     1      -6.694  24.626 -20.693  1.00  0.00     0.000 C 
ENDROOT
BRANCH   1   2
ATOM      2  C   UNL     1      -8.193  24.347 -20.906  1.00  0.00     0.000 C 
BRANCH   2   3
ATOM      3  C   UNL     1      -8.960  25.586 -21.394  1.00  0.00     0.000 C 
BRANCH   3   4
ATOM      4  C   UNL     1      -9.601  25.381 -22.776  1.00  0.00     0.006 C 
BRANCH   4   5
ATOM      5  C   UNL     1     -10.204  26.689 -23.298  1.00  0.00     0.053 C 
BRANCH   5   6
ATOM      6  C   UNL     1     -11.523  26.956 -22.645  1.00  0.00     0.041 C 
ATOM      7  O   UNL     1     -12.557  26.353 -23.038  1.00  0.00    -0.550 OA
ATOM      8  O   UNL     1     -11.604  27.832 -21.571  1.00  0.00    -0.550 OA
ENDBRANCH   5   6
ENDBRANCH   4   5
ENDBRANCH   3   4
ENDBRANCH   2   3
ENDBRANCH   1   2
BRANCH   1   9
ATOM      9  C   UNL     1      -5.801  23.812 -21.644  1.00  0.00     0.000 C 
BRANCH   9  10
ATOM     10  C   UNL     1      -6.412  23.668 -23.050  1.00  0.00    -0.000 C 
BRANCH  10  11
ATOM     11  C   UNL     1      -5.600  24.408 -24.124  1.00  0.00    -0.000 C 
BRANCH  11  12
ATOM     12  C   UNL     1      -5.116  25.792 -23.654  1.00  0.00    -0.000 C 
BRANCH  12  13
ATOM     13  C   UNL     1      -6.203  26.870 -23.786  1.00  0.00    -0.003 C 
ATOM     14  C   UNL     1      -6.209  27.850 -22.613  1.00  0.00     0.004 C 
ENDBRANCH  12  13
ENDBRANCH  11  12
ENDBRANCH  10  11
ENDBRANCH   9  10
ENDBRANCH   1   9
TORSDOF 10
ENDMDL
MODEL 8
REMARK VINA RESULT:    -3.204      1.034      2.718
REMARK INTER + INTRA:          -5.874
REMARK INTER:                  -4.915
REMARK INTRA:                  -0.959
REMARK UNBOUND:                -0.798
REMARK SMILES CCCCCCCCCCCC(=O)[O-]
REMARK SMILES IDX 7 1 8 2 9 3 10 4 11 5 12 6 13 7 14 8 6 9 5 10 4 11 3 12 2 13
REMARK SMILES IDX 1 14
REMARK H PARENT
REMARK Flexibility Score: inf
ROOT
ATOM      1  C   UNL     1     -20.953  14.159  -6.948  1.00  0.00     0.000 C 
ENDROOT
BRANCH   1   2
ATOM      2  C   UNL     1     -20.930  13.743  -5.466  1.00  0.00     0.000 C 
BRANCH   2   3
ATOM      3  C   UNL     1     -19.507  13.475  -4.950  1.00  0.00     0.000 C 
BRANCH   3   4
ATOM      4  C   UNL     1     -19.137  11.984  -4.976  1.00  0.00     0.006 C 
BRANCH   4   5
ATOM      5  C   UNL     1     -18.591  11.579  -6.348  1.00  0.00     0.053 C 
BRANCH   5   6
ATOM      6  C   UNL     1     -19.289  10.353  -6.848  1.00  0.00     0.041 C 
ATOM      7  O   UNL     1     -20.478  10.424  -7.257  1.00  0.00    -0.550 OA
ATOM      8  O   UNL     1     -18.611   9.143  -6.910  1.00  0.00    -0.550 OA
ENDBRANCH   5   6
ENDBRANCH   4   5
ENDBRANCH   3   4
ENDBRANCH   2   3
ENDBRANCH   1   2
BRANCH   1   9
ATOM      9  C   UNL     1     -21.976  15.270  -7.234  1.00  0.00     0.000 C 
BRANCH   9  10
ATOM     10  C   UNL     1     -21.351  16.476  -7.958  1.00  0.00    -0.000 C 
BRANCH  10  11
ATOM     11  C   UNL     1     -21.916  17.817  -7.466  1.00  0.00    -0.000 C 
BRANCH  11  12
ATOM     12  C   UNL     1     -21.471  18.158  -6.032  1.00  0.00    -0.000 C 
BRANCH  12  13
ATOM     13  C   UNL     1     -19.949  18.054  -5.848  1.00  0.00    -0.003 C 
ATOM     14  C   UNL     1     -19.556  17.156  -4.676  1.00  0.00     0.004 C 
ENDBRANCH  12  13
ENDBRANCH  11  12
ENDBRANCH  10  11
ENDBRANCH   9  10
ENDBRANCH   1   9
TORSDOF 10
ENDMDL
MODEL 9
REMARK VINA RESULT:    -3.183     22.032     23.316
REMARK INTER + INTRA:          -5.841
REMARK INTER:                  -4.342
REMARK INTRA:                  -1.499
REMARK UNBOUND:                -0.798
REMARK SMILES CCCCCCCCCCCC(=O)[O-]
REMARK SMILES IDX 7 1 8 2 9 3 10 4 11 5 12 6 13 7 14 8 6 9 5 10 4 11 3 12 2 13
REMARK SMILES IDX 1 14
REMARK H PARENT
REMARK Flexibility Score: inf
ROOT
ATOM      1  C   UNL     1      -8.950  24.850 -19.659  1.00  0.00     0.000 C 
ENDROOT
BRANCH   1   2
ATOM      2  C   UNL     1      -7.973  24.560 -20.812  1.00  0.00     0.000 C 
BRANCH   2   3
ATOM      3  C   UNL     1      -8.690  24.099 -22.091  1.00  0.00     0.000 C 
BRANCH   3   4
ATOM      4  C   UNL     1      -7.785  24.155 -23.332  1.00  0.00     0.006 C 
BRANCH   4   5
ATOM      5  C   UNL     1      -6.953  25.441 -23.345  1.00  0.00     0.053 C 
BRANCH   5   6
ATOM      6  C   UNL     1      -5.493  25.119 -23.403  1.00  0.00     0.041 C 
ATOM      7  O   UNL     1      -4.722  25.806 -24.125  1.00  0.00    -0.550 OA
ATOM      8  O   UNL     1      -4.973  24.095 -22.623  1.00  0.00    -0.550 OA
ENDBRANCH   5   6
ENDBRANCH   4   5
ENDBRANCH   3   4
ENDBRANCH   2   3
ENDBRANCH   1   2
BRANCH   1   9
ATOM      9  C   UNL     1      -9.364  26.329 -19.593  1.00  0.00     0.000 C 
BRANCH   9  10
ATOM     10  C   UNL     1      -8.497  27.226 -20.496  1.00  0.00    -0.000 C 
BRANCH  10  11
ATOM     11  C   UNL     1      -9.295  27.838 -21.658  1.00  0.00    -0.000 C 
BRANCH  11  12
ATOM     12  C   UNL     1     -10.780  27.431 -21.639  1.00  0.00    -0.000 C 
BRANCH  12  13
ATOM     13  C   UNL     1     -11.200  26.685 -22.914  1.00  0.00    -0.003 C 
ATOM     14  C   UNL     1     -10.256  26.942 -24.088  1.00  0.00     0.004 C 
ENDBRANCH  12  13
ENDBRANCH  11  12
ENDBRANCH  10  11
ENDBRANCH   9  10
ENDBRANCH   1   9
TORSDOF 10
ENDMDL
