MODEL 1
REMARK VINA RESULT:    -3.116      0.000      0.000
REMARK INTER + INTRA:          -3.207
REMARK INTER:                  -3.207
REMARK INTRA:                   0.000
REMARK UNBOUND:                 0.000
REMARK SMILES Oc1ccc2[nH]ccc2c1
REMARK SMILES IDX 3 1 4 2 5 3 9 4 8 5 7 6 6 7 10 8 2 9 1 11
REMARK H PARENT 6 10 1 12
REMARK Flexibility Score: inf
ROOT
ATOM      1  C   UNL     1     156.092 153.501 141.421  1.00  0.00     0.048 A 
ATOM      2  C   UNL     1     157.428 153.896 141.619  1.00  0.00     0.030 A 
ATOM      3  C   UNL     1     158.150 153.266 142.630  1.00  0.00     0.046 A 
ATOM      4  C   UNL     1     157.592 152.291 143.413  1.00  0.00     0.003 A 
ATOM      5  C   UNL     1     158.557 151.878 144.305  1.00  0.00     0.028 A 
ATOM      6  C   UNL     1     159.680 152.644 144.008  1.00  0.00     0.083 A 
ATOM      7  N   UNL     1     159.426 153.491 142.984  1.00  0.00    -0.361 N 
ATOM      8  C   UNL     1     156.275 151.875 143.243  1.00  0.00     0.056 A 
ATOM      9  C   UNL     1     155.514 152.493 142.227  1.00  0.00     0.116 A 
ATOM     10  H   UNL     1     160.089 154.176 142.559  1.00  0.00     0.166 HD
ENDROOT
BRANCH   9  11
ATOM     11  O   UNL     1     154.190 152.119 142.010  1.00  0.00    -0.508 OA
ATOM     12  H   UNL     1     153.838 151.219 142.317  1.00  0.00     0.293 HD
ENDBRANCH   9  11
TORSDOF 1
ENDMDL
MODEL 2
REMARK VINA RESULT:    -3.091     20.150     21.051
REMARK INTER + INTRA:          -3.182
REMARK INTER:                  -3.182
REMARK INTRA:                   0.000
REMARK UNBOUND:                 0.000
REMARK SMILES Oc1ccc2[nH]ccc2c1
REMARK SMILES IDX 3 1 4 2 5 3 9 4 8 5 7 6 6 7 10 8 2 9 1 11
REMARK H PARENT 6 10 1 12
REMARK Flexibility Score: inf
ROOT
ATOM      1  C   UNL     1     167.901 170.452 141.404  1.00  0.00     0.048 A 
ATOM      2  C   UNL     1     166.568 170.048 141.603  1.00  0.00     0.030 A 
ATOM      3  C   UNL     1     165.831 170.697 142.592  1.00  0.00     0.046 A 
ATOM      4  C   UNL     1     166.374 171.698 143.353  1.00  0.00     0.003 A 
ATOM      5  C   UNL     1     165.397 172.124 144.227  1.00  0.00     0.028 A 
ATOM      6  C   UNL     1     164.285 171.339 143.941  1.00  0.00     0.083 A 
ATOM      7  N   UNL     1     164.555 170.468 142.942  1.00  0.00    -0.361 N 
ATOM      8  C   UNL     1     167.688 172.123 143.182  1.00  0.00     0.056 A 
ATOM      9  C   UNL     1     168.463 171.486 142.188  1.00  0.00     0.116 A 
ATOM     10  H   UNL     1     163.903 169.765 142.530  1.00  0.00     0.166 HD
ENDROOT
BRANCH   9  11
ATOM     11  O   UNL     1     169.784 171.869 141.972  1.00  0.00    -0.508 OA
ATOM     12  H   UNL     1     170.239 171.717 141.078  1.00  0.00     0.293 HD
ENDBRANCH   9  11
TORSDOF 1
ENDMDL
MODEL 3
REMARK VINA RESULT:    -3.086     21.142     21.966
REMARK INTER + INTRA:          -3.176
REMARK INTER:                  -3.176
REMARK INTRA:                   0.000
REMARK UNBOUND:                 0.000
REMARK SMILES Oc1ccc2[nH]ccc2c1
REMARK SMILES IDX 3 1 4 2 5 3 9 4 8 5 7 6 6 7 10 8 2 9 1 11
REMARK H PARENT 6 10 1 12
REMARK Flexibility Score: inf
ROOT
ATOM      1  C   UNL     1     167.921 171.588 146.688  1.00  0.00     0.048 A 
ATOM      2  C   UNL     1     166.551 171.504 146.380  1.00  0.00     0.030 A 
ATOM      3  C   UNL     1     166.167 171.706 145.056  1.00  0.00     0.046 A 
ATOM      4  C   UNL     1     167.083 171.977 144.075  1.00  0.00     0.003 A 
ATOM      5  C   UNL     1     166.389 172.122 142.893  1.00  0.00     0.028 A 
ATOM      6  C   UNL     1     165.054 171.924 143.230  1.00  0.00     0.083 A 
ATOM      7  N   UNL     1     164.923 171.670 144.552  1.00  0.00    -0.361 N 
ATOM      8  C   UNL     1     168.446 172.067 144.345  1.00  0.00     0.056 A 
ATOM      9  C   UNL     1     168.869 171.868 145.676  1.00  0.00     0.116 A 
ATOM     10  H   UNL     1     164.036 171.485 145.070  1.00  0.00     0.166 HD
ENDROOT
BRANCH   9  11
ATOM     11  O   UNL     1     170.220 171.945 146.007  1.00  0.00    -0.508 OA
ATOM     12  H   UNL     1     170.749 172.798 145.870  1.00  0.00     0.293 HD
ENDBRANCH   9  11
TORSDOF 1
ENDMDL
MODEL 4
REMARK VINA RESULT:    -3.081      2.272      3.162
REMARK INTER + INTRA:          -3.171
REMARK INTER:                  -3.171
REMARK INTRA:                   0.000
REMARK UNBOUND:                 0.000
REMARK SMILES Oc1ccc2[nH]ccc2c1
REMARK SMILES IDX 3 1 4 2 5 3 9 4 8 5 7 6 6 7 10 8 2 9 1 11
REMARK H PARENT 6 10 1 12
REMARK Flexibility Score: inf
ROOT
ATOM      1  C   UNL     1     156.041 152.416 146.694  1.00  0.00     0.048 A 
ATOM      2  C   UNL     1     157.412 152.522 146.396  1.00  0.00     0.030 A 
ATOM      3  C   UNL     1     157.809 152.315 145.077  1.00  0.00     0.046 A 
ATOM      4  C   UNL     1     156.905 152.018 144.091  1.00  0.00     0.003 A 
ATOM      5  C   UNL     1     157.611 151.875 142.916  1.00  0.00     0.028 A 
ATOM      6  C   UNL     1     158.940 152.100 143.260  1.00  0.00     0.083 A 
ATOM      7  N   UNL     1     159.056 152.368 144.581  1.00  0.00    -0.361 N 
ATOM      8  C   UNL     1     155.542 151.907 144.352  1.00  0.00     0.056 A 
ATOM      9  C   UNL     1     155.106 152.111 145.678  1.00  0.00     0.116 A 
ATOM     10  H   UNL     1     159.936 152.573 145.103  1.00  0.00     0.166 HD
ENDROOT
BRANCH   9  11
ATOM     11  O   UNL     1     153.754 152.012 146.000  1.00  0.00    -0.508 OA
ATOM     12  H   UNL     1     153.364 151.161 146.388  1.00  0.00     0.293 HD
ENDBRANCH   9  11
TORSDOF 1
ENDMDL
MODEL 5
REMARK VINA RESULT:    -3.032     21.160     21.707
REMARK INTER + INTRA:          -3.121
REMARK INTER:                  -3.121
REMARK INTRA:                   0.000
REMARK UNBOUND:                 0.000
REMARK SMILES Oc1ccc2[nH]ccc2c1
REMARK SMILES IDX 3 1 4 2 5 3 9 4 8 5 7 6 6 7 10 8 2 9 1 11
REMARK H PARENT 6 10 1 12
REMARK Flexibility Score: inf
ROOT
ATOM      1  C   UNL     1     167.036 172.102 142.566  1.00  0.00     0.048 A 
ATOM      2  C   UNL     1     168.331 172.091 143.117  1.00  0.00     0.030 A 
ATOM      3  C   UNL     1     168.452 171.891 144.491  1.00  0.00     0.046 A 
ATOM      4  C   UNL     1     167.355 171.710 145.291  1.00  0.00     0.003 A 
ATOM      5  C   UNL     1     167.811 171.542 146.581  1.00  0.00     0.028 A 
ATOM      6  C   UNL     1     169.196 171.631 146.491  1.00  0.00     0.083 A 
ATOM      7  N   UNL     1     169.584 171.846 145.213  1.00  0.00    -0.361 N 
ATOM      8  C   UNL     1     166.061 171.714 144.778  1.00  0.00     0.056 A 
ATOM      9  C   UNL     1     165.903 171.914 143.390  1.00  0.00     0.116 A 
ATOM     10  H   UNL     1     170.561 171.952 144.864  1.00  0.00     0.166 HD
ENDROOT
BRANCH   9  11
ATOM     11  O   UNL     1     164.632 171.929 142.820  1.00  0.00    -0.508 OA
ATOM     12  H   UNL     1     164.434 171.434 141.958  1.00  0.00     0.293 HD
ENDBRANCH   9  11
TORSDOF 1
ENDMDL
MODEL 6
REMARK VINA RESULT:    -2.994      1.651      2.014
REMARK INTER + INTRA:          -3.082
REMARK INTER:                  -3.082
REMARK INTRA:                   0.000
REMARK UNBOUND:                 0.000
REMARK SMILES Oc1ccc2[nH]ccc2c1
REMARK SMILES IDX 3 1 4 2 5 3 9 4 8 5 7 6 6 7 10 8 2 9 1 11
REMARK H PARENT 6 10 1 12
REMARK Flexibility Score: inf
ROOT
ATOM      1  C   UNL     1     155.610 151.916 143.261  1.00  0.00     0.048 A 
ATOM      2  C   UNL     1     156.841 151.917 142.580  1.00  0.00     0.030 A 
ATOM      3  C   UNL     1     158.001 152.097 143.331  1.00  0.00     0.046 A 
ATOM      4  C   UNL     1     157.959 152.268 144.689  1.00  0.00     0.003 A 
ATOM      5  C   UNL     1     159.258 152.417 145.125  1.00  0.00     0.028 A 
ATOM      6  C   UNL     1     160.039 152.326 143.978  1.00  0.00     0.083 A 
ATOM      7  N   UNL     1     159.267 152.131 142.884  1.00  0.00    -0.361 N 
ATOM      8  C   UNL     1     156.758 152.270 145.394  1.00  0.00     0.056 A 
ATOM      9  C   UNL     1     155.564 152.091 144.663  1.00  0.00     0.116 A 
ATOM     10  H   UNL     1     159.592 152.028 141.898  1.00  0.00     0.166 HD
ENDROOT
BRANCH   9  11
ATOM     11  O   UNL     1     154.333 152.086 145.314  1.00  0.00    -0.508 OA
ATOM     12  H   UNL     1     154.136 151.438 146.069  1.00  0.00     0.293 HD
ENDBRANCH   9  11
TORSDOF 1
ENDMDL
MODEL 7
REMARK VINA RESULT:    -2.960     20.616     21.477
REMARK INTER + INTRA:          -3.046
REMARK INTER:                  -3.046
REMARK INTRA:                   0.000
REMARK UNBOUND:                 0.000
REMARK SMILES Oc1ccc2[nH]ccc2c1
REMARK SMILES IDX 3 1 4 2 5 3 9 4 8 5 7 6 6 7 10 8 2 9 1 11
REMARK H PARENT 6 10 1 12
REMARK Flexibility Score: inf
ROOT
ATOM      1  C   UNL     1     168.243 172.125 143.208  1.00  0.00     0.048 A 
ATOM      2  C   UNL     1     166.996 172.034 142.562  1.00  0.00     0.030 A 
ATOM      3  C   UNL     1     165.877 171.756 143.343  1.00  0.00     0.046 A 
ATOM      4  C   UNL     1     165.972 171.575 144.698  1.00  0.00     0.003 A 
ATOM      5  C   UNL     1     164.702 171.319 145.168  1.00  0.00     0.028 A 
ATOM      6  C   UNL     1     163.883 171.361 144.045  1.00  0.00     0.083 A 
ATOM      7  N   UNL     1     164.604 171.627 142.932  1.00  0.00    -0.361 N 
ATOM      8  C   UNL     1     167.189 171.659 145.368  1.00  0.00     0.056 A 
ATOM      9  C   UNL     1     168.343 171.939 144.606  1.00  0.00     0.116 A 
ATOM     10  H   UNL     1     164.243 171.715 141.957  1.00  0.00     0.166 HD
ENDROOT
BRANCH   9  11
ATOM     11  O   UNL     1     169.589 172.035 145.221  1.00  0.00    -0.508 OA
ATOM     12  H   UNL     1     170.420 171.641 144.796  1.00  0.00     0.293 HD
ENDBRANCH   9  11
TORSDOF 1
ENDMDL
MODEL 8
REMARK VINA RESULT:    -2.890     20.207     21.028
REMARK INTER + INTRA:          -2.975
REMARK INTER:                  -2.975
REMARK INTRA:                   0.000
REMARK UNBOUND:                 0.000
REMARK SMILES Oc1ccc2[nH]ccc2c1
REMARK SMILES IDX 3 1 4 2 5 3 9 4 8 5 7 6 6 7 10 8 2 9 1 11
REMARK H PARENT 6 10 1 12
REMARK Flexibility Score: inf
ROOT
ATOM      1  C   UNL     1     166.802 172.123 143.399  1.00  0.00     0.048 A 
ATOM      2  C   UNL     1     168.188 172.125 143.154  1.00  0.00     0.030 A 
ATOM      3  C   UNL     1     168.691 171.192 142.250  1.00  0.00     0.046 A 
ATOM      4  C   UNL     1     167.876 170.296 141.612  1.00  0.00     0.003 A 
ATOM      5  C   UNL     1     168.673 169.524 140.795  1.00  0.00     0.028 A 
ATOM      6  C   UNL     1     169.964 170.005 140.987  1.00  0.00     0.083 A 
ATOM      7  N   UNL     1     169.971 171.024 141.877  1.00  0.00    -0.361 N 
ATOM      8  C   UNL     1     166.501 170.268 141.829  1.00  0.00     0.056 A 
ATOM      9  C   UNL     1     165.958 171.199 142.740  1.00  0.00     0.116 A 
ATOM     10  H   UNL     1     170.801 171.566 142.203  1.00  0.00     0.166 HD
ENDROOT
BRANCH   9  11
ATOM     11  O   UNL     1     164.590 171.218 142.998  1.00  0.00    -0.508 OA
ATOM     12  H   UNL     1     164.117 170.418 143.404  1.00  0.00     0.293 HD
ENDBRANCH   9  11
TORSDOF 1
ENDMDL
