MODEL 1
REMARK VINA RESULT:    -2.562      0.000      0.000
REMARK INTER + INTRA:          -6.664
REMARK INTER:                  -4.434
REMARK INTRA:                  -2.230
REMARK UNBOUND:                -2.230
REMARK SMILES CCCCCCCCCCCCCCO
REMARK SMILES IDX 8 1 7 2 6 3 5 4 4 5 3 6 2 7 1 8 9 9 10 10 11 11 12 12 13 13
REMARK SMILES IDX 14 14 15 15
REMARK H PARENT 15 16
REMARK Flexibility Score: inf
ROOT
ATOM      1  C   UNL     1     135.864 138.280 143.521  1.00  0.00     0.000 C 
ENDROOT
BRANCH   1   2
ATOM      2  C   UNL     1     136.107 136.763 143.577  1.00  0.00    -0.000 C 
BRANCH   2   3
ATOM      3  C   UNL     1     136.832 136.325 144.858  1.00  0.00    -0.000 C 
BRANCH   3   4
ATOM      4  C   UNL     1     135.832 136.044 145.986  1.00  0.00    -0.000 C 
BRANCH   4   5
ATOM      5  C   UNL     1     136.231 136.777 147.272  1.00  0.00    -0.000 C 
BRANCH   5   6
ATOM      6  C   UNL     1     137.229 137.903 146.977  1.00  0.00    -0.000 C 
BRANCH   6   7
ATOM      7  C   UNL     1     136.628 139.272 147.316  1.00  0.00    -0.003 C 
ATOM      8  C   UNL     1     137.086 140.336 146.323  1.00  0.00     0.004 C 
ENDBRANCH   6   7
ENDBRANCH   5   6
ENDBRANCH   4   5
ENDBRANCH   3   4
ENDBRANCH   2   3
ENDBRANCH   1   2
BRANCH   1   9
ATOM      9  C   UNL     1     134.368 138.638 143.501  1.00  0.00     0.000 C 
BRANCH   9  10
ATOM     10  C   UNL     1     133.838 139.067 144.881  1.00  0.00     0.000 C 
BRANCH  10  11
ATOM     11  C   UNL     1     132.796 138.118 145.506  1.00  0.00     0.000 C 
BRANCH  11  12
ATOM     12  C   UNL     1     132.154 137.114 144.527  1.00  0.00     0.002 C 
BRANCH  12  13
ATOM     13  C   UNL     1     132.396 135.632 144.869  1.00  0.00     0.028 C 
BRANCH  13  14
ATOM     14  C   UNL     1     132.811 134.799 143.654  1.00  0.00     0.156 C 
BRANCH  14  15
ATOM     15  O   UNL     1     132.861 135.622 142.521  1.00  0.00    -0.396 OA
ATOM     16  H   UNL     1     133.159 135.041 141.774  1.00  0.00     0.210 HD
ENDBRANCH  14  15
ENDBRANCH  13  14
ENDBRANCH  12  13
ENDBRANCH  11  12
ENDBRANCH  10  11
ENDBRANCH   9  10
ENDBRANCH   1   9
TORSDOF 13
ENDMDL
MODEL 2
REMARK VINA RESULT:    -2.493     12.271     14.423
REMARK INTER + INTRA:          -6.544
REMARK INTER:                  -4.496
REMARK INTRA:                  -2.048
REMARK UNBOUND:                -2.230
REMARK SMILES CCCCCCCCCCCCCCO
REMARK SMILES IDX 8 1 7 2 6 3 5 4 4 5 3 6 2 7 1 8 9 9 10 10 11 11 12 12 13 13
REMARK SMILES IDX 14 14 15 15
REMARK H PARENT 15 16
REMARK Flexibility Score: inf
ROOT
ATOM      1  C   UNL     1     149.294 144.101 147.419  1.00  0.00     0.000 C 
ENDROOT
BRANCH   1   2
ATOM      2  C   UNL     1     150.176 144.909 146.455  1.00  0.00    -0.000 C 
BRANCH   2   3
ATOM      3  C   UNL     1     149.546 145.062 145.061  1.00  0.00    -0.000 C 
BRANCH   3   4
ATOM      4  C   UNL     1     149.367 143.696 144.388  1.00  0.00    -0.000 C 
BRANCH   4   5
ATOM      5  C   UNL     1     147.970 143.567 143.767  1.00  0.00    -0.000 C 
BRANCH   5   6
ATOM      6  C   UNL     1     147.166 144.859 143.948  1.00  0.00    -0.000 C 
BRANCH   6   7
ATOM      7  C   UNL     1     145.661 144.571 143.972  1.00  0.00    -0.003 C 
ATOM      8  C   UNL     1     145.355 143.189 143.403  1.00  0.00     0.004 C 
ENDBRANCH   6   7
ENDBRANCH   5   6
ENDBRANCH   4   5
ENDBRANCH   3   4
ENDBRANCH   2   3
ENDBRANCH   1   2
BRANCH   1   9
ATOM      9  C   UNL     1     147.856 144.642 147.499  1.00  0.00     0.000 C 
BRANCH   9  10
ATOM     10  C   UNL     1     146.793 143.536 147.371  1.00  0.00     0.000 C 
BRANCH  10  11
ATOM     11  C   UNL     1     147.350 142.111 147.184  1.00  0.00     0.000 C 
BRANCH  11  12
ATOM     12  C   UNL     1     146.528 141.203 146.247  1.00  0.00     0.002 C 
BRANCH  12  13
ATOM     13  C   UNL     1     147.364 140.346 145.279  1.00  0.00     0.028 C 
BRANCH  13  14
ATOM     14  C   UNL     1     147.012 138.859 145.341  1.00  0.00     0.156 C 
BRANCH  14  15
ATOM     15  O   UNL     1     147.554 138.206 144.227  1.00  0.00    -0.396 OA
ATOM     16  H   UNL     1     148.100 138.883 143.750  1.00  0.00     0.210 HD
ENDBRANCH  14  15
ENDBRANCH  13  14
ENDBRANCH  12  13
ENDBRANCH  11  12
ENDBRANCH  10  11
ENDBRANCH   9  10
ENDBRANCH   1   9
TORSDOF 13
ENDMDL
MODEL 3
REMARK VINA RESULT:    -2.490      8.638     10.608
REMARK INTER + INTRA:          -6.539
REMARK INTER:                  -5.181
REMARK INTRA:                  -1.358
REMARK UNBOUND:                -2.230
REMARK SMILES CCCCCCCCCCCCCCO
REMARK SMILES IDX 8 1 7 2 6 3 5 4 4 5 3 6 2 7 1 8 9 9 10 10 11 11 12 12 13 13
REMARK SMILES IDX 14 14 15 15
REMARK H PARENT 15 16
REMARK Flexibility Score: inf
ROOT
ATOM      1  C   UNL     1     141.798 135.258 145.317  1.00  0.00     0.000 C 
ENDROOT
BRANCH   1   2
ATOM      2  C   UNL     1     142.447 136.518 144.723  1.00  0.00    -0.000 C 
BRANCH   2   3
ATOM      3  C   UNL     1     143.267 136.223 143.457  1.00  0.00    -0.000 C 
BRANCH   3   4
ATOM      4  C   UNL     1     144.770 136.233 143.762  1.00  0.00    -0.000 C 
BRANCH   4   5
ATOM      5  C   UNL     1     145.066 137.015 145.048  1.00  0.00    -0.000 C 
BRANCH   5   6
ATOM      6  C   UNL     1     146.417 137.733 144.956  1.00  0.00    -0.000 C 
BRANCH   6   7
ATOM      7  C   UNL     1     146.445 138.969 145.863  1.00  0.00    -0.003 C 
ATOM      8  C   UNL     1     147.352 140.053 145.289  1.00  0.00     0.004 C 
ENDBRANCH   6   7
ENDBRANCH   5   6
ENDBRANCH   4   5
ENDBRANCH   3   4
ENDBRANCH   2   3
ENDBRANCH   1   2
BRANCH   1   9
ATOM      9  C   UNL     1     142.546 134.738 146.557  1.00  0.00     0.000 C 
BRANCH   9  10
ATOM     10  C   UNL     1     143.389 133.483 146.265  1.00  0.00     0.000 C 
BRANCH  10  11
ATOM     11  C   UNL     1     143.162 132.852 144.876  1.00  0.00     0.000 C 
BRANCH  11  12
ATOM     12  C   UNL     1     144.371 132.089 144.298  1.00  0.00     0.002 C 
BRANCH  12  13
ATOM     13  C   UNL     1     145.737 132.510 144.870  1.00  0.00     0.028 C 
BRANCH  13  14
ATOM     14  C   UNL     1     146.664 133.117 143.815  1.00  0.00     0.156 C 
BRANCH  14  15
ATOM     15  O   UNL     1     146.186 132.800 142.537  1.00  0.00    -0.396 OA
ATOM     16  H   UNL     1     146.716 133.348 141.901  1.00  0.00     0.210 HD
ENDBRANCH  14  15
ENDBRANCH  13  14
ENDBRANCH  12  13
ENDBRANCH  11  12
ENDBRANCH  10  11
ENDBRANCH   9  10
ENDBRANCH   1   9
TORSDOF 13
ENDMDL
MODEL 4
REMARK VINA RESULT:    -2.467      6.580      9.157
REMARK INTER + INTRA:          -6.499
REMARK INTER:                  -4.784
REMARK INTRA:                  -1.715
REMARK UNBOUND:                -2.230
REMARK SMILES CCCCCCCCCCCCCCO
REMARK SMILES IDX 8 1 7 2 6 3 5 4 4 5 3 6 2 7 1 8 9 9 10 10 11 11 12 12 13 13
REMARK SMILES IDX 14 14 15 15
REMARK H PARENT 15 16
REMARK Flexibility Score: inf
ROOT
ATOM      1  C   UNL     1     143.311 133.977 147.186  1.00  0.00     0.000 C 
ENDROOT
BRANCH   1   2
ATOM      2  C   UNL     1     141.786 134.084 147.026  1.00  0.00    -0.000 C 
BRANCH   2   3
ATOM      3  C   UNL     1     141.298 135.538 146.945  1.00  0.00    -0.000 C 
BRANCH   3   4
ATOM      4  C   UNL     1     140.194 135.688 145.891  1.00  0.00    -0.000 C 
BRANCH   4   5
ATOM      5  C   UNL     1     139.895 134.346 145.211  1.00  0.00    -0.000 C 
BRANCH   5   6
ATOM      6  C   UNL     1     138.388 134.160 145.000  1.00  0.00    -0.000 C 
BRANCH   6   7
ATOM      7  C   UNL     1     137.585 135.044 145.961  1.00  0.00    -0.003 C 
ATOM      8  C   UNL     1     136.866 134.204 147.012  1.00  0.00     0.004 C 
ENDBRANCH   6   7
ENDBRANCH   5   6
ENDBRANCH   4   5
ENDBRANCH   3   4
ENDBRANCH   2   3
ENDBRANCH   1   2
BRANCH   1   9
ATOM      9  C   UNL     1     143.943 133.006 146.174  1.00  0.00     0.000 C 
BRANCH   9  10
ATOM     10  C   UNL     1     143.108 132.852 144.890  1.00  0.00     0.000 C 
BRANCH  10  11
ATOM     11  C   UNL     1     143.625 133.646 143.674  1.00  0.00     0.000 C 
BRANCH  11  12
ATOM     12  C   UNL     1     143.011 135.050 143.499  1.00  0.00     0.002 C 
BRANCH  12  13
ATOM     13  C   UNL     1     143.844 136.200 144.093  1.00  0.00     0.028 C 
BRANCH  13  14
ATOM     14  C   UNL     1     145.346 136.039 143.845  1.00  0.00     0.156 C 
BRANCH  14  15
ATOM     15  O   UNL     1     145.636 136.379 142.517  1.00  0.00    -0.396 OA
ATOM     16  H   UNL     1     144.802 136.221 142.004  1.00  0.00     0.210 HD
ENDBRANCH  14  15
ENDBRANCH  13  14
ENDBRANCH  12  13
ENDBRANCH  11  12
ENDBRANCH  10  11
ENDBRANCH   9  10
ENDBRANCH   1   9
TORSDOF 13
ENDMDL
MODEL 5
REMARK VINA RESULT:    -2.454      9.516     12.099
REMARK INTER + INTRA:          -6.476
REMARK INTER:                  -5.032
REMARK INTRA:                  -1.444
REMARK UNBOUND:                -2.230
REMARK SMILES CCCCCCCCCCCCCCO
REMARK SMILES IDX 8 1 7 2 6 3 5 4 4 5 3 6 2 7 1 8 9 9 10 10 11 11 12 12 13 13
REMARK SMILES IDX 14 14 15 15
REMARK H PARENT 15 16
REMARK Flexibility Score: inf
ROOT
ATOM      1  C   UNL     1     139.271 145.550 145.777  1.00  0.00     0.000 C 
ENDROOT
BRANCH   1   2
ATOM      2  C   UNL     1     139.113 144.922 144.383  1.00  0.00    -0.000 C 
BRANCH   2   3
ATOM      3  C   UNL     1     137.974 145.559 143.571  1.00  0.00    -0.000 C 
BRANCH   3   4
ATOM      4  C   UNL     1     137.436 146.813 144.272  1.00  0.00    -0.000 C 
BRANCH   4   5
ATOM      5  C   UNL     1     137.999 148.087 143.631  1.00  0.00    -0.000 C 
BRANCH   5   6
ATOM      6  C   UNL     1     138.188 149.192 144.677  1.00  0.00    -0.000 C 
BRANCH   6   7
ATOM      7  C   UNL     1     137.330 148.925 145.919  1.00  0.00    -0.003 C 
ATOM      8  C   UNL     1     138.187 148.878 147.180  1.00  0.00     0.004 C 
ENDBRANCH   6   7
ENDBRANCH   5   6
ENDBRANCH   4   5
ENDBRANCH   3   4
ENDBRANCH   2   3
ENDBRANCH   1   2
BRANCH   1   9
ATOM      9  C   UNL     1     140.733 145.903 146.103  1.00  0.00     0.000 C 
BRANCH   9  10
ATOM     10  C   UNL     1     141.190 147.219 145.449  1.00  0.00     0.000 C 
BRANCH  10  11
ATOM     11  C   UNL     1     142.656 147.238 144.971  1.00  0.00     0.000 C 
BRANCH  11  12
ATOM     12  C   UNL     1     143.431 145.921 145.182  1.00  0.00     0.002 C 
BRANCH  12  13
ATOM     13  C   UNL     1     144.961 146.044 145.054  1.00  0.00     0.028 C 
BRANCH  13  14
ATOM     14  C   UNL     1     145.540 145.165 143.944  1.00  0.00     0.156 C 
BRANCH  14  15
ATOM     15  O   UNL     1     145.075 145.618 142.703  1.00  0.00    -0.396 OA
ATOM     16  H   UNL     1     145.094 146.609 142.746  1.00  0.00     0.210 HD
ENDBRANCH  14  15
ENDBRANCH  13  14
ENDBRANCH  12  13
ENDBRANCH  11  12
ENDBRANCH  10  11
ENDBRANCH   9  10
ENDBRANCH   1   9
TORSDOF 13
ENDMDL
MODEL 6
REMARK VINA RESULT:    -2.451      7.842     10.473
REMARK INTER + INTRA:          -6.472
REMARK INTER:                  -4.422
REMARK INTRA:                  -2.050
REMARK UNBOUND:                -2.230
REMARK SMILES CCCCCCCCCCCCCCO
REMARK SMILES IDX 8 1 7 2 6 3 5 4 4 5 3 6 2 7 1 8 9 9 10 10 11 11 12 12 13 13
REMARK SMILES IDX 14 14 15 15
REMARK H PARENT 15 16
REMARK Flexibility Score: inf
ROOT
ATOM      1  C   UNL     1     135.793 146.789 147.499  1.00  0.00     0.000 C 
ENDROOT
BRANCH   1   2
ATOM      2  C   UNL     1     137.245 147.156 147.154  1.00  0.00    -0.000 C 
BRANCH   2   3
ATOM      3  C   UNL     1     137.381 148.585 146.605  1.00  0.00    -0.000 C 
BRANCH   3   4
ATOM      4  C   UNL     1     138.335 148.622 145.404  1.00  0.00    -0.000 C 
BRANCH   4   5
ATOM      5  C   UNL     1     137.608 149.086 144.136  1.00  0.00    -0.000 C 
BRANCH   5   6
ATOM      6  C   UNL     1     136.223 149.651 144.472  1.00  0.00    -0.000 C 
BRANCH   6   7
ATOM      7  C   UNL     1     135.130 148.942 143.666  1.00  0.00    -0.003 C 
ATOM      8  C   UNL     1     134.042 148.388 144.580  1.00  0.00     0.004 C 
ENDBRANCH   6   7
ENDBRANCH   5   6
ENDBRANCH   4   5
ENDBRANCH   3   4
ENDBRANCH   2   3
ENDBRANCH   1   2
BRANCH   1   9
ATOM      9  C   UNL     1     135.453 145.331 147.147  1.00  0.00     0.000 C 
BRANCH   9  10
ATOM     10  C   UNL     1     135.005 145.158 145.684  1.00  0.00     0.000 C 
BRANCH  10  11
ATOM     11  C   UNL     1     136.054 144.525 144.749  1.00  0.00     0.000 C 
BRANCH  11  12
ATOM     12  C   UNL     1     136.562 145.442 143.617  1.00  0.00     0.002 C 
BRANCH  12  13
ATOM     13  C   UNL     1     138.086 145.420 143.400  1.00  0.00     0.028 C 
BRANCH  13  14
ATOM     14  C   UNL     1     138.855 144.907 144.619  1.00  0.00     0.156 C 
BRANCH  14  15
ATOM     15  O   UNL     1     139.456 143.681 144.308  1.00  0.00    -0.396 OA
ATOM     16  H   UNL     1     140.369 143.897 143.984  1.00  0.00     0.210 HD
ENDBRANCH  14  15
ENDBRANCH  13  14
ENDBRANCH  12  13
ENDBRANCH  11  12
ENDBRANCH  10  11
ENDBRANCH   9  10
ENDBRANCH   1   9
TORSDOF 13
ENDMDL
MODEL 7
REMARK VINA RESULT:    -2.439      2.141      4.508
REMARK INTER + INTRA:          -6.451
REMARK INTER:                  -4.736
REMARK INTRA:                  -1.715
REMARK UNBOUND:                -2.230
REMARK SMILES CCCCCCCCCCCCCCO
REMARK SMILES IDX 8 1 7 2 6 3 5 4 4 5 3 6 2 7 1 8 9 9 10 10 11 11 12 12 13 13
REMARK SMILES IDX 14 14 15 15
REMARK H PARENT 15 16
REMARK Flexibility Score: inf
ROOT
ATOM      1  C   UNL     1     132.807 135.636 143.614  1.00  0.00     0.000 C 
ENDROOT
BRANCH   1   2
ATOM      2  C   UNL     1     131.940 136.412 144.618  1.00  0.00    -0.000 C 
BRANCH   2   3
ATOM      3  C   UNL     1     132.141 137.932 144.525  1.00  0.00    -0.000 C 
BRANCH   3   4
ATOM      4  C   UNL     1     133.184 138.410 145.544  1.00  0.00    -0.000 C 
BRANCH   4   5
ATOM      5  C   UNL     1     134.232 139.311 144.879  1.00  0.00    -0.000 C 
BRANCH   5   6
ATOM      6  C   UNL     1     134.643 138.759 143.510  1.00  0.00    -0.000 C 
BRANCH   6   7
ATOM      7  C   UNL     1     136.095 138.265 143.530  1.00  0.00    -0.003 C 
ATOM      8  C   UNL     1     136.881 138.912 144.667  1.00  0.00     0.004 C 
ENDBRANCH   6   7
ENDBRANCH   5   6
ENDBRANCH   4   5
ENDBRANCH   3   4
ENDBRANCH   2   3
ENDBRANCH   1   2
BRANCH   1   9
ATOM      9  C   UNL     1     134.065 135.032 144.265  1.00  0.00     0.000 C 
BRANCH   9  10
ATOM     10  C   UNL     1     133.892 134.772 145.772  1.00  0.00     0.000 C 
BRANCH  10  11
ATOM     11  C   UNL     1     135.074 135.223 146.654  1.00  0.00     0.000 C 
BRANCH  11  12
ATOM     12  C   UNL     1     136.388 135.502 145.896  1.00  0.00     0.002 C 
BRANCH  12  13
ATOM     13  C   UNL     1     137.547 134.549 146.240  1.00  0.00     0.028 C 
BRANCH  13  14
ATOM     14  C   UNL     1     138.710 134.641 145.250  1.00  0.00     0.156 C 
BRANCH  14  15
ATOM     15  O   UNL     1     138.550 133.669 144.253  1.00  0.00    -0.396 OA
ATOM     16  H   UNL     1     138.112 134.127 143.490  1.00  0.00     0.210 HD
ENDBRANCH  14  15
ENDBRANCH  13  14
ENDBRANCH  12  13
ENDBRANCH  11  12
ENDBRANCH  10  11
ENDBRANCH   9  10
ENDBRANCH   1   9
TORSDOF 13
ENDMDL
MODEL 8
REMARK VINA RESULT:    -2.416      1.514      1.976
REMARK INTER + INTRA:          -6.411
REMARK INTER:                  -4.103
REMARK INTRA:                  -2.309
REMARK UNBOUND:                -2.230
REMARK SMILES CCCCCCCCCCCCCCO
REMARK SMILES IDX 8 1 7 2 6 3 5 4 4 5 3 6 2 7 1 8 9 9 10 10 11 11 12 12 13 13
REMARK SMILES IDX 14 14 15 15
REMARK H PARENT 15 16
REMARK Flexibility Score: inf
ROOT
ATOM      1  C   UNL     1     135.981 138.784 144.440  1.00  0.00     0.000 C 
ENDROOT
BRANCH   1   2
ATOM      2  C   UNL     1     136.110 137.475 143.646  1.00  0.00    -0.000 C 
BRANCH   2   3
ATOM      3  C   UNL     1     136.465 136.274 144.536  1.00  0.00    -0.000 C 
BRANCH   3   4
ATOM      4  C   UNL     1     136.168 136.576 146.010  1.00  0.00    -0.000 C 
BRANCH   4   5
ATOM      5  C   UNL     1     135.096 135.629 146.562  1.00  0.00    -0.000 C 
BRANCH   5   6
ATOM      6  C   UNL     1     134.146 136.367 147.512  1.00  0.00    -0.000 C 
BRANCH   6   7
ATOM      7  C   UNL     1     134.583 137.824 147.703  1.00  0.00    -0.003 C 
ATOM      8  C   UNL     1     133.396 138.712 148.065  1.00  0.00     0.004 C 
ENDBRANCH   6   7
ENDBRANCH   5   6
ENDBRANCH   4   5
ENDBRANCH   3   4
ENDBRANCH   2   3
ENDBRANCH   1   2
BRANCH   1   9
ATOM      9  C   UNL     1     134.559 139.369 144.389  1.00  0.00     0.000 C 
BRANCH   9  10
ATOM     10  C   UNL     1     133.547 138.421 143.719  1.00  0.00     0.000 C 
BRANCH  10  11
ATOM     11  C   UNL     1     132.335 138.036 144.591  1.00  0.00     0.000 C 
BRANCH  11  12
ATOM     12  C   UNL     1     131.888 136.564 144.480  1.00  0.00     0.002 C 
BRANCH  12  13
ATOM     13  C   UNL     1     132.852 135.652 143.699  1.00  0.00     0.028 C 
BRANCH  13  14
ATOM     14  C   UNL     1     132.477 134.172 143.788  1.00  0.00     0.156 C 
BRANCH  14  15
ATOM     15  O   UNL     1     133.528 133.461 144.382  1.00  0.00    -0.396 OA
ATOM     16  H   UNL     1     133.357 133.484 145.359  1.00  0.00     0.210 HD
ENDBRANCH  14  15
ENDBRANCH  13  14
ENDBRANCH  12  13
ENDBRANCH  11  12
ENDBRANCH  10  11
ENDBRANCH   9  10
ENDBRANCH   1   9
TORSDOF 13
ENDMDL
MODEL 9
REMARK VINA RESULT:    -2.394      2.437      5.272
REMARK INTER + INTRA:          -6.373
REMARK INTER:                  -4.730
REMARK INTRA:                  -1.643
REMARK UNBOUND:                -2.230
REMARK SMILES CCCCCCCCCCCCCCO
REMARK SMILES IDX 8 1 7 2 6 3 5 4 4 5 3 6 2 7 1 8 9 9 10 10 11 11 12 12 13 13
REMARK SMILES IDX 14 14 15 15
REMARK H PARENT 15 16
REMARK Flexibility Score: inf
ROOT
ATOM      1  C   UNL     1     135.884 138.862 144.761  1.00  0.00     0.000 C 
ENDROOT
BRANCH   1   2
ATOM      2  C   UNL     1     134.503 139.536 144.749  1.00  0.00    -0.000 C 
BRANCH   2   3
ATOM      3  C   UNL     1     133.400 138.641 145.335  1.00  0.00    -0.000 C 
BRANCH   3   4
ATOM      4  C   UNL     1     132.401 138.220 144.250  1.00  0.00    -0.000 C 
BRANCH   4   5
ATOM      5  C   UNL     1     132.014 136.743 144.401  1.00  0.00    -0.000 C 
BRANCH   5   6
ATOM      6  C   UNL     1     132.937 135.845 143.569  1.00  0.00    -0.000 C 
BRANCH   6   7
ATOM      7  C   UNL     1     132.971 134.420 144.132  1.00  0.00    -0.003 C 
ATOM      8  C   UNL     1     133.139 134.430 145.648  1.00  0.00     0.004 C 
ENDBRANCH   6   7
ENDBRANCH   5   6
ENDBRANCH   4   5
ENDBRANCH   3   4
ENDBRANCH   2   3
ENDBRANCH   1   2
BRANCH   1   9
ATOM      9  C   UNL     1     136.100 137.938 143.549  1.00  0.00     0.000 C 
BRANCH   9  10
ATOM     10  C   UNL     1     136.446 136.494 143.954  1.00  0.00     0.000 C 
BRANCH  10  11
ATOM     11  C   UNL     1     136.266 136.173 145.451  1.00  0.00     0.000 C 
BRANCH  11  12
ATOM     12  C   UNL     1     137.147 135.025 145.987  1.00  0.00     0.002 C 
BRANCH  12  13
ATOM     13  C   UNL     1     138.195 134.495 144.991  1.00  0.00     0.028 C 
BRANCH  13  14
ATOM     14  C   UNL     1     139.634 134.738 145.452  1.00  0.00     0.156 C 
BRANCH  14  15
ATOM     15  O   UNL     1     139.881 136.116 145.501  1.00  0.00    -0.396 OA
ATOM     16  H   UNL     1     139.401 136.509 144.727  1.00  0.00     0.210 HD
ENDBRANCH  14  15
ENDBRANCH  13  14
ENDBRANCH  12  13
ENDBRANCH  11  12
ENDBRANCH  10  11
ENDBRANCH   9  10
ENDBRANCH   1   9
TORSDOF 13
ENDMDL
