MODEL 1
REMARK VINA RESULT:    -6.540      0.000      0.000
REMARK INTER + INTRA:          -9.974
REMARK INTER:                  -8.643
REMARK INTRA:                  -1.331
REMARK UNBOUND:                -1.331
REMARK SMILES CC(C)=CCC[C@@H](C(=O)[O-])[C@H]1CC[C@]2(C)C3=C(CC[C@]12C)[C@@]1(C)CC[C@@H](O)C(C)(C)[C@@H]1CC3
REMARK SMILES IDX 6 1 7 2 8 3 9 4 10 5 11 6 12 7 20 8 13 9 14 10 19 11 21 12
REMARK SMILES IDX 15 13 16 14 18 15 17 16 33 17 22 18 32 19 31 20 24 21 23 22
REMARK SMILES IDX 28 23 25 24 26 25 29 26 30 27 27 28 5 30 4 31 2 32 1 33 3 34
REMARK H PARENT 27 29
REMARK Flexibility Score: inf
ROOT
ATOM      1  C   UNL     1      13.636  28.573  14.149  1.00  0.00     0.014 C 
ENDROOT
BRANCH   1   2
ATOM      2  C   UNL     1      12.303  28.229  14.875  1.00  0.00     0.039 C 
BRANCH   2   3
ATOM      3  C   UNL     1      11.257  29.318  14.730  1.00  0.00     0.045 C 
ATOM      4  O   UNL     1      10.258  29.376  15.495  1.00  0.00    -0.550 OA
ATOM      5  O   UNL     1      11.347  30.226  13.683  1.00  0.00    -0.550 OA
ENDBRANCH   2   3
BRANCH   2   6
ATOM      6  C   UNL     1      11.816  26.756  14.607  1.00  0.00     0.004 C 
ATOM      7  C   UNL     1      11.784  26.403  13.110  1.00  0.00     0.006 C 
ATOM      8  C   UNL     1      12.441  25.497  15.347  1.00  0.00    -0.020 C 
ATOM      9  C   UNL     1      12.066  24.914  13.012  1.00  0.00     0.012 C 
ATOM     10  C   UNL     1      12.995  24.581  14.192  1.00  0.00    -0.006 C 
ATOM     11  C   UNL     1      11.277  24.758  16.057  1.00  0.00     0.012 C 
ATOM     12  C   UNL     1      13.518  25.818  16.421  1.00  0.00     0.012 C 
ATOM     13  C   UNL     1      14.448  24.997  13.805  1.00  0.00     0.017 C 
ATOM     14  C   UNL     1      12.957  23.049  14.469  1.00  0.00    -0.064 C 
ATOM     15  C   UNL     1      11.696  23.409  16.614  1.00  0.00     0.032 C 
ATOM     16  C   UNL     1      12.316  22.503  15.561  1.00  0.00    -0.064 C 
ATOM     17  C   UNL     1      13.488  22.153  13.342  1.00  0.00     0.032 C 
ATOM     18  C   UNL     1      12.462  20.992  15.891  1.00  0.00    -0.008 C 
ATOM     19  C   UNL     1      13.626  20.665  13.662  1.00  0.00     0.009 C 
ATOM     20  C   UNL     1      12.461  20.189  14.539  1.00  0.00     0.007 C 
ATOM     21  C   UNL     1      11.278  20.485  16.768  1.00  0.00     0.014 C 
ATOM     22  C   UNL     1      13.778  20.877  16.710  1.00  0.00     0.016 C 
ATOM     23  C   UNL     1      12.300  18.610  14.610  1.00  0.00    -0.006 C 
ATOM     24  C   UNL     1      11.252  18.965  16.949  1.00  0.00     0.033 C 
ATOM     25  C   UNL     1      11.160  18.217  15.612  1.00  0.00     0.120 C 
ATOM     26  C   UNL     1      13.607  17.872  15.016  1.00  0.00     0.014 C 
ATOM     27  C   UNL     1      11.915  18.063  13.205  1.00  0.00     0.014 C 
BRANCH  25  28
ATOM     28  O   UNL     1       9.869  18.365  15.062  1.00  0.00    -0.393 OA
ATOM     29  H   UNL     1       9.256  17.734  15.517  1.00  0.00     0.210 HD
ENDBRANCH  25  28
ENDBRANCH   2   6
ENDBRANCH   1   2
BRANCH   1  30
ATOM     30  C   UNL     1      14.862  28.557  15.079  1.00  0.00     0.028 C 
BRANCH  30  31
ATOM     31  C   UNL     1      16.146  28.362  14.304  1.00  0.00    -0.028 C 
ATOM     32  C   UNL     1      17.117  27.478  14.623  1.00  0.00    -0.080 C 
ATOM     33  C   UNL     1      18.356  27.435  13.765  1.00  0.00     0.039 C 
ATOM     34  C   UNL     1      16.997  26.540  15.800  1.00  0.00     0.039 C 
ENDBRANCH  30  31
ENDBRANCH   1  30
TORSDOF 6
ENDMDL
MODEL 2
REMARK VINA RESULT:    -5.936      1.558      2.939
REMARK INTER + INTRA:          -9.176
REMARK INTER:                  -7.987
REMARK INTRA:                  -1.189
REMARK UNBOUND:                -1.331
REMARK SMILES CC(C)=CCC[C@@H](C(=O)[O-])[C@H]1CC[C@]2(C)C3=C(CC[C@]12C)[C@@]1(C)CC[C@@H](O)C(C)(C)[C@@H]1CC3
REMARK SMILES IDX 6 1 7 2 8 3 9 4 10 5 11 6 12 7 20 8 13 9 14 10 19 11 21 12
REMARK SMILES IDX 15 13 16 14 18 15 17 16 33 17 22 18 32 19 31 20 24 21 23 22
REMARK SMILES IDX 28 23 25 24 26 25 29 26 30 27 27 28 5 30 4 31 2 32 1 33 3 34
REMARK H PARENT 27 29
REMARK Flexibility Score: inf
ROOT
ATOM      1  C   UNL     1      13.855  28.911  12.974  1.00  0.00     0.014 C 
ENDROOT
BRANCH   1   2
ATOM      2  C   UNL     1      13.070  28.462  14.241  1.00  0.00     0.039 C 
BRANCH   2   3
ATOM      3  C   UNL     1      11.571  28.647  14.100  1.00  0.00     0.045 C 
ATOM      4  O   UNL     1      11.038  28.876  12.983  1.00  0.00    -0.550 OA
ATOM      5  O   UNL     1      10.767  28.646  15.233  1.00  0.00    -0.550 OA
ENDBRANCH   2   3
BRANCH   2   6
ATOM      6  C   UNL     1      13.550  27.072  14.804  1.00  0.00     0.004 C 
ATOM      7  C   UNL     1      13.331  26.936  16.321  1.00  0.00     0.006 C 
ATOM      8  C   UNL     1      13.105  25.687  14.165  1.00  0.00    -0.020 C 
ATOM      9  C   UNL     1      13.085  25.462  16.590  1.00  0.00     0.012 C 
ATOM     10  C   UNL     1      12.387  24.913  15.334  1.00  0.00    -0.006 C 
ATOM     11  C   UNL     1      14.398  24.923  13.779  1.00  0.00     0.012 C 
ATOM     12  C   UNL     1      12.222  25.791  12.890  1.00  0.00     0.012 C 
ATOM     13  C   UNL     1      10.876  25.296  15.405  1.00  0.00     0.017 C 
ATOM     14  C   UNL     1      12.523  23.362  15.298  1.00  0.00    -0.064 C 
ATOM     15  C   UNL     1      14.127  23.488  13.366  1.00  0.00     0.032 C 
ATOM     16  C   UNL     1      13.362  22.706  14.424  1.00  0.00    -0.064 C 
ATOM     17  C   UNL     1      11.832  22.605  16.441  1.00  0.00     0.032 C 
ATOM     18  C   UNL     1      13.324  21.157  14.303  1.00  0.00    -0.008 C 
ATOM     19  C   UNL     1      11.800  21.081  16.327  1.00  0.00     0.009 C 
ATOM     20  C   UNL     1      13.115  20.554  15.740  1.00  0.00     0.007 C 
ATOM     21  C   UNL     1      14.659  20.600  13.723  1.00  0.00     0.014 C 
ATOM     22  C   UNL     1      12.177  20.852  13.300  1.00  0.00     0.016 C 
ATOM     23  C   UNL     1      13.336  18.993  15.933  1.00  0.00    -0.006 C 
ATOM     24  C   UNL     1      14.766  19.073  13.777  1.00  0.00     0.033 C 
ATOM     25  C   UNL     1      14.647  18.529  15.206  1.00  0.00     0.120 C 
ATOM     26  C   UNL     1      12.145  18.131  15.428  1.00  0.00     0.014 C 
ATOM     27  C   UNL     1      13.488  18.672  17.448  1.00  0.00     0.014 C 
BRANCH  25  28
ATOM     28  O   UNL     1      15.816  18.827  15.938  1.00  0.00    -0.393 OA
ATOM     29  H   UNL     1      15.702  18.498  16.865  1.00  0.00     0.210 HD
ENDBRANCH  25  28
ENDBRANCH   2   6
ENDBRANCH   1   2
BRANCH   1  30
ATOM     30  C   UNL     1      15.320  29.281  13.261  1.00  0.00     0.028 C 
BRANCH  30  31
ATOM     31  C   UNL     1      16.259  28.146  12.920  1.00  0.00    -0.028 C 
ATOM     32  C   UNL     1      17.022  27.476  13.811  1.00  0.00    -0.080 C 
ATOM     33  C   UNL     1      17.936  26.391  13.300  1.00  0.00     0.039 C 
ATOM     34  C   UNL     1      16.985  27.779  15.290  1.00  0.00     0.039 C 
ENDBRANCH  30  31
ENDBRANCH   1  30
TORSDOF 6
ENDMDL
MODEL 3
REMARK VINA RESULT:    -5.927      2.201      4.577
REMARK INTER + INTRA:          -9.164
REMARK INTER:                  -7.812
REMARK INTRA:                  -1.352
REMARK UNBOUND:                -1.331
REMARK SMILES CC(C)=CCC[C@@H](C(=O)[O-])[C@H]1CC[C@]2(C)C3=C(CC[C@]12C)[C@@]1(C)CC[C@@H](O)C(C)(C)[C@@H]1CC3
REMARK SMILES IDX 6 1 7 2 8 3 9 4 10 5 11 6 12 7 20 8 13 9 14 10 19 11 21 12
REMARK SMILES IDX 15 13 16 14 18 15 17 16 33 17 22 18 32 19 31 20 24 21 23 22
REMARK SMILES IDX 28 23 25 24 26 25 29 26 30 27 27 28 5 30 4 31 2 32 1 33 3 34
REMARK H PARENT 27 29
REMARK Flexibility Score: inf
ROOT
ATOM      1  C   UNL     1      11.311  28.645  14.795  1.00  0.00     0.014 C 
ENDROOT
BRANCH   1   2
ATOM      2  C   UNL     1      12.485  28.120  13.918  1.00  0.00     0.039 C 
BRANCH   2   3
ATOM      3  C   UNL     1      13.456  29.215  13.518  1.00  0.00     0.045 C 
ATOM      4  O   UNL     1      13.071  30.243  12.900  1.00  0.00    -0.550 OA
ATOM      5  O   UNL     1      14.814  29.055  13.761  1.00  0.00    -0.550 OA
ENDBRANCH   2   3
BRANCH   2   6
ATOM      6  C   UNL     1      13.125  26.793  14.473  1.00  0.00     0.004 C 
ATOM      7  C   UNL     1      13.161  26.747  16.011  1.00  0.00     0.006 C 
ATOM      8  C   UNL     1      12.659  25.351  13.997  1.00  0.00    -0.020 C 
ATOM      9  C   UNL     1      13.043  25.285  16.401  1.00  0.00     0.012 C 
ATOM     10  C   UNL     1      12.183  24.624  15.310  1.00  0.00    -0.006 C 
ATOM     11  C   UNL     1      13.913  24.621  13.448  1.00  0.00     0.012 C 
ATOM     12  C   UNL     1      11.578  25.331  12.880  1.00  0.00     0.012 C 
ATOM     13  C   UNL     1      10.684  24.942  15.606  1.00  0.00     0.017 C 
ATOM     14  C   UNL     1      12.395  23.082  15.342  1.00  0.00    -0.064 C 
ATOM     15  C   UNL     1      13.658  23.151  13.169  1.00  0.00     0.032 C 
ATOM     16  C   UNL     1      13.118  22.407  14.381  1.00  0.00    -0.064 C 
ATOM     17  C   UNL     1      11.940  22.371  16.624  1.00  0.00     0.032 C 
ATOM     18  C   UNL     1      13.146  20.854  14.357  1.00  0.00    -0.008 C 
ATOM     19  C   UNL     1      11.974  20.843  16.605  1.00  0.00     0.009 C 
ATOM     20  C   UNL     1      13.204  20.338  15.841  1.00  0.00     0.007 C 
ATOM     21  C   UNL     1      14.398  20.320  13.599  1.00  0.00     0.014 C 
ATOM     22  C   UNL     1      11.870  20.432  13.576  1.00  0.00     0.016 C 
ATOM     23  C   UNL     1      13.539  18.804  16.084  1.00  0.00    -0.006 C 
ATOM     24  C   UNL     1      14.595  18.806  13.722  1.00  0.00     0.033 C 
ATOM     25  C   UNL     1      14.738  18.352  15.181  1.00  0.00     0.120 C 
ATOM     26  C   UNL     1      12.331  17.858  15.832  1.00  0.00     0.014 C 
ATOM     27  C   UNL     1      13.949  18.591  17.570  1.00  0.00     0.014 C 
BRANCH  25  28
ATOM     28  O   UNL     1      15.992  18.749  15.692  1.00  0.00    -0.393 OA
ATOM     29  H   UNL     1      16.022  18.536  16.659  1.00  0.00     0.210 HD
ENDBRANCH  25  28
ENDBRANCH   2   6
ENDBRANCH   1   2
BRANCH   1  30
ATOM     30  C   UNL     1       9.967  28.702  14.047  1.00  0.00     0.028 C 
BRANCH  30  31
ATOM     31  C   UNL     1       8.797  28.669  15.003  1.00  0.00    -0.028 C 
ATOM     32  C   UNL     1       7.890  27.671  15.084  1.00  0.00    -0.080 C 
ATOM     33  C   UNL     1       6.756  27.810  16.069  1.00  0.00     0.039 C 
ATOM     34  C   UNL     1       7.979  26.431  14.227  1.00  0.00     0.039 C 
ENDBRANCH  30  31
ENDBRANCH   1  30
TORSDOF 6
ENDMDL
MODEL 4
REMARK VINA RESULT:    -5.511      2.879      8.987
REMARK INTER + INTRA:          -8.614
REMARK INTER:                  -8.316
REMARK INTRA:                  -0.298
REMARK UNBOUND:                -1.331
REMARK SMILES CC(C)=CCC[C@@H](C(=O)[O-])[C@H]1CC[C@]2(C)C3=C(CC[C@]12C)[C@@]1(C)CC[C@@H](O)C(C)(C)[C@@H]1CC3
REMARK SMILES IDX 6 1 7 2 8 3 9 4 10 5 11 6 12 7 20 8 13 9 14 10 19 11 21 12
REMARK SMILES IDX 15 13 16 14 18 15 17 16 33 17 22 18 32 19 31 20 24 21 23 22
REMARK SMILES IDX 28 23 25 24 26 25 29 26 30 27 27 28 5 30 4 31 2 32 1 33 3 34
REMARK H PARENT 27 29
REMARK Flexibility Score: inf
ROOT
ATOM      1  C   UNL     1       8.945  18.642  15.963  1.00  0.00     0.014 C 
ENDROOT
BRANCH   1   2
ATOM      2  C   UNL     1      10.314  18.033  15.540  1.00  0.00     0.039 C 
BRANCH   2   3
ATOM      3  C   UNL     1      10.264  17.361  14.181  1.00  0.00     0.045 C 
ATOM      4  O   UNL     1      10.670  16.181  14.016  1.00  0.00    -0.550 OA
ATOM      5  O   UNL     1       9.839  18.080  13.071  1.00  0.00    -0.550 OA
ENDBRANCH   2   3
BRANCH   2   6
ATOM      6  C   UNL     1      11.525  19.007  15.789  1.00  0.00     0.004 C 
ATOM      7  C   UNL     1      12.878  18.387  15.400  1.00  0.00     0.006 C 
ATOM      8  C   UNL     1      11.550  20.502  15.251  1.00  0.00    -0.020 C 
ATOM      9  C   UNL     1      13.766  19.535  14.953  1.00  0.00     0.012 C 
ATOM     10  C   UNL     1      12.825  20.580  14.329  1.00  0.00    -0.006 C 
ATOM     11  C   UNL     1      11.763  21.428  16.477  1.00  0.00     0.012 C 
ATOM     12  C   UNL     1      10.260  20.974  14.524  1.00  0.00     0.012 C 
ATOM     13  C   UNL     1      12.484  20.127  12.875  1.00  0.00     0.017 C 
ATOM     14  C   UNL     1      13.539  21.962  14.282  1.00  0.00    -0.064 C 
ATOM     15  C   UNL     1      12.035  22.868  16.081  1.00  0.00     0.032 C 
ATOM     16  C   UNL     1      13.209  23.003  15.123  1.00  0.00    -0.064 C 
ATOM     17  C   UNL     1      14.787  22.039  13.390  1.00  0.00     0.032 C 
ATOM     18  C   UNL     1      13.822  24.415  14.913  1.00  0.00    -0.008 C 
ATOM     19  C   UNL     1      15.396  23.427  13.189  1.00  0.00     0.009 C 
ATOM     20  C   UNL     1      15.325  24.243  14.486  1.00  0.00     0.007 C 
ATOM     21  C   UNL     1      13.775  25.255  16.225  1.00  0.00     0.014 C 
ATOM     22  C   UNL     1      12.922  25.100  13.848  1.00  0.00     0.016 C 
ATOM     23  C   UNL     1      16.256  25.530  14.498  1.00  0.00    -0.006 C 
ATOM     24  C   UNL     1      14.552  26.572  16.143  1.00  0.00     0.033 C 
ATOM     25  C   UNL     1      16.035  26.357  15.812  1.00  0.00     0.120 C 
ATOM     26  C   UNL     1      16.043  26.461  13.272  1.00  0.00     0.014 C 
ATOM     27  C   UNL     1      17.749  25.092  14.452  1.00  0.00     0.014 C 
BRANCH  25  28
ATOM     28  O   UNL     1      16.706  25.810  16.926  1.00  0.00    -0.393 OA
ATOM     29  H   UNL     1      17.166  24.980  16.643  1.00  0.00     0.210 HD
ENDBRANCH  25  28
ENDBRANCH   2   6
ENDBRANCH   1   2
BRANCH   1  30
ATOM     30  C   UNL     1       7.737  17.799  15.519  1.00  0.00     0.028 C 
BRANCH  30  31
ATOM     31  C   UNL     1       6.700  18.641  14.812  1.00  0.00    -0.028 C 
ATOM     32  C   UNL     1       5.376  18.376  14.779  1.00  0.00    -0.080 C 
ATOM     33  C   UNL     1       4.478  19.299  13.994  1.00  0.00     0.039 C 
ATOM     34  C   UNL     1       4.774  17.194  15.501  1.00  0.00     0.039 C 
ENDBRANCH  30  31
ENDBRANCH   1  30
TORSDOF 6
ENDMDL
MODEL 5
REMARK VINA RESULT:    -5.190      3.262      7.500
REMARK INTER + INTRA:          -8.190
REMARK INTER:                  -7.071
REMARK INTRA:                  -1.119
REMARK UNBOUND:                -1.331
REMARK SMILES CC(C)=CCC[C@@H](C(=O)[O-])[C@H]1CC[C@]2(C)C3=C(CC[C@]12C)[C@@]1(C)CC[C@@H](O)C(C)(C)[C@@H]1CC3
REMARK SMILES IDX 6 1 7 2 8 3 9 4 10 5 11 6 12 7 20 8 13 9 14 10 19 11 21 12
REMARK SMILES IDX 15 13 16 14 18 15 17 16 33 17 22 18 32 19 31 20 24 21 23 22
REMARK SMILES IDX 28 23 25 24 26 25 29 26 30 27 27 28 5 30 4 31 2 32 1 33 3 34
REMARK H PARENT 27 29
REMARK Flexibility Score: inf
ROOT
ATOM      1  C   UNL     1      15.046  23.479  13.232  1.00  0.00     0.014 C 
ENDROOT
BRANCH   1   2
ATOM      2  C   UNL     1      15.356  24.283  14.529  1.00  0.00     0.039 C 
BRANCH   2   3
ATOM      3  C   UNL     1      16.509  25.253  14.358  1.00  0.00     0.045 C 
ATOM      4  O   UNL     1      16.516  26.110  13.435  1.00  0.00    -0.550 OA
ATOM      5  O   UNL     1      17.624  25.151  15.181  1.00  0.00    -0.550 OA
ENDBRANCH   2   3
BRANCH   2   6
ATOM      6  C   UNL     1      14.064  24.853  15.224  1.00  0.00     0.004 C 
ATOM      7  C   UNL     1      14.370  26.007  16.195  1.00  0.00     0.006 C 
ATOM      8  C   UNL     1      12.772  25.289  14.409  1.00  0.00    -0.020 C 
ATOM      9  C   UNL     1      13.153  26.915  16.183  1.00  0.00     0.012 C 
ATOM     10  C   UNL     1      12.560  26.808  14.767  1.00  0.00    -0.006 C 
ATOM     11  C   UNL     1      11.578  24.472  14.969  1.00  0.00     0.012 C 
ATOM     12  C   UNL     1      12.832  25.042  12.876  1.00  0.00     0.012 C 
ATOM     13  C   UNL     1      13.393  27.723  13.816  1.00  0.00     0.017 C 
ATOM     14  C   UNL     1      11.081  27.297  14.783  1.00  0.00    -0.064 C 
ATOM     15  C   UNL     1      10.240  24.953  14.437  1.00  0.00     0.032 C 
ATOM     16  C   UNL     1      10.009  26.437  14.680  1.00  0.00    -0.064 C 
ATOM     17  C   UNL     1      10.871  28.776  15.140  1.00  0.00     0.032 C 
ATOM     18  C   UNL     1       8.565  26.988  14.517  1.00  0.00    -0.008 C 
ATOM     19  C   UNL     1       9.450  29.318  14.987  1.00  0.00     0.009 C 
ATOM     20  C   UNL     1       8.420  28.267  15.420  1.00  0.00     0.007 C 
ATOM     21  C   UNL     1       7.504  25.941  14.968  1.00  0.00     0.014 C 
ATOM     22  C   UNL     1       8.396  27.250  12.994  1.00  0.00     0.016 C 
ATOM     23  C   UNL     1       6.960  28.846  15.663  1.00  0.00    -0.006 C 
ATOM     24  C   UNL     1       6.077  26.496  15.032  1.00  0.00     0.033 C 
ATOM     25  C   UNL     1       5.956  27.687  15.992  1.00  0.00     0.120 C 
ATOM     26  C   UNL     1       6.411  29.665  14.462  1.00  0.00     0.014 C 
ATOM     27  C   UNL     1       6.982  29.821  16.875  1.00  0.00     0.014 C 
BRANCH  25  28
ATOM     28  O   UNL     1       6.047  27.243  17.329  1.00  0.00    -0.393 OA
ATOM     29  H   UNL     1       6.828  26.640  17.409  1.00  0.00     0.210 HD
ENDBRANCH  25  28
ENDBRANCH   2   6
ENDBRANCH   1   2
BRANCH   1  30
ATOM     30  C   UNL     1      14.884  21.968  13.472  1.00  0.00     0.028 C 
BRANCH  30  31
ATOM     31  C   UNL     1      13.429  21.555  13.455  1.00  0.00    -0.028 C 
ATOM     32  C   UNL     1      12.705  21.222  14.545  1.00  0.00    -0.080 C 
ATOM     33  C   UNL     1      11.272  20.795  14.351  1.00  0.00     0.039 C 
ATOM     34  C   UNL     1      13.282  21.266  15.939  1.00  0.00     0.039 C 
ENDBRANCH  30  31
ENDBRANCH   1  30
TORSDOF 6
ENDMDL
MODEL 6
REMARK VINA RESULT:    -4.975      3.671      7.205
REMARK INTER + INTRA:          -7.906
REMARK INTER:                  -6.654
REMARK INTRA:                  -1.252
REMARK UNBOUND:                -1.331
REMARK SMILES CC(C)=CCC[C@@H](C(=O)[O-])[C@H]1CC[C@]2(C)C3=C(CC[C@]12C)[C@@]1(C)CC[C@@H](O)C(C)(C)[C@@H]1CC3
REMARK SMILES IDX 6 1 7 2 8 3 9 4 10 5 11 6 12 7 20 8 13 9 14 10 19 11 21 12
REMARK SMILES IDX 15 13 16 14 18 15 17 16 33 17 22 18 32 19 31 20 24 21 23 22
REMARK SMILES IDX 28 23 25 24 26 25 29 26 30 27 27 28 5 30 4 31 2 32 1 33 3 34
REMARK H PARENT 27 29
REMARK Flexibility Score: inf
ROOT
ATOM      1  C   UNL     1      16.347  25.516  15.175  1.00  0.00     0.014 C 
ENDROOT
BRANCH   1   2
ATOM      2  C   UNL     1      15.039  25.058  14.466  1.00  0.00     0.039 C 
BRANCH   2   3
ATOM      3  C   UNL     1      15.040  23.579  14.129  1.00  0.00     0.045 C 
ATOM      4  O   UNL     1      14.487  22.733  14.879  1.00  0.00    -0.550 OA
ATOM      5  O   UNL     1      15.733  23.126  13.013  1.00  0.00    -0.550 OA
ENDBRANCH   2   3
BRANCH   2   6
ATOM      6  C   UNL     1      13.737  25.613  15.156  1.00  0.00     0.004 C 
ATOM      7  C   UNL     1      13.986  26.913  15.940  1.00  0.00     0.006 C 
ATOM      8  C   UNL     1      12.372  25.822  14.370  1.00  0.00    -0.020 C 
ATOM      9  C   UNL     1      12.694  27.707  15.880  1.00  0.00     0.012 C 
ATOM     10  C   UNL     1      12.043  27.354  14.531  1.00  0.00    -0.006 C 
ATOM     11  C   UNL     1      11.286  24.997  15.108  1.00  0.00     0.012 C 
ATOM     12  C   UNL     1      12.378  25.368  12.884  1.00  0.00     0.012 C 
ATOM     13  C   UNL     1      12.743  28.191  13.415  1.00  0.00     0.017 C 
ATOM     14  C   UNL     1      10.530  27.718  14.572  1.00  0.00    -0.064 C 
ATOM     15  C   UNL     1       9.886  25.287  14.599  1.00  0.00     0.032 C 
ATOM     16  C   UNL     1       9.535  26.767  14.653  1.00  0.00    -0.064 C 
ATOM     17  C   UNL     1      10.205  29.209  14.737  1.00  0.00     0.032 C 
ATOM     18  C   UNL     1       8.041  27.169  14.505  1.00  0.00    -0.008 C 
ATOM     19  C   UNL     1       8.735  29.606  14.599  1.00  0.00     0.009 C 
ATOM     20  C   UNL     1       7.826  28.546  15.233  1.00  0.00     0.007 C 
ATOM     21  C   UNL     1       7.101  26.112  15.159  1.00  0.00     0.014 C 
ATOM     22  C   UNL     1       7.773  27.199  12.975  1.00  0.00     0.016 C 
ATOM     23  C   UNL     1       6.334  29.031  15.485  1.00  0.00    -0.006 C 
ATOM     24  C   UNL     1       5.636  26.552  15.234  1.00  0.00     0.033 C 
ATOM     25  C   UNL     1       5.456  27.852  16.030  1.00  0.00     0.120 C 
ATOM     26  C   UNL     1       5.655  29.626  14.220  1.00  0.00     0.014 C 
ATOM     27  C   UNL     1       6.329  30.166  16.550  1.00  0.00     0.014 C 
BRANCH  25  28
ATOM     28  O   UNL     1       5.653  27.610  17.406  1.00  0.00    -0.393 OA
ATOM     29  H   UNL     1       5.766  28.479  17.868  1.00  0.00     0.210 HD
ENDBRANCH  25  28
ENDBRANCH   2   6
ENDBRANCH   1   2
BRANCH   1  30
ATOM     30  C   UNL     1      17.233  26.420  14.299  1.00  0.00     0.028 C 
BRANCH  30  31
ATOM     31  C   UNL     1      16.422  27.490  13.605  1.00  0.00    -0.028 C 
ATOM     32  C   UNL     1      16.425  28.801  13.934  1.00  0.00    -0.080 C 
ATOM     33  C   UNL     1      15.527  29.735  13.163  1.00  0.00     0.039 C 
ATOM     34  C   UNL     1      17.295  29.352  15.037  1.00  0.00     0.039 C 
ENDBRANCH  30  31
ENDBRANCH   1  30
TORSDOF 6
ENDMDL
MODEL 7
REMARK VINA RESULT:    -4.830      2.341      9.053
REMARK INTER + INTRA:          -7.713
REMARK INTER:                  -6.400
REMARK INTRA:                  -1.313
REMARK UNBOUND:                -1.331
REMARK SMILES CC(C)=CCC[C@@H](C(=O)[O-])[C@H]1CC[C@]2(C)C3=C(CC[C@]12C)[C@@]1(C)CC[C@@H](O)C(C)(C)[C@@H]1CC3
REMARK SMILES IDX 6 1 7 2 8 3 9 4 10 5 11 6 12 7 20 8 13 9 14 10 19 11 21 12
REMARK SMILES IDX 15 13 16 14 18 15 17 16 33 17 22 18 32 19 31 20 24 21 23 22
REMARK SMILES IDX 28 23 25 24 26 25 29 26 30 27 27 28 5 30 4 31 2 32 1 33 3 34
REMARK H PARENT 27 29
REMARK Flexibility Score: inf
ROOT
ATOM      1  C   UNL     1      10.867  17.052  14.021  1.00  0.00     0.014 C 
ENDROOT
BRANCH   1   2
ATOM      2  C   UNL     1      12.144  17.428  14.829  1.00  0.00     0.039 C 
BRANCH   2   3
ATOM      3  C   UNL     1      13.179  16.320  14.841  1.00  0.00     0.045 C 
ATOM      4  O   UNL     1      14.184  16.367  15.599  1.00  0.00    -0.550 OA
ATOM      5  O   UNL     1      13.072  15.265  13.944  1.00  0.00    -0.550 OA
ENDBRANCH   2   3
BRANCH   2   6
ATOM      6  C   UNL     1      12.676  18.874  14.505  1.00  0.00     0.004 C 
ATOM      7  C   UNL     1      12.661  19.190  12.999  1.00  0.00     0.006 C 
ATOM      8  C   UNL     1      12.131  20.174  15.237  1.00  0.00    -0.020 C 
ATOM      9  C   UNL     1      12.434  20.686  12.875  1.00  0.00     0.012 C 
ATOM     10  C   UNL     1      11.567  21.083  14.082  1.00  0.00    -0.006 C 
ATOM     11  C   UNL     1      13.350  20.883  15.882  1.00  0.00     0.012 C 
ATOM     12  C   UNL     1      11.087  19.922  16.361  1.00  0.00     0.012 C 
ATOM     13  C   UNL     1      10.084  20.716  13.763  1.00  0.00     0.017 C 
ATOM     14  C   UNL     1      11.675  22.619  14.319  1.00  0.00    -0.064 C 
ATOM     15  C   UNL     1      13.007  22.260  16.421  1.00  0.00     0.032 C 
ATOM     16  C   UNL     1      12.381  23.164  15.370  1.00  0.00    -0.064 C 
ATOM     17  C   UNL     1      11.134  23.509  13.191  1.00  0.00     0.032 C 
ATOM     18  C   UNL     1      12.307  24.688  15.667  1.00  0.00    -0.008 C 
ATOM     19  C   UNL     1      11.067  25.008  13.479  1.00  0.00     0.009 C 
ATOM     20  C   UNL     1      12.284  25.458  14.296  1.00  0.00     0.007 C 
ATOM     21  C   UNL     1      13.544  25.168  16.484  1.00  0.00     0.014 C 
ATOM     22  C   UNL     1      11.031  24.875  16.535  1.00  0.00     0.016 C 
ATOM     23  C   UNL     1      12.509  27.030  14.321  1.00  0.00    -0.006 C 
ATOM     24  C   UNL     1      13.636  26.690  16.625  1.00  0.00     0.033 C 
ATOM     25  C   UNL     1      13.703  27.401  15.267  1.00  0.00     0.120 C 
ATOM     26  C   UNL     1      11.249  27.829  14.759  1.00  0.00     0.014 C 
ATOM     27  C   UNL     1      12.858  27.528  12.889  1.00  0.00     0.014 C 
BRANCH  25  28
ATOM     28  O   UNL     1      14.964  27.189  14.670  1.00  0.00    -0.393 OA
ATOM     29  H   UNL     1      15.591  27.883  14.998  1.00  0.00     0.210 HD
ENDBRANCH  25  28
ENDBRANCH   2   6
ENDBRANCH   1   2
BRANCH   1  30
ATOM     30  C   UNL     1       9.611  16.903  14.896  1.00  0.00     0.028 C 
BRANCH  30  31
ATOM     31  C   UNL     1       8.507  17.835  14.449  1.00  0.00    -0.028 C 
ATOM     32  C   UNL     1       7.284  17.917  15.016  1.00  0.00    -0.080 C 
ATOM     33  C   UNL     1       6.281  18.875  14.424  1.00  0.00     0.039 C 
ATOM     34  C   UNL     1       6.896  17.086  16.216  1.00  0.00     0.039 C 
ENDBRANCH  30  31
ENDBRANCH   1  30
TORSDOF 6
ENDMDL
MODEL 8
REMARK VINA RESULT:    -4.743      6.292      9.355
REMARK INTER + INTRA:          -7.599
REMARK INTER:                  -8.223
REMARK INTRA:                   0.624
REMARK UNBOUND:                -1.331
REMARK SMILES CC(C)=CCC[C@@H](C(=O)[O-])[C@H]1CC[C@]2(C)C3=C(CC[C@]12C)[C@@]1(C)CC[C@@H](O)C(C)(C)[C@@H]1CC3
REMARK SMILES IDX 6 1 7 2 8 3 9 4 10 5 11 6 12 7 20 8 13 9 14 10 19 11 21 12
REMARK SMILES IDX 15 13 16 14 18 15 17 16 33 17 22 18 32 19 31 20 24 21 23 22
REMARK SMILES IDX 28 23 25 24 26 25 29 26 30 27 27 28 5 30 4 31 2 32 1 33 3 34
REMARK H PARENT 27 29
REMARK Flexibility Score: inf
ROOT
ATOM      1  C   UNL     1       5.310  19.870  14.267  1.00  0.00     0.014 C 
ENDROOT
BRANCH   1   2
ATOM      2  C   UNL     1       5.323  18.461  14.928  1.00  0.00     0.039 C 
BRANCH   2   3
ATOM      3  C   UNL     1       4.600  17.416  14.099  1.00  0.00     0.045 C 
ATOM      4  O   UNL     1       3.563  16.842  14.524  1.00  0.00    -0.550 OA
ATOM      5  O   UNL     1       5.129  17.017  12.878  1.00  0.00    -0.550 OA
ENDBRANCH   2   3
BRANCH   2   6
ATOM      6  C   UNL     1       6.739  18.052  15.480  1.00  0.00     0.004 C 
ATOM      7  C   UNL     1       6.987  16.535  15.418  1.00  0.00     0.006 C 
ATOM      8  C   UNL     1       8.084  18.742  14.991  1.00  0.00    -0.020 C 
ATOM      9  C   UNL     1       8.481  16.350  15.220  1.00  0.00     0.012 C 
ATOM     10  C   UNL     1       8.954  17.567  14.407  1.00  0.00    -0.006 C 
ATOM     11  C   UNL     1       8.792  19.310  16.249  1.00  0.00     0.012 C 
ATOM     12  C   UNL     1       7.908  19.912  13.983  1.00  0.00     0.012 C 
ATOM     13  C   UNL     1       8.609  17.317  12.905  1.00  0.00     0.017 C 
ATOM     14  C   UNL     1      10.495  17.729  14.558  1.00  0.00    -0.064 C 
ATOM     15  C   UNL     1      10.200  19.797  15.957  1.00  0.00     0.032 C 
ATOM     16  C   UNL     1      11.071  18.728  15.313  1.00  0.00    -0.064 C 
ATOM     17  C   UNL     1      11.346  16.581  13.997  1.00  0.00     0.032 C 
ATOM     18  C   UNL     1      12.607  18.958  15.284  1.00  0.00    -0.008 C 
ATOM     19  C   UNL     1      12.858  16.802  13.973  1.00  0.00     0.009 C 
ATOM     20  C   UNL     1      13.315  17.555  15.229  1.00  0.00     0.007 C 
ATOM     21  C   UNL     1      13.093  19.707  16.560  1.00  0.00     0.014 C 
ATOM     22  C   UNL     1      12.864  19.860  14.045  1.00  0.00     0.016 C 
ATOM     23  C   UNL     1      14.881  17.499  15.490  1.00  0.00    -0.006 C 
ATOM     24  C   UNL     1      14.618  19.776  16.692  1.00  0.00     0.033 C 
ATOM     25  C   UNL     1      15.265  18.385  16.726  1.00  0.00     0.120 C 
ATOM     26  C   UNL     1      15.729  17.944  14.266  1.00  0.00     0.014 C 
ATOM     27  C   UNL     1      15.305  16.034  15.798  1.00  0.00     0.014 C 
BRANCH  25  28
ATOM     28  O   UNL     1      14.996  17.754  17.959  1.00  0.00    -0.393 OA
ATOM     29  H   UNL     1      15.591  16.968  18.050  1.00  0.00     0.210 HD
ENDBRANCH  25  28
ENDBRANCH   2   6
ENDBRANCH   1   2
BRANCH   1  30
ATOM     30  C   UNL     1       4.008  20.178  13.507  1.00  0.00     0.028 C 
BRANCH  30  31
ATOM     31  C   UNL     1       3.010  20.901  14.383  1.00  0.00    -0.028 C 
ATOM     32  C   UNL     1       3.262  22.032  15.077  1.00  0.00    -0.080 C 
ATOM     33  C   UNL     1       2.165  22.607  15.936  1.00  0.00     0.039 C 
ATOM     34  C   UNL     1       4.598  22.732  15.015  1.00  0.00     0.039 C 
ENDBRANCH  30  31
ENDBRANCH   1  30
TORSDOF 6
ENDMDL
