MODEL 1
REMARK VINA RESULT:    -1.007      0.000      0.000
REMARK INTER + INTRA:          -1.007
REMARK INTER:                  -1.007
REMARK INTRA:                   0.000
REMARK UNBOUND:                 0.000
REMARK SMILES CC(=O)[O-]
REMARK SMILES IDX 1 1 2 2 3 3 4 4
REMARK H PARENT
REMARK Flexibility Score: inf
ROOT
ATOM      1  C   UNL     1      19.880 -28.986  -0.290  1.00  0.00     0.063 C 
ATOM      2  C   UNL     1      20.691 -28.762  -1.521  1.00  0.00     0.038 C 
ATOM      3  O   UNL     1      21.206 -29.739  -2.125  1.00  0.00    -0.550 OA
ATOM      4  O   UNL     1      20.836 -27.480  -2.035  1.00  0.00    -0.550 OA
ENDROOT
TORSDOF 0
ENDMDL
MODEL 2
REMARK VINA RESULT:    -0.984      0.166      1.623
REMARK INTER + INTRA:          -0.984
REMARK INTER:                  -0.984
REMARK INTRA:                   0.000
REMARK UNBOUND:                 0.000
REMARK SMILES CC(=O)[O-]
REMARK SMILES IDX 1 1 2 2 3 3 4 4
REMARK H PARENT
REMARK Flexibility Score: inf
ROOT
ATOM      1  C   UNL     1      19.767 -28.993  -0.244  1.00  0.00     0.063 C 
ATOM      2  C   UNL     1      20.613 -28.674  -1.430  1.00  0.00     0.038 C 
ATOM      3  O   UNL     1      20.792 -27.476  -1.775  1.00  0.00    -0.550 OA
ATOM      4  O   UNL     1      21.251 -29.694  -2.125  1.00  0.00    -0.550 OA
ENDROOT
TORSDOF 0
ENDMDL
MODEL 3
REMARK VINA RESULT:    -0.940      1.166      1.464
REMARK INTER + INTRA:          -0.940
REMARK INTER:                  -0.940
REMARK INTRA:                   0.000
REMARK UNBOUND:                 0.000
REMARK SMILES CC(=O)[O-]
REMARK SMILES IDX 1 1 2 2 3 3 4 4
REMARK H PARENT
REMARK Flexibility Score: inf
ROOT
ATOM      1  C   UNL     1      20.008 -29.157  -0.121  1.00  0.00     0.063 C 
ATOM      2  C   UNL     1      20.483 -27.957  -0.868  1.00  0.00     0.038 C 
ATOM      3  O   UNL     1      20.566 -27.987  -2.124  1.00  0.00    -0.550 OA
ATOM      4  O   UNL     1      20.783 -26.785  -0.186  1.00  0.00    -0.550 OA
ENDROOT
TORSDOF 0
ENDMDL
MODEL 4
REMARK VINA RESULT:    -0.922      8.836      9.009
REMARK INTER + INTRA:          -0.922
REMARK INTER:                  -0.922
REMARK INTRA:                   0.000
REMARK UNBOUND:                 0.000
REMARK SMILES CC(=O)[O-]
REMARK SMILES IDX 1 1 2 2 3 3 4 4
REMARK H PARENT
REMARK Flexibility Score: inf
ROOT
ATOM      1  C   UNL     1      14.038 -34.026  -1.440  1.00  0.00     0.063 C 
ATOM      2  C   UNL     1      12.949 -33.091  -1.033  1.00  0.00     0.038 C 
ATOM      3  O   UNL     1      12.599 -33.016   0.174  1.00  0.00    -0.550 OA
ATOM      4  O   UNL     1      12.356 -32.261  -1.976  1.00  0.00    -0.550 OA
ENDROOT
TORSDOF 0
ENDMDL
MODEL 5
REMARK VINA RESULT:    -0.864     13.519     14.031
REMARK INTER + INTRA:          -0.864
REMARK INTER:                  -0.864
REMARK INTRA:                   0.000
REMARK UNBOUND:                 0.000
REMARK SMILES CC(=O)[O-]
REMARK SMILES IDX 1 1 2 2 3 3 4 4
REMARK H PARENT
REMARK Flexibility Score: inf
ROOT
ATOM      1  C   UNL     1      31.005 -37.812   0.254  1.00  0.00     0.063 C 
ATOM      2  C   UNL     1      31.258 -37.953  -1.209  1.00  0.00     0.038 C 
ATOM      3  O   UNL     1      32.108 -38.782  -1.626  1.00  0.00    -0.550 OA
ATOM      4  O   UNL     1      30.517 -37.208  -2.118  1.00  0.00    -0.550 OA
ENDROOT
TORSDOF 0
ENDMDL
MODEL 6
REMARK VINA RESULT:    -0.844      7.989      8.248
REMARK INTER + INTRA:          -0.844
REMARK INTER:                  -0.844
REMARK INTRA:                   0.000
REMARK UNBOUND:                 0.000
REMARK SMILES CC(=O)[O-]
REMARK SMILES IDX 1 1 2 2 3 3 4 4
REMARK H PARENT
REMARK Flexibility Score: inf
ROOT
ATOM      1  C   UNL     1      13.739 -28.633   1.613  1.00  0.00     0.063 C 
ATOM      2  C   UNL     1      12.848 -27.842   0.715  1.00  0.00     0.038 C 
ATOM      3  O   UNL     1      12.446 -28.335  -0.371  1.00  0.00    -0.550 OA
ATOM      4  O   UNL     1      12.415 -26.580   1.101  1.00  0.00    -0.550 OA
ENDROOT
TORSDOF 0
ENDMDL
MODEL 7
REMARK VINA RESULT:    -0.816      8.951      9.419
REMARK INTER + INTRA:          -0.816
REMARK INTER:                  -0.816
REMARK INTRA:                   0.000
REMARK UNBOUND:                 0.000
REMARK SMILES CC(=O)[O-]
REMARK SMILES IDX 1 1 2 2 3 3 4 4
REMARK H PARENT
REMARK Flexibility Score: inf
ROOT
ATOM      1  C   UNL     1      12.310 -32.318  -1.673  1.00  0.00     0.063 C 
ATOM      2  C   UNL     1      12.876 -33.669  -1.394  1.00  0.00     0.038 C 
ATOM      3  O   UNL     1      13.977 -33.781  -0.793  1.00  0.00    -0.550 OA
ATOM      4  O   UNL     1      12.164 -34.809  -1.747  1.00  0.00    -0.550 OA
ENDROOT
TORSDOF 0
ENDMDL
MODEL 8
REMARK VINA RESULT:    -0.807     13.634     14.276
REMARK INTER + INTRA:          -0.807
REMARK INTER:                  -0.807
REMARK INTRA:                   0.000
REMARK UNBOUND:                 0.000
REMARK SMILES CC(=O)[O-]
REMARK SMILES IDX 1 1 2 2 3 3 4 4
REMARK H PARENT
REMARK Flexibility Score: inf
ROOT
ATOM      1  C   UNL     1      31.376 -37.701  -2.125  1.00  0.00     0.063 C 
ATOM      2  C   UNL     1      31.197 -38.016  -0.678  1.00  0.00     0.038 C 
ATOM      3  O   UNL     1      30.309 -37.426  -0.009  1.00  0.00    -0.550 OA
ATOM      4  O   UNL     1      31.974 -38.999  -0.079  1.00  0.00    -0.550 OA
ENDROOT
TORSDOF 0
ENDMDL
