MODEL 1
REMARK VINA RESULT:    -4.427      0.000      0.000
REMARK INTER + INTRA:          -6.166
REMARK INTER:                  -5.979
REMARK INTRA:                  -0.186
REMARK UNBOUND:                -0.186
REMARK SMILES [NH3+]CCCC[C@@H]([NH3+])C(=O)[O-]
REMARK SMILES IDX 4 1 3 2 2 3 1 4 5 8 6 9 7 10 8 14 9 15 10 16
REMARK H PARENT 1 5 1 6 1 7 7 11 7 12 7 13
REMARK Flexibility Score: inf
ROOT
ATOM      1  C   UNL     1      46.922  13.769  95.907  1.00  0.00     0.012 C 
ENDROOT
BRANCH   1   2
ATOM      2  C   UNL     1      46.691  12.913  94.644  1.00  0.00     0.061 C 
BRANCH   2   3
ATOM      3  C   UNL     1      46.345  11.444  94.952  1.00  0.00     0.258 C 
BRANCH   3   4
ATOM      4  N   UNL     1      46.798  10.533  93.900  1.00  0.00    -0.358 N 
ATOM      5  H   UNL     1      46.874   9.558  94.270  1.00  0.00     0.344 HD
ATOM      6  H   UNL     1      47.719  10.850  93.520  1.00  0.00     0.344 HD
ATOM      7  H   UNL     1      46.101  10.542  93.121  1.00  0.00     0.344 HD
ENDBRANCH   3   4
ENDBRANCH   2   3
ENDBRANCH   1   2
BRANCH   1   8
ATOM      8  C   UNL     1      47.291  15.223  95.564  1.00  0.00     0.072 C 
BRANCH   8   9
ATOM      9  C   UNL     1      48.781  15.536  95.828  1.00  0.00     0.227 C 
BRANCH   9  10
ATOM     10  N   UNL     1      49.375  14.592  96.786  1.00  0.00    -0.350 N 
ATOM     11  H   UNL     1      48.643  14.197  97.421  1.00  0.00     0.345 HD
ATOM     12  H   UNL     1      50.107  15.073  97.356  1.00  0.00     0.345 HD
ATOM     13  H   UNL     1      49.840  13.809  96.272  1.00  0.00     0.345 HD
ENDBRANCH   9  10
BRANCH   9  14
ATOM     14  C   UNL     1      49.542  15.507  94.530  1.00  0.00     0.099 C 
ATOM     15  O   UNL     1      50.802  15.477  94.527  1.00  0.00    -0.544 OA
ATOM     16  O   UNL     1      48.855  15.490  93.322  1.00  0.00    -0.544 OA
ENDBRANCH   9  14
ENDBRANCH   8   9
ENDBRANCH   1   8
TORSDOF 7
ENDMDL
MODEL 2
REMARK VINA RESULT:    -4.169      2.399      4.377
REMARK INTER + INTRA:          -5.817
REMARK INTER:                  -5.379
REMARK INTRA:                  -0.438
REMARK UNBOUND:                -0.186
REMARK SMILES [NH3+]CCCC[C@@H]([NH3+])C(=O)[O-]
REMARK SMILES IDX 4 1 3 2 2 3 1 4 5 8 6 9 7 10 8 14 9 15 10 16
REMARK H PARENT 1 5 1 6 1 7 7 11 7 12 7 13
REMARK Flexibility Score: inf
ROOT
ATOM      1  C   UNL     1      47.407  15.976  94.359  1.00  0.00     0.012 C 
ENDROOT
BRANCH   1   2
ATOM      2  C   UNL     1      48.456  16.345  95.429  1.00  0.00     0.061 C 
BRANCH   2   3
ATOM      3  C   UNL     1      49.555  15.281  95.604  1.00  0.00     0.258 C 
BRANCH   3   4
ATOM      4  N   UNL     1      49.452  14.580  96.885  1.00  0.00    -0.358 N 
ATOM      5  H   UNL     1      49.038  15.208  97.612  1.00  0.00     0.344 HD
ATOM      6  H   UNL     1      50.393  14.244  97.190  1.00  0.00     0.344 HD
ATOM      7  H   UNL     1      48.830  13.750  96.767  1.00  0.00     0.344 HD
ENDBRANCH   3   4
ENDBRANCH   2   3
ENDBRANCH   1   2
BRANCH   1   8
ATOM      8  C   UNL     1      47.716  14.628  93.683  1.00  0.00     0.072 C 
BRANCH   8   9
ATOM      9  C   UNL     1      46.527  13.643  93.749  1.00  0.00     0.227 C 
BRANCH   9  10
ATOM     10  N   UNL     1      46.416  12.839  92.523  1.00  0.00    -0.350 N 
ATOM     11  H   UNL     1      46.636  13.417  91.678  1.00  0.00     0.345 HD
ATOM     12  H   UNL     1      45.451  12.450  92.435  1.00  0.00     0.345 HD
ATOM     13  H   UNL     1      47.080  12.032  92.566  1.00  0.00     0.345 HD
ENDBRANCH   9  10
BRANCH   9  14
ATOM     14  C   UNL     1      46.679  12.745  94.948  1.00  0.00     0.099 C 
ATOM     15  O   UNL     1      46.725  13.230  96.109  1.00  0.00    -0.544 OA
ATOM     16  O   UNL     1      46.748  11.367  94.778  1.00  0.00    -0.544 OA
ENDBRANCH   9  14
ENDBRANCH   8   9
ENDBRANCH   1   8
TORSDOF 7
ENDMDL
MODEL 3
REMARK VINA RESULT:    -4.002     10.599     11.965
REMARK INTER + INTRA:          -5.592
REMARK INTER:                  -5.179
REMARK INTRA:                  -0.412
REMARK UNBOUND:                -0.186
REMARK SMILES [NH3+]CCCC[C@@H]([NH3+])C(=O)[O-]
REMARK SMILES IDX 4 1 3 2 2 3 1 4 5 8 6 9 7 10 8 14 9 15 10 16
REMARK H PARENT 1 5 1 6 1 7 7 11 7 12 7 13
REMARK Flexibility Score: inf
ROOT
ATOM      1  C   UNL     1      59.335  11.309  89.191  1.00  0.00     0.012 C 
ENDROOT
BRANCH   1   2
ATOM      2  C   UNL     1      59.729  10.166  90.150  1.00  0.00     0.061 C 
BRANCH   2   3
ATOM      3  C   UNL     1      60.721  10.598  91.246  1.00  0.00     0.258 C 
BRANCH   3   4
ATOM      4  N   UNL     1      60.363  11.885  91.844  1.00  0.00    -0.358 N 
ATOM      5  H   UNL     1      59.323  11.998  91.872  1.00  0.00     0.344 HD
ATOM      6  H   UNL     1      60.798  12.668  91.305  1.00  0.00     0.344 HD
ATOM      7  H   UNL     1      60.729  11.918  92.822  1.00  0.00     0.344 HD
ENDBRANCH   3   4
ENDBRANCH   2   3
ENDBRANCH   1   2
BRANCH   1   8
ATOM      8  C   UNL     1      57.864  11.212  88.747  1.00  0.00     0.072 C 
BRANCH   8   9
ATOM      9  C   UNL     1      56.976  12.299  89.393  1.00  0.00     0.227 C 
BRANCH   9  10
ATOM     10  N   UNL     1      55.634  12.334  88.793  1.00  0.00    -0.350 N 
ATOM     11  H   UNL     1      55.687  12.589  87.779  1.00  0.00     0.345 HD
ATOM     12  H   UNL     1      55.034  13.027  89.294  1.00  0.00     0.345 HD
ATOM     13  H   UNL     1      55.178  11.397  88.886  1.00  0.00     0.345 HD
ENDBRANCH   9  10
BRANCH   9  14
ATOM     14  C   UNL     1      56.875  12.055  90.876  1.00  0.00     0.099 C 
ATOM     15  O   UNL     1      57.371  12.874  91.694  1.00  0.00    -0.544 OA
ATOM     16  O   UNL     1      56.212  10.929  91.350  1.00  0.00    -0.544 OA
ENDBRANCH   9  14
ENDBRANCH   8   9
ENDBRANCH   1   8
TORSDOF 7
ENDMDL
MODEL 4
REMARK VINA RESULT:    -3.994     15.325     16.086
REMARK INTER + INTRA:          -5.581
REMARK INTER:                  -5.070
REMARK INTRA:                  -0.511
REMARK UNBOUND:                -0.186
REMARK SMILES [NH3+]CCCC[C@@H]([NH3+])C(=O)[O-]
REMARK SMILES IDX 4 1 3 2 2 3 1 4 5 8 6 9 7 10 8 14 9 15 10 16
REMARK H PARENT 1 5 1 6 1 7 7 11 7 12 7 13
REMARK Flexibility Score: inf
ROOT
ATOM      1  C   UNL     1      60.205   7.024 104.043  1.00  0.00     0.012 C 
ENDROOT
BRANCH   1   2
ATOM      2  C   UNL     1      60.676   7.231 102.588  1.00  0.00     0.061 C 
BRANCH   2   3
ATOM      3  C   UNL     1      59.624   7.909 101.692  1.00  0.00     0.258 C 
BRANCH   3   4
ATOM      4  N   UNL     1      58.655   8.689 102.464  1.00  0.00    -0.358 N 
ATOM      5  H   UNL     1      58.323   8.142 103.291  1.00  0.00     0.344 HD
ATOM      6  H   UNL     1      57.846   8.959 101.860  1.00  0.00     0.344 HD
ATOM      7  H   UNL     1      59.116   9.562 102.804  1.00  0.00     0.344 HD
ENDBRANCH   3   4
ENDBRANCH   2   3
ENDBRANCH   1   2
BRANCH   1   8
ATOM      8  C   UNL     1      59.649   5.609 104.278  1.00  0.00     0.072 C 
BRANCH   8   9
ATOM      9  C   UNL     1      58.282   5.620 104.999  1.00  0.00     0.227 C 
BRANCH   9  10
ATOM     10  N   UNL     1      58.046   6.891 105.700  1.00  0.00    -0.350 N 
ATOM     11  H   UNL     1      57.034   6.997 105.945  1.00  0.00     0.345 HD
ATOM     12  H   UNL     1      58.344   7.692 105.100  1.00  0.00     0.345 HD
ATOM     13  H   UNL     1      58.615   6.924 106.577  1.00  0.00     0.345 HD
ENDBRANCH   9  10
BRANCH   9  14
ATOM     14  C   UNL     1      57.182   5.362 104.004  1.00  0.00     0.099 C 
ATOM     15  O   UNL     1      56.944   6.191 103.085  1.00  0.00    -0.544 OA
ATOM     16  O   UNL     1      56.436   4.193 104.082  1.00  0.00    -0.544 OA
ENDBRANCH   9  14
ENDBRANCH   8   9
ENDBRANCH   1   8
TORSDOF 7
ENDMDL
MODEL 5
REMARK VINA RESULT:    -3.925      1.335      1.680
REMARK INTER + INTRA:          -5.489
REMARK INTER:                  -5.366
REMARK INTRA:                  -0.122
REMARK UNBOUND:                -0.186
REMARK SMILES [NH3+]CCCC[C@@H]([NH3+])C(=O)[O-]
REMARK SMILES IDX 4 1 3 2 2 3 1 4 5 8 6 9 7 10 8 14 9 15 10 16
REMARK H PARENT 1 5 1 6 1 7 7 11 7 12 7 13
REMARK Flexibility Score: inf
ROOT
ATOM      1  C   UNL     1      47.776  14.126  95.079  1.00  0.00     0.012 C 
ENDROOT
BRANCH   1   2
ATOM      2  C   UNL     1      46.596  13.458  95.816  1.00  0.00     0.061 C 
BRANCH   2   3
ATOM      3  C   UNL     1      46.234  12.067  95.263  1.00  0.00     0.258 C 
BRANCH   3   4
ATOM      4  N   UNL     1      46.527  11.943  93.834  1.00  0.00    -0.358 N 
ATOM      5  H   UNL     1      47.374  11.349  93.685  1.00  0.00     0.344 HD
ATOM      6  H   UNL     1      46.668  12.889  93.411  1.00  0.00     0.344 HD
ATOM      7  H   UNL     1      45.714  11.491  93.360  1.00  0.00     0.344 HD
ENDBRANCH   3   4
ENDBRANCH   2   3
ENDBRANCH   1   2
BRANCH   1   8
ATOM      8  C   UNL     1      47.946  15.603  95.475  1.00  0.00     0.072 C 
BRANCH   8   9
ATOM      9  C   UNL     1      49.225  15.852  96.306  1.00  0.00     0.227 C 
BRANCH   9  10
ATOM     10  N   UNL     1      49.884  14.592  96.683  1.00  0.00    -0.350 N 
ATOM     11  H   UNL     1      49.796  14.420  97.712  1.00  0.00     0.345 HD
ATOM     12  H   UNL     1      50.895  14.624  96.422  1.00  0.00     0.345 HD
ATOM     13  H   UNL     1      49.449  13.795  96.165  1.00  0.00     0.345 HD
ENDBRANCH   9  10
BRANCH   9  14
ATOM     14  C   UNL     1      50.175  16.721  95.526  1.00  0.00     0.099 C 
ATOM     15  O   UNL     1      50.421  16.474  94.315  1.00  0.00    -0.544 OA
ATOM     16  O   UNL     1      50.770  17.820  96.135  1.00  0.00    -0.544 OA
ENDBRANCH   9  14
ENDBRANCH   8   9
ENDBRANCH   1   8
TORSDOF 7
ENDMDL
MODEL 6
REMARK VINA RESULT:    -3.923     10.054     11.356
REMARK INTER + INTRA:          -5.486
REMARK INTER:                  -5.313
REMARK INTRA:                  -0.173
REMARK UNBOUND:                -0.186
REMARK SMILES [NH3+]CCCC[C@@H]([NH3+])C(=O)[O-]
REMARK SMILES IDX 4 1 3 2 2 3 1 4 5 8 6 9 7 10 8 14 9 15 10 16
REMARK H PARENT 1 5 1 6 1 7 7 11 7 12 7 13
REMARK Flexibility Score: inf
ROOT
ATOM      1  C   UNL     1      57.454  10.702  89.360  1.00  0.00     0.012 C 
ENDROOT
BRANCH   1   2
ATOM      2  C   UNL     1      58.888  11.244  89.181  1.00  0.00     0.061 C 
BRANCH   2   3
ATOM      3  C   UNL     1      59.847  10.827  90.311  1.00  0.00     0.258 C 
BRANCH   3   4
ATOM      4  N   UNL     1      61.250  10.867  89.894  1.00  0.00    -0.358 N 
ATOM      5  H   UNL     1      61.872  10.554  90.674  1.00  0.00     0.344 HD
ATOM      6  H   UNL     1      61.509  11.833  89.590  1.00  0.00     0.344 HD
ATOM      7  H   UNL     1      61.380  10.223  89.082  1.00  0.00     0.344 HD
ENDBRANCH   3   4
ENDBRANCH   2   3
ENDBRANCH   1   2
BRANCH   1   8
ATOM      8  C   UNL     1      57.244  10.059  90.742  1.00  0.00     0.072 C 
BRANCH   8   9
ATOM      9  C   UNL     1      55.932  10.519  91.418  1.00  0.00     0.227 C 
BRANCH   9  10
ATOM     10  N   UNL     1      55.080   9.378  91.784  1.00  0.00    -0.350 N 
ATOM     11  H   UNL     1      54.857   8.795  90.944  1.00  0.00     0.345 HD
ATOM     12  H   UNL     1      54.191   9.719  92.216  1.00  0.00     0.345 HD
ATOM     13  H   UNL     1      55.567   8.784  92.493  1.00  0.00     0.345 HD
ENDBRANCH   9  10
BRANCH   9  14
ATOM     14  C   UNL     1      56.253  11.341  92.637  1.00  0.00     0.099 C 
ATOM     15  O   UNL     1      56.877  12.430  92.529  1.00  0.00    -0.544 OA
ATOM     16  O   UNL     1      55.838  10.912  93.892  1.00  0.00    -0.544 OA
ENDBRANCH   9  14
ENDBRANCH   8   9
ENDBRANCH   1   8
TORSDOF 7
ENDMDL
MODEL 7
REMARK VINA RESULT:    -3.886      8.839      9.560
REMARK INTER + INTRA:          -5.436
REMARK INTER:                  -5.223
REMARK INTRA:                  -0.212
REMARK UNBOUND:                -0.186
REMARK SMILES [NH3+]CCCC[C@@H]([NH3+])C(=O)[O-]
REMARK SMILES IDX 4 1 3 2 2 3 1 4 5 8 6 9 7 10 8 14 9 15 10 16
REMARK H PARENT 1 5 1 6 1 7 7 11 7 12 7 13
REMARK Flexibility Score: inf
ROOT
ATOM      1  C   UNL     1      54.832   8.683  95.822  1.00  0.00     0.012 C 
ENDROOT
BRANCH   1   2
ATOM      2  C   UNL     1      54.632   9.438  94.491  1.00  0.00     0.061 C 
BRANCH   2   3
ATOM      3  C   UNL     1      54.185   8.531  93.331  1.00  0.00     0.258 C 
BRANCH   3   4
ATOM      4  N   UNL     1      54.177   9.233  92.047  1.00  0.00    -0.358 N 
ATOM      5  H   UNL     1      53.225   9.618  91.847  1.00  0.00     0.344 HD
ATOM      6  H   UNL     1      54.475   8.588  91.280  1.00  0.00     0.344 HD
ATOM      7  H   UNL     1      54.855  10.026  92.090  1.00  0.00     0.344 HD
ENDBRANCH   3   4
ENDBRANCH   2   3
ENDBRANCH   1   2
BRANCH   1   8
ATOM      8  C   UNL     1      54.601   7.169  95.670  1.00  0.00     0.072 C 
BRANCH   8   9
ATOM      9  C   UNL     1      53.520   6.633  96.635  1.00  0.00     0.227 C 
BRANCH   9  10
ATOM     10  N   UNL     1      52.698   7.718  97.191  1.00  0.00    -0.350 N 
ATOM     11  H   UNL     1      51.814   7.341  97.604  1.00  0.00     0.345 HD
ATOM     12  H   UNL     1      52.465   8.411  96.444  1.00  0.00     0.345 HD
ATOM     13  H   UNL     1      53.233   8.224  97.934  1.00  0.00     0.345 HD
ENDBRANCH   9  10
BRANCH   9  14
ATOM     14  C   UNL     1      52.648   5.638  95.916  1.00  0.00     0.099 C 
ATOM     15  O   UNL     1      52.267   4.585  96.494  1.00  0.00    -0.544 OA
ATOM     16  O   UNL     1      52.240   5.888  94.611  1.00  0.00    -0.544 OA
ENDBRANCH   9  14
ENDBRANCH   8   9
ENDBRANCH   1   8
TORSDOF 7
ENDMDL
MODEL 8
REMARK VINA RESULT:    -3.877     10.389     11.651
REMARK INTER + INTRA:          -5.423
REMARK INTER:                  -5.183
REMARK INTRA:                  -0.240
REMARK UNBOUND:                -0.186
REMARK SMILES [NH3+]CCCC[C@@H]([NH3+])C(=O)[O-]
REMARK SMILES IDX 4 1 3 2 2 3 1 4 5 8 6 9 7 10 8 14 9 15 10 16
REMARK H PARENT 1 5 1 6 1 7 7 11 7 12 7 13
REMARK Flexibility Score: inf
ROOT
ATOM      1  C   UNL     1      57.691  10.428  89.733  1.00  0.00     0.012 C 
ENDROOT
BRANCH   1   2
ATOM      2  C   UNL     1      58.958   9.748  90.291  1.00  0.00     0.061 C 
BRANCH   2   3
ATOM      3  C   UNL     1      59.961  10.735  90.915  1.00  0.00     0.258 C 
BRANCH   3   4
ATOM      4  N   UNL     1      61.247  10.740  90.215  1.00  0.00    -0.358 N 
ATOM      5  H   UNL     1      61.137  11.135  89.253  1.00  0.00     0.344 HD
ATOM      6  H   UNL     1      61.635   9.770  90.166  1.00  0.00     0.344 HD
ATOM      7  H   UNL     1      61.920  11.336  90.747  1.00  0.00     0.344 HD
ENDBRANCH   3   4
ENDBRANCH   2   3
ENDBRANCH   1   2
BRANCH   1   8
ATOM      8  C   UNL     1      57.998  11.793  89.091  1.00  0.00     0.072 C 
BRANCH   8   9
ATOM      9  C   UNL     1      56.830  12.794  89.234  1.00  0.00     0.227 C 
BRANCH   9  10
ATOM     10  N   UNL     1      55.636  12.346  88.500  1.00  0.00    -0.350 N 
ATOM     11  H   UNL     1      54.911  11.977  89.159  1.00  0.00     0.345 HD
ATOM     12  H   UNL     1      55.894  11.601  87.815  1.00  0.00     0.345 HD
ATOM     13  H   UNL     1      55.231  13.145  87.960  1.00  0.00     0.345 HD
ENDBRANCH   9  10
BRANCH   9  14
ATOM     14  C   UNL     1      56.502  12.986  90.691  1.00  0.00     0.099 C 
ATOM     15  O   UNL     1      55.340  12.759  91.121  1.00  0.00    -0.544 OA
ATOM     16  O   UNL     1      57.492  13.395  91.576  1.00  0.00    -0.544 OA
ENDBRANCH   9  14
ENDBRANCH   8   9
ENDBRANCH   1   8
TORSDOF 7
ENDMDL
MODEL 9
REMARK VINA RESULT:    -3.816      9.503     10.621
REMARK INTER + INTRA:          -5.340
REMARK INTER:                  -4.782
REMARK INTRA:                  -0.559
REMARK UNBOUND:                -0.186
REMARK SMILES [NH3+]CCCC[C@@H]([NH3+])C(=O)[O-]
REMARK SMILES IDX 4 1 3 2 2 3 1 4 5 8 6 9 7 10 8 14 9 15 10 16
REMARK H PARENT 1 5 1 6 1 7 7 11 7 12 7 13
REMARK Flexibility Score: inf
ROOT
ATOM      1  C   UNL     1      58.341  11.316  89.038  1.00  0.00     0.012 C 
ENDROOT
BRANCH   1   2
ATOM      2  C   UNL     1      58.407  10.296  90.194  1.00  0.00     0.061 C 
BRANCH   2   3
ATOM      3  C   UNL     1      57.183   9.365  90.263  1.00  0.00     0.258 C 
BRANCH   3   4
ATOM      4  N   UNL     1      56.138   9.885  91.147  1.00  0.00    -0.358 N 
ATOM      5  H   UNL     1      56.559  10.473  91.902  1.00  0.00     0.344 HD
ATOM      6  H   UNL     1      55.593   9.096  91.564  1.00  0.00     0.344 HD
ATOM      7  H   UNL     1      55.484  10.476  90.588  1.00  0.00     0.344 HD
ENDBRANCH   3   4
ENDBRANCH   2   3
ENDBRANCH   1   2
BRANCH   1   8
ATOM      8  C   UNL     1      58.089  12.749  89.542  1.00  0.00     0.072 C 
BRANCH   8   9
ATOM      9  C   UNL     1      56.656  13.241  89.240  1.00  0.00     0.227 C 
BRANCH   9  10
ATOM     10  N   UNL     1      55.884  12.243  88.485  1.00  0.00    -0.350 N 
ATOM     11  H   UNL     1      56.114  11.274  88.806  1.00  0.00     0.345 HD
ATOM     12  H   UNL     1      56.088  12.329  87.464  1.00  0.00     0.345 HD
ATOM     13  H   UNL     1      54.860  12.412  88.618  1.00  0.00     0.345 HD
ENDBRANCH   9  10
BRANCH   9  14
ATOM     14  C   UNL     1      55.954  13.575  90.529  1.00  0.00     0.099 C 
ATOM     15  O   UNL     1      55.672  12.669  91.358  1.00  0.00    -0.544 OA
ATOM     16  O   UNL     1      55.632  14.895  90.823  1.00  0.00    -0.544 OA
ENDBRANCH   9  14
ENDBRANCH   8   9
ENDBRANCH   1   8
TORSDOF 7
ENDMDL
