MODEL 1
REMARK VINA RESULT:    -4.527      0.000      0.000
REMARK INTER + INTRA:          -7.082
REMARK INTER:                  -6.908
REMARK INTRA:                  -0.174
REMARK UNBOUND:                -0.174
REMARK SMILES CC1=CCC[C@@H](C)C(=O)C[C@H](C(C)C)C(=O)C1
REMARK SMILES IDX 8 1 9 2 6 3 7 4 5 5 4 6 3 7 2 8 1 9 10 11 11 12 15 13 16 14
REMARK SMILES IDX 17 15 12 17 13 18 14 19
REMARK H PARENT
REMARK Flexibility Score: 70.00
ROOT
ATOM      1  C   UNL     1      -3.372  13.656 -31.723  1.00  0.00     0.136 C 
ATOM      2  O   UNL     1      -2.603  14.381 -32.339  1.00  0.00    -0.299 OA
ENDROOT
BRANCH   1   3
ATOM      3  C   UNL     1      -4.860  13.942 -31.757  1.00  0.00     0.053 C 
ATOM      4  C   UNL     1      -5.297  14.362 -33.168  1.00  0.00     0.016 C 
BRANCH   3   5
ATOM      5  C   UNL     1      -5.219  15.030 -30.720  1.00  0.00     0.015 C 
BRANCH   5   6
ATOM      6  C   UNL     1      -6.133  14.490 -29.601  1.00  0.00     0.028 C 
BRANCH   6   7
ATOM      7  C   UNL     1      -5.521  14.703 -28.241  1.00  0.00    -0.028 C 
ATOM      8  C   UNL     1      -4.686  13.840 -27.618  1.00  0.00    -0.070 CG0
ATOM      9  C   UNL     1      -4.119  14.246 -26.281  1.00  0.00     0.039 C 
ATOM     10  G   UNL     1      -4.285  12.495 -28.205  1.00  0.00     0.000 G0
ENDBRANCH   6   7
ENDBRANCH   5   6
ENDBRANCH   3   5
ENDBRANCH   1   3
BRANCH   1  11
ATOM     11  C   UNL     1      -2.817  12.487 -30.943  1.00  0.00     0.087 C 
BRANCH  11  12
ATOM     12  C   UNL     1      -2.093  12.930 -29.645  1.00  0.00     0.066 C 
BRANCH  12  13
ATOM     13  C   UNL     1      -2.789  12.363 -28.413  1.00  0.00     0.140 C 
ATOM     14  O   UNL     1      -2.124  11.740 -27.597  1.00  0.00    -0.299 OA
BRANCH  13  15
ATOM     15  C   UNL     1      -4.282  12.485 -28.210  1.00  0.00     0.106 CG0
ATOM     16  G   UNL     1      -4.676  13.836 -27.631  1.00  0.00     0.000 G0
ENDBRANCH  13  15
ENDBRANCH  12  13
BRANCH  12  17
ATOM     17  C   UNL     1      -0.567  12.591 -29.650  1.00  0.00    -0.006 C 
ATOM     18  C   UNL     1      -0.022  12.357 -31.070  1.00  0.00     0.008 C 
ATOM     19  C   UNL     1       0.251  13.713 -28.986  1.00  0.00     0.008 C 
ENDBRANCH  12  17
ENDBRANCH  11  12
ENDBRANCH   1  11
TORSDOF 1
ENDMDL
MODEL 2
REMARK VINA RESULT:    -4.475      1.678      3.560
REMARK INTER + INTRA:          -7.004
REMARK INTER:                  -8.195
REMARK INTRA:                   1.191
REMARK UNBOUND:                -0.174
REMARK SMILES CC1=CCC[C@@H](C)C(=O)C[C@H](C(C)C)C(=O)C1
REMARK SMILES IDX 8 1 9 2 6 3 7 4 5 5 4 6 3 7 2 8 1 9 10 11 11 12 15 13 16 14
REMARK SMILES IDX 17 15 12 17 13 18 14 19
REMARK H PARENT
REMARK Flexibility Score: 70.00
ROOT
ATOM      1  C   UNL     1      -1.080  13.000 -29.275  1.00  0.00     0.136 C 
ATOM      2  O   UNL     1      -0.020  12.605 -28.809  1.00  0.00    -0.299 OA
ENDROOT
BRANCH   1   3
ATOM      3  C   UNL     1      -1.517  12.526 -30.647  1.00  0.00     0.053 C 
ATOM      4  C   UNL     1      -0.296  12.197 -31.518  1.00  0.00     0.016 C 
BRANCH   3   5
ATOM      5  C   UNL     1      -2.406  13.593 -31.322  1.00  0.00     0.015 C 
BRANCH   5   6
ATOM      6  C   UNL     1      -3.874  13.135 -31.448  1.00  0.00     0.028 C 
BRANCH   6   7
ATOM      7  C   UNL     1      -4.826  14.205 -30.981  1.00  0.00    -0.028 C 
ATOM      8  C   UNL     1      -5.394  14.261 -29.755  1.00  0.00    -0.070 CG0
ATOM      9  C   UNL     1      -6.278  15.442 -29.439  1.00  0.00     0.039 C 
ATOM     10  G   UNL     1      -5.176  13.204 -28.683  1.00  0.00     0.000 G0
ENDBRANCH   6   7
ENDBRANCH   5   6
ENDBRANCH   3   5
ENDBRANCH   1   3
BRANCH   1  11
ATOM     11  C   UNL     1      -1.931  13.951 -28.467  1.00  0.00     0.087 C 
BRANCH  11  12
ATOM     12  C   UNL     1      -2.825  13.215 -27.435  1.00  0.00     0.066 C 
BRANCH  12  13
ATOM     13  C   UNL     1      -4.276  13.668 -27.553  1.00  0.00     0.140 C 
ATOM     14  O   UNL     1      -4.741  14.387 -26.679  1.00  0.00    -0.299 OA
BRANCH  13  15
ATOM     15  C   UNL     1      -5.174  13.197 -28.676  1.00  0.00     0.106 CG0
ATOM     16  G   UNL     1      -5.384  14.270 -29.734  1.00  0.00     0.000 G0
ENDBRANCH  13  15
ENDBRANCH  12  13
BRANCH  12  17
ATOM     17  C   UNL     1      -2.701  11.660 -27.517  1.00  0.00    -0.006 C 
ATOM     18  C   UNL     1      -2.727  10.995 -26.129  1.00  0.00     0.008 C 
ATOM     19  C   UNL     1      -3.832  11.059 -28.373  1.00  0.00     0.008 C 
ENDBRANCH  12  17
ENDBRANCH  11  12
ENDBRANCH   1  11
TORSDOF 1
ENDMDL
MODEL 3
REMARK VINA RESULT:    -4.240      2.209      4.272
REMARK INTER + INTRA:          -6.645
REMARK INTER:                  -6.605
REMARK INTRA:                  -0.039
REMARK UNBOUND:                -0.174
REMARK SMILES CC1=CCC[C@@H](C)C(=O)C[C@H](C(C)C)C(=O)C1
REMARK SMILES IDX 8 1 9 2 6 3 7 4 5 5 4 6 3 7 2 8 1 9 10 11 11 12 15 13 16 14
REMARK SMILES IDX 17 15 12 17 13 18 14 19
REMARK H PARENT
REMARK Flexibility Score: 70.00
ROOT
ATOM      1  C   UNL     1      -4.374  13.870 -29.700  1.00  0.00     0.136 C 
ATOM      2  O   UNL     1      -5.569  14.115 -29.601  1.00  0.00    -0.299 OA
ENDROOT
BRANCH   1   3
ATOM      3  C   UNL     1      -3.840  13.256 -30.979  1.00  0.00     0.053 C 
ATOM      4  C   UNL     1      -4.419  13.974 -32.206  1.00  0.00     0.016 C 
BRANCH   3   5
ATOM      5  C   UNL     1      -4.160  11.745 -31.020  1.00  0.00     0.015 C 
BRANCH   5   6
ATOM      6  C   UNL     1      -2.912  10.877 -30.757  1.00  0.00     0.028 C 
BRANCH   6   7
ATOM      7  C   UNL     1      -1.681  11.483 -31.378  1.00  0.00    -0.028 C 
ATOM      8  C   UNL     1      -0.593  11.908 -30.695  1.00  0.00    -0.070 CG0
ATOM      9  C   UNL     1       0.578  12.434 -31.488  1.00  0.00     0.039 C 
ATOM     10  G   UNL     1      -0.490  11.869 -29.178  1.00  0.00     0.000 G0
ENDBRANCH   6   7
ENDBRANCH   5   6
ENDBRANCH   3   5
ENDBRANCH   1   3
BRANCH   1  11
ATOM     11  C   UNL     1      -3.458  14.191 -28.543  1.00  0.00     0.087 C 
BRANCH  11  12
ATOM     12  C   UNL     1      -2.651  12.955 -28.065  1.00  0.00     0.066 C 
BRANCH  12  13
ATOM     13  C   UNL     1      -1.198  13.047 -28.515  1.00  0.00     0.140 C 
ATOM     14  O   UNL     1      -0.613  14.115 -28.400  1.00  0.00    -0.299 OA
BRANCH  13  15
ATOM     15  C   UNL     1      -0.484  11.881 -29.163  1.00  0.00     0.106 CG0
ATOM     16  G   UNL     1      -0.592  11.913 -30.681  1.00  0.00     0.000 G0
ENDBRANCH  13  15
ENDBRANCH  12  13
BRANCH  12  17
ATOM     17  C   UNL     1      -2.761  12.711 -26.525  1.00  0.00    -0.006 C 
ATOM     18  C   UNL     1      -3.850  13.580 -25.870  1.00  0.00     0.008 C 
ATOM     19  C   UNL     1      -3.059  11.232 -26.219  1.00  0.00     0.008 C 
ENDBRANCH  12  17
ENDBRANCH  11  12
ENDBRANCH   1  11
TORSDOF 1
ENDMDL
MODEL 4
REMARK VINA RESULT:    -4.157      1.409      3.907
REMARK INTER + INTRA:          -6.519
REMARK INTER:                  -6.807
REMARK INTRA:                   0.288
REMARK UNBOUND:                -0.174
REMARK SMILES CC1=CCC[C@@H](C)C(=O)C[C@H](C(C)C)C(=O)C1
REMARK SMILES IDX 8 1 9 2 6 3 7 4 5 5 4 6 3 7 2 8 1 9 10 11 11 12 15 13 16 14
REMARK SMILES IDX 17 15 12 17 13 18 14 19
REMARK H PARENT
REMARK Flexibility Score: 70.00
ROOT
ATOM      1  C   UNL     1      -2.611  13.077 -27.764  1.00  0.00     0.136 C 
ATOM      2  O   UNL     1      -2.488  11.861 -27.729  1.00  0.00    -0.299 OA
ENDROOT
BRANCH   1   3
ATOM      3  C   UNL     1      -3.499  13.770 -26.750  1.00  0.00     0.053 C 
ATOM      4  C   UNL     1      -3.873  12.808 -25.613  1.00  0.00     0.016 C 
BRANCH   3   5
ATOM      5  C   UNL     1      -4.763  14.329 -27.439  1.00  0.00     0.015 C 
BRANCH   5   6
ATOM      6  C   UNL     1      -5.172  13.495 -28.671  1.00  0.00     0.028 C 
BRANCH   6   7
ATOM      7  C   UNL     1      -5.348  14.364 -29.889  1.00  0.00    -0.028 C 
ATOM      8  C   UNL     1      -4.782  14.137 -31.097  1.00  0.00    -0.070 CG0
ATOM      9  C   UNL     1      -5.118  15.082 -32.223  1.00  0.00     0.039 C 
ATOM     10  G   UNL     1      -3.840  12.976 -31.373  1.00  0.00     0.000 G0
ENDBRANCH   6   7
ENDBRANCH   5   6
ENDBRANCH   3   5
ENDBRANCH   1   3
BRANCH   1  11
ATOM     11  C   UNL     1      -1.870  13.862 -28.821  1.00  0.00     0.087 C 
BRANCH  11  12
ATOM     12  C   UNL     1      -1.513  12.999 -30.060  1.00  0.00     0.066 C 
BRANCH  12  13
ATOM     13  C   UNL     1      -2.376  13.383 -31.256  1.00  0.00     0.140 C 
ATOM     14  O   UNL     1      -1.891  14.092 -32.128  1.00  0.00    -0.299 OA
BRANCH  13  15
ATOM     15  C   UNL     1      -3.828  12.976 -31.361  1.00  0.00     0.106 CG0
ATOM     16  G   UNL     1      -4.773  14.137 -31.090  1.00  0.00     0.000 G0
ENDBRANCH  13  15
ENDBRANCH  12  13
BRANCH  12  17
ATOM     17  C   UNL     1       0.009  13.036 -30.413  1.00  0.00    -0.006 C 
ATOM     18  C   UNL     1       0.904  12.928 -29.166  1.00  0.00     0.008 C 
ATOM     19  C   UNL     1       0.378  11.901 -31.387  1.00  0.00     0.008 C 
ENDBRANCH  12  17
ENDBRANCH  11  12
ENDBRANCH   1  11
TORSDOF 1
ENDMDL
MODEL 5
REMARK VINA RESULT:    -4.045      1.966      5.117
REMARK INTER + INTRA:          -6.348
REMARK INTER:                  -7.138
REMARK INTRA:                   0.790
REMARK UNBOUND:                -0.174
REMARK SMILES CC1=CCC[C@@H](C)C(=O)C[C@H](C(C)C)C(=O)C1
REMARK SMILES IDX 8 1 9 2 6 3 7 4 5 5 4 6 3 7 2 8 1 9 10 11 11 12 15 13 16 14
REMARK SMILES IDX 17 15 12 17 13 18 14 19
REMARK H PARENT
REMARK Flexibility Score: 70.00
ROOT
ATOM      1  C   UNL     1      -3.365  11.302 -28.529  1.00  0.00     0.136 C 
ATOM      2  O   UNL     1      -3.118  10.241 -29.084  1.00  0.00    -0.299 OA
ENDROOT
BRANCH   1   3
ATOM      3  C   UNL     1      -2.390  11.859 -27.510  1.00  0.00     0.053 C 
ATOM      4  C   UNL     1      -2.797  11.442 -26.090  1.00  0.00     0.016 C 
BRANCH   3   5
ATOM      5  C   UNL     1      -2.308  13.397 -27.633  1.00  0.00     0.015 C 
BRANCH   5   6
ATOM      6  C   UNL     1      -1.036  13.856 -28.375  1.00  0.00     0.028 C 
BRANCH   6   7
ATOM      7  C   UNL     1      -0.602  12.841 -29.401  1.00  0.00    -0.028 C 
ATOM      8  C   UNL     1      -1.097  12.742 -30.656  1.00  0.00    -0.070 CG0
ATOM      9  C   UNL     1      -0.500  11.701 -31.570  1.00  0.00     0.039 C 
ATOM     10  G   UNL     1      -2.210  13.631 -31.189  1.00  0.00     0.000 G0
ENDBRANCH   6   7
ENDBRANCH   5   6
ENDBRANCH   3   5
ENDBRANCH   1   3
BRANCH   1  11
ATOM     11  C   UNL     1      -4.639  12.037 -28.875  1.00  0.00     0.087 C 
BRANCH  11  12
ATOM     12  C   UNL     1      -4.375  13.331 -29.689  1.00  0.00     0.066 C 
BRANCH  12  13
ATOM     13  C   UNL     1      -3.585  13.024 -30.956  1.00  0.00     0.140 C 
ATOM     14  O   UNL     1      -4.050  12.229 -31.761  1.00  0.00    -0.299 OA
BRANCH  13  15
ATOM     15  C   UNL     1      -2.216  13.616 -31.210  1.00  0.00     0.106 CG0
ATOM     16  G   UNL     1      -1.100  12.745 -30.655  1.00  0.00     0.000 G0
ENDBRANCH  13  15
ENDBRANCH  12  13
BRANCH  12  17
ATOM     17  C   UNL     1      -5.679  14.131 -30.005  1.00  0.00    -0.006 C 
ATOM     18  C   UNL     1      -6.226  14.874 -28.773  1.00  0.00     0.008 C 
ATOM     19  C   UNL     1      -5.441  15.154 -31.132  1.00  0.00     0.008 C 
ENDBRANCH  12  17
ENDBRANCH  11  12
ENDBRANCH   1  11
TORSDOF 1
ENDMDL
MODEL 6
REMARK VINA RESULT:    -4.031      1.984      4.310
REMARK INTER + INTRA:          -6.326
REMARK INTER:                  -7.708
REMARK INTRA:                   1.382
REMARK UNBOUND:                -0.174
REMARK SMILES CC1=CCC[C@@H](C)C(=O)C[C@H](C(C)C)C(=O)C1
REMARK SMILES IDX 8 1 9 2 6 3 7 4 5 5 4 6 3 7 2 8 1 9 10 11 11 12 15 13 16 14
REMARK SMILES IDX 17 15 12 17 13 18 14 19
REMARK H PARENT
REMARK Flexibility Score: 70.00
ROOT
ATOM      1  C   UNL     1      -1.213  13.310 -29.450  1.00  0.00     0.136 C 
ATOM      2  O   UNL     1      -0.270  12.809 -28.854  1.00  0.00    -0.299 OA
ENDROOT
BRANCH   1   3
ATOM      3  C   UNL     1      -1.215  13.330 -30.966  1.00  0.00     0.053 C 
ATOM      4  C   UNL     1      -2.592  13.752 -31.498  1.00  0.00     0.016 C 
BRANCH   3   5
ATOM      5  C   UNL     1      -0.809  11.946 -31.519  1.00  0.00     0.015 C 
BRANCH   5   6
ATOM      6  C   UNL     1      -1.155  10.803 -30.542  1.00  0.00     0.028 C 
BRANCH   6   7
ATOM      7  C   UNL     1      -2.602  10.400 -30.659  1.00  0.00    -0.028 C 
ATOM      8  C   UNL     1      -3.448  10.221 -29.618  1.00  0.00    -0.070 CG0
ATOM      9  C   UNL     1      -4.883   9.875 -29.926  1.00  0.00     0.039 C 
ATOM     10  G   UNL     1      -3.026  10.365 -28.164  1.00  0.00     0.000 G0
ENDBRANCH   6   7
ENDBRANCH   5   6
ENDBRANCH   3   5
ENDBRANCH   1   3
BRANCH   1  11
ATOM     11  C   UNL     1      -2.359  13.896 -28.658  1.00  0.00     0.087 C 
BRANCH  11  12
ATOM     12  C   UNL     1      -3.563  12.924 -28.551  1.00  0.00     0.066 C 
BRANCH  12  13
ATOM     13  C   UNL     1      -3.235  11.751 -27.634  1.00  0.00     0.140 C 
ATOM     14  O   UNL     1      -3.085  11.962 -26.439  1.00  0.00    -0.299 OA
BRANCH  13  15
ATOM     15  C   UNL     1      -3.018  10.353 -28.169  1.00  0.00     0.106 CG0
ATOM     16  G   UNL     1      -3.450  10.218 -29.621  1.00  0.00     0.000 G0
ENDBRANCH  13  15
ENDBRANCH  12  13
BRANCH  12  17
ATOM     17  C   UNL     1      -4.886  13.636 -28.120  1.00  0.00    -0.006 C 
ATOM     18  C   UNL     1      -4.658  14.679 -27.012  1.00  0.00     0.008 C 
ATOM     19  C   UNL     1      -5.556  14.329 -29.321  1.00  0.00     0.008 C 
ENDBRANCH  12  17
ENDBRANCH  11  12
ENDBRANCH   1  11
TORSDOF 1
ENDMDL
MODEL 7
REMARK VINA RESULT:    -3.987      1.524      4.050
REMARK INTER + INTRA:          -6.258
REMARK INTER:                  -6.657
REMARK INTRA:                   0.398
REMARK UNBOUND:                -0.174
REMARK SMILES CC1=CCC[C@@H](C)C(=O)C[C@H](C(C)C)C(=O)C1
REMARK SMILES IDX 8 1 9 2 6 3 7 4 5 5 4 6 3 7 2 8 1 9 10 11 11 12 15 13 16 14
REMARK SMILES IDX 17 15 12 17 13 18 14 19
REMARK H PARENT
REMARK Flexibility Score: 70.00
ROOT
ATOM      1  C   UNL     1      -1.762  12.888 -31.159  1.00  0.00     0.136 C 
ATOM      2  O   UNL     1      -2.152  11.798 -31.555  1.00  0.00    -0.299 OA
ENDROOT
BRANCH   1   3
ATOM      3  C   UNL     1      -0.350  13.029 -30.626  1.00  0.00     0.053 C 
ATOM      4  C   UNL     1       0.616  12.131 -31.412  1.00  0.00     0.016 C 
BRANCH   3   5
ATOM      5  C   UNL     1      -0.312  12.695 -29.118  1.00  0.00     0.015 C 
BRANCH   5   6
ATOM      6  C   UNL     1      -1.657  12.132 -28.612  1.00  0.00     0.028 C 
BRANCH   6   7
ATOM      7  C   UNL     1      -2.368  13.124 -27.729  1.00  0.00    -0.028 C 
ATOM      8  C   UNL     1      -3.685  13.429 -27.803  1.00  0.00    -0.070 CG0
ATOM      9  C   UNL     1      -4.242  14.403 -26.795  1.00  0.00     0.039 C 
ATOM     10  G   UNL     1      -4.624  12.830 -28.839  1.00  0.00     0.000 G0
ENDBRANCH   6   7
ENDBRANCH   5   6
ENDBRANCH   3   5
ENDBRANCH   1   3
BRANCH   1  11
ATOM     11  C   UNL     1      -2.700  14.071 -31.215  1.00  0.00     0.087 C 
BRANCH  11  12
ATOM     12  C   UNL     1      -4.186  13.645 -31.341  1.00  0.00     0.066 C 
BRANCH  12  13
ATOM     13  C   UNL     1      -4.905  13.779 -30.004  1.00  0.00     0.140 C 
ATOM     14  O   UNL     1      -5.681  14.711 -29.845  1.00  0.00    -0.299 OA
BRANCH  13  15
ATOM     15  C   UNL     1      -4.633  12.840 -28.850  1.00  0.00     0.106 CG0
ATOM     16  G   UNL     1      -3.703  13.454 -27.815  1.00  0.00     0.000 G0
ENDBRANCH  13  15
ENDBRANCH  12  13
BRANCH  12  17
ATOM     17  C   UNL     1      -4.944  14.400 -32.480  1.00  0.00    -0.006 C 
ATOM     18  C   UNL     1      -4.213  15.681 -32.922  1.00  0.00     0.008 C 
ATOM     19  C   UNL     1      -5.141  13.494 -33.709  1.00  0.00     0.008 C 
ENDBRANCH  12  17
ENDBRANCH  11  12
ENDBRANCH   1  11
TORSDOF 1
ENDMDL
MODEL 8
REMARK VINA RESULT:    -3.937      1.912      5.356
REMARK INTER + INTRA:          -6.182
REMARK INTER:                  -6.191
REMARK INTRA:                   0.008
REMARK UNBOUND:                -0.174
REMARK SMILES CC1=CCC[C@@H](C)C(=O)C[C@H](C(C)C)C(=O)C1
REMARK SMILES IDX 8 1 9 2 6 3 7 4 5 5 4 6 3 7 2 8 1 9 10 11 11 12 15 13 16 14
REMARK SMILES IDX 17 15 12 17 13 18 14 19
REMARK H PARENT
REMARK Flexibility Score: 70.00
ROOT
ATOM      1  C   UNL     1      -3.956  13.123 -27.494  1.00  0.00     0.136 C 
ATOM      2  O   UNL     1      -3.287  14.127 -27.294  1.00  0.00    -0.299 OA
ENDROOT
BRANCH   1   3
ATOM      3  C   UNL     1      -3.500  11.793 -26.927  1.00  0.00     0.053 C 
ATOM      4  C   UNL     1      -3.368  11.874 -25.399  1.00  0.00     0.016 C 
BRANCH   3   5
ATOM      5  C   UNL     1      -2.164  11.367 -27.575  1.00  0.00     0.015 C 
BRANCH   5   6
ATOM      6  C   UNL     1      -2.339  10.944 -29.048  1.00  0.00     0.028 C 
BRANCH   6   7
ATOM      7  C   UNL     1      -1.793  11.988 -29.988  1.00  0.00    -0.028 C 
ATOM      8  C   UNL     1      -2.539  12.773 -30.799  1.00  0.00    -0.070 CG0
ATOM      9  C   UNL     1      -1.825  13.809 -31.631  1.00  0.00     0.039 C 
ATOM     10  G   UNL     1      -4.053  12.669 -30.901  1.00  0.00     0.000 G0
ENDBRANCH   6   7
ENDBRANCH   5   6
ENDBRANCH   3   5
ENDBRANCH   1   3
BRANCH   1  11
ATOM     11  C   UNL     1      -5.229  13.235 -28.301  1.00  0.00     0.087 C 
BRANCH  11  12
ATOM     12  C   UNL     1      -5.205  14.436 -29.282  1.00  0.00     0.066 C 
BRANCH  12  13
ATOM     13  C   UNL     1      -4.752  13.996 -30.669  1.00  0.00     0.140 C 
ATOM     14  O   UNL     1      -5.012  14.711 -31.627  1.00  0.00    -0.299 OA
BRANCH  13  15
ATOM     15  C   UNL     1      -4.057  12.673 -30.903  1.00  0.00     0.106 CG0
ATOM     16  G   UNL     1      -2.544  12.789 -30.786  1.00  0.00     0.000 G0
ENDBRANCH  13  15
ENDBRANCH  12  13
BRANCH  12  17
ATOM     17  C   UNL     1      -6.565  15.205 -29.339  1.00  0.00    -0.006 C 
ATOM     18  C   UNL     1      -7.616  14.611 -28.385  1.00  0.00     0.008 C 
ATOM     19  C   UNL     1      -6.372  16.694 -28.996  1.00  0.00     0.008 C 
ENDBRANCH  12  17
ENDBRANCH  11  12
ENDBRANCH   1  11
TORSDOF 1
ENDMDL
MODEL 9
REMARK VINA RESULT:    -3.831      1.820      4.032
REMARK INTER + INTRA:          -6.021
REMARK INTER:                  -6.929
REMARK INTRA:                   0.908
REMARK UNBOUND:                -0.174
REMARK SMILES CC1=CCC[C@@H](C)C(=O)C[C@H](C(C)C)C(=O)C1
REMARK SMILES IDX 8 1 9 2 6 3 7 4 5 5 4 6 3 7 2 8 1 9 10 11 11 12 15 13 16 14
REMARK SMILES IDX 17 15 12 17 13 18 14 19
REMARK H PARENT
REMARK Flexibility Score: 70.00
ROOT
ATOM      1  C   UNL     1      -2.806  13.492 -31.178  1.00  0.00     0.136 C 
ATOM      2  O   UNL     1      -3.567  13.320 -32.120  1.00  0.00    -0.299 OA
ENDROOT
BRANCH   1   3
ATOM      3  C   UNL     1      -1.310  13.366 -31.391  1.00  0.00     0.053 C 
ATOM      4  C   UNL     1      -0.945  11.938 -31.820  1.00  0.00     0.016 C 
BRANCH   3   5
ATOM      5  C   UNL     1      -0.551  13.769 -30.107  1.00  0.00     0.015 C 
BRANCH   5   6
ATOM      6  C   UNL     1      -0.153  12.546 -29.257  1.00  0.00     0.028 C 
BRANCH   6   7
ATOM      7  C   UNL     1      -0.948  12.483 -27.979  1.00  0.00    -0.028 C 
ATOM      8  C   UNL     1      -2.128  11.839 -27.826  1.00  0.00    -0.070 CG0
ATOM      9  C   UNL     1      -2.756  11.830 -26.455  1.00  0.00     0.039 C 
ATOM     10  G   UNL     1      -2.841  11.120 -28.962  1.00  0.00     0.000 G0
ENDBRANCH   6   7
ENDBRANCH   5   6
ENDBRANCH   3   5
ENDBRANCH   1   3
BRANCH   1  11
ATOM     11  C   UNL     1      -3.377  13.831 -29.821  1.00  0.00     0.087 C 
BRANCH  11  12
ATOM     12  C   UNL     1      -4.648  13.006 -29.490  1.00  0.00     0.066 C 
BRANCH  12  13
ATOM     13  C   UNL     1      -4.285  11.575 -29.110  1.00  0.00     0.140 C 
ATOM     14  O   UNL     1      -5.185  10.785 -28.865  1.00  0.00    -0.299 OA
BRANCH  13  15
ATOM     15  C   UNL     1      -2.848  11.127 -28.958  1.00  0.00     0.106 CG0
ATOM     16  G   UNL     1      -2.137  11.849 -27.823  1.00  0.00     0.000 G0
ENDBRANCH  13  15
ENDBRANCH  12  13
BRANCH  12  17
ATOM     17  C   UNL     1      -5.548  13.678 -28.403  1.00  0.00    -0.006 C 
ATOM     18  C   UNL     1      -4.722  14.342 -27.287  1.00  0.00     0.008 C 
ATOM     19  C   UNL     1      -6.474  14.737 -29.029  1.00  0.00     0.008 C 
ENDBRANCH  12  17
ENDBRANCH  11  12
ENDBRANCH   1  11
TORSDOF 1
ENDMDL
