MODEL 1
REMARK VINA RESULT:     6.792      0.000      0.000
REMARK INTER + INTRA:           7.760
REMARK INTER:                   8.579
REMARK INTRA:                  -0.819
REMARK UNBOUND:                -0.819
REMARK SMILES CC(C)[C@H](C)C=C[C@@H](C)[C@@H]1CC[C@@H]2C3=CC=C4C[C@H](O)CC[C@]4(C)[C@H]3CC[C@]21C
REMARK SMILES IDX 8 1 9 2 7 3 6 4 4 5 5 6 2 7 1 8 3 9 10 10 11 11 28 12 12 13
REMARK SMILES IDX 13 14 27 15 29 16 14 17 26 18 25 19 15 20 23 21 16 22 17 23
REMARK SMILES IDX 22 24 24 25 18 26 21 27 19 28 20 29
REMARK H PARENT 20 30
REMARK Flexibility Score: inf
ROOT
ATOM      1  C   UNL     1     137.987 125.489 146.332  1.00  0.00     0.012 C 
ATOM      2  C   UNL     1     137.405 125.765 147.732  1.00  0.00     0.012 C 
ENDROOT
BRANCH   1   3
ATOM      3  C   UNL     1     139.336 126.165 146.207  1.00  0.00    -0.028 C 
ATOM      4  C   UNL     1     139.928 126.378 145.020  1.00  0.00    -0.028 C 
BRANCH   4   5
ATOM      5  C   UNL     1     141.254 127.099 144.908  1.00  0.00     0.011 C 
ATOM      6  C   UNL     1     141.923 127.163 146.287  1.00  0.00     0.012 C 
BRANCH   5   7
ATOM      7  C   UNL     1     142.182 126.462 143.832  1.00  0.00    -0.011 C 
ATOM      8  C   UNL     1     143.249 127.462 143.360  1.00  0.00     0.008 C 
ATOM      9  C   UNL     1     141.421 125.896 142.621  1.00  0.00     0.008 C 
ENDBRANCH   5   7
ENDBRANCH   4   5
ENDBRANCH   1   3
BRANCH   1  10
ATOM     10  C   UNL     1     137.058 125.839 145.116  1.00  0.00     0.002 C 
ATOM     11  C   UNL     1     135.596 126.253 145.427  1.00  0.00     0.005 C 
ATOM     12  C   UNL     1     136.929 124.760 144.010  1.00  0.00    -0.023 C 
ATOM     13  C   UNL     1     134.759 125.843 144.200  1.00  0.00     0.009 C 
ATOM     14  C   UNL     1     135.789 125.367 143.178  1.00  0.00     0.021 C 
ATOM     15  C   UNL     1     138.199 124.587 143.115  1.00  0.00     0.008 C 
ATOM     16  C   UNL     1     136.529 123.379 144.619  1.00  0.00     0.012 C 
ATOM     17  C   UNL     1     135.392 124.439 142.057  1.00  0.00    -0.063 C 
ATOM     18  C   UNL     1     137.893 124.447 141.594  1.00  0.00     0.009 C 
ATOM     19  C   UNL     1     136.520 123.776 141.275  1.00  0.00     0.025 C 
ATOM     20  C   UNL     1     134.119 124.236 141.692  1.00  0.00    -0.000 C 
ATOM     21  C   UNL     1     136.174 123.688 139.741  1.00  0.00    -0.005 C 
ATOM     22  C   UNL     1     133.803 123.450 140.489  1.00  0.00    -0.000 C 
ATOM     23  C   UNL     1     134.751 123.130 139.589  1.00  0.00    -0.061 C 
ATOM     24  C   UNL     1     137.201 122.744 139.042  1.00  0.00     0.014 C 
ATOM     25  C   UNL     1     136.213 125.088 139.075  1.00  0.00     0.017 C 
ATOM     26  C   UNL     1     134.323 122.482 138.290  1.00  0.00     0.063 C 
ATOM     27  C   UNL     1     136.751 122.269 137.654  1.00  0.00     0.033 C 
ATOM     28  C   UNL     1     135.398 121.548 137.730  1.00  0.00     0.118 C 
BRANCH  28  29
ATOM     29  O   UNL     1     135.491 120.401 138.536  1.00  0.00    -0.393 OA
ATOM     30  H   UNL     1     135.828 120.700 139.422  1.00  0.00     0.210 HD
ENDBRANCH  28  29
ENDBRANCH   1  10
TORSDOF 5
ENDMDL
MODEL 2
REMARK VINA RESULT:     7.596      3.082      7.330
REMARK INTER + INTRA:           8.776
REMARK INTER:                   8.633
REMARK INTRA:                   0.143
REMARK UNBOUND:                -0.819
REMARK SMILES CC(C)[C@H](C)C=C[C@@H](C)[C@@H]1CC[C@@H]2C3=CC=C4C[C@H](O)CC[C@]4(C)[C@H]3CC[C@]21C
REMARK SMILES IDX 8 1 9 2 7 3 6 4 4 5 5 6 2 7 1 8 3 9 10 10 11 11 28 12 12 13
REMARK SMILES IDX 13 14 27 15 29 16 14 17 26 18 25 19 15 20 23 21 16 22 17 23
REMARK SMILES IDX 22 24 24 25 18 26 21 27 19 28 20 29
REMARK H PARENT 20 30
REMARK Flexibility Score: inf
ROOT
ATOM      1  C   UNL     1     134.311 121.699 140.151  1.00  0.00     0.012 C 
ATOM      2  C   UNL     1     135.126 120.458 140.561  1.00  0.00     0.012 C 
ENDROOT
BRANCH   1   3
ATOM      3  C   UNL     1     135.073 122.477 139.098  1.00  0.00    -0.028 C 
ATOM      4  C   UNL     1     136.209 122.021 138.546  1.00  0.00    -0.028 C 
BRANCH   4   5
ATOM      5  C   UNL     1     136.931 122.786 137.459  1.00  0.00     0.011 C 
ATOM      6  C   UNL     1     135.910 123.526 136.585  1.00  0.00     0.012 C 
BRANCH   5   7
ATOM      7  C   UNL     1     138.017 123.742 138.034  1.00  0.00    -0.011 C 
ATOM      8  C   UNL     1     138.770 123.087 139.202  1.00  0.00     0.008 C 
ATOM      9  C   UNL     1     137.464 125.111 138.469  1.00  0.00     0.008 C 
ENDBRANCH   5   7
ENDBRANCH   4   5
ENDBRANCH   1   3
BRANCH   1  10
ATOM     10  C   UNL     1     133.841 122.634 141.322  1.00  0.00     0.002 C 
ATOM     11  C   UNL     1     132.736 123.677 141.006  1.00  0.00     0.005 C 
ATOM     12  C   UNL     1     134.945 123.446 142.047  1.00  0.00    -0.023 C 
ATOM     13  C   UNL     1     132.963 124.855 141.974  1.00  0.00     0.009 C 
ATOM     14  C   UNL     1     134.072 124.373 142.907  1.00  0.00     0.021 C 
ATOM     15  C   UNL     1     135.879 122.598 142.970  1.00  0.00     0.008 C 
ATOM     16  C   UNL     1     135.812 124.249 141.026  1.00  0.00     0.012 C 
ATOM     17  C   UNL     1     134.925 125.360 143.664  1.00  0.00    -0.063 C 
ATOM     18  C   UNL     1     136.185 123.259 144.347  1.00  0.00     0.009 C 
ATOM     19  C   UNL     1     136.189 124.820 144.323  1.00  0.00     0.025 C 
ATOM     20  C   UNL     1     134.584 126.645 143.830  1.00  0.00    -0.000 C 
ATOM     21  C   UNL     1     136.434 125.496 145.724  1.00  0.00    -0.005 C 
ATOM     22  C   UNL     1     135.371 127.518 144.715  1.00  0.00    -0.000 C 
ATOM     23  C   UNL     1     136.282 127.017 145.570  1.00  0.00    -0.061 C 
ATOM     24  C   UNL     1     137.874 125.146 146.212  1.00  0.00     0.014 C 
ATOM     25  C   UNL     1     135.396 125.015 146.770  1.00  0.00     0.017 C 
ATOM     26  C   UNL     1     136.919 127.951 146.575  1.00  0.00     0.063 C 
ATOM     27  C   UNL     1     138.371 126.046 147.351  1.00  0.00     0.033 C 
ATOM     28  C   UNL     1     138.342 127.524 146.938  1.00  0.00     0.118 C 
BRANCH  28  29
ATOM     29  O   UNL     1     139.196 127.751 145.845  1.00  0.00    -0.393 OA
ATOM     30  H   UNL     1     138.620 128.034 145.087  1.00  0.00     0.210 HD
ENDBRANCH  28  29
ENDBRANCH   1  10
TORSDOF 5
ENDMDL
MODEL 3
REMARK VINA RESULT:     7.987      3.084      7.046
REMARK INTER + INTRA:           9.269
REMARK INTER:                   9.084
REMARK INTRA:                   0.185
REMARK UNBOUND:                -0.819
REMARK SMILES CC(C)[C@H](C)C=C[C@@H](C)[C@@H]1CC[C@@H]2C3=CC=C4C[C@H](O)CC[C@]4(C)[C@H]3CC[C@]21C
REMARK SMILES IDX 8 1 9 2 7 3 6 4 4 5 5 6 2 7 1 8 3 9 10 10 11 11 28 12 12 13
REMARK SMILES IDX 13 14 27 15 29 16 14 17 26 18 25 19 15 20 23 21 16 22 17 23
REMARK SMILES IDX 22 24 24 25 18 26 21 27 19 28 20 29
REMARK H PARENT 20 30
REMARK Flexibility Score: inf
ROOT
ATOM      1  C   UNL     1     134.617 122.363 139.362  1.00  0.00     0.012 C 
ATOM      2  C   UNL     1     134.898 120.857 139.528  1.00  0.00     0.012 C 
ENDROOT
BRANCH   1   3
ATOM      3  C   UNL     1     135.851 123.048 138.813  1.00  0.00    -0.028 C 
ATOM      4  C   UNL     1     137.056 122.455 138.794  1.00  0.00    -0.028 C 
BRANCH   4   5
ATOM      5  C   UNL     1     138.269 123.134 138.197  1.00  0.00     0.011 C 
ATOM      6  C   UNL     1     137.910 124.571 137.796  1.00  0.00     0.012 C 
BRANCH   5   7
ATOM      7  C   UNL     1     139.502 123.078 139.145  1.00  0.00    -0.011 C 
ATOM      8  C   UNL     1     140.433 121.913 138.774  1.00  0.00     0.008 C 
ATOM      9  C   UNL     1     139.129 122.997 140.636  1.00  0.00     0.008 C 
ENDBRANCH   5   7
ENDBRANCH   4   5
ENDBRANCH   1   3
BRANCH   1  10
ATOM     10  C   UNL     1     134.066 123.107 140.629  1.00  0.00     0.002 C 
ATOM     11  C   UNL     1     132.955 124.167 140.411  1.00  0.00     0.005 C 
ATOM     12  C   UNL     1     135.113 123.821 141.523  1.00  0.00    -0.023 C 
ATOM     13  C   UNL     1     133.104 125.194 141.551  1.00  0.00     0.009 C 
ATOM     14  C   UNL     1     134.177 124.598 142.461  1.00  0.00     0.021 C 
ATOM     15  C   UNL     1     136.019 122.862 142.361  1.00  0.00     0.008 C 
ATOM     16  C   UNL     1     136.011 124.779 140.678  1.00  0.00     0.012 C 
ATOM     17  C   UNL     1     134.967 125.476 143.399  1.00  0.00    -0.063 C 
ATOM     18  C   UNL     1     136.240 123.317 143.834  1.00  0.00     0.009 C 
ATOM     19  C   UNL     1     136.209 124.865 144.038  1.00  0.00     0.025 C 
ATOM     20  C   UNL     1     134.588 126.717 143.733  1.00  0.00    -0.000 C 
ATOM     21  C   UNL     1     136.367 125.331 145.534  1.00  0.00    -0.005 C 
ATOM     22  C   UNL     1     135.309 127.463 144.776  1.00  0.00    -0.000 C 
ATOM     23  C   UNL     1     136.187 126.856 145.595  1.00  0.00    -0.061 C 
ATOM     24  C   UNL     1     137.788 124.936 146.042  1.00  0.00     0.014 C 
ATOM     25  C   UNL     1     135.289 124.685 146.441  1.00  0.00     0.017 C 
ATOM     26  C   UNL     1     136.751 127.642 146.759  1.00  0.00     0.063 C 
ATOM     27  C   UNL     1     138.206 125.667 147.325  1.00  0.00     0.033 C 
ATOM     28  C   UNL     1     138.164 127.188 147.131  1.00  0.00     0.118 C 
BRANCH  28  29
ATOM     29  O   UNL     1     139.065 127.588 146.130  1.00  0.00    -0.393 OA
ATOM     30  H   UNL     1     138.552 128.146 145.489  1.00  0.00     0.210 HD
ENDBRANCH  28  29
ENDBRANCH   1  10
TORSDOF 5
ENDMDL
MODEL 4
REMARK VINA RESULT:     9.667      3.066      8.293
REMARK INTER + INTRA:          11.391
REMARK INTER:                  11.126
REMARK INTRA:                   0.265
REMARK UNBOUND:                -0.819
REMARK SMILES CC(C)[C@H](C)C=C[C@@H](C)[C@@H]1CC[C@@H]2C3=CC=C4C[C@H](O)CC[C@]4(C)[C@H]3CC[C@]21C
REMARK SMILES IDX 8 1 9 2 7 3 6 4 4 5 5 6 2 7 1 8 3 9 10 10 11 11 28 12 12 13
REMARK SMILES IDX 13 14 27 15 29 16 14 17 26 18 25 19 15 20 23 21 16 22 17 23
REMARK SMILES IDX 22 24 24 25 18 26 21 27 19 28 20 29
REMARK H PARENT 20 30
REMARK Flexibility Score: inf
ROOT
ATOM      1  C   UNL     1     135.263 123.029 138.019  1.00  0.00     0.012 C 
ATOM      2  C   UNL     1     136.707 123.001 137.483  1.00  0.00     0.012 C 
ENDROOT
BRANCH   1   3
ATOM      3  C   UNL     1     134.637 124.373 137.710  1.00  0.00    -0.028 C 
ATOM      4  C   UNL     1     133.339 124.508 137.394  1.00  0.00    -0.028 C 
BRANCH   4   5
ATOM      5  C   UNL     1     132.717 125.863 137.137  1.00  0.00     0.011 C 
ATOM      6  C   UNL     1     133.110 126.352 135.737  1.00  0.00     0.012 C 
BRANCH   5   7
ATOM      7  C   UNL     1     131.175 125.853 137.346  1.00  0.00    -0.011 C 
ATOM      8  C   UNL     1     130.459 126.614 136.219  1.00  0.00     0.008 C 
ATOM      9  C   UNL     1     130.735 126.405 138.714  1.00  0.00     0.008 C 
ENDBRANCH   5   7
ENDBRANCH   4   5
ENDBRANCH   1   3
BRANCH   1  10
ATOM     10  C   UNL     1     135.079 122.648 139.531  1.00  0.00     0.002 C 
ATOM     11  C   UNL     1     133.648 122.284 140.010  1.00  0.00     0.005 C 
ATOM     12  C   UNL     1     135.585 123.679 140.572  1.00  0.00    -0.023 C 
ATOM     13  C   UNL     1     133.582 122.660 141.503  1.00  0.00     0.009 C 
ATOM     14  C   UNL     1     135.012 123.064 141.858  1.00  0.00     0.021 C 
ATOM     15  C   UNL     1     137.141 123.781 140.687  1.00  0.00     0.008 C 
ATOM     16  C   UNL     1     134.990 125.096 140.293  1.00  0.00     0.012 C 
ATOM     17  C   UNL     1     135.290 123.950 143.046  1.00  0.00    -0.063 C 
ATOM     18  C   UNL     1     137.669 123.860 142.150  1.00  0.00     0.009 C 
ATOM     19  C   UNL     1     136.688 124.550 143.150  1.00  0.00     0.025 C 
ATOM     20  C   UNL     1     134.398 124.168 144.021  1.00  0.00    -0.000 C 
ATOM     21  C   UNL     1     137.186 124.577 144.643  1.00  0.00    -0.005 C 
ATOM     22  C   UNL     1     134.782 124.906 145.234  1.00  0.00    -0.000 C 
ATOM     23  C   UNL     1     136.071 125.162 145.523  1.00  0.00    -0.061 C 
ATOM     24  C   UNL     1     138.466 125.463 144.736  1.00  0.00     0.014 C 
ATOM     25  C   UNL     1     137.501 123.149 145.157  1.00  0.00     0.017 C 
ATOM     26  C   UNL     1     136.403 125.762 146.872  1.00  0.00     0.063 C 
ATOM     27  C   UNL     1     138.817 125.887 146.169  1.00  0.00     0.033 C 
ATOM     28  C   UNL     1     137.652 126.643 146.820  1.00  0.00     0.118 C 
BRANCH  28  29
ATOM     29  O   UNL     1     137.367 127.823 146.112  1.00  0.00    -0.393 OA
ATOM     30  H   UNL     1     137.313 127.574 145.152  1.00  0.00     0.210 HD
ENDBRANCH  28  29
ENDBRANCH   1  10
TORSDOF 5
ENDMDL
