MODEL 1
REMARK VINA RESULT:    -4.587      0.000      0.000
REMARK INTER + INTRA:          -6.558
REMARK INTER:                  -6.464
REMARK INTRA:                  -0.094
REMARK UNBOUND:                -0.094
REMARK SMILES CC1=CCC(=C(C)C)C(=O)CC(C)=CCC1
REMARK SMILES IDX 12 1 14 2 13 3 15 4 16 5 2 6 1 7 3 8 11 10 9 11 10 12 5 13
REMARK SMILES IDX 6 14 7 15 8 16 4 17
REMARK H PARENT
REMARK Flexibility Score: 60.00
ROOT
ATOM      1  C   UNL     1      24.135  55.465   9.277  1.00  0.00    -0.070 C 
ATOM      2  C   UNL     1      24.460  56.602   9.934  1.00  0.00    -0.027 C 
ATOM      3  C   UNL     1      22.682  55.067   9.222  1.00  0.00     0.039 C 
ENDROOT
BRANCH   2   4
ATOM      4  C   UNL     1      25.834  57.221   9.962  1.00  0.00     0.032 C 
BRANCH   4   5
ATOM      5  C   UNL     1      26.420  57.120  11.375  1.00  0.00     0.034 C 
BRANCH   5   6
ATOM      6  C   UNL     1      27.858  56.639  11.372  1.00  0.00    -0.077 C 
ATOM      7  C   UNL     1      28.963  57.666  11.347  1.00  0.00     0.039 C 
ATOM      8  C   UNL     1      28.212  55.330  11.318  1.00  0.00    -0.023 CG0
ATOM      9  G   UNL     1      27.295  54.123  11.389  1.00  0.00     0.000 G0
ENDBRANCH   5   6
ENDBRANCH   4   5
ENDBRANCH   2   4
BRANCH   1  10
ATOM     10  C   UNL     1      25.158  54.564   8.615  1.00  0.00     0.111 C 
BRANCH  10  11
ATOM     11  C   UNL     1      25.622  53.464   9.540  1.00  0.00     0.163 C 
ATOM     12  O   UNL     1      24.772  52.592   9.867  1.00  0.00    -0.294 OA
BRANCH  11  13
ATOM     13  C   UNL     1      27.013  53.372  10.095  1.00  0.00    -0.002 C 
ATOM     14  C   UNL     1      27.932  52.526   9.535  1.00  0.00    -0.069 C 
ATOM     15  C   UNL     1      29.258  52.232  10.196  1.00  0.00     0.039 C 
ATOM     16  C   UNL     1      27.689  51.876   8.191  1.00  0.00     0.039 C 
BRANCH  13  17
ATOM     17  C   UNL     1      27.309  54.106  11.399  1.00  0.00     0.066 CG0
ATOM     18  G   UNL     1      28.212  55.322  11.301  1.00  0.00     0.000 G0
ENDBRANCH  13  17
ENDBRANCH  11  13
ENDBRANCH  10  11
ENDBRANCH   1  10
TORSDOF 0
ENDMDL
MODEL 2
REMARK VINA RESULT:    -4.518      1.611      4.084
REMARK INTER + INTRA:          -6.461
REMARK INTER:                  -6.282
REMARK INTRA:                  -0.179
REMARK UNBOUND:                -0.094
REMARK SMILES CC1=CCC(=C(C)C)C(=O)CC(C)=CCC1
REMARK SMILES IDX 12 1 14 2 13 3 15 4 16 5 2 6 1 7 3 8 11 10 9 11 10 12 5 13
REMARK SMILES IDX 6 14 7 15 8 16 4 17
REMARK H PARENT
REMARK Flexibility Score: 60.00
ROOT
ATOM      1  C   UNL     1      27.795  53.101  10.127  1.00  0.00    -0.070 C 
ATOM      2  C   UNL     1      28.497  54.092  10.723  1.00  0.00    -0.027 C 
ATOM      3  C   UNL     1      28.557  52.062   9.345  1.00  0.00     0.039 C 
ENDROOT
BRANCH   2   4
ATOM      4  C   UNL     1      27.915  55.122  11.657  1.00  0.00     0.032 C 
BRANCH   4   5
ATOM      5  C   UNL     1      27.683  56.436  10.902  1.00  0.00     0.034 C 
BRANCH   5   6
ATOM      6  C   UNL     1      26.360  57.083  11.259  1.00  0.00    -0.077 C 
ATOM      7  C   UNL     1      26.265  57.875  12.539  1.00  0.00     0.039 C 
ATOM      8  C   UNL     1      25.228  56.930  10.527  1.00  0.00    -0.023 CG0
ATOM      9  G   UNL     1      25.083  56.234   9.187  1.00  0.00     0.000 G0
ENDBRANCH   5   6
ENDBRANCH   4   5
ENDBRANCH   2   4
BRANCH   1  10
ATOM     10  C   UNL     1      26.284  52.998  10.188  1.00  0.00     0.111 C 
BRANCH  10  11
ATOM     11  C   UNL     1      25.624  53.708   9.030  1.00  0.00     0.163 C 
ATOM     12  O   UNL     1      25.988  53.378   7.870  1.00  0.00    -0.294 OA
BRANCH  11  13
ATOM     13  C   UNL     1      24.591  54.785   9.193  1.00  0.00    -0.002 C 
ATOM     14  C   UNL     1      23.257  54.476   9.195  1.00  0.00    -0.069 C 
ATOM     15  C   UNL     1      22.188  55.541   9.122  1.00  0.00     0.039 C 
ATOM     16  C   UNL     1      22.780  53.047   9.321  1.00  0.00     0.039 C 
BRANCH  13  17
ATOM     17  C   UNL     1      25.063  56.235   9.171  1.00  0.00     0.066 CG0
ATOM     18  G   UNL     1      25.241  56.909  10.519  1.00  0.00     0.000 G0
ENDBRANCH  13  17
ENDBRANCH  11  13
ENDBRANCH  10  11
ENDBRANCH   1  10
TORSDOF 0
ENDMDL
MODEL 3
REMARK VINA RESULT:    -4.471      2.129      4.831
REMARK INTER + INTRA:          -6.394
REMARK INTER:                  -6.215
REMARK INTRA:                  -0.179
REMARK UNBOUND:                -0.094
REMARK SMILES CC1=CCC(=C(C)C)C(=O)CC(C)=CCC1
REMARK SMILES IDX 12 1 14 2 13 3 15 4 16 5 2 6 1 7 3 8 11 10 9 11 10 12 5 13
REMARK SMILES IDX 6 14 7 15 8 16 4 17
REMARK H PARENT
REMARK Flexibility Score: 60.00
ROOT
ATOM      1  C   UNL     1      29.602  57.729  11.406  1.00  0.00    -0.070 C 
ATOM      2  C   UNL     1      30.585  56.824  11.620  1.00  0.00    -0.027 C 
ATOM      3  C   UNL     1      29.784  59.119  11.960  1.00  0.00     0.039 C 
ENDROOT
BRANCH   2   4
ATOM      4  C   UNL     1      30.634  55.443  11.017  1.00  0.00     0.032 C 
BRANCH   4   5
ATOM      5  C   UNL     1      30.099  54.418  12.024  1.00  0.00     0.034 C 
BRANCH   5   6
ATOM      6  C   UNL     1      29.231  53.362  11.369  1.00  0.00    -0.077 C 
ATOM      7  C   UNL     1      29.901  52.250  10.601  1.00  0.00     0.039 C 
ATOM      8  C   UNL     1      27.875  53.399  11.370  1.00  0.00    -0.023 CG0
ATOM      9  G   UNL     1      26.979  54.373  12.111  1.00  0.00     0.000 G0
ENDBRANCH   5   6
ENDBRANCH   4   5
ENDBRANCH   2   4
BRANCH   1  10
ATOM     10  C   UNL     1      28.323  57.409  10.659  1.00  0.00     0.111 C 
BRANCH  10  11
ATOM     11  C   UNL     1      27.244  56.897  11.584  1.00  0.00     0.163 C 
ATOM     12  O   UNL     1      26.984  57.592  12.603  1.00  0.00    -0.294 OA
BRANCH  11  13
ATOM     13  C   UNL     1      26.496  55.615  11.363  1.00  0.00    -0.002 C 
ATOM     14  C   UNL     1      25.340  55.601  10.630  1.00  0.00    -0.069 C 
ATOM     15  C   UNL     1      24.439  54.388  10.578  1.00  0.00     0.039 C 
ATOM     16  C   UNL     1      24.926  56.786   9.787  1.00  0.00     0.039 C 
BRANCH  13  17
ATOM     17  C   UNL     1      26.961  54.379  12.126  1.00  0.00     0.066 CG0
ATOM     18  G   UNL     1      27.860  53.416  11.373  1.00  0.00     0.000 G0
ENDBRANCH  13  17
ENDBRANCH  11  13
ENDBRANCH  10  11
ENDBRANCH   1  10
TORSDOF 0
ENDMDL
MODEL 4
REMARK VINA RESULT:    -4.361      2.451      5.297
REMARK INTER + INTRA:          -6.239
REMARK INTER:                  -6.086
REMARK INTRA:                  -0.154
REMARK UNBOUND:                -0.094
REMARK SMILES CC1=CCC(=C(C)C)C(=O)CC(C)=CCC1
REMARK SMILES IDX 12 1 14 2 13 3 15 4 16 5 2 6 1 7 3 8 11 10 9 11 10 12 5 13
REMARK SMILES IDX 6 14 7 15 8 16 4 17
REMARK H PARENT
REMARK Flexibility Score: 60.00
ROOT
ATOM      1  C   UNL     1      29.526  53.555  10.975  1.00  0.00    -0.070 C 
ATOM      2  C   UNL     1      28.243  53.247  10.674  1.00  0.00    -0.027 C 
ATOM      3  C   UNL     1      30.454  52.432  11.360  1.00  0.00     0.039 C 
ENDROOT
BRANCH   2   4
ATOM      4  C   UNL     1      27.225  54.217  10.132  1.00  0.00     0.032 C 
BRANCH   4   5
ATOM      5  C   UNL     1      26.319  54.709  11.267  1.00  0.00     0.034 C 
BRANCH   5   6
ATOM      6  C   UNL     1      25.986  56.182  11.145  1.00  0.00    -0.077 C 
ATOM      7  C   UNL     1      24.918  56.602  10.166  1.00  0.00     0.039 C 
ATOM      8  C   UNL     1      26.647  57.160  11.815  1.00  0.00    -0.023 CG0
ATOM      9  G   UNL     1      27.709  56.988  12.884  1.00  0.00     0.000 G0
ENDBRANCH   5   6
ENDBRANCH   4   5
ENDBRANCH   2   4
BRANCH   1  10
ATOM     10  C   UNL     1      30.066  54.971  10.964  1.00  0.00     0.111 C 
BRANCH  10  11
ATOM     11  C   UNL     1      29.849  55.667  12.287  1.00  0.00     0.163 C 
ATOM     12  O   UNL     1      30.256  55.073  13.321  1.00  0.00    -0.294 OA
BRANCH  11  13
ATOM     13  C   UNL     1      29.165  56.995  12.427  1.00  0.00    -0.002 C 
ATOM     14  C   UNL     1      29.873  58.159  12.299  1.00  0.00    -0.069 C 
ATOM     15  C   UNL     1      29.280  59.502  12.659  1.00  0.00     0.039 C 
ATOM     16  C   UNL     1      31.278  58.170  11.738  1.00  0.00     0.039 C 
BRANCH  13  17
ATOM     17  C   UNL     1      27.713  57.003  12.895  1.00  0.00     0.066 CG0
ATOM     18  G   UNL     1      26.656  57.152  11.816  1.00  0.00     0.000 G0
ENDBRANCH  13  17
ENDBRANCH  11  13
ENDBRANCH  10  11
ENDBRANCH   1  10
TORSDOF 0
ENDMDL
MODEL 5
REMARK VINA RESULT:    -4.309      7.463      8.953
REMARK INTER + INTRA:          -6.166
REMARK INTER:                  -6.585
REMARK INTRA:                   0.419
REMARK UNBOUND:                -0.094
REMARK SMILES CC1=CCC(=C(C)C)C(=O)CC(C)=CCC1
REMARK SMILES IDX 12 1 14 2 13 3 15 4 16 5 2 6 1 7 3 8 11 10 9 11 10 12 5 13
REMARK SMILES IDX 6 14 7 15 8 16 4 17
REMARK H PARENT
REMARK Flexibility Score: 60.00
ROOT
ATOM      1  C   UNL     1      26.770  54.652  19.309  1.00  0.00    -0.070 C 
ATOM      2  C   UNL     1      25.904  54.431  20.325  1.00  0.00    -0.027 C 
ATOM      3  C   UNL     1      28.111  55.257  19.639  1.00  0.00     0.039 C 
ENDROOT
BRANCH   2   4
ATOM      4  C   UNL     1      24.589  53.705  20.196  1.00  0.00     0.032 C 
BRANCH   4   5
ATOM      5  C   UNL     1      24.834  52.192  20.140  1.00  0.00     0.034 C 
BRANCH   5   6
ATOM      6  C   UNL     1      24.149  51.538  18.957  1.00  0.00    -0.077 C 
ATOM      7  C   UNL     1      22.642  51.469  18.943  1.00  0.00     0.039 C 
ATOM      8  C   UNL     1      24.817  50.943  17.937  1.00  0.00    -0.023 CG0
ATOM      9  G   UNL     1      26.315  50.930  17.700  1.00  0.00     0.000 G0
ENDBRANCH   5   6
ENDBRANCH   4   5
ENDBRANCH   2   4
BRANCH   1  10
ATOM     10  C   UNL     1      26.451  54.343  17.860  1.00  0.00     0.111 C 
BRANCH  10  11
ATOM     11  C   UNL     1      27.364  53.281  17.296  1.00  0.00     0.163 C 
ATOM     12  O   UNL     1      28.601  53.525  17.300  1.00  0.00    -0.294 OA
BRANCH  11  13
ATOM     13  C   UNL     1      26.878  51.982  16.721  1.00  0.00    -0.002 C 
ATOM     14  C   UNL     1      26.786  51.812  15.366  1.00  0.00    -0.069 C 
ATOM     15  C   UNL     1      26.089  50.619  14.754  1.00  0.00     0.039 C 
ATOM     16  C   UNL     1      27.425  52.788  14.404  1.00  0.00     0.039 C 
BRANCH  13  17
ATOM     17  C   UNL     1      26.322  50.940  17.686  1.00  0.00     0.066 CG0
ATOM     18  G   UNL     1      24.823  50.962  17.916  1.00  0.00     0.000 G0
ENDBRANCH  13  17
ENDBRANCH  11  13
ENDBRANCH  10  11
ENDBRANCH   1  10
TORSDOF 0
ENDMDL
MODEL 6
REMARK VINA RESULT:    -4.244      3.215      5.181
REMARK INTER + INTRA:          -6.075
REMARK INTER:                  -6.026
REMARK INTRA:                  -0.048
REMARK UNBOUND:                -0.094
REMARK SMILES CC1=CCC(=C(C)C)C(=O)CC(C)=CCC1
REMARK SMILES IDX 12 1 14 2 13 3 15 4 16 5 2 6 1 7 3 8 11 10 9 11 10 12 5 13
REMARK SMILES IDX 6 14 7 15 8 16 4 17
REMARK H PARENT
REMARK Flexibility Score: 60.00
ROOT
ATOM      1  C   UNL     1      26.329  54.664  13.791  1.00  0.00    -0.070 C 
ATOM      2  C   UNL     1      26.612  53.506  13.151  1.00  0.00    -0.027 C 
ATOM      3  C   UNL     1      24.934  54.855  14.330  1.00  0.00     0.039 C 
ENDROOT
BRANCH   2   4
ATOM      4  C   UNL     1      27.983  53.090  12.682  1.00  0.00     0.032 C 
BRANCH   4   5
ATOM      5  C   UNL     1      28.272  53.708  11.309  1.00  0.00     0.034 C 
BRANCH   5   6
ATOM      6  C   UNL     1      29.691  54.227  11.195  1.00  0.00    -0.077 C 
ATOM      7  C   UNL     1      30.830  53.242  11.287  1.00  0.00     0.039 C 
ATOM      8  C   UNL     1      30.003  55.543  11.088  1.00  0.00    -0.023 CG0
ATOM      9  G   UNL     1      29.045  56.708  10.922  1.00  0.00     0.000 G0
ENDBRANCH   5   6
ENDBRANCH   4   5
ENDBRANCH   2   4
BRANCH   1  10
ATOM     10  C   UNL     1      27.336  55.782  13.974  1.00  0.00     0.111 C 
BRANCH  10  11
ATOM     11  C   UNL     1      27.297  56.768  12.831  1.00  0.00     0.163 C 
ATOM     12  O   UNL     1      26.162  57.081  12.382  1.00  0.00    -0.294 OA
BRANCH  11  13
ATOM     13  C   UNL     1      28.522  57.364  12.202  1.00  0.00    -0.002 C 
ATOM     14  C   UNL     1      29.043  58.540  12.672  1.00  0.00    -0.069 C 
ATOM     15  C   UNL     1      30.126  59.289  11.930  1.00  0.00     0.039 C 
ATOM     16  C   UNL     1      28.598  59.128  13.992  1.00  0.00     0.039 C 
BRANCH  13  17
ATOM     17  C   UNL     1      29.050  56.723  10.923  1.00  0.00     0.066 CG0
ATOM     18  G   UNL     1      29.990  55.544  11.095  1.00  0.00     0.000 G0
ENDBRANCH  13  17
ENDBRANCH  11  13
ENDBRANCH  10  11
ENDBRANCH   1  10
TORSDOF 0
ENDMDL
MODEL 7
REMARK VINA RESULT:    -4.237      1.788      4.010
REMARK INTER + INTRA:          -6.065
REMARK INTER:                  -5.940
REMARK INTRA:                  -0.125
REMARK UNBOUND:                -0.094
REMARK SMILES CC1=CCC(=C(C)C)C(=O)CC(C)=CCC1
REMARK SMILES IDX 12 1 14 2 13 3 15 4 16 5 2 6 1 7 3 8 11 10 9 11 10 12 5 13
REMARK SMILES IDX 6 14 7 15 8 16 4 17
REMARK H PARENT
REMARK Flexibility Score: 60.00
ROOT
ATOM      1  C   UNL     1      27.641  57.019  11.643  1.00  0.00    -0.070 C 
ATOM      2  C   UNL     1      28.565  56.235  12.244  1.00  0.00    -0.027 C 
ATOM      3  C   UNL     1      27.098  58.194  12.415  1.00  0.00     0.039 C 
ENDROOT
BRANCH   2   4
ATOM      4  C   UNL     1      29.316  55.113  11.571  1.00  0.00     0.032 C 
BRANCH   4   5
ATOM      5  C   UNL     1      28.658  53.771  11.910  1.00  0.00     0.034 C 
BRANCH   5   6
ATOM      6  C   UNL     1      28.631  52.824  10.727  1.00  0.00    -0.077 C 
ATOM      7  C   UNL     1      29.894  52.081  10.368  1.00  0.00     0.039 C 
ATOM      8  C   UNL     1      27.552  52.659   9.922  1.00  0.00    -0.023 CG0
ATOM      9  G   UNL     1      26.165  53.245  10.107  1.00  0.00     0.000 G0
ENDBRANCH   5   6
ENDBRANCH   4   5
ENDBRANCH   2   4
BRANCH   1  10
ATOM     10  C   UNL     1      27.110  56.761  10.247  1.00  0.00     0.111 C 
BRANCH  10  11
ATOM     11  C   UNL     1      25.935  55.813  10.257  1.00  0.00     0.163 C 
ATOM     12  O   UNL     1      24.976  56.095  11.025  1.00  0.00    -0.294 OA
BRANCH  11  13
ATOM     13  C   UNL     1      25.865  54.563   9.429  1.00  0.00    -0.002 C 
ATOM     14  C   UNL     1      25.393  54.605   8.145  1.00  0.00    -0.069 C 
ATOM     15  C   UNL     1      25.089  53.349   7.362  1.00  0.00     0.039 C 
ATOM     16  C   UNL     1      25.197  55.917   7.419  1.00  0.00     0.039 C 
BRANCH  13  17
ATOM     17  C   UNL     1      26.159  53.235  10.118  1.00  0.00     0.066 CG0
ATOM     18  G   UNL     1      27.555  52.670   9.930  1.00  0.00     0.000 G0
ENDBRANCH  13  17
ENDBRANCH  11  13
ENDBRANCH  10  11
ENDBRANCH   1  10
TORSDOF 0
ENDMDL
MODEL 8
REMARK VINA RESULT:    -4.223      1.682      4.247
REMARK INTER + INTRA:          -6.045
REMARK INTER:                  -6.118
REMARK INTRA:                   0.074
REMARK UNBOUND:                -0.094
REMARK SMILES CC1=CCC(=C(C)C)C(=O)CC(C)=CCC1
REMARK SMILES IDX 12 1 14 2 13 3 15 4 16 5 2 6 1 7 3 8 11 10 9 11 10 12 5 13
REMARK SMILES IDX 6 14 7 15 8 16 4 17
REMARK H PARENT
REMARK Flexibility Score: 60.00
ROOT
ATOM      1  C   UNL     1      26.455  52.634   9.258  1.00  0.00    -0.070 C 
ATOM      2  C   UNL     1      25.745  52.801   8.119  1.00  0.00    -0.027 C 
ATOM      3  C   UNL     1      27.944  52.425   9.142  1.00  0.00     0.039 C 
ENDROOT
BRANCH   2   4
ATOM      4  C   UNL     1      24.283  53.164   8.058  1.00  0.00     0.032 C 
BRANCH   4   5
ATOM      5  C   UNL     1      24.130  54.651   7.716  1.00  0.00     0.034 C 
BRANCH   5   6
ATOM      6  C   UNL     1      23.664  55.473   8.901  1.00  0.00    -0.077 C 
ATOM      7  C   UNL     1      22.182  55.640   9.125  1.00  0.00     0.039 C 
ATOM      8  C   UNL     1      24.506  56.131   9.737  1.00  0.00    -0.023 CG0
ATOM      9  G   UNL     1      26.022  56.073   9.751  1.00  0.00     0.000 G0
ENDBRANCH   5   6
ENDBRANCH   4   5
ENDBRANCH   2   4
BRANCH   1  10
ATOM     10  C   UNL     1      25.828  52.623  10.637  1.00  0.00     0.111 C 
BRANCH  10  11
ATOM     11  C   UNL     1      25.860  53.989  11.281  1.00  0.00     0.163 C 
ATOM     12  O   UNL     1      25.138  54.161  12.299  1.00  0.00    -0.294 OA
BRANCH  11  13
ATOM     13  C   UNL     1      26.679  55.136  10.764  1.00  0.00    -0.002 C 
ATOM     14  C   UNL     1      27.901  55.421  11.309  1.00  0.00    -0.069 C 
ATOM     15  C   UNL     1      28.648  56.692  10.981  1.00  0.00     0.039 C 
ATOM     16  C   UNL     1      28.597  54.448  12.235  1.00  0.00     0.039 C 
BRANCH  13  17
ATOM     17  C   UNL     1      26.031  56.073   9.749  1.00  0.00     0.066 CG0
ATOM     18  G   UNL     1      24.514  56.117   9.741  1.00  0.00     0.000 G0
ENDBRANCH  13  17
ENDBRANCH  11  13
ENDBRANCH  10  11
ENDBRANCH   1  10
TORSDOF 0
ENDMDL
MODEL 9
REMARK VINA RESULT:    -4.121      6.561      8.101
REMARK INTER + INTRA:          -5.901
REMARK INTER:                  -5.905
REMARK INTRA:                   0.004
REMARK UNBOUND:                -0.094
REMARK SMILES CC1=CCC(=C(C)C)C(=O)CC(C)=CCC1
REMARK SMILES IDX 12 1 14 2 13 3 15 4 16 5 2 6 1 7 3 8 11 10 9 11 10 12 5 13
REMARK SMILES IDX 6 14 7 15 8 16 4 17
REMARK H PARENT
REMARK Flexibility Score: 60.00
ROOT
ATOM      1  C   UNL     1      29.180  49.966  16.205  1.00  0.00    -0.070 C 
ATOM      2  C   UNL     1      30.156  50.858  15.922  1.00  0.00    -0.027 C 
ATOM      3  C   UNL     1      29.259  48.602  15.569  1.00  0.00     0.039 C 
ENDROOT
BRANCH   2   4
ATOM      4  C   UNL     1      30.312  52.206  16.580  1.00  0.00     0.032 C 
BRANCH   4   5
ATOM      5  C   UNL     1      29.503  53.256  15.811  1.00  0.00     0.034 C 
BRANCH   5   6
ATOM      6  C   UNL     1      28.871  54.285  16.727  1.00  0.00    -0.077 C 
ATOM      7  C   UNL     1      29.771  55.240  17.471  1.00  0.00     0.039 C 
ATOM      8  C   UNL     1      27.539  54.351  16.976  1.00  0.00    -0.023 CG0
ATOM      9  G   UNL     1      26.436  53.546  16.315  1.00  0.00     0.000 G0
ENDBRANCH   5   6
ENDBRANCH   4   5
ENDBRANCH   2   4
BRANCH   1  10
ATOM     10  C   UNL     1      28.004  50.276  17.110  1.00  0.00     0.111 C 
BRANCH  10  11
ATOM     11  C   UNL     1      26.896  50.985  16.370  1.00  0.00     0.163 C 
ATOM     12  O   UNL     1      26.612  50.562  15.217  1.00  0.00    -0.294 OA
BRANCH  11  13
ATOM     13  C   UNL     1      26.145  52.162  16.921  1.00  0.00    -0.002 C 
ATOM     14  C   UNL     1      25.121  51.980  17.812  1.00  0.00    -0.069 C 
ATOM     15  C   UNL     1      24.195  53.105  18.210  1.00  0.00     0.039 C 
ATOM     16  C   UNL     1      24.893  50.646  18.488  1.00  0.00     0.039 C 
BRANCH  13  17
ATOM     17  C   UNL     1      26.434  53.536  16.324  1.00  0.00     0.066 CG0
ATOM     18  G   UNL     1      27.530  54.346  16.990  1.00  0.00     0.000 G0
ENDBRANCH  13  17
ENDBRANCH  11  13
ENDBRANCH  10  11
ENDBRANCH   1  10
TORSDOF 0
ENDMDL
