MODEL 1
REMARK VINA RESULT:    -5.111      0.000      0.000
REMARK INTER + INTRA:          -6.927
REMARK INTER:                  -6.605
REMARK INTRA:                  -0.322
REMARK UNBOUND:                -0.322
REMARK SMILES CO[C@]1(CO)O[C@@H](CO)[C@H](O)[C@@H]1O
REMARK SMILES IDX 3 1 12 2 10 3 7 4 6 5 2 6 1 7 4 8 5 9 13 11 11 13 8 15 9 16
REMARK H PARENT 5 10 13 12 11 14 9 17
REMARK Flexibility Score: inf
ROOT
ATOM      1  C   UNL     1      48.570  30.770  16.341  1.00  0.00     0.221 C 
ATOM      2  C   UNL     1      48.970  31.609  17.587  1.00  0.00     0.207 C 
ATOM      3  C   UNL     1      48.311  32.946  17.333  1.00  0.00     0.180 C 
ATOM      4  C   UNL     1      48.263  32.988  15.814  1.00  0.00     0.179 C 
ATOM      5  O   UNL     1      48.147  31.669  15.329  1.00  0.00    -0.337 OA
ENDROOT
BRANCH   1   6
ATOM      6  O   UNL     1      49.681  30.045  15.814  1.00  0.00    -0.349 OA
ATOM      7  C   UNL     1      49.732  28.694  16.238  1.00  0.00     0.198 C 
ENDBRANCH   1   6
BRANCH   1   8
ATOM      8  C   UNL     1      47.364  29.832  16.640  1.00  0.00     0.224 C 
BRANCH   8   9
ATOM      9  O   UNL     1      46.508  29.736  15.532  1.00  0.00    -0.391 OA
ATOM     10  H   UNL     1      47.012  29.271  14.814  1.00  0.00     0.210 HD
ENDBRANCH   8   9
ENDBRANCH   1   8
BRANCH   2  11
ATOM     11  O   UNL     1      50.369  31.741  17.720  1.00  0.00    -0.385 OA
ATOM     12  H   UNL     1      50.720  30.925  18.163  1.00  0.00     0.211 HD
ENDBRANCH   2  11
BRANCH   3  13
ATOM     13  O   UNL     1      49.057  34.020  17.844  1.00  0.00    -0.387 OA
ATOM     14  H   UNL     1      49.811  33.620  18.352  1.00  0.00     0.211 HD
ENDBRANCH   3  13
BRANCH   4  15
ATOM     15  C   UNL     1      47.118  33.856  15.277  1.00  0.00     0.191 C 
BRANCH  15  16
ATOM     16  O   UNL     1      46.242  34.229  16.308  1.00  0.00    -0.394 OA
ATOM     17  H   UNL     1      45.322  34.011  16.004  1.00  0.00     0.210 HD
ENDBRANCH  15  16
ENDBRANCH   4  15
TORSDOF 7
ENDMDL
MODEL 2
REMARK VINA RESULT:    -4.990      1.360      4.671
REMARK INTER + INTRA:          -6.771
REMARK INTER:                  -6.321
REMARK INTRA:                  -0.450
REMARK UNBOUND:                -0.322
REMARK SMILES CO[C@]1(CO)O[C@@H](CO)[C@H](O)[C@@H]1O
REMARK SMILES IDX 3 1 12 2 10 3 7 4 6 5 2 6 1 7 4 8 5 9 13 11 11 13 8 15 9 16
REMARK H PARENT 5 10 13 12 11 14 9 17
REMARK Flexibility Score: inf
ROOT
ATOM      1  C   UNL     1      48.507  30.898  16.075  1.00  0.00     0.221 C 
ATOM      2  C   UNL     1      47.365  29.919  16.466  1.00  0.00     0.207 C 
ATOM      3  C   UNL     1      48.100  28.634  16.778  1.00  0.00     0.180 C 
ATOM      4  C   UNL     1      49.335  28.759  15.901  1.00  0.00     0.179 C 
ATOM      5  O   UNL     1      49.655  30.126  15.763  1.00  0.00    -0.337 OA
ENDROOT
BRANCH   1   6
ATOM      6  O   UNL     1      48.182  31.648  14.905  1.00  0.00    -0.349 OA
ATOM      7  C   UNL     1      48.046  33.039  15.141  1.00  0.00     0.198 C 
ENDBRANCH   1   6
BRANCH   1   8
ATOM      8  C   UNL     1      48.901  31.827  17.260  1.00  0.00     0.224 C 
BRANCH   8   9
ATOM      9  O   UNL     1      50.235  31.622  17.645  1.00  0.00    -0.391 OA
ATOM     10  H   UNL     1      50.300  30.692  17.986  1.00  0.00     0.210 HD
ENDBRANCH   8   9
ENDBRANCH   1   8
BRANCH   2  11
ATOM     11  O   UNL     1      46.431  29.739  15.424  1.00  0.00    -0.385 OA
ATOM     12  H   UNL     1      46.677  30.341  14.674  1.00  0.00     0.211 HD
ENDBRANCH   2  11
BRANCH   3  13
ATOM     13  O   UNL     1      47.355  27.493  16.440  1.00  0.00    -0.387 OA
ATOM     14  H   UNL     1      47.889  26.999  15.764  1.00  0.00     0.211 HD
ENDBRANCH   3  13
BRANCH   4  15
ATOM     15  C   UNL     1      50.539  27.983  16.452  1.00  0.00     0.191 C 
BRANCH  15  16
ATOM     16  O   UNL     1      51.497  28.854  16.990  1.00  0.00    -0.394 OA
ATOM     17  H   UNL     1      51.331  28.906  17.967  1.00  0.00     0.210 HD
ENDBRANCH  15  16
ENDBRANCH   4  15
TORSDOF 7
ENDMDL
MODEL 3
REMARK VINA RESULT:    -4.779     11.975     13.363
REMARK INTER + INTRA:          -6.498
REMARK INTER:                  -6.141
REMARK INTRA:                  -0.358
REMARK UNBOUND:                -0.322
REMARK SMILES CO[C@]1(CO)O[C@@H](CO)[C@H](O)[C@@H]1O
REMARK SMILES IDX 3 1 12 2 10 3 7 4 6 5 2 6 1 7 4 8 5 9 13 11 11 13 8 15 9 16
REMARK H PARENT 5 10 13 12 11 14 9 17
REMARK Flexibility Score: inf
ROOT
ATOM      1  C   UNL     1      40.755  39.214  23.412  1.00  0.00     0.221 C 
ATOM      2  C   UNL     1      41.368  37.863  23.877  1.00  0.00     0.207 C 
ATOM      3  C   UNL     1      40.167  36.950  23.971  1.00  0.00     0.180 C 
ATOM      4  C   UNL     1      39.048  37.934  24.271  1.00  0.00     0.179 C 
ATOM      5  O   UNL     1      39.362  39.171  23.670  1.00  0.00    -0.337 OA
ENDROOT
BRANCH   1   6
ATOM      6  O   UNL     1      41.281  40.315  24.153  1.00  0.00    -0.349 OA
ATOM      7  C   UNL     1      40.343  41.356  24.366  1.00  0.00     0.198 C 
ENDBRANCH   1   6
BRANCH   1   8
ATOM      8  C   UNL     1      40.920  39.424  21.878  1.00  0.00     0.224 C 
BRANCH   8   9
ATOM      9  O   UNL     1      42.074  40.170  21.589  1.00  0.00    -0.391 OA
ATOM     10  H   UNL     1      42.837  39.703  22.020  1.00  0.00     0.210 HD
ENDBRANCH   8   9
ENDBRANCH   1   8
BRANCH   2  11
ATOM     11  O   UNL     1      42.031  37.973  25.118  1.00  0.00    -0.385 OA
ATOM     12  H   UNL     1      42.135  37.062  25.500  1.00  0.00     0.211 HD
ENDBRANCH   2  11
BRANCH   3  13
ATOM     13  O   UNL     1      40.292  36.000  24.999  1.00  0.00    -0.387 OA
ATOM     14  H   UNL     1      39.386  35.620  25.140  1.00  0.00     0.211 HD
ENDBRANCH   3  13
BRANCH   4  15
ATOM     15  C   UNL     1      37.676  37.441  23.790  1.00  0.00     0.191 C 
BRANCH  15  16
ATOM     16  O   UNL     1      37.566  36.049  23.921  1.00  0.00    -0.394 OA
ATOM     17  H   UNL     1      36.602  35.823  23.849  1.00  0.00     0.210 HD
ENDBRANCH  15  16
ENDBRANCH   4  15
TORSDOF 7
ENDMDL
MODEL 4
REMARK VINA RESULT:    -4.740     11.177     13.190
REMARK INTER + INTRA:          -6.448
REMARK INTER:                  -6.070
REMARK INTRA:                  -0.378
REMARK UNBOUND:                -0.322
REMARK SMILES CO[C@]1(CO)O[C@@H](CO)[C@H](O)[C@@H]1O
REMARK SMILES IDX 3 1 12 2 10 3 7 4 6 5 2 6 1 7 4 8 5 9 13 11 11 13 8 15 9 16
REMARK H PARENT 5 10 13 12 11 14 9 17
REMARK Flexibility Score: inf
ROOT
ATOM      1  C   UNL     1      39.702  38.921  24.016  1.00  0.00     0.221 C 
ATOM      2  C   UNL     1      39.904  39.852  22.787  1.00  0.00     0.207 C 
ATOM      3  C   UNL     1      41.080  39.229  22.068  1.00  0.00     0.180 C 
ATOM      4  C   UNL     1      41.827  38.560  23.210  1.00  0.00     0.179 C 
ATOM      5  O   UNL     1      40.893  38.173  24.195  1.00  0.00    -0.337 OA
ENDROOT
BRANCH   1   6
ATOM      6  O   UNL     1      39.498  39.668  25.215  1.00  0.00    -0.349 OA
ATOM      7  C   UNL     1      38.142  39.731  25.621  1.00  0.00     0.198 C 
ENDBRANCH   1   6
BRANCH   1   8
ATOM      8  C   UNL     1      38.558  37.893  23.779  1.00  0.00     0.224 C 
BRANCH   8   9
ATOM      9  O   UNL     1      38.939  36.605  24.186  1.00  0.00    -0.391 OA
ATOM     10  H   UNL     1      38.668  35.980  23.464  1.00  0.00     0.210 HD
ENDBRANCH   8   9
ENDBRANCH   1   8
BRANCH   2  11
ATOM     11  O   UNL     1      40.176  41.185  23.161  1.00  0.00    -0.385 OA
ATOM     12  H   UNL     1      41.035  41.459  22.745  1.00  0.00     0.211 HD
ENDBRANCH   2  11
BRANCH   3  13
ATOM     13  O   UNL     1      41.887  40.184  21.429  1.00  0.00    -0.387 OA
ATOM     14  H   UNL     1      42.610  39.680  20.973  1.00  0.00     0.211 HD
ENDBRANCH   3  13
BRANCH   4  15
ATOM     15  C   UNL     1      42.653  37.350  22.754  1.00  0.00     0.191 C 
BRANCH  15  16
ATOM     16  O   UNL     1      43.758  37.752  21.990  1.00  0.00    -0.394 OA
ATOM     17  H   UNL     1      43.765  38.745  21.986  1.00  0.00     0.210 HD
ENDBRANCH  15  16
ENDBRANCH   4  15
TORSDOF 7
ENDMDL
MODEL 5
REMARK VINA RESULT:    -4.740      2.481      3.446
REMARK INTER + INTRA:          -6.448
REMARK INTER:                  -6.015
REMARK INTRA:                  -0.432
REMARK UNBOUND:                -0.322
REMARK SMILES CO[C@]1(CO)O[C@@H](CO)[C@H](O)[C@@H]1O
REMARK SMILES IDX 3 1 12 2 10 3 7 4 6 5 2 6 1 7 4 8 5 9 13 11 11 13 8 15 9 16
REMARK H PARENT 5 10 13 12 11 14 9 17
REMARK Flexibility Score: inf
ROOT
ATOM      1  C   UNL     1      49.403  27.573  16.025  1.00  0.00     0.221 C 
ATOM      2  C   UNL     1      50.161  28.465  17.049  1.00  0.00     0.207 C 
ATOM      3  C   UNL     1      49.368  29.753  17.042  1.00  0.00     0.180 C 
ATOM      4  C   UNL     1      48.785  29.754  15.637  1.00  0.00     0.179 C 
ATOM      5  O   UNL     1      48.592  28.419  15.226  1.00  0.00    -0.337 OA
ENDROOT
BRANCH   1   6
ATOM      6  O   UNL     1      50.302  26.904  15.141  1.00  0.00    -0.349 OA
ATOM      7  C   UNL     1      49.667  25.975  14.280  1.00  0.00     0.198 C 
ENDBRANCH   1   6
BRANCH   1   8
ATOM      8  C   UNL     1      48.445  26.571  16.733  1.00  0.00     0.224 C 
BRANCH   8   9
ATOM      9  O   UNL     1      47.118  27.026  16.697  1.00  0.00    -0.391 OA
ATOM     10  H   UNL     1      46.731  26.727  15.833  1.00  0.00     0.210 HD
ENDBRANCH   8   9
ENDBRANCH   1   8
BRANCH   2  11
ATOM     11  O   UNL     1      51.505  28.685  16.678  1.00  0.00    -0.385 OA
ATOM     12  H   UNL     1      51.528  29.410  16.000  1.00  0.00     0.211 HD
ENDBRANCH   2  11
BRANCH   3  13
ATOM     13  O   UNL     1      50.174  30.883  17.255  1.00  0.00    -0.387 OA
ATOM     14  H   UNL     1      50.463  30.845  18.204  1.00  0.00     0.211 HD
ENDBRANCH   3  13
BRANCH   4  15
ATOM     15  C   UNL     1      47.469  30.538  15.539  1.00  0.00     0.191 C 
BRANCH  15  16
ATOM     16  O   UNL     1      46.378  29.671  15.374  1.00  0.00    -0.394 OA
ATOM     17  H   UNL     1      45.752  29.844  16.125  1.00  0.00     0.210 HD
ENDBRANCH  15  16
ENDBRANCH   4  15
TORSDOF 7
ENDMDL
MODEL 6
REMARK VINA RESULT:    -4.647      1.504      3.208
REMARK INTER + INTRA:          -6.327
REMARK INTER:                  -5.926
REMARK INTRA:                  -0.401
REMARK UNBOUND:                -0.322
REMARK SMILES CO[C@]1(CO)O[C@@H](CO)[C@H](O)[C@@H]1O
REMARK SMILES IDX 3 1 12 2 10 3 7 4 6 5 2 6 1 7 4 8 5 9 13 11 11 13 8 15 9 16
REMARK H PARENT 5 10 13 12 11 14 9 17
REMARK Flexibility Score: inf
ROOT
ATOM      1  C   UNL     1      48.761  29.228  16.372  1.00  0.00     0.221 C 
ATOM      2  C   UNL     1      47.975  30.160  15.408  1.00  0.00     0.207 C 
ATOM      3  C   UNL     1      48.374  31.547  15.861  1.00  0.00     0.180 C 
ATOM      4  C   UNL     1      48.687  31.318  17.330  1.00  0.00     0.179 C 
ATOM      5  O   UNL     1      49.164  30.000  17.491  1.00  0.00    -0.337 OA
ENDROOT
BRANCH   1   6
ATOM      6  O   UNL     1      47.942  28.171  16.870  1.00  0.00    -0.349 OA
ATOM      7  C   UNL     1      48.299  26.893  16.375  1.00  0.00     0.198 C 
ENDBRANCH   1   6
BRANCH   1   8
ATOM      8  C   UNL     1      50.062  28.683  15.712  1.00  0.00     0.224 C 
BRANCH   8   9
ATOM      9  O   UNL     1      51.171  28.860  16.554  1.00  0.00    -0.391 OA
ATOM     10  H   UNL     1      51.056  29.737  17.005  1.00  0.00     0.210 HD
ENDBRANCH   8   9
ENDBRANCH   1   8
BRANCH   2  11
ATOM     11  O   UNL     1      46.579  29.971  15.498  1.00  0.00    -0.385 OA
ATOM     12  H   UNL     1      46.212  30.639  16.134  1.00  0.00     0.211 HD
ENDBRANCH   2  11
BRANCH   3  13
ATOM     13  O   UNL     1      47.339  32.483  15.705  1.00  0.00    -0.387 OA
ATOM     14  H   UNL     1      46.634  32.034  15.169  1.00  0.00     0.211 HD
ENDBRANCH   3  13
BRANCH   4  15
ATOM     15  C   UNL     1      49.704  32.324  17.886  1.00  0.00     0.191 C 
BRANCH  15  16
ATOM     16  O   UNL     1      49.198  33.632  17.838  1.00  0.00    -0.394 OA
ATOM     17  H   UNL     1      49.308  33.954  16.906  1.00  0.00     0.210 HD
ENDBRANCH  15  16
ENDBRANCH   4  15
TORSDOF 7
ENDMDL
MODEL 7
REMARK VINA RESULT:    -4.600     10.906     13.173
REMARK INTER + INTRA:          -6.267
REMARK INTER:                  -5.835
REMARK INTRA:                  -0.431
REMARK UNBOUND:                -0.322
REMARK SMILES CO[C@]1(CO)O[C@@H](CO)[C@H](O)[C@@H]1O
REMARK SMILES IDX 3 1 12 2 10 3 7 4 6 5 2 6 1 7 4 8 5 9 13 11 11 13 8 15 9 16
REMARK H PARENT 5 10 13 12 11 14 9 17
REMARK Flexibility Score: inf
ROOT
ATOM      1  C   UNL     1      40.601  40.207  23.002  1.00  0.00     0.221 C 
ATOM      2  C   UNL     1      40.427  39.422  24.333  1.00  0.00     0.207 C 
ATOM      3  C   UNL     1      41.438  38.303  24.212  1.00  0.00     0.180 C 
ATOM      4  C   UNL     1      41.524  38.121  22.705  1.00  0.00     0.179 C 
ATOM      5  O   UNL     1      41.277  39.364  22.084  1.00  0.00    -0.337 OA
ENDROOT
BRANCH   1   6
ATOM      6  O   UNL     1      39.342  40.535  22.414  1.00  0.00    -0.349 OA
ATOM      7  C   UNL     1      39.118  41.929  22.291  1.00  0.00     0.198 C 
ENDBRANCH   1   6
BRANCH   1   8
ATOM      8  C   UNL     1      41.492  41.470  23.190  1.00  0.00     0.224 C 
BRANCH   8   9
ATOM      9  O   UNL     1      42.622  41.423  22.359  1.00  0.00    -0.391 OA
ATOM     10  H   UNL     1      42.295  41.467  21.422  1.00  0.00     0.210 HD
ENDBRANCH   8   9
ENDBRANCH   1   8
BRANCH   2  11
ATOM     11  O   UNL     1      39.118  38.919  24.493  1.00  0.00    -0.385 OA
ATOM     12  H   UNL     1      38.870  38.423  23.669  1.00  0.00     0.211 HD
ENDBRANCH   2  11
BRANCH   3  13
ATOM     13  O   UNL     1      41.010  37.122  24.839  1.00  0.00    -0.387 OA
ATOM     14  H   UNL     1      40.414  37.400  25.583  1.00  0.00     0.211 HD
ENDBRANCH   3  13
BRANCH   4  15
ATOM     15  C   UNL     1      42.877  37.557  22.249  1.00  0.00     0.191 C 
BRANCH  15  16
ATOM     16  O   UNL     1      43.905  38.490  22.448  1.00  0.00    -0.394 OA
ATOM     17  H   UNL     1      44.758  38.041  22.212  1.00  0.00     0.210 HD
ENDBRANCH  15  16
ENDBRANCH   4  15
TORSDOF 7
ENDMDL
MODEL 8
REMARK VINA RESULT:    -4.535     11.111     13.283
REMARK INTER + INTRA:          -6.182
REMARK INTER:                  -5.950
REMARK INTRA:                  -0.232
REMARK UNBOUND:                -0.322
REMARK SMILES CO[C@]1(CO)O[C@@H](CO)[C@H](O)[C@@H]1O
REMARK SMILES IDX 3 1 12 2 10 3 7 4 6 5 2 6 1 7 4 8 5 9 13 11 11 13 8 15 9 16
REMARK H PARENT 5 10 13 12 11 14 9 17
REMARK Flexibility Score: inf
ROOT
ATOM      1  C   UNL     1      40.843  40.502  23.445  1.00  0.00     0.221 C 
ATOM      2  C   UNL     1      41.604  40.110  22.147  1.00  0.00     0.207 C 
ATOM      3  C   UNL     1      41.595  38.598  22.182  1.00  0.00     0.180 C 
ATOM      4  C   UNL     1      41.531  38.319  23.675  1.00  0.00     0.179 C 
ATOM      5  O   UNL     1      40.832  39.372  24.302  1.00  0.00    -0.337 OA
ENDROOT
BRANCH   1   6
ATOM      6  O   UNL     1      41.506  41.551  24.150  1.00  0.00    -0.349 OA
ATOM      7  C   UNL     1      41.283  41.525  25.549  1.00  0.00     0.198 C 
ENDBRANCH   1   6
BRANCH   1   8
ATOM      8  C   UNL     1      39.355  40.859  23.155  1.00  0.00     0.224 C 
BRANCH   8   9
ATOM      9  O   UNL     1      39.191  41.324  21.841  1.00  0.00    -0.391 OA
ATOM     10  H   UNL     1      38.623  40.662  21.367  1.00  0.00     0.210 HD
ENDBRANCH   8   9
ENDBRANCH   1   8
BRANCH   2  11
ATOM     11  O   UNL     1      42.921  40.617  22.123  1.00  0.00    -0.385 OA
ATOM     12  H   UNL     1      43.028  41.248  22.882  1.00  0.00     0.211 HD
ENDBRANCH   2  11
BRANCH   3  13
ATOM     13  O   UNL     1      42.751  38.040  21.614  1.00  0.00    -0.387 OA
ATOM     14  H   UNL     1      42.548  37.082  21.450  1.00  0.00     0.211 HD
ENDBRANCH   3  13
BRANCH   4  15
ATOM     15  C   UNL     1      40.870  36.973  24.002  1.00  0.00     0.191 C 
BRANCH  15  16
ATOM     16  O   UNL     1      39.490  37.123  24.201  1.00  0.00    -0.394 OA
ATOM     17  H   UNL     1      39.034  36.686  23.436  1.00  0.00     0.210 HD
ENDBRANCH  15  16
ENDBRANCH   4  15
TORSDOF 7
ENDMDL
MODEL 9
REMARK VINA RESULT:    -4.414     12.469     13.563
REMARK INTER + INTRA:          -6.027
REMARK INTER:                  -5.601
REMARK INTRA:                  -0.425
REMARK UNBOUND:                -0.322
REMARK SMILES CO[C@]1(CO)O[C@@H](CO)[C@H](O)[C@@H]1O
REMARK SMILES IDX 3 1 12 2 10 3 7 4 6 5 2 6 1 7 4 8 5 9 13 11 11 13 8 15 9 16
REMARK H PARENT 5 10 13 12 11 14 9 17
REMARK Flexibility Score: inf
ROOT
ATOM      1  C   UNL     1      40.659  38.851  24.047  1.00  0.00     0.221 C 
ATOM      2  C   UNL     1      40.885  39.428  22.620  1.00  0.00     0.207 C 
ATOM      3  C   UNL     1      41.461  40.801  22.887  1.00  0.00     0.180 C 
ATOM      4  C   UNL     1      40.859  41.134  24.243  1.00  0.00     0.179 C 
ATOM      5  O   UNL     1      40.670  39.935  24.961  1.00  0.00    -0.337 OA
ENDROOT
BRANCH   1   6
ATOM      6  O   UNL     1      39.384  38.221  24.166  1.00  0.00    -0.349 OA
ATOM      7  C   UNL     1      39.446  36.806  24.156  1.00  0.00     0.198 C 
ENDBRANCH   1   6
BRANCH   1   8
ATOM      8  C   UNL     1      41.812  37.895  24.471  1.00  0.00     0.224 C 
BRANCH   8   9
ATOM      9  O   UNL     1      42.511  38.402  25.578  1.00  0.00    -0.391 OA
ATOM     10  H   UNL     1      42.443  37.723  26.299  1.00  0.00     0.210 HD
ENDBRANCH   8   9
ENDBRANCH   1   8
BRANCH   2  11
ATOM     11  O   UNL     1      39.688  39.507  21.877  1.00  0.00    -0.385 OA
ATOM     12  H   UNL     1      38.959  39.799  22.485  1.00  0.00     0.211 HD
ENDBRANCH   2  11
BRANCH   3  13
ATOM     13  O   UNL     1      41.076  41.743  21.919  1.00  0.00    -0.387 OA
ATOM     14  H   UNL     1      40.102  41.616  21.777  1.00  0.00     0.211 HD
ENDBRANCH   3  13
BRANCH   4  15
ATOM     15  C   UNL     1      41.723  42.110  25.054  1.00  0.00     0.191 C 
BRANCH  15  16
ATOM     16  O   UNL     1      42.446  42.966  24.209  1.00  0.00    -0.394 OA
ATOM     17  H   UNL     1      43.409  42.776  24.355  1.00  0.00     0.210 HD
ENDBRANCH  15  16
ENDBRANCH   4  15
TORSDOF 7
ENDMDL
