MODEL 1
REMARK VINA RESULT:    -3.394      0.000      0.000
REMARK INTER + INTRA:          -4.298
REMARK INTER:                  -4.088
REMARK INTRA:                  -0.210
REMARK UNBOUND:                -0.210
REMARK SMILES OCC(O)CO
REMARK SMILES IDX 3 1 5 2 6 3 2 5 1 6 4 8
REMARK H PARENT 6 4 1 7 4 9
REMARK Flexibility Score: inf
ROOT
ATOM      1  C   UNL     1      25.277 -16.651   8.254  1.00  0.00     0.165 C 
ENDROOT
BRANCH   1   2
ATOM      2  C   UNL     1      26.489 -15.856   7.753  1.00  0.00     0.190 C 
BRANCH   2   3
ATOM      3  O   UNL     1      27.673 -16.379   8.290  1.00  0.00    -0.394 OA
ATOM      4  H   UNL     1      27.439 -17.271   8.657  1.00  0.00     0.210 HD
ENDBRANCH   2   3
ENDBRANCH   1   2
BRANCH   1   5
ATOM      5  C   UNL     1      25.136 -18.006   7.537  1.00  0.00     0.190 C 
BRANCH   5   6
ATOM      6  O   UNL     1      25.939 -18.045   6.387  1.00  0.00    -0.394 OA
ATOM      7  H   UNL     1      26.281 -17.124   6.243  1.00  0.00     0.210 HD
ENDBRANCH   5   6
ENDBRANCH   1   5
BRANCH   1   8
ATOM      8  O   UNL     1      25.405 -16.857   9.637  1.00  0.00    -0.388 OA
ATOM      9  H   UNL     1      25.950 -16.106   9.991  1.00  0.00     0.211 HD
ENDBRANCH   1   8
TORSDOF 5
ENDMDL
MODEL 2
REMARK VINA RESULT:    -3.103      0.683      2.673
REMARK INTER + INTRA:          -3.948
REMARK INTER:                  -3.945
REMARK INTRA:                  -0.003
REMARK UNBOUND:                -0.210
REMARK SMILES OCC(O)CO
REMARK SMILES IDX 3 1 5 2 6 3 2 5 1 6 4 8
REMARK H PARENT 6 4 1 7 4 9
REMARK Flexibility Score: inf
ROOT
ATOM      1  C   UNL     1      26.047 -16.482   7.561  1.00  0.00     0.165 C 
ENDROOT
BRANCH   1   2
ATOM      2  C   UNL     1      25.726 -17.847   6.939  1.00  0.00     0.190 C 
BRANCH   2   3
ATOM      3  O   UNL     1      26.121 -17.877   5.595  1.00  0.00    -0.394 OA
ATOM      4  H   UNL     1      25.376 -18.305   5.098  1.00  0.00     0.210 HD
ENDBRANCH   2   3
ENDBRANCH   1   2
BRANCH   1   5
ATOM      5  C   UNL     1      25.092 -16.135   8.717  1.00  0.00     0.190 C 
BRANCH   5   6
ATOM      6  O   UNL     1      25.282 -17.009   9.798  1.00  0.00    -0.394 OA
ATOM      7  H   UNL     1      24.734 -16.661  10.550  1.00  0.00     0.210 HD
ENDBRANCH   5   6
ENDBRANCH   1   5
BRANCH   1   8
ATOM      8  O   UNL     1      27.372 -16.491   8.025  1.00  0.00    -0.388 OA
ATOM      9  H   UNL     1      27.951 -16.274   7.247  1.00  0.00     0.211 HD
ENDBRANCH   1   8
TORSDOF 5
ENDMDL
MODEL 3
REMARK VINA RESULT:    -2.945      8.084      9.045
REMARK INTER + INTRA:          -3.758
REMARK INTER:                  -3.554
REMARK INTRA:                  -0.204
REMARK UNBOUND:                -0.210
REMARK SMILES OCC(O)CO
REMARK SMILES IDX 3 1 5 2 6 3 2 5 1 6 4 8
REMARK H PARENT 6 4 1 7 4 9
REMARK Flexibility Score: inf
ROOT
ATOM      1  C   UNL     1      32.557 -12.325  13.008  1.00  0.00     0.165 C 
ENDROOT
BRANCH   1   2
ATOM      2  C   UNL     1      32.609 -10.951  12.327  1.00  0.00     0.190 C 
BRANCH   2   3
ATOM      3  O   UNL     1      32.369 -11.077  10.953  1.00  0.00    -0.394 OA
ATOM      4  H   UNL     1      32.111 -10.172  10.634  1.00  0.00     0.210 HD
ENDBRANCH   2   3
ENDBRANCH   1   2
BRANCH   1   5
ATOM      5  C   UNL     1      31.113 -12.816  13.210  1.00  0.00     0.190 C 
BRANCH   5   6
ATOM      6  O   UNL     1      30.365 -12.661  12.034  1.00  0.00    -0.394 OA
ATOM      7  H   UNL     1      29.551 -13.220  12.133  1.00  0.00     0.210 HD
ENDBRANCH   5   6
ENDBRANCH   1   5
BRANCH   1   8
ATOM      8  O   UNL     1      33.269 -13.250  12.227  1.00  0.00    -0.388 OA
ATOM      9  H   UNL     1      34.070 -13.513  12.751  1.00  0.00     0.211 HD
ENDBRANCH   1   8
TORSDOF 5
ENDMDL
MODEL 4
REMARK VINA RESULT:    -2.892     16.971     17.849
REMARK INTER + INTRA:          -3.694
REMARK INTER:                  -3.472
REMARK INTRA:                  -0.222
REMARK UNBOUND:                -0.210
REMARK SMILES OCC(O)CO
REMARK SMILES IDX 3 1 5 2 6 3 2 5 1 6 4 8
REMARK H PARENT 6 4 1 7 4 9
REMARK Flexibility Score: inf
ROOT
ATOM      1  C   UNL     1      30.710  -4.811  -4.605  1.00  0.00     0.165 C 
ENDROOT
BRANCH   1   2
ATOM      2  C   UNL     1      30.100  -3.411  -4.470  1.00  0.00     0.190 C 
BRANCH   2   3
ATOM      3  O   UNL     1      28.815  -3.488  -3.916  1.00  0.00    -0.394 OA
ATOM      4  H   UNL     1      28.274  -2.793  -4.376  1.00  0.00     0.210 HD
ENDBRANCH   2   3
ENDBRANCH   1   2
BRANCH   1   5
ATOM      5  C   UNL     1      31.405  -5.267  -3.310  1.00  0.00     0.190 C 
BRANCH   5   6
ATOM      6  O   UNL     1      30.648  -4.907  -2.186  1.00  0.00    -0.394 OA
ATOM      7  H   UNL     1      30.926  -5.508  -1.446  1.00  0.00     0.210 HD
ENDBRANCH   5   6
ENDBRANCH   1   5
BRANCH   1   8
ATOM      8  O   UNL     1      29.697  -5.721  -4.947  1.00  0.00    -0.388 OA
ATOM      9  H   UNL     1      29.821  -5.945  -5.906  1.00  0.00     0.211 HD
ENDBRANCH   1   8
TORSDOF 5
ENDMDL
MODEL 5
REMARK VINA RESULT:    -2.866     17.369     17.929
REMARK INTER + INTRA:          -3.662
REMARK INTER:                  -3.441
REMARK INTRA:                  -0.221
REMARK UNBOUND:                -0.210
REMARK SMILES OCC(O)CO
REMARK SMILES IDX 3 1 5 2 6 3 2 5 1 6 4 8
REMARK H PARENT 6 4 1 7 4 9
REMARK Flexibility Score: inf
ROOT
ATOM      1  C   UNL     1      30.109  -3.519  -4.289  1.00  0.00     0.165 C 
ENDROOT
BRANCH   1   2
ATOM      2  C   UNL     1      31.077  -3.762  -3.125  1.00  0.00     0.190 C 
BRANCH   2   3
ATOM      3  O   UNL     1      30.679  -4.882  -2.383  1.00  0.00    -0.394 OA
ATOM      4  H   UNL     1      31.506  -5.253  -1.978  1.00  0.00     0.210 HD
ENDBRANCH   2   3
ENDBRANCH   1   2
BRANCH   1   5
ATOM      5  C   UNL     1      30.231  -4.599  -5.379  1.00  0.00     0.190 C 
BRANCH   5   6
ATOM      6  O   UNL     1      29.718  -5.823  -4.927  1.00  0.00    -0.394 OA
ATOM      7  H   UNL     1      30.377  -6.191  -4.280  1.00  0.00     0.210 HD
ENDBRANCH   5   6
ENDBRANCH   1   5
BRANCH   1   8
ATOM      8  O   UNL     1      28.795  -3.491  -3.794  1.00  0.00    -0.388 OA
ATOM      9  H   UNL     1      28.847  -3.711  -2.827  1.00  0.00     0.211 HD
ENDBRANCH   1   8
TORSDOF 5
ENDMDL
MODEL 6
REMARK VINA RESULT:    -2.821     10.782     11.152
REMARK INTER + INTRA:          -3.608
REMARK INTER:                  -3.385
REMARK INTRA:                  -0.223
REMARK UNBOUND:                -0.210
REMARK SMILES OCC(O)CO
REMARK SMILES IDX 3 1 5 2 6 3 2 5 1 6 4 8
REMARK H PARENT 6 4 1 7 4 9
REMARK Flexibility Score: inf
ROOT
ATOM      1  C   UNL     1      30.610  -7.936  11.576  1.00  0.00     0.165 C 
ENDROOT
BRANCH   1   2
ATOM      2  C   UNL     1      31.468  -6.879  10.870  1.00  0.00     0.190 C 
BRANCH   2   3
ATOM      3  O   UNL     1      31.797  -7.301   9.575  1.00  0.00    -0.394 OA
ATOM      4  H   UNL     1      31.361  -6.658   8.957  1.00  0.00     0.210 HD
ENDBRANCH   2   3
ENDBRANCH   1   2
BRANCH   1   5
ATOM      5  C   UNL     1      31.399  -9.227  11.860  1.00  0.00     0.190 C 
BRANCH   5   6
ATOM      6  O   UNL     1      32.780  -8.989  11.797  1.00  0.00    -0.394 OA
ATOM      7  H   UNL     1      33.222  -9.875  11.722  1.00  0.00     0.210 HD
ENDBRANCH   5   6
ENDBRANCH   1   5
BRANCH   1   8
ATOM      8  O   UNL     1      30.123  -7.402  12.779  1.00  0.00    -0.388 OA
ATOM      9  H   UNL     1      29.331  -6.848  12.550  1.00  0.00     0.211 HD
ENDBRANCH   1   8
TORSDOF 5
ENDMDL
MODEL 7
REMARK VINA RESULT:    -2.814     11.347     12.213
REMARK INTER + INTRA:          -3.600
REMARK INTER:                  -3.400
REMARK INTRA:                  -0.200
REMARK UNBOUND:                -0.210
REMARK SMILES OCC(O)CO
REMARK SMILES IDX 3 1 5 2 6 3 2 5 1 6 4 8
REMARK H PARENT 6 4 1 7 4 9
REMARK Flexibility Score: inf
ROOT
ATOM      1  C   UNL     1      31.875  -6.511  10.830  1.00  0.00     0.165 C 
ENDROOT
BRANCH   1   2
ATOM      2  C   UNL     1      30.698  -7.457  11.099  1.00  0.00     0.190 C 
BRANCH   2   3
ATOM      3  O   UNL     1      30.306  -7.383  12.442  1.00  0.00    -0.394 OA
ATOM      4  H   UNL     1      30.487  -8.279  12.831  1.00  0.00     0.210 HD
ENDBRANCH   2   3
ENDBRANCH   1   2
BRANCH   1   5
ATOM      5  C   UNL     1      33.089  -6.831  11.720  1.00  0.00     0.190 C 
BRANCH   5   6
ATOM      6  O   UNL     1      33.245  -8.217  11.870  1.00  0.00    -0.394 OA
ATOM      7  H   UNL     1      32.376  -8.571  12.196  1.00  0.00     0.210 HD
ENDBRANCH   5   6
ENDBRANCH   1   5
BRANCH   1   8
ATOM      8  O   UNL     1      32.239  -6.605   9.478  1.00  0.00    -0.388 OA
ATOM      9  H   UNL     1      31.677  -5.954   8.982  1.00  0.00     0.211 HD
ENDBRANCH   1   8
TORSDOF 5
ENDMDL
MODEL 8
REMARK VINA RESULT:    -2.790     16.618     17.096
REMARK INTER + INTRA:          -3.571
REMARK INTER:                  -3.543
REMARK INTRA:                  -0.028
REMARK UNBOUND:                -0.210
REMARK SMILES OCC(O)CO
REMARK SMILES IDX 3 1 5 2 6 3 2 5 1 6 4 8
REMARK H PARENT 6 4 1 7 4 9
REMARK Flexibility Score: inf
ROOT
ATOM      1  C   UNL     1      33.144  -4.799  -2.643  1.00  0.00     0.165 C 
ENDROOT
BRANCH   1   2
ATOM      2  C   UNL     1      33.962  -5.783  -1.797  1.00  0.00     0.190 C 
BRANCH   2   3
ATOM      3  O   UNL     1      33.814  -5.496  -0.433  1.00  0.00    -0.394 OA
ATOM      4  H   UNL     1      34.688  -5.136  -0.131  1.00  0.00     0.210 HD
ENDBRANCH   2   3
ENDBRANCH   1   2
BRANCH   1   5
ATOM      5  C   UNL     1      31.809  -5.408  -3.108  1.00  0.00     0.190 C 
BRANCH   5   6
ATOM      6  O   UNL     1      30.744  -4.917  -2.338  1.00  0.00    -0.394 OA
ATOM      7  H   UNL     1      31.009  -4.014  -2.021  1.00  0.00     0.210 HD
ENDBRANCH   5   6
ENDBRANCH   1   5
BRANCH   1   8
ATOM      8  O   UNL     1      32.901  -3.640  -1.889  1.00  0.00    -0.388 OA
ATOM      9  H   UNL     1      33.247  -3.812  -0.975  1.00  0.00     0.211 HD
ENDBRANCH   1   8
TORSDOF 5
ENDMDL
MODEL 9
REMARK VINA RESULT:    -2.773      9.365     10.564
REMARK INTER + INTRA:          -3.550
REMARK INTER:                  -3.521
REMARK INTRA:                  -0.029
REMARK UNBOUND:                -0.210
REMARK SMILES OCC(O)CO
REMARK SMILES IDX 3 1 5 2 6 3 2 5 1 6 4 8
REMARK H PARENT 6 4 1 7 4 9
REMARK Flexibility Score: inf
ROOT
ATOM      1  C   UNL     1      31.679  -8.841  12.146  1.00  0.00     0.165 C 
ENDROOT
BRANCH   1   2
ATOM      2  C   UNL     1      30.903  -7.811  11.316  1.00  0.00     0.190 C 
BRANCH   2   3
ATOM      3  O   UNL     1      31.635  -7.448  10.178  1.00  0.00    -0.394 OA
ATOM      4  H   UNL     1      31.426  -8.130   9.487  1.00  0.00     0.210 HD
ENDBRANCH   2   3
ENDBRANCH   1   2
BRANCH   1   5
ATOM      5  C   UNL     1      31.234 -10.283  11.843  1.00  0.00     0.190 C 
BRANCH   5   6
ATOM      6  O   UNL     1      32.182 -10.937  11.041  1.00  0.00    -0.394 OA
ATOM      7  H   UNL     1      31.755 -11.771  10.712  1.00  0.00     0.210 HD
ENDBRANCH   5   6
ENDBRANCH   1   5
BRANCH   1   8
ATOM      8  O   UNL     1      33.051  -8.701  11.883  1.00  0.00    -0.388 OA
ATOM      9  H   UNL     1      33.535  -9.102  12.652  1.00  0.00     0.211 HD
ENDBRANCH   1   8
TORSDOF 5
ENDMDL
