MODEL 1
REMARK VINA RESULT:    -4.744      0.000      0.000
REMARK INTER + INTRA:          -6.026
REMARK INTER:                  -5.854
REMARK INTRA:                  -0.172
REMARK UNBOUND:                -0.172
REMARK SMILES CCCCC=CC(C)=O
REMARK SMILES IDX 4 1 3 2 2 3 1 4 5 5 6 6 7 7 9 8 8 9
REMARK H PARENT
REMARK Flexibility Score: inf
ROOT
ATOM      1  C   UNL     1       9.306 -25.825 -25.647  1.00  0.00     0.027 C 
ENDROOT
BRANCH   1   2
ATOM      2  C   UNL     1      10.118 -24.574 -26.002  1.00  0.00     0.004 C 
BRANCH   2   3
ATOM      3  C   UNL     1      11.623 -24.870 -25.977  1.00  0.00    -0.003 C 
ATOM      4  C   UNL     1      12.438 -23.581 -25.966  1.00  0.00     0.004 C 
ENDBRANCH   2   3
ENDBRANCH   1   2
BRANCH   1   5
ATOM      5  C   UNL     1       8.263 -25.521 -24.612  1.00  0.00    -0.023 C 
ATOM      6  C   UNL     1       7.811 -24.275 -24.422  1.00  0.00     0.042 C 
BRANCH   6   7
ATOM      7  C   UNL     1       6.795 -23.926 -23.408  1.00  0.00     0.152 C 
ATOM      8  O   UNL     1       7.029 -22.966 -22.625  1.00  0.00    -0.295 OA
ATOM      9  C   UNL     1       5.500 -24.668 -23.278  1.00  0.00     0.093 C 
ENDBRANCH   6   7
ENDBRANCH   1   5
TORSDOF 4
ENDMDL
MODEL 2
REMARK VINA RESULT:    -3.992      8.063      8.931
REMARK INTER + INTRA:          -5.097
REMARK INTER:                  -4.963
REMARK INTRA:                  -0.134
REMARK UNBOUND:                -0.172
REMARK SMILES CCCCC=CC(C)=O
REMARK SMILES IDX 4 1 3 2 2 3 1 4 5 5 6 6 7 7 9 8 8 9
REMARK H PARENT
REMARK Flexibility Score: inf
ROOT
ATOM      1  C   UNL     1      12.696 -17.843 -19.127  1.00  0.00     0.027 C 
ENDROOT
BRANCH   1   2
ATOM      2  C   UNL     1      14.130 -17.749 -19.660  1.00  0.00     0.004 C 
BRANCH   2   3
ATOM      3  C   UNL     1      15.133 -17.583 -18.513  1.00  0.00    -0.003 C 
ATOM      4  C   UNL     1      15.008 -18.718 -17.502  1.00  0.00     0.004 C 
ENDBRANCH   2   3
ENDBRANCH   1   2
BRANCH   1   5
ATOM      5  C   UNL     1      11.723 -18.138 -20.232  1.00  0.00    -0.023 C 
ATOM      6  C   UNL     1      10.402 -18.150 -20.015  1.00  0.00     0.042 C 
BRANCH   6   7
ATOM      7  C   UNL     1       9.409 -18.447 -21.067  1.00  0.00     0.152 C 
ATOM      8  O   UNL     1       8.513 -19.299 -20.828  1.00  0.00    -0.295 OA
ATOM      9  C   UNL     1       9.428 -17.772 -22.405  1.00  0.00     0.093 C 
ENDBRANCH   6   7
ENDBRANCH   1   5
TORSDOF 4
ENDMDL
MODEL 3
REMARK VINA RESULT:    -3.983      8.088      9.678
REMARK INTER + INTRA:          -5.086
REMARK INTER:                  -5.003
REMARK INTRA:                  -0.082
REMARK UNBOUND:                -0.172
REMARK SMILES CCCCC=CC(C)=O
REMARK SMILES IDX 4 1 3 2 2 3 1 4 5 5 6 6 7 7 9 8 8 9
REMARK H PARENT
REMARK Flexibility Score: inf
ROOT
ATOM      1  C   UNL     1      10.406 -18.161 -19.847  1.00  0.00     0.027 C 
ENDROOT
BRANCH   1   2
ATOM      2  C   UNL     1       9.679 -18.258 -21.193  1.00  0.00     0.004 C 
BRANCH   2   3
ATOM      3  C   UNL     1       8.406 -19.103 -21.071  1.00  0.00    -0.003 C 
ATOM      4  C   UNL     1       7.399 -18.745 -22.160  1.00  0.00     0.004 C 
ENDBRANCH   2   3
ENDBRANCH   1   2
BRANCH   1   5
ATOM      5  C   UNL     1      11.895 -18.223 -20.027  1.00  0.00    -0.023 C 
ATOM      6  C   UNL     1      12.725 -17.570 -19.205  1.00  0.00     0.042 C 
BRANCH   6   7
ATOM      7  C   UNL     1      14.195 -17.592 -19.350  1.00  0.00     0.152 C 
ATOM      8  O   UNL     1      14.687 -17.547 -20.509  1.00  0.00    -0.295 OA
ATOM      9  C   UNL     1      15.119 -17.665 -18.173  1.00  0.00     0.093 C 
ENDBRANCH   6   7
ENDBRANCH   1   5
TORSDOF 4
ENDMDL
MODEL 4
REMARK VINA RESULT:    -3.818      6.815      8.158
REMARK INTER + INTRA:          -4.883
REMARK INTER:                  -4.629
REMARK INTRA:                  -0.254
REMARK UNBOUND:                -0.172
REMARK SMILES CCCCC=CC(C)=O
REMARK SMILES IDX 4 1 3 2 2 3 1 4 5 5 6 6 7 7 9 8 8 9
REMARK H PARENT
REMARK Flexibility Score: inf
ROOT
ATOM      1  C   UNL     1       9.277 -17.532 -22.751  1.00  0.00     0.027 C 
ENDROOT
BRANCH   1   2
ATOM      2  C   UNL     1       8.896 -18.682 -23.690  1.00  0.00     0.004 C 
BRANCH   2   3
ATOM      3  C   UNL     1       7.544 -19.289 -23.295  1.00  0.00    -0.003 C 
ATOM      4  C   UNL     1       7.038 -18.701 -21.982  1.00  0.00     0.004 C 
ENDBRANCH   2   3
ENDBRANCH   1   2
BRANCH   1   5
ATOM      5  C   UNL     1      10.622 -17.765 -22.125  1.00  0.00    -0.023 C 
ATOM      6  C   UNL     1      10.744 -18.374 -20.940  1.00  0.00     0.042 C 
BRANCH   6   7
ATOM      7  C   UNL     1      12.044 -18.614 -20.280  1.00  0.00     0.152 C 
ATOM      8  O   UNL     1      12.621 -19.718 -20.468  1.00  0.00    -0.295 OA
ATOM      9  C   UNL     1      12.699 -17.594 -19.399  1.00  0.00     0.093 C 
ENDBRANCH   6   7
ENDBRANCH   1   5
TORSDOF 4
ENDMDL
MODEL 5
REMARK VINA RESULT:    -3.786      8.074      9.138
REMARK INTER + INTRA:          -4.843
REMARK INTER:                  -4.582
REMARK INTRA:                  -0.260
REMARK UNBOUND:                -0.172
REMARK SMILES CCCCC=CC(C)=O
REMARK SMILES IDX 4 1 3 2 2 3 1 4 5 5 6 6 7 7 9 8 8 9
REMARK H PARENT
REMARK Flexibility Score: inf
ROOT
ATOM      1  C   UNL     1      14.753 -17.591 -19.444  1.00  0.00     0.027 C 
ENDROOT
BRANCH   1   2
ATOM      2  C   UNL     1      15.489 -18.890 -19.093  1.00  0.00     0.004 C 
BRANCH   2   3
ATOM      3  C   UNL     1      15.746 -19.732 -20.348  1.00  0.00    -0.003 C 
ATOM      4  C   UNL     1      14.769 -20.899 -20.439  1.00  0.00     0.004 C 
ENDBRANCH   2   3
ENDBRANCH   1   2
BRANCH   1   5
ATOM      5  C   UNL     1      13.308 -17.661 -19.045  1.00  0.00    -0.023 C 
ATOM      6  C   UNL     1      12.350 -17.937 -19.938  1.00  0.00     0.042 C 
BRANCH   6   7
ATOM      7  C   UNL     1      10.915 -18.004 -19.595  1.00  0.00     0.152 C 
ATOM      8  O   UNL     1      10.545 -17.596 -18.462  1.00  0.00    -0.295 OA
ATOM      9  C   UNL     1       9.885 -18.539 -20.544  1.00  0.00     0.093 C 
ENDBRANCH   6   7
ENDBRANCH   1   5
TORSDOF 4
ENDMDL
MODEL 6
REMARK VINA RESULT:    -3.776      7.965      9.393
REMARK INTER + INTRA:          -4.831
REMARK INTER:                  -4.707
REMARK INTRA:                  -0.124
REMARK UNBOUND:                -0.172
REMARK SMILES CCCCC=CC(C)=O
REMARK SMILES IDX 4 1 3 2 2 3 1 4 5 5 6 6 7 7 9 8 8 9
REMARK H PARENT
REMARK Flexibility Score: inf
ROOT
ATOM      1  C   UNL     1      14.357 -21.090 -20.871  1.00  0.00     0.027 C 
ENDROOT
BRANCH   1   2
ATOM      2  C   UNL     1      15.650 -21.330 -21.659  1.00  0.00     0.004 C 
BRANCH   2   3
ATOM      3  C   UNL     1      15.718 -22.772 -22.178  1.00  0.00    -0.003 C 
ATOM      4  C   UNL     1      15.490 -22.827 -23.685  1.00  0.00     0.004 C 
ENDBRANCH   2   3
ENDBRANCH   1   2
BRANCH   1   5
ATOM      5  C   UNL     1      14.643 -20.470 -19.534  1.00  0.00    -0.023 C 
ATOM      6  C   UNL     1      14.976 -19.178 -19.421  1.00  0.00     0.042 C 
BRANCH   6   7
ATOM      7  C   UNL     1      15.278 -18.527 -18.130  1.00  0.00     0.152 C 
ATOM      8  O   UNL     1      16.054 -17.535 -18.121  1.00  0.00    -0.295 OA
ATOM      9  C   UNL     1      14.695 -19.003 -16.833  1.00  0.00     0.093 C 
ENDBRANCH   6   7
ENDBRANCH   1   5
TORSDOF 4
ENDMDL
MODEL 7
REMARK VINA RESULT:    -3.745      8.884     10.123
REMARK INTER + INTRA:          -4.792
REMARK INTER:                  -4.648
REMARK INTRA:                  -0.144
REMARK UNBOUND:                -0.172
REMARK SMILES CCCCC=CC(C)=O
REMARK SMILES IDX 4 1 3 2 2 3 1 4 5 5 6 6 7 7 9 8 8 9
REMARK H PARENT
REMARK Flexibility Score: inf
ROOT
ATOM      1  C   UNL     1      11.925 -18.033 -20.453  1.00  0.00     0.027 C 
ENDROOT
BRANCH   1   2
ATOM      2  C   UNL     1      10.451 -18.171 -20.051  1.00  0.00     0.004 C 
BRANCH   2   3
ATOM      3  C   UNL     1       9.549 -18.241 -21.289  1.00  0.00    -0.003 C 
ATOM      4  C   UNL     1      10.170 -17.500 -22.468  1.00  0.00     0.004 C 
ENDBRANCH   2   3
ENDBRANCH   1   2
BRANCH   1   5
ATOM      5  C   UNL     1      12.801 -17.848 -19.248  1.00  0.00    -0.023 C 
ATOM      6  C   UNL     1      14.034 -18.366 -19.196  1.00  0.00     0.042 C 
BRANCH   6   7
ATOM      7  C   UNL     1      14.927 -18.221 -18.028  1.00  0.00     0.152 C 
ATOM      8  O   UNL     1      15.926 -17.458 -18.123  1.00  0.00    -0.295 OA
ATOM      9  C   UNL     1      14.689 -18.944 -16.738  1.00  0.00     0.093 C 
ENDBRANCH   6   7
ENDBRANCH   1   5
TORSDOF 4
ENDMDL
MODEL 8
REMARK VINA RESULT:    -3.714      7.373      8.106
REMARK INTER + INTRA:          -4.755
REMARK INTER:                  -4.601
REMARK INTRA:                  -0.154
REMARK UNBOUND:                -0.172
REMARK SMILES CCCCC=CC(C)=O
REMARK SMILES IDX 4 1 3 2 2 3 1 4 5 5 6 6 7 7 9 8 8 9
REMARK H PARENT
REMARK Flexibility Score: inf
ROOT
ATOM      1  C   UNL     1      15.924 -23.051 -23.196  1.00  0.00     0.027 C 
ENDROOT
BRANCH   1   2
ATOM      2  C   UNL     1      17.344 -23.602 -23.021  1.00  0.00     0.004 C 
BRANCH   2   3
ATOM      3  C   UNL     1      17.314 -25.055 -22.531  1.00  0.00    -0.003 C 
ATOM      4  C   UNL     1      18.414 -25.315 -21.507  1.00  0.00     0.004 C 
ENDBRANCH   2   3
ENDBRANCH   1   2
BRANCH   1   5
ATOM      5  C   UNL     1      15.396 -22.489 -21.908  1.00  0.00    -0.023 C 
ATOM      6  C   UNL     1      14.658 -21.372 -21.884  1.00  0.00     0.042 C 
BRANCH   6   7
ATOM      7  C   UNL     1      14.128 -20.776 -20.641  1.00  0.00     0.152 C 
ATOM      8  O   UNL     1      12.901 -20.906 -20.385  1.00  0.00    -0.295 OA
ATOM      9  C   UNL     1      14.994 -20.024 -19.677  1.00  0.00     0.093 C 
ENDBRANCH   6   7
ENDBRANCH   1   5
TORSDOF 4
ENDMDL
MODEL 9
REMARK VINA RESULT:    -3.697      7.740      9.064
REMARK INTER + INTRA:          -4.733
REMARK INTER:                  -4.558
REMARK INTRA:                  -0.175
REMARK UNBOUND:                -0.172
REMARK SMILES CCCCC=CC(C)=O
REMARK SMILES IDX 4 1 3 2 2 3 1 4 5 5 6 6 7 7 9 8 8 9
REMARK H PARENT
REMARK Flexibility Score: inf
ROOT
ATOM      1  C   UNL     1      14.246 -20.930 -21.848  1.00  0.00     0.027 C 
ENDROOT
BRANCH   1   2
ATOM      2  C   UNL     1      13.581 -20.872 -20.467  1.00  0.00     0.004 C 
BRANCH   2   3
ATOM      3  C   UNL     1      14.610 -20.557 -19.375  1.00  0.00    -0.003 C 
ATOM      4  C   UNL     1      14.565 -19.083 -18.984  1.00  0.00     0.004 C 
ENDBRANCH   2   3
ENDBRANCH   1   2
BRANCH   1   5
ATOM      5  C   UNL     1      15.279 -22.017 -21.909  1.00  0.00    -0.023 C 
ATOM      6  C   UNL     1      15.692 -22.523 -23.078  1.00  0.00     0.042 C 
BRANCH   6   7
ATOM      7  C   UNL     1      16.696 -23.601 -23.187  1.00  0.00     0.152 C 
ATOM      8  O   UNL     1      17.435 -23.636 -24.207  1.00  0.00    -0.295 OA
ATOM      9  C   UNL     1      16.866 -24.651 -22.132  1.00  0.00     0.093 C 
ENDBRANCH   6   7
ENDBRANCH   1   5
TORSDOF 4
ENDMDL
