MODEL 1
REMARK VINA RESULT:    -4.651      0.000      0.000
REMARK INTER + INTRA:          -6.866
REMARK INTER:                  -6.283
REMARK INTRA:                  -0.583
REMARK UNBOUND:                -0.583
REMARK SMILES COc1ccc(-c2cc(=O)c3c(OC)c(OC)c(OC)cc3o2)cc1OC
REMARK SMILES IDX 7 1 8 2 9 3 10 4 11 5 12 6 15 7 18 8 21 9 22 10 23 11 6 12
REMARK SMILES IDX 3 13 25 14 4 15 24 16 5 17 2 18 1 19 26 20 27 21 13 22 14 23
REMARK SMILES IDX 19 24 20 25 16 26 17 27
REMARK H PARENT
REMARK Flexibility Score: inf
ROOT
ATOM      1  C   UNL     1     134.497 137.532 134.119  1.00  0.00     0.138 A 
ATOM      2  C   UNL     1     135.409 137.866 133.105  1.00  0.00     0.100 A 
ATOM      3  C   UNL     1     135.296 137.263 131.852  1.00  0.00     0.197 A 
ATOM      4  O   UNL     1     136.121 137.579 130.954  1.00  0.00    -0.289 OA
ATOM      5  C   UNL     1     134.276 136.311 131.620  1.00  0.00     0.111 A 
ATOM      6  C   UNL     1     134.093 135.657 130.373  1.00  0.00     0.179 A 
ATOM      7  C   UNL     1     133.052 134.696 130.228  1.00  0.00     0.204 A 
ATOM      8  C   UNL     1     132.222 134.389 131.339  1.00  0.00     0.168 A 
ATOM      9  C   UNL     1     132.417 135.060 132.555  1.00  0.00     0.098 A 
ATOM     10  C   UNL     1     133.421 136.009 132.699  1.00  0.00     0.146 A 
ATOM     11  O   UNL     1     133.561 136.621 133.871  1.00  0.00    -0.456 OA
ENDROOT
BRANCH   1  12
ATOM     12  C   UNL     1     134.550 138.149 135.473  1.00  0.00     0.021 A 
ATOM     13  C   UNL     1     134.592 139.362 138.026  1.00  0.00     0.160 A 
ATOM     14  C   UNL     1     133.436 139.434 137.238  1.00  0.00     0.161 A 
ATOM     15  C   UNL     1     135.727 138.694 137.534  1.00  0.00     0.051 A 
ATOM     16  C   UNL     1     133.421 138.825 135.968  1.00  0.00     0.062 A 
ATOM     17  C   UNL     1     135.709 138.103 136.270  1.00  0.00     0.016 A 
BRANCH  13  18
ATOM     18  O   UNL     1     134.576 139.971 139.291  1.00  0.00    -0.493 OA
ATOM     19  C   UNL     1     134.313 139.288 140.513  1.00  0.00     0.278 C 
ENDBRANCH  13  18
BRANCH  14  20
ATOM     20  O   UNL     1     132.323 140.119 137.752  1.00  0.00    -0.493 OA
ATOM     21  C   UNL     1     131.138 139.492 138.235  1.00  0.00     0.278 C 
ENDBRANCH  14  20
ENDBRANCH   1  12
BRANCH   6  22
ATOM     22  O   UNL     1     134.964 136.004 129.318  1.00  0.00    -0.492 OA
ATOM     23  C   UNL     1     134.657 136.756 128.150  1.00  0.00     0.278 C 
ENDBRANCH   6  22
BRANCH   8  24
ATOM     24  O   UNL     1     131.212 133.422 131.217  1.00  0.00    -0.493 OA
ATOM     25  C   UNL     1     129.813 133.687 131.246  1.00  0.00     0.278 C 
ENDBRANCH   8  24
BRANCH   7  26
ATOM     26  O   UNL     1     132.872 134.092 128.969  1.00  0.00    -0.490 OA
ATOM     27  C   UNL     1     131.932 134.451 127.962  1.00  0.00     0.278 C 
ENDBRANCH   7  26
TORSDOF 6
ENDMDL
MODEL 2
REMARK VINA RESULT:    -4.635     20.057     22.447
REMARK INTER + INTRA:          -6.844
REMARK INTER:                  -6.277
REMARK INTRA:                  -0.567
REMARK UNBOUND:                -0.583
REMARK SMILES COc1ccc(-c2cc(=O)c3c(OC)c(OC)c(OC)cc3o2)cc1OC
REMARK SMILES IDX 7 1 8 2 9 3 10 4 11 5 12 6 15 7 18 8 21 9 22 10 23 11 6 12
REMARK SMILES IDX 3 13 25 14 4 15 24 16 5 17 2 18 1 19 26 20 27 21 13 22 14 23
REMARK SMILES IDX 19 24 20 25 16 26 17 27
REMARK H PARENT
REMARK Flexibility Score: inf
ROOT
ATOM      1  C   UNL     1     122.367 121.899 146.293  1.00  0.00     0.138 A 
ATOM      2  C   UNL     1     123.408 121.426 147.108  1.00  0.00     0.100 A 
ATOM      3  C   UNL     1     124.714 121.418 146.619  1.00  0.00     0.197 A 
ATOM      4  O   UNL     1     125.636 120.993 147.368  1.00  0.00    -0.289 OA
ATOM      5  C   UNL     1     124.976 121.869 145.305  1.00  0.00     0.111 A 
ATOM      6  C   UNL     1     126.277 121.895 144.738  1.00  0.00     0.179 A 
ATOM      7  C   UNL     1     126.452 122.347 143.398  1.00  0.00     0.204 A 
ATOM      8  C   UNL     1     125.320 122.747 142.640  1.00  0.00     0.168 A 
ATOM      9  C   UNL     1     124.048 122.724 143.231  1.00  0.00     0.098 A 
ATOM     10  C   UNL     1     123.873 122.298 144.542  1.00  0.00     0.146 A 
ATOM     11  O   UNL     1     122.647 122.301 145.057  1.00  0.00    -0.456 OA
ENDROOT
BRANCH   1  12
ATOM     12  C   UNL     1     120.953 121.952 146.756  1.00  0.00     0.021 A 
ATOM     13  C   UNL     1     118.264 122.121 147.613  1.00  0.00     0.160 A 
ATOM     14  C   UNL     1     118.759 123.041 146.679  1.00  0.00     0.161 A 
ATOM     15  C   UNL     1     119.116 121.127 148.125  1.00  0.00     0.051 A 
ATOM     16  C   UNL     1     120.099 122.949 146.254  1.00  0.00     0.062 A 
ATOM     17  C   UNL     1     120.445 121.049 147.708  1.00  0.00     0.016 A 
BRANCH  13  18
ATOM     18  O   UNL     1     116.923 122.232 148.012  1.00  0.00    -0.493 OA
ATOM     19  C   UNL     1     115.904 121.290 147.688  1.00  0.00     0.278 C 
ENDBRANCH  13  18
BRANCH  14  20
ATOM     20  O   UNL     1     117.888 124.031 146.196  1.00  0.00    -0.493 OA
ATOM     21  C   UNL     1     117.917 125.399 146.596  1.00  0.00     0.278 C 
ENDBRANCH  14  20
ENDBRANCH   1  12
BRANCH   6  22
ATOM     22  O   UNL     1     127.353 121.469 145.546  1.00  0.00    -0.492 OA
ATOM     23  C   UNL     1     128.531 122.196 145.877  1.00  0.00     0.278 C 
ENDBRANCH   6  22
BRANCH   8  24
ATOM     24  O   UNL     1     125.476 123.166 141.310  1.00  0.00    -0.493 OA
ATOM     25  C   UNL     1     124.900 122.530 140.174  1.00  0.00     0.278 C 
ENDBRANCH   8  24
BRANCH   7  26
ATOM     26  O   UNL     1     127.759 122.395 142.876  1.00  0.00    -0.490 OA
ATOM     27  C   UNL     1     128.444 121.375 142.157  1.00  0.00     0.278 C 
ENDBRANCH   7  26
TORSDOF 6
ENDMDL
MODEL 3
REMARK VINA RESULT:    -4.536      1.830      8.320
REMARK INTER + INTRA:          -6.710
REMARK INTER:                  -6.176
REMARK INTRA:                  -0.534
REMARK UNBOUND:                -0.583
REMARK SMILES COc1ccc(-c2cc(=O)c3c(OC)c(OC)c(OC)cc3o2)cc1OC
REMARK SMILES IDX 7 1 8 2 9 3 10 4 11 5 12 6 15 7 18 8 21 9 22 10 23 11 6 12
REMARK SMILES IDX 3 13 25 14 4 15 24 16 5 17 2 18 1 19 26 20 27 21 13 22 14 23
REMARK SMILES IDX 19 24 20 25 16 26 17 27
REMARK H PARENT
REMARK Flexibility Score: inf
ROOT
ATOM      1  C   UNL     1     134.563 138.024 135.038  1.00  0.00     0.138 A 
ATOM      2  C   UNL     1     135.563 138.409 135.945  1.00  0.00     0.100 A 
ATOM      3  C   UNL     1     135.207 138.803 137.235  1.00  0.00     0.197 A 
ATOM      4  O   UNL     1     136.120 139.141 138.035  1.00  0.00    -0.289 OA
ATOM      5  C   UNL     1     133.845 138.827 137.612  1.00  0.00     0.111 A 
ATOM      6  C   UNL     1     133.403 139.212 138.905  1.00  0.00     0.179 A 
ATOM      7  C   UNL     1     132.009 139.227 139.197  1.00  0.00     0.204 A 
ATOM      8  C   UNL     1     131.077 138.876 138.185  1.00  0.00     0.168 A 
ATOM      9  C   UNL     1     131.542 138.486 136.921  1.00  0.00     0.098 A 
ATOM     10  C   UNL     1     132.901 138.456 136.634  1.00  0.00     0.146 A 
ATOM     11  O   UNL     1     133.290 138.074 135.421  1.00  0.00    -0.456 OA
ENDROOT
BRANCH   1  12
ATOM     12  C   UNL     1     134.872 137.576 133.652  1.00  0.00     0.021 A 
ATOM     13  C   UNL     1     135.430 136.662 131.036  1.00  0.00     0.160 A 
ATOM     14  C   UNL     1     134.461 136.011 131.811  1.00  0.00     0.161 A 
ATOM     15  C   UNL     1     136.125 137.760 131.572  1.00  0.00     0.051 A 
ATOM     16  C   UNL     1     134.187 136.473 133.113  1.00  0.00     0.062 A 
ATOM     17  C   UNL     1     135.856 138.205 132.867  1.00  0.00     0.016 A 
BRANCH  13  18
ATOM     18  O   UNL     1     135.678 136.184 129.739  1.00  0.00    -0.493 OA
ATOM     19  C   UNL     1     135.006 136.641 128.568  1.00  0.00     0.278 C 
ENDBRANCH  13  18
BRANCH  14  20
ATOM     20  O   UNL     1     133.794 134.909 131.254  1.00  0.00    -0.493 OA
ATOM     21  C   UNL     1     134.114 133.547 131.524  1.00  0.00     0.278 C 
ENDBRANCH  14  20
ENDBRANCH   1  12
BRANCH   6  22
ATOM     22  O   UNL     1     134.386 139.561 139.855  1.00  0.00    -0.492 OA
ATOM     23  C   UNL     1     134.770 138.831 141.016  1.00  0.00     0.278 C 
ENDBRANCH   6  22
BRANCH   8  24
ATOM     24  O   UNL     1     129.700 138.916 138.453  1.00  0.00    -0.493 OA
ATOM     25  C   UNL     1     128.851 140.037 138.230  1.00  0.00     0.278 C 
ENDBRANCH   8  24
BRANCH   7  26
ATOM     26  O   UNL     1     131.605 139.578 140.500  1.00  0.00    -0.490 OA
ATOM     27  C   UNL     1     131.099 138.714 141.513  1.00  0.00     0.278 C 
ENDBRANCH   7  26
TORSDOF 6
ENDMDL
MODEL 4
REMARK VINA RESULT:    -4.460     18.536     21.996
REMARK INTER + INTRA:          -6.607
REMARK INTER:                  -6.070
REMARK INTRA:                  -0.536
REMARK UNBOUND:                -0.583
REMARK SMILES COc1ccc(-c2cc(=O)c3c(OC)c(OC)c(OC)cc3o2)cc1OC
REMARK SMILES IDX 7 1 8 2 9 3 10 4 11 5 12 6 15 7 18 8 21 9 22 10 23 11 6 12
REMARK SMILES IDX 3 13 25 14 4 15 24 16 5 17 2 18 1 19 26 20 27 21 13 22 14 23
REMARK SMILES IDX 19 24 20 25 16 26 17 27
REMARK H PARENT
REMARK Flexibility Score: inf
ROOT
ATOM      1  C   UNL     1     122.359 123.248 143.119  1.00  0.00     0.138 A 
ATOM      2  C   UNL     1     122.750 122.536 144.264  1.00  0.00     0.100 A 
ATOM      3  C   UNL     1     121.960 122.594 145.413  1.00  0.00     0.197 A 
ATOM      4  O   UNL     1     122.326 121.944 146.429  1.00  0.00    -0.289 OA
ATOM      5  C   UNL     1     120.785 123.380 145.419  1.00  0.00     0.111 A 
ATOM      6  C   UNL     1     119.928 123.487 146.546  1.00  0.00     0.179 A 
ATOM      7  C   UNL     1     118.773 124.317 146.475  1.00  0.00     0.204 A 
ATOM      8  C   UNL     1     118.503 125.043 145.285  1.00  0.00     0.168 A 
ATOM      9  C   UNL     1     119.359 124.907 144.183  1.00  0.00     0.098 A 
ATOM     10  C   UNL     1     120.480 124.088 144.240  1.00  0.00     0.146 A 
ATOM     11  O   UNL     1     121.256 123.990 143.165  1.00  0.00    -0.456 OA
ENDROOT
BRANCH   1  12
ATOM     12  C   UNL     1     123.145 123.218 141.854  1.00  0.00     0.021 A 
ATOM     13  C   UNL     1     124.575 123.176 139.417  1.00  0.00     0.160 A 
ATOM     14  C   UNL     1     123.337 123.829 139.489  1.00  0.00     0.161 A 
ATOM     15  C   UNL     1     125.090 122.538 140.558  1.00  0.00     0.051 A 
ATOM     16  C   UNL     1     122.630 123.847 140.707  1.00  0.00     0.062 A 
ATOM     17  C   UNL     1     124.379 122.551 141.759  1.00  0.00     0.016 A 
BRANCH  13  18
ATOM     18  O   UNL     1     125.261 123.180 138.191  1.00  0.00    -0.493 OA
ATOM     19  C   UNL     1     126.335 124.059 137.869  1.00  0.00     0.278 C 
ENDBRANCH  13  18
BRANCH  14  20
ATOM     20  O   UNL     1     122.842 124.446 138.328  1.00  0.00    -0.493 OA
ATOM     21  C   UNL     1     121.569 124.176 137.749  1.00  0.00     0.278 C 
ENDBRANCH  14  20
ENDBRANCH   1  12
BRANCH   6  22
ATOM     22  O   UNL     1     120.268 122.747 147.699  1.00  0.00    -0.492 OA
ATOM     23  C   UNL     1     119.721 121.504 148.125  1.00  0.00     0.278 C 
ENDBRANCH   6  22
BRANCH   8  24
ATOM     24  O   UNL     1     117.384 125.886 145.214  1.00  0.00    -0.493 OA
ATOM     25  C   UNL     1     116.697 126.242 144.018  1.00  0.00     0.278 C 
ENDBRANCH   8  24
BRANCH   7  26
ATOM     26  O   UNL     1     117.923 124.373 147.597  1.00  0.00    -0.490 OA
ATOM     27  C   UNL     1     116.716 123.647 147.807  1.00  0.00     0.278 C 
ENDBRANCH   7  26
TORSDOF 6
ENDMDL
MODEL 5
REMARK VINA RESULT:    -4.436      4.391      9.819
REMARK INTER + INTRA:          -6.575
REMARK INTER:                  -5.991
REMARK INTRA:                  -0.584
REMARK UNBOUND:                -0.583
REMARK SMILES COc1ccc(-c2cc(=O)c3c(OC)c(OC)c(OC)cc3o2)cc1OC
REMARK SMILES IDX 7 1 8 2 9 3 10 4 11 5 12 6 15 7 18 8 21 9 22 10 23 11 6 12
REMARK SMILES IDX 3 13 25 14 4 15 24 16 5 17 2 18 1 19 26 20 27 21 13 22 14 23
REMARK SMILES IDX 19 24 20 25 16 26 17 27
REMARK H PARENT
REMARK Flexibility Score: inf
ROOT
ATOM      1  C   UNL     1     132.412 131.543 129.378  1.00  0.00     0.138 A 
ATOM      2  C   UNL     1     131.946 132.552 128.520  1.00  0.00     0.100 A 
ATOM      3  C   UNL     1     132.436 133.851 128.657  1.00  0.00     0.197 A 
ATOM      4  O   UNL     1     132.008 134.742 127.875  1.00  0.00    -0.289 OA
ATOM      5  C   UNL     1     133.384 134.142 129.665  1.00  0.00     0.111 A 
ATOM      6  C   UNL     1     133.933 135.436 129.865  1.00  0.00     0.179 A 
ATOM      7  C   UNL     1     134.869 135.649 130.918  1.00  0.00     0.204 A 
ATOM      8  C   UNL     1     135.226 134.568 131.766  1.00  0.00     0.168 A 
ATOM      9  C   UNL     1     134.679 133.297 131.537  1.00  0.00     0.098 A 
ATOM     10  C   UNL     1     133.777 133.080 130.503  1.00  0.00     0.146 A 
ATOM     11  O   UNL     1     133.291 131.855 130.325  1.00  0.00    -0.456 OA
ENDROOT
BRANCH   1  12
ATOM     12  C   UNL     1     131.944 130.132 129.277  1.00  0.00     0.021 A 
ATOM     13  C   UNL     1     131.122 127.433 129.109  1.00  0.00     0.160 A 
ATOM     14  C   UNL     1     132.236 127.776 129.886  1.00  0.00     0.161 A 
ATOM     15  C   UNL     1     130.428 128.436 128.409  1.00  0.00     0.051 A 
ATOM     16  C   UNL     1     132.639 129.124 129.967  1.00  0.00     0.062 A 
ATOM     17  C   UNL     1     130.840 129.767 128.486  1.00  0.00     0.016 A 
BRANCH  13  18
ATOM     18  O   UNL     1     130.739 126.083 129.052  1.00  0.00    -0.493 OA
ATOM     19  C   UNL     1     130.268 125.427 127.878  1.00  0.00     0.278 C 
ENDBRANCH  13  18
BRANCH  14  20
ATOM     20  O   UNL     1     132.917 126.751 130.562  1.00  0.00    -0.493 OA
ATOM     21  C   UNL     1     134.165 126.200 130.150  1.00  0.00     0.278 C 
ENDBRANCH  14  20
ENDBRANCH   1  12
BRANCH   6  22
ATOM     22  O   UNL     1     133.520 136.464 128.991  1.00  0.00    -0.492 OA
ATOM     23  C   UNL     1     134.301 137.134 128.008  1.00  0.00     0.278 C 
ENDBRANCH   6  22
BRANCH   8  24
ATOM     24  O   UNL     1     136.125 134.772 132.824  1.00  0.00    -0.493 OA
ATOM     25  C   UNL     1     135.764 134.907 134.195  1.00  0.00     0.278 C 
ENDBRANCH   8  24
BRANCH   7  26
ATOM     26  O   UNL     1     135.423 136.935 131.067  1.00  0.00    -0.490 OA
ATOM     27  C   UNL     1     135.108 137.904 132.061  1.00  0.00     0.278 C 
ENDBRANCH   7  26
TORSDOF 6
ENDMDL
MODEL 6
REMARK VINA RESULT:    -4.418      4.252      8.269
REMARK INTER + INTRA:          -6.551
REMARK INTER:                  -6.002
REMARK INTRA:                  -0.549
REMARK UNBOUND:                -0.583
REMARK SMILES COc1ccc(-c2cc(=O)c3c(OC)c(OC)c(OC)cc3o2)cc1OC
REMARK SMILES IDX 7 1 8 2 9 3 10 4 11 5 12 6 15 7 18 8 21 9 22 10 23 11 6 12
REMARK SMILES IDX 3 13 25 14 4 15 24 16 5 17 2 18 1 19 26 20 27 21 13 22 14 23
REMARK SMILES IDX 19 24 20 25 16 26 17 27
REMARK H PARENT
REMARK Flexibility Score: inf
ROOT
ATOM      1  C   UNL     1     129.307 137.734 136.881  1.00  0.00     0.138 A 
ATOM      2  C   UNL     1     129.615 138.745 137.805  1.00  0.00     0.100 A 
ATOM      3  C   UNL     1     130.928 139.206 137.907  1.00  0.00     0.197 A 
ATOM      4  O   UNL     1     131.184 140.117 138.739  1.00  0.00    -0.289 OA
ATOM      5  C   UNL     1     131.937 138.642 137.093  1.00  0.00     0.111 A 
ATOM      6  C   UNL     1     133.293 139.058 137.135  1.00  0.00     0.179 A 
ATOM      7  C   UNL     1     134.251 138.423 136.294  1.00  0.00     0.204 A 
ATOM      8  C   UNL     1     133.841 137.366 135.438  1.00  0.00     0.168 A 
ATOM      9  C   UNL     1     132.492 136.985 135.407  1.00  0.00     0.098 A 
ATOM     10  C   UNL     1     131.550 137.610 136.214  1.00  0.00     0.146 A 
ATOM     11  O   UNL     1     130.283 137.214 136.143  1.00  0.00    -0.456 OA
ENDROOT
BRANCH   1  12
ATOM     12  C   UNL     1     127.925 137.207 136.708  1.00  0.00     0.021 A 
ATOM     13  C   UNL     1     125.303 136.227 136.310  1.00  0.00     0.160 A 
ATOM     14  C   UNL     1     126.147 136.433 135.210  1.00  0.00     0.161 A 
ATOM     15  C   UNL     1     125.767 136.521 137.604  1.00  0.00     0.051 A 
ATOM     16  C   UNL     1     127.452 136.920 135.416  1.00  0.00     0.062 A 
ATOM     17  C   UNL     1     127.058 137.013 137.799  1.00  0.00     0.016 A 
BRANCH  13  18
ATOM     18  O   UNL     1     124.010 135.734 136.075  1.00  0.00    -0.493 OA
ATOM     19  C   UNL     1     123.163 135.180 137.078  1.00  0.00     0.278 C 
ENDBRANCH  13  18
BRANCH  14  20
ATOM     20  O   UNL     1     125.651 136.143 133.928  1.00  0.00    -0.493 OA
ATOM     21  C   UNL     1     126.117 135.080 133.101  1.00  0.00     0.278 C 
ENDBRANCH  14  20
ENDBRANCH   1  12
BRANCH   6  22
ATOM     22  O   UNL     1     133.629 140.105 138.020  1.00  0.00    -0.492 OA
ATOM     23  C   UNL     1     134.471 140.036 139.166  1.00  0.00     0.278 C 
ENDBRANCH   6  22
BRANCH   8  24
ATOM     24  O   UNL     1     134.781 136.714 134.627  1.00  0.00    -0.493 OA
ATOM     25  C   UNL     1     135.612 135.632 135.037  1.00  0.00     0.278 C 
ENDBRANCH   8  24
BRANCH   7  26
ATOM     26  O   UNL     1     135.581 138.884 136.332  1.00  0.00    -0.490 OA
ATOM     27  C   UNL     1     136.125 140.018 135.664  1.00  0.00     0.278 C 
ENDBRANCH   7  26
TORSDOF 6
ENDMDL
MODEL 7
REMARK VINA RESULT:    -4.390     10.126     15.942
REMARK INTER + INTRA:          -6.512
REMARK INTER:                  -5.909
REMARK INTRA:                  -0.603
REMARK UNBOUND:                -0.583
REMARK SMILES COc1ccc(-c2cc(=O)c3c(OC)c(OC)c(OC)cc3o2)cc1OC
REMARK SMILES IDX 7 1 8 2 9 3 10 4 11 5 12 6 15 7 18 8 21 9 22 10 23 11 6 12
REMARK SMILES IDX 3 13 25 14 4 15 24 16 5 17 2 18 1 19 26 20 27 21 13 22 14 23
REMARK SMILES IDX 19 24 20 25 16 26 17 27
REMARK H PARENT
REMARK Flexibility Score: inf
ROOT
ATOM      1  C   UNL     1     122.109 128.310 129.590  1.00  0.00     0.138 A 
ATOM      2  C   UNL     1     122.839 128.934 128.566  1.00  0.00     0.100 A 
ATOM      3  C   UNL     1     124.142 129.365 128.814  1.00  0.00     0.197 A 
ATOM      4  O   UNL     1     124.782 129.920 127.880  1.00  0.00    -0.289 OA
ATOM      5  C   UNL     1     124.711 129.183 130.096  1.00  0.00     0.111 A 
ATOM      6  C   UNL     1     126.030 129.590 130.425  1.00  0.00     0.179 A 
ATOM      7  C   UNL     1     126.520 129.388 131.748  1.00  0.00     0.204 A 
ATOM      8  C   UNL     1     125.675 128.800 132.725  1.00  0.00     0.168 A 
ATOM      9  C   UNL     1     124.380 128.395 132.368  1.00  0.00     0.098 A 
ATOM     10  C   UNL     1     123.902 128.576 131.077  1.00  0.00     0.146 A 
ATOM     11  O   UNL     1     122.669 128.170 130.788  1.00  0.00    -0.456 OA
ENDROOT
BRANCH   1  12
ATOM     12  C   UNL     1     120.720 127.811 129.390  1.00  0.00     0.021 A 
ATOM     13  C   UNL     1     118.096 126.814 129.062  1.00  0.00     0.160 A 
ATOM     14  C   UNL     1     118.808 126.533 130.235  1.00  0.00     0.161 A 
ATOM     15  C   UNL     1     118.699 127.584 128.051  1.00  0.00     0.051 A 
ATOM     16  C   UNL     1     120.115 127.034 130.393  1.00  0.00     0.062 A 
ATOM     17  C   UNL     1     119.998 128.068 128.210  1.00  0.00     0.016 A 
BRANCH  13  18
ATOM     18  O   UNL     1     116.793 126.307 128.935  1.00  0.00    -0.493 OA
ATOM     19  C   UNL     1     115.897 126.639 127.877  1.00  0.00     0.278 C 
ENDBRANCH  13  18
BRANCH  14  20
ATOM     20  O   UNL     1     118.184 125.750 131.220  1.00  0.00    -0.493 OA
ATOM     21  C   UNL     1     118.587 124.432 131.582  1.00  0.00     0.278 C 
ENDBRANCH  14  20
ENDBRANCH   1  12
BRANCH   6  22
ATOM     22  O   UNL     1     126.807 130.180 129.405  1.00  0.00    -0.492 OA
ATOM     23  C   UNL     1     127.922 129.614 128.725  1.00  0.00     0.278 C 
ENDBRANCH   6  22
BRANCH   8  24
ATOM     24  O   UNL     1     126.136 128.622 134.039  1.00  0.00    -0.493 OA
ATOM     25  C   UNL     1     126.443 127.369 134.640  1.00  0.00     0.278 C 
ENDBRANCH   8  24
BRANCH   7  26
ATOM     26  O   UNL     1     127.845 129.768 132.033  1.00  0.00    -0.490 OA
ATOM     27  C   UNL     1     128.304 131.039 132.483  1.00  0.00     0.278 C 
ENDBRANCH   7  26
TORSDOF 6
ENDMDL
MODEL 8
REMARK VINA RESULT:    -4.360      3.864      9.277
REMARK INTER + INTRA:          -6.472
REMARK INTER:                  -5.940
REMARK INTRA:                  -0.532
REMARK UNBOUND:                -0.583
REMARK SMILES COc1ccc(-c2cc(=O)c3c(OC)c(OC)c(OC)cc3o2)cc1OC
REMARK SMILES IDX 7 1 8 2 9 3 10 4 11 5 12 6 15 7 18 8 21 9 22 10 23 11 6 12
REMARK SMILES IDX 3 13 25 14 4 15 24 16 5 17 2 18 1 19 26 20 27 21 13 22 14 23
REMARK SMILES IDX 19 24 20 25 16 26 17 27
REMARK H PARENT
REMARK Flexibility Score: inf
ROOT
ATOM      1  C   UNL     1     133.031 132.027 130.209  1.00  0.00     0.138 A 
ATOM      2  C   UNL     1     133.170 133.105 129.319  1.00  0.00     0.100 A 
ATOM      3  C   UNL     1     133.737 134.298 129.769  1.00  0.00     0.197 A 
ATOM      4  O   UNL     1     133.857 135.253 128.954  1.00  0.00    -0.289 OA
ATOM      5  C   UNL     1     134.151 134.417 131.115  1.00  0.00     0.111 A 
ATOM      6  C   UNL     1     134.738 135.594 131.647  1.00  0.00     0.179 A 
ATOM      7  C   UNL     1     135.110 135.638 133.021  1.00  0.00     0.204 A 
ATOM      8  C   UNL     1     134.868 134.509 133.848  1.00  0.00     0.168 A 
ATOM      9  C   UNL     1     134.299 133.354 133.293  1.00  0.00     0.098 A 
ATOM     10  C   UNL     1     133.948 133.300 131.950  1.00  0.00     0.146 A 
ATOM     11  O   UNL     1     133.416 132.179 131.473  1.00  0.00    -0.456 OA
ENDROOT
BRANCH   1  12
ATOM     12  C   UNL     1     132.450 130.720 129.793  1.00  0.00     0.021 A 
ATOM     13  C   UNL     1     131.285 128.273 128.991  1.00  0.00     0.160 A 
ATOM     14  C   UNL     1     130.682 129.485 128.631  1.00  0.00     0.161 A 
ATOM     15  C   UNL     1     132.463 128.286 129.760  1.00  0.00     0.051 A 
ATOM     16  C   UNL     1     131.269 130.701 129.032  1.00  0.00     0.062 A 
ATOM     17  C   UNL     1     133.032 129.494 130.163  1.00  0.00     0.016 A 
BRANCH  13  18
ATOM     18  O   UNL     1     130.682 127.076 128.572  1.00  0.00    -0.493 OA
ATOM     19  C   UNL     1     130.789 125.834 129.261  1.00  0.00     0.278 C 
ENDBRANCH  13  18
BRANCH  14  20
ATOM     20  O   UNL     1     129.499 129.439 127.875  1.00  0.00    -0.493 OA
ATOM     21  C   UNL     1     128.190 129.621 128.409  1.00  0.00     0.278 C 
ENDBRANCH  14  20
ENDBRANCH   1  12
BRANCH   6  22
ATOM     22  O   UNL     1     134.935 136.682 130.768  1.00  0.00    -0.492 OA
ATOM     23  C   UNL     1     134.206 137.903 130.722  1.00  0.00     0.278 C 
ENDBRANCH   6  22
BRANCH   8  24
ATOM     24  O   UNL     1     135.203 134.551 135.210  1.00  0.00    -0.493 OA
ATOM     25  C   UNL     1     134.285 134.773 136.276  1.00  0.00     0.278 C 
ENDBRANCH   8  24
BRANCH   7  26
ATOM     26  O   UNL     1     135.724 136.807 133.509  1.00  0.00    -0.490 OA
ATOM     27  C   UNL     1     135.115 137.866 134.240  1.00  0.00     0.278 C 
ENDBRANCH   7  26
TORSDOF 6
ENDMDL
