MODEL 1
REMARK VINA RESULT:    -5.000      0.000      0.000
REMARK INTER + INTRA:         -10.264
REMARK INTER:                  -9.092
REMARK INTRA:                  -1.173
REMARK UNBOUND:                -1.173
REMARK SMILES CCCCCCCCCCCCCCCC(=O)[O-]
REMARK SMILES IDX 9 1 10 2 11 3 12 4 13 5 14 6 15 7 16 8 17 9 18 10 8 11 7 12
REMARK SMILES IDX 6 13 5 14 4 15 3 16 2 17 1 18
REMARK H PARENT
REMARK Flexibility Score: inf
ROOT
ATOM      1  C   UNL     1      -4.715  36.395  21.386  1.00  0.00     0.000 C 
ENDROOT
BRANCH   1   2
ATOM      2  C   UNL     1      -5.994  36.044  22.168  1.00  0.00     0.000 C 
BRANCH   2   3
ATOM      3  C   UNL     1      -5.760  35.487  23.585  1.00  0.00     0.000 C 
BRANCH   3   4
ATOM      4  C   UNL     1      -5.971  36.499  24.727  1.00  0.00     0.000 C 
BRANCH   4   5
ATOM      5  C   UNL     1      -4.749  37.408  24.985  1.00  0.00     0.000 C 
BRANCH   5   6
ATOM      6  C   UNL     1      -5.086  38.901  24.832  1.00  0.00     0.006 C 
BRANCH   6   7
ATOM      7  C   UNL     1      -5.842  39.196  23.529  1.00  0.00     0.053 C 
BRANCH   7   8
ATOM      8  C   UNL     1      -5.016  40.003  22.575  1.00  0.00     0.041 C 
ATOM      9  O   UNL     1      -3.803  39.719  22.391  1.00  0.00    -0.550 OA
ATOM     10  O   UNL     1      -5.576  41.089  21.916  1.00  0.00    -0.550 OA
ENDBRANCH   7   8
ENDBRANCH   6   7
ENDBRANCH   5   6
ENDBRANCH   4   5
ENDBRANCH   3   4
ENDBRANCH   2   3
ENDBRANCH   1   2
BRANCH   1  11
ATOM     11  C   UNL     1      -5.000  37.227  20.124  1.00  0.00     0.000 C 
BRANCH  11  12
ATOM     12  C   UNL     1      -3.915  37.063  19.044  1.00  0.00    -0.000 C 
BRANCH  12  13
ATOM     13  C   UNL     1      -2.922  38.237  18.931  1.00  0.00    -0.000 C 
BRANCH  13  14
ATOM     14  C   UNL     1      -1.807  38.010  17.888  1.00  0.00    -0.000 C 
BRANCH  14  15
ATOM     15  C   UNL     1      -2.154  36.879  16.905  1.00  0.00    -0.000 C 
BRANCH  15  16
ATOM     16  C   UNL     1      -1.920  37.278  15.439  1.00  0.00    -0.000 C 
BRANCH  16  17
ATOM     17  C   UNL     1      -3.234  37.452  14.663  1.00  0.00    -0.003 C 
ATOM     18  C   UNL     1      -3.604  38.927  14.535  1.00  0.00     0.004 C 
ENDBRANCH  16  17
ENDBRANCH  15  16
ENDBRANCH  14  15
ENDBRANCH  13  14
ENDBRANCH  12  13
ENDBRANCH  11  12
ENDBRANCH   1  11
TORSDOF 14
ENDMDL
MODEL 2
REMARK VINA RESULT:    -4.908      2.973      7.150
REMARK INTER + INTRA:         -10.097
REMARK INTER:                  -8.649
REMARK INTRA:                  -1.448
REMARK UNBOUND:                -1.173
REMARK SMILES CCCCCCCCCCCCCCCC(=O)[O-]
REMARK SMILES IDX 9 1 10 2 11 3 12 4 13 5 14 6 15 7 16 8 17 9 18 10 8 11 7 12
REMARK SMILES IDX 6 13 5 14 4 15 3 16 2 17 1 18
REMARK H PARENT
REMARK Flexibility Score: inf
ROOT
ATOM      1  C   UNL     1      -5.970  36.069  21.140  1.00  0.00     0.000 C 
ENDROOT
BRANCH   1   2
ATOM      2  C   UNL     1      -5.382  36.519  19.789  1.00  0.00     0.000 C 
BRANCH   2   3
ATOM      3  C   UNL     1      -3.870  36.810  19.801  1.00  0.00     0.000 C 
BRANCH   3   4
ATOM      4  C   UNL     1      -3.413  37.926  18.842  1.00  0.00     0.000 C 
BRANCH   4   5
ATOM      5  C   UNL     1      -1.914  37.854  18.476  1.00  0.00     0.000 C 
BRANCH   5   6
ATOM      6  C   UNL     1      -1.688  37.472  17.003  1.00  0.00     0.006 C 
BRANCH   6   7
ATOM      7  C   UNL     1      -3.007  37.233  16.256  1.00  0.00     0.053 C 
BRANCH   7   8
ATOM      8  C   UNL     1      -2.864  37.461  14.782  1.00  0.00     0.041 C 
ATOM      9  O   UNL     1      -1.731  37.387  14.238  1.00  0.00    -0.550 OA
ATOM     10  O   UNL     1      -3.975  37.788  14.016  1.00  0.00    -0.550 OA
ENDBRANCH   7   8
ENDBRANCH   6   7
ENDBRANCH   5   6
ENDBRANCH   4   5
ENDBRANCH   3   4
ENDBRANCH   2   3
ENDBRANCH   1   2
BRANCH   1  11
ATOM     11  C   UNL     1      -4.936  36.103  22.279  1.00  0.00     0.000 C 
BRANCH  11  12
ATOM     12  C   UNL     1      -5.480  35.520  23.595  1.00  0.00    -0.000 C 
BRANCH  12  13
ATOM     13  C   UNL     1      -6.025  36.560  24.595  1.00  0.00    -0.000 C 
BRANCH  13  14
ATOM     14  C   UNL     1      -4.928  37.421  25.257  1.00  0.00    -0.000 C 
BRANCH  14  15
ATOM     15  C   UNL     1      -5.000  38.893  24.812  1.00  0.00    -0.000 C 
BRANCH  15  16
ATOM     16  C   UNL     1      -5.975  39.109  23.645  1.00  0.00    -0.000 C 
BRANCH  16  17
ATOM     17  C   UNL     1      -5.419  40.077  22.589  1.00  0.00    -0.003 C 
ATOM     18  C   UNL     1      -4.021  39.656  22.143  1.00  0.00     0.004 C 
ENDBRANCH  16  17
ENDBRANCH  15  16
ENDBRANCH  14  15
ENDBRANCH  13  14
ENDBRANCH  12  13
ENDBRANCH  11  12
ENDBRANCH   1  11
TORSDOF 14
ENDMDL
MODEL 3
REMARK VINA RESULT:    -4.366      1.953      6.492
REMARK INTER + INTRA:          -9.112
REMARK INTER:                  -7.605
REMARK INTRA:                  -1.506
REMARK UNBOUND:                -1.173
REMARK SMILES CCCCCCCCCCCCCCCC(=O)[O-]
REMARK SMILES IDX 9 1 10 2 11 3 12 4 13 5 14 6 15 7 16 8 17 9 18 10 8 11 7 12
REMARK SMILES IDX 6 13 5 14 4 15 3 16 2 17 1 18
REMARK H PARENT
REMARK Flexibility Score: inf
ROOT
ATOM      1  C   UNL     1      -4.655  36.023  22.108  1.00  0.00     0.000 C 
ENDROOT
BRANCH   1   2
ATOM      2  C   UNL     1      -5.607  36.672  21.086  1.00  0.00     0.000 C 
BRANCH   2   3
ATOM      3  C   UNL     1      -5.398  36.227  19.626  1.00  0.00     0.000 C 
BRANCH   3   4
ATOM      4  C   UNL     1      -3.926  36.110  19.185  1.00  0.00     0.000 C 
BRANCH   4   5
ATOM      5  C   UNL     1      -3.719  36.272  17.664  1.00  0.00     0.000 C 
BRANCH   5   6
ATOM      6  C   UNL     1      -3.090  37.628  17.299  1.00  0.00     0.006 C 
BRANCH   6   7
ATOM      7  C   UNL     1      -1.563  37.618  17.449  1.00  0.00     0.053 C 
BRANCH   7   8
ATOM      8  C   UNL     1      -1.122  38.284  18.716  1.00  0.00     0.041 C 
ATOM      9  O   UNL     1       0.069  38.172  19.108  1.00  0.00    -0.550 OA
ATOM     10  O   UNL     1      -2.034  38.998  19.482  1.00  0.00    -0.550 OA
ENDBRANCH   7   8
ENDBRANCH   6   7
ENDBRANCH   5   6
ENDBRANCH   4   5
ENDBRANCH   3   4
ENDBRANCH   2   3
ENDBRANCH   1   2
BRANCH   1  11
ATOM     11  C   UNL     1      -5.401  35.382  23.292  1.00  0.00     0.000 C 
BRANCH  11  12
ATOM     12  C   UNL     1      -6.022  36.425  24.239  1.00  0.00    -0.000 C 
BRANCH  12  13
ATOM     13  C   UNL     1      -5.022  37.146  25.165  1.00  0.00    -0.000 C 
BRANCH  13  14
ATOM     14  C   UNL     1      -5.505  38.530  25.645  1.00  0.00    -0.000 C 
BRANCH  14  15
ATOM     15  C   UNL     1      -5.349  39.608  24.558  1.00  0.00    -0.000 C 
BRANCH  15  16
ATOM     16  C   UNL     1      -4.060  39.439  23.740  1.00  0.00    -0.000 C 
BRANCH  16  17
ATOM     17  C   UNL     1      -4.243  39.840  22.268  1.00  0.00    -0.003 C 
ATOM     18  C   UNL     1      -5.681  40.271  21.993  1.00  0.00     0.004 C 
ENDBRANCH  16  17
ENDBRANCH  15  16
ENDBRANCH  14  15
ENDBRANCH  13  14
ENDBRANCH  12  13
ENDBRANCH  11  12
ENDBRANCH   1  11
TORSDOF 14
ENDMDL
MODEL 4
REMARK VINA RESULT:    -4.345      1.982      2.850
REMARK INTER + INTRA:          -9.073
REMARK INTER:                  -7.481
REMARK INTRA:                  -1.592
REMARK UNBOUND:                -1.173
REMARK SMILES CCCCCCCCCCCCCCCC(=O)[O-]
REMARK SMILES IDX 9 1 10 2 11 3 12 4 13 5 14 6 15 7 16 8 17 9 18 10 8 11 7 12
REMARK SMILES IDX 6 13 5 14 4 15 3 16 2 17 1 18
REMARK H PARENT
REMARK Flexibility Score: inf
ROOT
ATOM      1  C   UNL     1      -4.430  36.403  21.429  1.00  0.00     0.000 C 
ENDROOT
BRANCH   1   2
ATOM      2  C   UNL     1      -5.610  37.239  20.900  1.00  0.00     0.000 C 
BRANCH   2   3
ATOM      3  C   UNL     1      -5.262  38.691  20.523  1.00  0.00     0.000 C 
BRANCH   3   4
ATOM      4  C   UNL     1      -4.200  39.360  21.416  1.00  0.00     0.000 C 
BRANCH   4   5
ATOM      5  C   UNL     1      -4.794  40.163  22.593  1.00  0.00     0.000 C 
BRANCH   5   6
ATOM      6  C   UNL     1      -4.599  39.456  23.945  1.00  0.00     0.006 C 
BRANCH   6   7
ATOM      7  C   UNL     1      -5.809  38.594  24.330  1.00  0.00     0.053 C 
BRANCH   7   8
ATOM      8  C   UNL     1      -5.405  37.380  25.109  1.00  0.00     0.041 C 
ATOM      9  O   UNL     1      -6.074  36.317  25.016  1.00  0.00    -0.550 OA
ATOM     10  O   UNL     1      -4.311  37.432  25.962  1.00  0.00    -0.550 OA
ENDBRANCH   7   8
ENDBRANCH   6   7
ENDBRANCH   5   6
ENDBRANCH   4   5
ENDBRANCH   3   4
ENDBRANCH   2   3
ENDBRANCH   1   2
BRANCH   1  11
ATOM     11  C   UNL     1      -3.545  35.843  20.301  1.00  0.00     0.000 C 
BRANCH  11  12
ATOM     12  C   UNL     1      -4.310  35.664  18.977  1.00  0.00    -0.000 C 
BRANCH  12  13
ATOM     13  C   UNL     1      -3.657  36.331  17.749  1.00  0.00    -0.000 C 
BRANCH  13  14
ATOM     14  C   UNL     1      -2.746  37.526  18.101  1.00  0.00    -0.000 C 
BRANCH  14  15
ATOM     15  C   UNL     1      -1.905  37.988  16.898  1.00  0.00    -0.000 C 
BRANCH  15  16
ATOM     16  C   UNL     1      -1.781  36.906  15.814  1.00  0.00    -0.000 C 
BRANCH  16  17
ATOM     17  C   UNL     1      -2.141  37.433  14.416  1.00  0.00    -0.003 C 
ATOM     18  C   UNL     1      -3.559  37.997  14.392  1.00  0.00     0.004 C 
ENDBRANCH  16  17
ENDBRANCH  15  16
ENDBRANCH  14  15
ENDBRANCH  13  14
ENDBRANCH  12  13
ENDBRANCH  11  12
ENDBRANCH   1  11
TORSDOF 14
ENDMDL
MODEL 5
REMARK VINA RESULT:    -4.309      2.941      7.137
REMARK INTER + INTRA:          -9.008
REMARK INTER:                  -7.775
REMARK INTRA:                  -1.233
REMARK UNBOUND:                -1.173
REMARK SMILES CCCCCCCCCCCCCCCC(=O)[O-]
REMARK SMILES IDX 9 1 10 2 11 3 12 4 13 5 14 6 15 7 16 8 17 9 18 10 8 11 7 12
REMARK SMILES IDX 6 13 5 14 4 15 3 16 2 17 1 18
REMARK H PARENT
REMARK Flexibility Score: inf
ROOT
ATOM      1  C   UNL     1      -4.345  38.304  20.658  1.00  0.00     0.000 C 
ENDROOT
BRANCH   1   2
ATOM      2  C   UNL     1      -4.950  36.898  20.830  1.00  0.00     0.000 C 
BRANCH   2   3
ATOM      3  C   UNL     1      -5.332  36.188  19.518  1.00  0.00     0.000 C 
BRANCH   3   4
ATOM      4  C   UNL     1      -4.192  35.395  18.851  1.00  0.00     0.000 C 
BRANCH   4   5
ATOM      5  C   UNL     1      -3.701  36.013  17.524  1.00  0.00     0.000 C 
BRANCH   5   6
ATOM      6  C   UNL     1      -2.696  37.157  17.746  1.00  0.00     0.006 C 
BRANCH   6   7
ATOM      7  C   UNL     1      -2.874  38.292  16.729  1.00  0.00     0.053 C 
BRANCH   7   8
ATOM      8  C   UNL     1      -2.743  37.804  15.319  1.00  0.00     0.041 C 
ATOM      9  O   UNL     1      -1.760  37.091  14.985  1.00  0.00    -0.550 OA
ATOM     10  O   UNL     1      -3.687  38.164  14.366  1.00  0.00    -0.550 OA
ENDBRANCH   7   8
ENDBRANCH   6   7
ENDBRANCH   5   6
ENDBRANCH   4   5
ENDBRANCH   3   4
ENDBRANCH   2   3
ENDBRANCH   1   2
BRANCH   1  11
ATOM     11  C   UNL     1      -5.404  39.419  20.723  1.00  0.00     0.000 C 
BRANCH  11  12
ATOM     12  C   UNL     1      -5.309  40.256  22.010  1.00  0.00    -0.000 C 
BRANCH  12  13
ATOM     13  C   UNL     1      -4.301  39.738  23.056  1.00  0.00    -0.000 C 
BRANCH  13  14
ATOM     14  C   UNL     1      -4.955  39.274  24.374  1.00  0.00    -0.000 C 
BRANCH  14  15
ATOM     15  C   UNL     1      -4.400  37.920  24.851  1.00  0.00    -0.000 C 
BRANCH  15  16
ATOM     16  C   UNL     1      -5.509  36.895  25.135  1.00  0.00    -0.000 C 
BRANCH  16  17
ATOM     17  C   UNL     1      -6.125  36.326  23.847  1.00  0.00    -0.003 C 
ATOM     18  C   UNL     1      -6.103  34.801  23.856  1.00  0.00     0.004 C 
ENDBRANCH  16  17
ENDBRANCH  15  16
ENDBRANCH  14  15
ENDBRANCH  13  14
ENDBRANCH  12  13
ENDBRANCH  11  12
ENDBRANCH   1  11
TORSDOF 14
ENDMDL
MODEL 6
REMARK VINA RESULT:    -4.292      2.929      7.425
REMARK INTER + INTRA:          -8.978
REMARK INTER:                  -7.896
REMARK INTRA:                  -1.082
REMARK UNBOUND:                -1.173
REMARK SMILES CCCCCCCCCCCCCCCC(=O)[O-]
REMARK SMILES IDX 9 1 10 2 11 3 12 4 13 5 14 6 15 7 16 8 17 9 18 10 8 11 7 12
REMARK SMILES IDX 6 13 5 14 4 15 3 16 2 17 1 18
REMARK H PARENT
REMARK Flexibility Score: inf
ROOT
ATOM      1  C   UNL     1      -4.642  37.395  20.408  1.00  0.00     0.000 C 
ENDROOT
BRANCH   1   2
ATOM      2  C   UNL     1      -3.716  36.293  19.862  1.00  0.00     0.000 C 
BRANCH   2   3
ATOM      3  C   UNL     1      -4.206  35.609  18.572  1.00  0.00     0.000 C 
BRANCH   3   4
ATOM      4  C   UNL     1      -3.587  36.153  17.270  1.00  0.00     0.000 C 
BRANCH   4   5
ATOM      5  C   UNL     1      -2.966  37.560  17.419  1.00  0.00     0.000 C 
BRANCH   5   6
ATOM      6  C   UNL     1      -1.827  37.808  16.415  1.00  0.00     0.006 C 
BRANCH   6   7
ATOM      7  C   UNL     1      -2.195  37.355  14.996  1.00  0.00     0.053 C 
BRANCH   7   8
ATOM      8  C   UNL     1      -3.418  38.052  14.486  1.00  0.00     0.041 C 
ATOM      9  O   UNL     1      -4.308  37.404  13.875  1.00  0.00    -0.550 OA
ATOM     10  O   UNL     1      -3.560  39.423  14.657  1.00  0.00    -0.550 OA
ENDBRANCH   7   8
ENDBRANCH   6   7
ENDBRANCH   5   6
ENDBRANCH   4   5
ENDBRANCH   3   4
ENDBRANCH   2   3
ENDBRANCH   1   2
BRANCH   1  11
ATOM     11  C   UNL     1      -5.743  36.843  21.331  1.00  0.00     0.000 C 
BRANCH  11  12
ATOM     12  C   UNL     1      -5.254  35.680  22.212  1.00  0.00    -0.000 C 
BRANCH  12  13
ATOM     13  C   UNL     1      -5.811  35.671  23.650  1.00  0.00    -0.000 C 
BRANCH  13  14
ATOM     14  C   UNL     1      -5.129  36.690  24.588  1.00  0.00    -0.000 C 
BRANCH  14  15
ATOM     15  C   UNL     1      -6.110  37.767  25.085  1.00  0.00    -0.000 C 
BRANCH  15  16
ATOM     16  C   UNL     1      -6.076  39.039  24.224  1.00  0.00    -0.000 C 
BRANCH  16  17
ATOM     17  C   UNL     1      -4.644  39.460  23.859  1.00  0.00    -0.003 C 
ATOM     18  C   UNL     1      -4.614  40.203  22.526  1.00  0.00     0.004 C 
ENDBRANCH  16  17
ENDBRANCH  15  16
ENDBRANCH  14  15
ENDBRANCH  13  14
ENDBRANCH  12  13
ENDBRANCH  11  12
ENDBRANCH   1  11
TORSDOF 14
ENDMDL
MODEL 7
REMARK VINA RESULT:    -4.127      1.281      2.493
REMARK INTER + INTRA:          -8.677
REMARK INTER:                  -7.689
REMARK INTRA:                  -0.987
REMARK UNBOUND:                -1.173
REMARK SMILES CCCCCCCCCCCCCCCC(=O)[O-]
REMARK SMILES IDX 9 1 10 2 11 3 12 4 13 5 14 6 15 7 16 8 17 9 18 10 8 11 7 12
REMARK SMILES IDX 6 13 5 14 4 15 3 16 2 17 1 18
REMARK H PARENT
REMARK Flexibility Score: inf
ROOT
ATOM      1  C   UNL     1      -4.129  37.611  19.291  1.00  0.00     0.000 C 
ENDROOT
BRANCH   1   2
ATOM      2  C   UNL     1      -5.308  37.774  20.268  1.00  0.00     0.000 C 
BRANCH   2   3
ATOM      3  C   UNL     1      -5.809  36.465  20.909  1.00  0.00     0.000 C 
BRANCH   3   4
ATOM      4  C   UNL     1      -4.954  35.945  22.080  1.00  0.00     0.000 C 
BRANCH   4   5
ATOM      5  C   UNL     1      -5.781  35.301  23.214  1.00  0.00     0.000 C 
BRANCH   5   6
ATOM      6  C   UNL     1      -5.932  36.232  24.430  1.00  0.00     0.006 C 
BRANCH   6   7
ATOM      7  C   UNL     1      -4.724  37.163  24.603  1.00  0.00     0.053 C 
BRANCH   7   8
ATOM      8  C   UNL     1      -5.140  38.592  24.770  1.00  0.00     0.041 C 
ATOM      9  O   UNL     1      -5.188  39.357  23.771  1.00  0.00    -0.550 OA
ATOM     10  O   UNL     1      -5.442  39.087  26.032  1.00  0.00    -0.550 OA
ENDBRANCH   7   8
ENDBRANCH   6   7
ENDBRANCH   5   6
ENDBRANCH   4   5
ENDBRANCH   3   4
ENDBRANCH   2   3
ENDBRANCH   1   2
BRANCH   1  11
ATOM     11  C   UNL     1      -2.860  38.343  19.764  1.00  0.00     0.000 C 
BRANCH  11  12
ATOM     12  C   UNL     1      -1.621  37.993  18.921  1.00  0.00    -0.000 C 
BRANCH  12  13
ATOM     13  C   UNL     1      -1.758  38.271  17.411  1.00  0.00    -0.000 C 
BRANCH  13  14
ATOM     14  C   UNL     1      -1.256  37.116  16.518  1.00  0.00    -0.000 C 
BRANCH  14  15
ATOM     15  C   UNL     1      -1.927  37.121  15.133  1.00  0.00    -0.000 C 
BRANCH  15  16
ATOM     16  C   UNL     1      -3.379  37.621  15.182  1.00  0.00    -0.000 C 
BRANCH  16  17
ATOM     17  C   UNL     1      -3.800  38.327  13.884  1.00  0.00    -0.003 C 
ATOM     18  C   UNL     1      -4.176  39.782  14.147  1.00  0.00     0.004 C 
ENDBRANCH  16  17
ENDBRANCH  15  16
ENDBRANCH  14  15
ENDBRANCH  13  14
ENDBRANCH  12  13
ENDBRANCH  11  12
ENDBRANCH   1  11
TORSDOF 14
ENDMDL
MODEL 8
REMARK VINA RESULT:    -4.053      2.029      6.857
REMARK INTER + INTRA:          -8.542
REMARK INTER:                  -7.452
REMARK INTRA:                  -1.091
REMARK UNBOUND:                -1.173
REMARK SMILES CCCCCCCCCCCCCCCC(=O)[O-]
REMARK SMILES IDX 9 1 10 2 11 3 12 4 13 5 14 6 15 7 16 8 17 9 18 10 8 11 7 12
REMARK SMILES IDX 6 13 5 14 4 15 3 16 2 17 1 18
REMARK H PARENT
REMARK Flexibility Score: inf
ROOT
ATOM      1  C   UNL     1      -4.325  38.497  20.861  1.00  0.00     0.000 C 
ENDROOT
BRANCH   1   2
ATOM      2  C   UNL     1      -4.723  37.720  19.592  1.00  0.00     0.000 C 
BRANCH   2   3
ATOM      3  C   UNL     1      -3.917  36.432  19.337  1.00  0.00     0.000 C 
BRANCH   3   4
ATOM      4  C   UNL     1      -4.199  35.743  17.988  1.00  0.00     0.000 C 
BRANCH   4   5
ATOM      5  C   UNL     1      -3.400  36.339  16.809  1.00  0.00     0.000 C 
BRANCH   5   6
ATOM      6  C   UNL     1      -2.716  37.668  17.175  1.00  0.00     0.006 C 
BRANCH   6   7
ATOM      7  C   UNL     1      -1.226  37.486  17.494  1.00  0.00     0.053 C 
BRANCH   7   8
ATOM      8  C   UNL     1      -0.817  38.257  18.711  1.00  0.00     0.041 C 
ATOM      9  O   UNL     1       0.291  38.028  19.263  1.00  0.00    -0.550 OA
ATOM     10  O   UNL     1      -1.674  39.204  19.256  1.00  0.00    -0.550 OA
ENDBRANCH   7   8
ENDBRANCH   6   7
ENDBRANCH   5   6
ENDBRANCH   4   5
ENDBRANCH   3   4
ENDBRANCH   2   3
ENDBRANCH   1   2
BRANCH   1  11
ATOM     11  C   UNL     1      -5.343  39.589  21.233  1.00  0.00     0.000 C 
BRANCH  11  12
ATOM     12  C   UNL     1      -5.637  39.639  22.743  1.00  0.00    -0.000 C 
BRANCH  12  13
ATOM     13  C   UNL     1      -4.409  39.449  23.656  1.00  0.00    -0.000 C 
BRANCH  13  14
ATOM     14  C   UNL     1      -4.719  38.701  24.969  1.00  0.00    -0.000 C 
BRANCH  14  15
ATOM     15  C   UNL     1      -6.125  38.074  24.961  1.00  0.00    -0.000 C 
BRANCH  15  16
ATOM     16  C   UNL     1      -6.088  36.544  24.823  1.00  0.00    -0.000 C 
BRANCH  16  17
ATOM     17  C   UNL     1      -6.115  36.088  23.356  1.00  0.00    -0.003 C 
ATOM     18  C   UNL     1      -4.748  35.571  22.918  1.00  0.00     0.004 C 
ENDBRANCH  16  17
ENDBRANCH  15  16
ENDBRANCH  14  15
ENDBRANCH  13  14
ENDBRANCH  12  13
ENDBRANCH  11  12
ENDBRANCH   1  11
TORSDOF 14
ENDMDL
MODEL 9
REMARK VINA RESULT:    -3.862      1.174      2.032
REMARK INTER + INTRA:          -8.194
REMARK INTER:                  -7.085
REMARK INTRA:                  -1.110
REMARK UNBOUND:                -1.173
REMARK SMILES CCCCCCCCCCCCCCCC(=O)[O-]
REMARK SMILES IDX 9 1 10 2 11 3 12 4 13 5 14 6 15 7 16 8 17 9 18 10 8 11 7 12
REMARK SMILES IDX 6 13 5 14 4 15 3 16 2 17 1 18
REMARK H PARENT
REMARK Flexibility Score: inf
ROOT
ATOM      1  C   UNL     1      -5.582  36.096  20.447  1.00  0.00     0.000 C 
ENDROOT
BRANCH   1   2
ATOM      2  C   UNL     1      -6.125  36.461  21.841  1.00  0.00     0.000 C 
BRANCH   2   3
ATOM      3  C   UNL     1      -5.203  36.087  23.018  1.00  0.00     0.000 C 
BRANCH   3   4
ATOM      4  C   UNL     1      -5.895  36.023  24.393  1.00  0.00     0.000 C 
BRANCH   4   5
ATOM      5  C   UNL     1      -5.707  37.299  25.242  1.00  0.00     0.000 C 
BRANCH   5   6
ATOM      6  C   UNL     1      -4.656  38.251  24.646  1.00  0.00     0.006 C 
BRANCH   6   7
ATOM      7  C   UNL     1      -5.276  39.563  24.149  1.00  0.00     0.053 C 
BRANCH   7   8
ATOM      8  C   UNL     1      -4.878  39.869  22.738  1.00  0.00     0.041 C 
ATOM      9  O   UNL     1      -3.688  39.699  22.364  1.00  0.00    -0.550 OA
ATOM     10  O   UNL     1      -5.814  40.375  21.845  1.00  0.00    -0.550 OA
ENDBRANCH   7   8
ENDBRANCH   6   7
ENDBRANCH   5   6
ENDBRANCH   4   5
ENDBRANCH   3   4
ENDBRANCH   2   3
ENDBRANCH   1   2
BRANCH   1  11
ATOM     11  C   UNL     1      -4.117  36.525  20.249  1.00  0.00     0.000 C 
BRANCH  11  12
ATOM     12  C   UNL     1      -3.870  37.184  18.880  1.00  0.00    -0.000 C 
BRANCH  12  13
ATOM     13  C   UNL     1      -3.856  36.215  17.680  1.00  0.00    -0.000 C 
BRANCH  13  14
ATOM     14  C   UNL     1      -3.201  36.802  16.413  1.00  0.00    -0.000 C 
BRANCH  14  15
ATOM     15  C   UNL     1      -1.666  36.704  16.455  1.00  0.00    -0.000 C 
BRANCH  15  16
ATOM     16  C   UNL     1      -1.002  38.017  16.897  1.00  0.00    -0.000 C 
BRANCH  16  17
ATOM     17  C   UNL     1      -0.393  37.921  18.304  1.00  0.00    -0.003 C 
ATOM     18  C   UNL     1      -1.010  38.956  19.241  1.00  0.00     0.004 C 
ENDBRANCH  16  17
ENDBRANCH  15  16
ENDBRANCH  14  15
ENDBRANCH  13  14
ENDBRANCH  12  13
ENDBRANCH  11  12
ENDBRANCH   1  11
TORSDOF 14
ENDMDL
