MODEL 1
REMARK VINA RESULT:    -3.431      0.000      0.000
REMARK INTER + INTRA:          -4.146
REMARK INTER:                  -4.032
REMARK INTRA:                  -0.114
REMARK UNBOUND:                -0.114
REMARK SMILES CCCCC(=O)[O-]
REMARK SMILES IDX 4 1 5 2 6 3 7 4 3 5 2 6 1 7
REMARK H PARENT
REMARK Flexibility Score: inf
ROOT
ATOM      1  C   UNL     1     -18.440  42.014  20.443  1.00  0.00     0.053 C 
ENDROOT
BRANCH   1   2
ATOM      2  C   UNL     1     -17.345  41.684  21.411  1.00  0.00     0.041 C 
ATOM      3  O   UNL     1     -16.436  42.522  21.651  1.00  0.00    -0.550 OA
ATOM      4  O   UNL     1     -17.311  40.437  22.021  1.00  0.00    -0.550 OA
ENDBRANCH   1   2
BRANCH   1   5
ATOM      5  C   UNL     1     -18.817  40.808  19.569  1.00  0.00     0.006 C 
BRANCH   5   6
ATOM      6  C   UNL     1     -17.720  40.381  18.578  1.00  0.00    -0.003 C 
ATOM      7  C   UNL     1     -17.258  38.939  18.790  1.00  0.00     0.004 C 
ENDBRANCH   5   6
ENDBRANCH   1   5
TORSDOF 3
ENDMDL
MODEL 2
REMARK VINA RESULT:    -3.416      2.070      3.971
REMARK INTER + INTRA:          -4.129
REMARK INTER:                  -4.110
REMARK INTRA:                  -0.018
REMARK UNBOUND:                -0.114
REMARK SMILES CCCCC(=O)[O-]
REMARK SMILES IDX 4 1 5 2 6 3 7 4 3 5 2 6 1 7
REMARK H PARENT
REMARK Flexibility Score: inf
ROOT
ATOM      1  C   UNL     1     -17.675  41.916  21.116  1.00  0.00     0.053 C 
ENDROOT
BRANCH   1   2
ATOM      2  C   UNL     1     -17.356  40.459  21.263  1.00  0.00     0.041 C 
ATOM      3  O   UNL     1     -17.007  39.996  22.381  1.00  0.00    -0.550 OA
ATOM      4  O   UNL     1     -17.412  39.621  20.157  1.00  0.00    -0.550 OA
ENDBRANCH   1   2
BRANCH   1   5
ATOM      5  C   UNL     1     -16.653  42.803  21.844  1.00  0.00     0.006 C 
BRANCH   5   6
ATOM      6  C   UNL     1     -16.998  44.304  21.829  1.00  0.00    -0.003 C 
ATOM      7  C   UNL     1     -16.618  45.013  23.128  1.00  0.00     0.004 C 
ENDBRANCH   5   6
ENDBRANCH   1   5
TORSDOF 3
ENDMDL
MODEL 3
REMARK VINA RESULT:    -3.408      3.715      5.425
REMARK INTER + INTRA:          -4.119
REMARK INTER:                  -4.074
REMARK INTRA:                  -0.045
REMARK UNBOUND:                -0.114
REMARK SMILES CCCCC(=O)[O-]
REMARK SMILES IDX 4 1 5 2 6 3 7 4 3 5 2 6 1 7
REMARK H PARENT
REMARK Flexibility Score: inf
ROOT
ATOM      1  C   UNL     1     -16.786  44.666  21.879  1.00  0.00     0.053 C 
ENDROOT
BRANCH   1   2
ATOM      2  C   UNL     1     -16.320  43.242  21.856  1.00  0.00     0.041 C 
ATOM      3  O   UNL     1     -15.099  42.972  22.007  1.00  0.00    -0.550 OA
ATOM      4  O   UNL     1     -17.230  42.216  21.636  1.00  0.00    -0.550 OA
ENDBRANCH   1   2
BRANCH   1   5
ATOM      5  C   UNL     1     -16.808  45.240  23.305  1.00  0.00     0.006 C 
BRANCH   5   6
ATOM      6  C   UNL     1     -16.467  46.739  23.386  1.00  0.00    -0.003 C 
ATOM      7  C   UNL     1     -15.948  47.301  22.063  1.00  0.00     0.004 C 
ENDBRANCH   5   6
ENDBRANCH   1   5
TORSDOF 3
ENDMDL
MODEL 4
REMARK VINA RESULT:    -3.368     12.724     13.581
REMARK INTER + INTRA:          -4.072
REMARK INTER:                  -3.990
REMARK INTRA:                  -0.083
REMARK UNBOUND:                -0.114
REMARK SMILES CCCCC(=O)[O-]
REMARK SMILES IDX 4 1 5 2 6 3 7 4 3 5 2 6 1 7
REMARK H PARENT
REMARK Flexibility Score: inf
ROOT
ATOM      1  C   UNL     1     -30.159  42.945  19.765  1.00  0.00     0.053 C 
ENDROOT
BRANCH   1   2
ATOM      2  C   UNL     1     -29.928  41.495  20.062  1.00  0.00     0.041 C 
ATOM      3  O   UNL     1     -28.863  40.934  19.693  1.00  0.00    -0.550 OA
ATOM      4  O   UNL     1     -30.905  40.757  20.719  1.00  0.00    -0.550 OA
ENDBRANCH   1   2
BRANCH   1   5
ATOM      5  C   UNL     1     -30.937  43.146  18.455  1.00  0.00     0.006 C 
BRANCH   5   6
ATOM      6  C   UNL     1     -32.365  43.689  18.647  1.00  0.00    -0.003 C 
ATOM      7  C   UNL     1     -32.768  43.792  20.118  1.00  0.00     0.004 C 
ENDBRANCH   5   6
ENDBRANCH   1   5
TORSDOF 3
ENDMDL
MODEL 5
REMARK VINA RESULT:    -3.355      2.292      3.915
REMARK INTER + INTRA:          -4.058
REMARK INTER:                  -4.033
REMARK INTRA:                  -0.024
REMARK UNBOUND:                -0.114
REMARK SMILES CCCCC(=O)[O-]
REMARK SMILES IDX 4 1 5 2 6 3 7 4 3 5 2 6 1 7
REMARK H PARENT
REMARK Flexibility Score: inf
ROOT
ATOM      1  C   UNL     1     -18.123  42.442  20.601  1.00  0.00     0.053 C 
ENDROOT
BRANCH   1   2
ATOM      2  C   UNL     1     -18.522  41.356  19.649  1.00  0.00     0.041 C 
ATOM      3  O   UNL     1     -19.533  40.644  19.887  1.00  0.00    -0.550 OA
ATOM      4  O   UNL     1     -17.758  41.111  18.515  1.00  0.00    -0.550 OA
ENDBRANCH   1   2
BRANCH   1   5
ATOM      5  C   UNL     1     -16.883  42.057  21.423  1.00  0.00     0.006 C 
BRANCH   5   6
ATOM      6  C   UNL     1     -16.001  43.252  21.831  1.00  0.00    -0.003 C 
ATOM      7  C   UNL     1     -16.816  44.484  22.222  1.00  0.00     0.004 C 
ENDBRANCH   5   6
ENDBRANCH   1   5
TORSDOF 3
ENDMDL
MODEL 6
REMARK VINA RESULT:    -3.344      1.635      2.032
REMARK INTER + INTRA:          -4.044
REMARK INTER:                  -3.959
REMARK INTRA:                  -0.085
REMARK UNBOUND:                -0.114
REMARK SMILES CCCCC(=O)[O-]
REMARK SMILES IDX 4 1 5 2 6 3 7 4 3 5 2 6 1 7
REMARK H PARENT
REMARK Flexibility Score: inf
ROOT
ATOM      1  C   UNL     1     -16.837  41.192  21.944  1.00  0.00     0.053 C 
ENDROOT
BRANCH   1   2
ATOM      2  C   UNL     1     -16.470  42.637  21.788  1.00  0.00     0.041 C 
ATOM      3  O   UNL     1     -17.349  43.485  21.482  1.00  0.00    -0.550 OA
ATOM      4  O   UNL     1     -15.151  43.040  21.950  1.00  0.00    -0.550 OA
ENDBRANCH   1   2
BRANCH   1   5
ATOM      5  C   UNL     1     -18.073  40.821  21.111  1.00  0.00     0.006 C 
BRANCH   5   6
ATOM      6  C   UNL     1     -17.765  39.951  19.879  1.00  0.00    -0.003 C 
ATOM      7  C   UNL     1     -17.694  40.760  18.584  1.00  0.00     0.004 C 
ENDBRANCH   5   6
ENDBRANCH   1   5
TORSDOF 3
ENDMDL
MODEL 7
REMARK VINA RESULT:    -3.336     13.000     13.784
REMARK INTER + INTRA:          -4.035
REMARK INTER:                  -3.929
REMARK INTRA:                  -0.106
REMARK UNBOUND:                -0.114
REMARK SMILES CCCCC(=O)[O-]
REMARK SMILES IDX 4 1 5 2 6 3 7 4 3 5 2 6 1 7
REMARK H PARENT
REMARK Flexibility Score: inf
ROOT
ATOM      1  C   UNL     1     -30.472  43.362  18.657  1.00  0.00     0.053 C 
ENDROOT
BRANCH   1   2
ATOM      2  C   UNL     1     -31.663  43.160  17.771  1.00  0.00     0.041 C 
ATOM      3  O   UNL     1     -32.348  42.107  17.860  1.00  0.00    -0.550 OA
ATOM      4  O   UNL     1     -31.996  44.121  16.825  1.00  0.00    -0.550 OA
ENDBRANCH   1   2
BRANCH   1   5
ATOM      5  C   UNL     1     -29.516  42.159  18.617  1.00  0.00     0.006 C 
BRANCH   5   6
ATOM      6  C   UNL     1     -29.220  41.544  19.997  1.00  0.00    -0.003 C 
ATOM      7  C   UNL     1     -30.480  41.064  20.715  1.00  0.00     0.004 C 
ENDBRANCH   5   6
ENDBRANCH   1   5
TORSDOF 3
ENDMDL
MODEL 8
REMARK VINA RESULT:    -3.309     12.438     13.114
REMARK INTER + INTRA:          -4.003
REMARK INTER:                  -3.949
REMARK INTRA:                  -0.053
REMARK UNBOUND:                -0.114
REMARK SMILES CCCCC(=O)[O-]
REMARK SMILES IDX 4 1 5 2 6 3 7 4 3 5 2 6 1 7
REMARK H PARENT
REMARK Flexibility Score: inf
ROOT
ATOM      1  C   UNL     1     -29.832  42.485  18.541  1.00  0.00     0.053 C 
ENDROOT
BRANCH   1   2
ATOM      2  C   UNL     1     -31.124  43.243  18.491  1.00  0.00     0.041 C 
ATOM      3  O   UNL     1     -31.492  43.798  17.422  1.00  0.00    -0.550 OA
ATOM      4  O   UNL     1     -31.904  43.364  19.633  1.00  0.00    -0.550 OA
ENDBRANCH   1   2
BRANCH   1   5
ATOM      5  C   UNL     1     -29.442  42.111  19.980  1.00  0.00     0.006 C 
BRANCH   5   6
ATOM      6  C   UNL     1     -29.704  40.638  20.342  1.00  0.00    -0.003 C 
ATOM      7  C   UNL     1     -28.799  39.670  19.580  1.00  0.00     0.004 C 
ENDBRANCH   5   6
ENDBRANCH   1   5
TORSDOF 3
ENDMDL
MODEL 9
REMARK VINA RESULT:    -3.293     11.719     12.657
REMARK INTER + INTRA:          -3.984
REMARK INTER:                  -3.884
REMARK INTRA:                  -0.099
REMARK UNBOUND:                -0.114
REMARK SMILES CCCCC(=O)[O-]
REMARK SMILES IDX 4 1 5 2 6 3 7 4 3 5 2 6 1 7
REMARK H PARENT
REMARK Flexibility Score: inf
ROOT
ATOM      1  C   UNL     1     -29.326  41.444  20.163  1.00  0.00     0.053 C 
ENDROOT
BRANCH   1   2
ATOM      2  C   UNL     1     -29.475  39.970  19.938  1.00  0.00     0.041 C 
ATOM      3  O   UNL     1     -30.614  39.434  19.973  1.00  0.00    -0.550 OA
ATOM      4  O   UNL     1     -28.350  39.183  19.722  1.00  0.00    -0.550 OA
ENDBRANCH   1   2
BRANCH   1   5
ATOM      5  C   UNL     1     -29.322  42.228  18.841  1.00  0.00     0.006 C 
BRANCH   5   6
ATOM      6  C   UNL     1     -30.619  43.011  18.569  1.00  0.00    -0.003 C 
ATOM      7  C   UNL     1     -31.523  43.107  19.798  1.00  0.00     0.004 C 
ENDBRANCH   5   6
ENDBRANCH   1   5
TORSDOF 3
ENDMDL
