MODEL 1
REMARK VINA RESULT:   107.257      0.000      0.000
REMARK INTER + INTRA:         257.920
REMARK INTER:                 254.607
REMARK INTRA:                   3.314
REMARK UNBOUND:                 3.314
REMARK SMILES O=C(OC[C@@H]1O[C@@H](OC(=O)c2cc(O)c(O)c(O)c2)[C@@H](OC(=O)c2cc(O)c(O)c(O)c2)[C@H](OC(=O)c2cc(O)c(O)c(O)c2)[C@@H]1OC(=O)c1cc(O)c(O)c(O)c1)c1cc(O)c(O)c(O)c1
REMARK SMILES IDX 5 1 46 2 33 3 20 4 7 5 6 6 4 7 3 8 2 9 1 10 59 11 60 12
REMARK SMILES IDX 61 13 67 14 63 15 65 16 62 17 64 19 66 21 47 23 48 24 49 25
REMARK SMILES IDX 50 26 58 27 51 28 56 29 52 30 54 31 57 32 53 34 55 36 34 38
REMARK SMILES IDX 35 39 36 40 37 41 45 42 38 43 43 44 39 45 41 46 44 47 40 49
REMARK SMILES IDX 42 51 8 53 9 54 10 55 11 56 19 57 12 58 17 59 13 60 15 61
REMARK SMILES IDX 18 62 14 64 16 66 21 68 22 69 23 70 24 71 32 72 25 73 30 74
REMARK SMILES IDX 26 75 28 76 31 77 27 79 29 81
REMARK H PARENT 62 18 64 20 66 22 57 33 53 35 55 37 44 48 40 50 42 52 18 63
REMARK H PARENT 14 65 16 67 31 78 27 80 29 82
REMARK Flexibility Score: inf
ROOT
ATOM      1  C   UNL     1     -35.046  29.791 -16.599  1.00  0.00     0.205 C 
ATOM      2  C   UNL     1     -34.799  30.761 -17.775  1.00  0.00     0.254 C 
ATOM      3  C   UNL     1     -36.130  31.012 -18.512  1.00  0.00     0.267 C 
ATOM      4  C   UNL     1     -36.784  29.671 -18.893  1.00  0.00     0.290 C 
ATOM      5  C   UNL     1     -36.862  28.751 -17.662  1.00  0.00     0.357 C 
ATOM      6  O   UNL     1     -35.585  28.565 -17.072  1.00  0.00    -0.329 OA
ENDROOT
BRANCH   1   7
ATOM      7  C   UNL     1     -33.744  29.507 -15.832  1.00  0.00     0.269 C 
BRANCH   7   8
ATOM      8  O   UNL     1     -33.001  28.469 -16.467  1.00  0.00    -0.459 OA
BRANCH   8   9
ATOM      9  C   UNL     1     -31.604  28.438 -16.546  1.00  0.00     0.338 C 
ATOM     10  O   UNL     1     -30.983  29.344 -17.167  1.00  0.00    -0.246 OA
BRANCH   9  11
ATOM     11  C   UNL     1     -30.857  27.356 -15.869  1.00  0.00     0.067 A 
ATOM     12  C   UNL     1     -29.943  26.573 -16.587  1.00  0.00     0.066 A 
ATOM     13  C   UNL     1     -29.244  25.538 -15.964  1.00  0.00     0.162 A 
ATOM     14  C   UNL     1     -31.056  27.092 -14.506  1.00  0.00     0.066 A 
ATOM     15  C   UNL     1     -29.451  25.266 -14.600  1.00  0.00     0.200 A 
ATOM     16  C   UNL     1     -30.364  26.061 -13.862  1.00  0.00     0.162 A 
BRANCH  13  17
ATOM     17  O   UNL     1     -28.355  24.773 -16.724  1.00  0.00    -0.504 OA
ATOM     18  H   UNL     1     -28.296  24.852 -17.732  1.00  0.00     0.293 HD
ENDBRANCH  13  17
BRANCH  15  19
ATOM     19  O   UNL     1     -28.748  24.207 -14.019  1.00  0.00    -0.502 OA
ATOM     20  H   UNL     1     -27.767  24.240 -13.787  1.00  0.00     0.293 HD
ENDBRANCH  15  19
BRANCH  16  21
ATOM     21  O   UNL     1     -30.605  25.867 -12.499  1.00  0.00    -0.504 OA
ATOM     22  H   UNL     1     -31.048  25.051 -12.111  1.00  0.00     0.293 HD
ENDBRANCH  16  21
ENDBRANCH   9  11
ENDBRANCH   8   9
ENDBRANCH   7   8
ENDBRANCH   1   7
BRANCH   2  23
ATOM     23  O   UNL     1     -33.849  30.186 -18.673  1.00  0.00    -0.452 OA
BRANCH  23  24
ATOM     24  C   UNL     1     -32.516  30.609 -18.779  1.00  0.00     0.338 C 
ATOM     25  O   UNL     1     -31.733  30.048 -19.595  1.00  0.00    -0.246 OA
BRANCH  24  26
ATOM     26  C   UNL     1     -32.034  31.717 -17.931  1.00  0.00     0.067 A 
ATOM     27  C   UNL     1     -31.377  31.457 -16.716  1.00  0.00     0.066 A 
ATOM     28  C   UNL     1     -32.220  33.047 -18.338  1.00  0.00     0.066 A 
ATOM     29  C   UNL     1     -30.912  32.507 -15.919  1.00  0.00     0.162 A 
ATOM     30  C   UNL     1     -31.766  34.104 -17.544  1.00  0.00     0.162 A 
ATOM     31  C   UNL     1     -31.110  33.838 -16.329  1.00  0.00     0.200 A 
BRANCH  29  32
ATOM     32  O   UNL     1     -30.239  32.211 -14.733  1.00  0.00    -0.504 OA
ATOM     33  H   UNL     1     -29.377  32.678 -14.476  1.00  0.00     0.293 HD
ENDBRANCH  29  32
BRANCH  30  34
ATOM     34  O   UNL     1     -31.967  35.423 -17.954  1.00  0.00    -0.504 OA
ATOM     35  H   UNL     1     -31.341  35.869 -18.616  1.00  0.00     0.293 HD
ENDBRANCH  30  34
BRANCH  31  36
ATOM     36  O   UNL     1     -30.645  34.881 -15.527  1.00  0.00    -0.502 OA
ATOM     37  H   UNL     1     -29.694  35.231 -15.592  1.00  0.00     0.293 HD
ENDBRANCH  31  36
ENDBRANCH  24  26
ENDBRANCH  23  24
ENDBRANCH   2  23
BRANCH   3  38
ATOM     38  O   UNL     1     -35.916  31.778 -19.698  1.00  0.00    -0.450 OA
BRANCH  38  39
ATOM     39  C   UNL     1     -36.929  32.184 -20.573  1.00  0.00     0.338 C 
ATOM     40  O   UNL     1     -37.934  32.806 -20.132  1.00  0.00    -0.246 OA
BRANCH  39  41
ATOM     41  C   UNL     1     -36.818  31.870 -22.016  1.00  0.00     0.067 A 
ATOM     42  C   UNL     1     -36.750  30.541 -22.470  1.00  0.00     0.066 A 
ATOM     43  C   UNL     1     -36.770  32.911 -22.957  1.00  0.00     0.066 A 
ATOM     44  C   UNL     1     -36.604  30.256 -23.835  1.00  0.00     0.162 A 
ATOM     45  C   UNL     1     -36.623  32.637 -24.319  1.00  0.00     0.162 A 
ATOM     46  C   UNL     1     -36.533  31.308 -24.763  1.00  0.00     0.200 A 
BRANCH  44  47
ATOM     47  O   UNL     1     -36.526  28.931 -24.273  1.00  0.00    -0.504 OA
ATOM     48  H   UNL     1     -37.343  28.427 -24.603  1.00  0.00     0.293 HD
ENDBRANCH  44  47
BRANCH  45  49
ATOM     49  O   UNL     1     -36.571  33.700 -25.222  1.00  0.00    -0.504 OA
ATOM     50  H   UNL     1     -35.711  33.975 -25.678  1.00  0.00     0.293 HD
ENDBRANCH  45  49
BRANCH  46  51
ATOM     51  O   UNL     1     -36.378  31.049 -26.125  1.00  0.00    -0.502 OA
ATOM     52  H   UNL     1     -36.716  31.681 -26.843  1.00  0.00     0.293 HD
ENDBRANCH  46  51
ENDBRANCH  39  41
ENDBRANCH  38  39
ENDBRANCH   3  38
BRANCH   5  53
ATOM     53  O   UNL     1     -37.791  29.261 -16.702  1.00  0.00    -0.428 OA
BRANCH  53  54
ATOM     54  C   UNL     1     -38.019  28.664 -15.456  1.00  0.00     0.340 C 
ATOM     55  O   UNL     1     -37.421  29.091 -14.430  1.00  0.00    -0.246 OA
BRANCH  54  56
ATOM     56  C   UNL     1     -38.942  27.511 -15.359  1.00  0.00     0.067 A 
ATOM     57  C   UNL     1     -38.622  26.420 -14.535  1.00  0.00     0.066 A 
ATOM     58  C   UNL     1     -40.149  27.501 -16.076  1.00  0.00     0.066 A 
ATOM     59  C   UNL     1     -39.492  25.325 -14.435  1.00  0.00     0.162 A 
ATOM     60  C   UNL     1     -41.027  26.413 -15.974  1.00  0.00     0.162 A 
ATOM     61  C   UNL     1     -40.697  25.318 -15.159  1.00  0.00     0.200 A 
BRANCH  59  62
ATOM     62  O   UNL     1     -39.167  24.244 -13.620  1.00  0.00    -0.504 OA
ATOM     63  H   UNL     1     -39.332  23.288 -13.912  1.00  0.00     0.293 HD
ENDBRANCH  59  62
BRANCH  60  64
ATOM     64  O   UNL     1     -42.218  26.423 -16.699  1.00  0.00    -0.504 OA
ATOM     65  H   UNL     1     -42.267  26.785 -17.645  1.00  0.00     0.293 HD
ENDBRANCH  60  64
BRANCH  61  66
ATOM     66  O   UNL     1     -41.576  24.236 -15.077  1.00  0.00    -0.502 OA
ATOM     67  H   UNL     1     -42.471  24.305 -14.593  1.00  0.00     0.293 HD
ENDBRANCH  61  66
ENDBRANCH  54  56
ENDBRANCH  53  54
ENDBRANCH   5  53
BRANCH   4  68
ATOM     68  O   UNL     1     -38.103  29.891 -19.405  1.00  0.00    -0.448 OA
BRANCH  68  69
ATOM     69  C   UNL     1     -38.554  29.376 -20.629  1.00  0.00     0.339 C 
ATOM     70  O   UNL     1     -37.866  28.518 -21.245  1.00  0.00    -0.246 OA
BRANCH  69  71
ATOM     71  C   UNL     1     -39.857  29.808 -21.179  1.00  0.00     0.067 A 
ATOM     72  C   UNL     1     -40.685  30.682 -20.453  1.00  0.00     0.066 A 
ATOM     73  C   UNL     1     -40.282  29.353 -22.437  1.00  0.00     0.066 A 
ATOM     74  C   UNL     1     -41.903  31.121 -20.991  1.00  0.00     0.162 A 
ATOM     75  C   UNL     1     -41.504  29.770 -22.980  1.00  0.00     0.162 A 
ATOM     76  C   UNL     1     -42.315  30.680 -22.257  1.00  0.00     0.200 A 
BRANCH  74  77
ATOM     77  O   UNL     1     -42.709  32.009 -20.278  1.00  0.00    -0.504 OA
ATOM     78  H   UNL     1     -43.709  32.034 -20.409  1.00  0.00     0.293 HD
ENDBRANCH  74  77
BRANCH  75  79
ATOM     79  O   UNL     1     -41.871  29.250 -24.225  1.00  0.00    -0.504 OA
ATOM     80  H   UNL     1     -42.521  29.694 -24.854  1.00  0.00     0.293 HD
ENDBRANCH  75  79
BRANCH  76  81
ATOM     81  O   UNL     1     -43.519  31.172 -22.766  1.00  0.00    -0.502 OA
ATOM     82  H   UNL     1     -43.954  32.018 -22.441  1.00  0.00     0.293 HD
ENDBRANCH  76  81
ENDBRANCH  69  71
ENDBRANCH  68  69
ENDBRANCH   4  68
TORSDOF 31
ENDMDL
MODEL 2
REMARK VINA RESULT:   108.229      2.252      6.516
REMARK INTER + INTRA:         260.230
REMARK INTER:                 257.886
REMARK INTRA:                   2.343
REMARK UNBOUND:                 3.314
REMARK SMILES O=C(OC[C@@H]1O[C@@H](OC(=O)c2cc(O)c(O)c(O)c2)[C@@H](OC(=O)c2cc(O)c(O)c(O)c2)[C@H](OC(=O)c2cc(O)c(O)c(O)c2)[C@@H]1OC(=O)c1cc(O)c(O)c(O)c1)c1cc(O)c(O)c(O)c1
REMARK SMILES IDX 5 1 46 2 33 3 20 4 7 5 6 6 4 7 3 8 2 9 1 10 59 11 60 12
REMARK SMILES IDX 61 13 67 14 63 15 65 16 62 17 64 19 66 21 47 23 48 24 49 25
REMARK SMILES IDX 50 26 58 27 51 28 56 29 52 30 54 31 57 32 53 34 55 36 34 38
REMARK SMILES IDX 35 39 36 40 37 41 45 42 38 43 43 44 39 45 41 46 44 47 40 49
REMARK SMILES IDX 42 51 8 53 9 54 10 55 11 56 19 57 12 58 17 59 13 60 15 61
REMARK SMILES IDX 18 62 14 64 16 66 21 68 22 69 23 70 24 71 32 72 25 73 30 74
REMARK SMILES IDX 26 75 28 76 31 77 27 79 29 81
REMARK H PARENT 62 18 64 20 66 22 57 33 53 35 55 37 44 48 40 50 42 52 18 63
REMARK H PARENT 14 65 16 67 31 78 27 80 29 82
REMARK Flexibility Score: inf
ROOT
ATOM      1  C   UNL     1     -34.826  30.180 -18.409  1.00  0.00     0.205 C 
ATOM      2  C   UNL     1     -35.527  28.851 -18.765  1.00  0.00     0.254 C 
ATOM      3  C   UNL     1     -36.658  29.130 -19.776  1.00  0.00     0.267 C 
ATOM      4  C   UNL     1     -37.583  30.239 -19.241  1.00  0.00     0.290 C 
ATOM      5  C   UNL     1     -36.752  31.460 -18.808  1.00  0.00     0.357 C 
ATOM      6  O   UNL     1     -35.757  31.101 -17.862  1.00  0.00    -0.329 OA
ENDROOT
BRANCH   1   7
ATOM      7  C   UNL     1     -33.688  29.952 -17.399  1.00  0.00     0.269 C 
BRANCH   7   8
ATOM      8  O   UNL     1     -32.426  30.277 -17.981  1.00  0.00    -0.459 OA
BRANCH   8   9
ATOM      9  C   UNL     1     -31.372  29.368 -18.129  1.00  0.00     0.338 C 
ATOM     10  O   UNL     1     -30.717  29.325 -19.205  1.00  0.00    -0.246 OA
BRANCH   9  11
ATOM     11  C   UNL     1     -31.009  28.481 -17.002  1.00  0.00     0.067 A 
ATOM     12  C   UNL     1     -30.270  27.313 -17.234  1.00  0.00     0.066 A 
ATOM     13  C   UNL     1     -29.935  26.459 -16.181  1.00  0.00     0.162 A 
ATOM     14  C   UNL     1     -31.402  28.791 -15.691  1.00  0.00     0.066 A 
ATOM     15  C   UNL     1     -30.339  26.763 -14.869  1.00  0.00     0.200 A 
ATOM     16  C   UNL     1     -31.074  27.949 -14.623  1.00  0.00     0.162 A 
BRANCH  13  17
ATOM     17  O   UNL     1     -29.213  25.297 -16.461  1.00  0.00    -0.504 OA
ATOM     18  H   UNL     1     -28.425  25.288 -17.098  1.00  0.00     0.293 HD
ENDBRANCH  13  17
BRANCH  15  19
ATOM     19  O   UNL     1     -30.001  25.871 -13.846  1.00  0.00    -0.502 OA
ATOM     20  H   UNL     1     -29.238  26.012 -13.202  1.00  0.00     0.293 HD
ENDBRANCH  15  19
BRANCH  16  21
ATOM     21  O   UNL     1     -31.489  28.331 -13.344  1.00  0.00    -0.504 OA
ATOM     22  H   UNL     1     -31.153  29.145 -12.857  1.00  0.00     0.293 HD
ENDBRANCH  16  21
ENDBRANCH   9  11
ENDBRANCH   8   9
ENDBRANCH   7   8
ENDBRANCH   1   7
BRANCH   2  23
ATOM     23  O   UNL     1     -36.070  28.268 -17.580  1.00  0.00    -0.452 OA
BRANCH  23  24
ATOM     24  C   UNL     1     -36.303  28.977 -16.394  1.00  0.00     0.338 C 
ATOM     25  O   UNL     1     -35.350  29.544 -15.793  1.00  0.00    -0.246 OA
BRANCH  24  26
ATOM     26  C   UNL     1     -37.675  29.060 -15.852  1.00  0.00     0.067 A 
ATOM     27  C   UNL     1     -38.776  28.645 -16.622  1.00  0.00     0.066 A 
ATOM     28  C   UNL     1     -37.891  29.546 -14.554  1.00  0.00     0.066 A 
ATOM     29  C   UNL     1     -40.072  28.715 -16.104  1.00  0.00     0.162 A 
ATOM     30  C   UNL     1     -39.185  29.626 -14.031  1.00  0.00     0.162 A 
ATOM     31  C   UNL     1     -40.282  29.212 -14.806  1.00  0.00     0.200 A 
BRANCH  29  32
ATOM     32  O   UNL     1     -41.139  28.268 -16.886  1.00  0.00    -0.504 OA
ATOM     33  H   UNL     1     -41.658  27.430 -16.653  1.00  0.00     0.293 HD
ENDBRANCH  29  32
BRANCH  30  34
ATOM     34  O   UNL     1     -39.388  30.122 -12.742  1.00  0.00    -0.504 OA
ATOM     35  H   UNL     1     -38.608  30.293 -12.116  1.00  0.00     0.293 HD
ENDBRANCH  30  34
BRANCH  31  36
ATOM     36  O   UNL     1     -41.580  29.279 -14.296  1.00  0.00    -0.502 OA
ATOM     37  H   UNL     1     -41.982  28.532 -13.737  1.00  0.00     0.293 HD
ENDBRANCH  31  36
ENDBRANCH  24  26
ENDBRANCH  23  24
ENDBRANCH   2  23
BRANCH   3  38
ATOM     38  O   UNL     1     -37.431  27.953 -20.010  1.00  0.00    -0.450 OA
BRANCH  38  39
ATOM     39  C   UNL     1     -37.161  27.015 -21.012  1.00  0.00     0.338 C 
ATOM     40  O   UNL     1     -35.973  26.657 -21.241  1.00  0.00    -0.246 OA
BRANCH  39  41
ATOM     41  C   UNL     1     -38.278  26.452 -21.806  1.00  0.00     0.067 A 
ATOM     42  C   UNL     1     -38.191  25.172 -22.380  1.00  0.00     0.066 A 
ATOM     43  C   UNL     1     -39.446  27.205 -22.001  1.00  0.00     0.066 A 
ATOM     44  C   UNL     1     -39.237  24.665 -23.164  1.00  0.00     0.162 A 
ATOM     45  C   UNL     1     -40.493  26.710 -22.782  1.00  0.00     0.162 A 
ATOM     46  C   UNL     1     -40.391  25.439 -23.372  1.00  0.00     0.200 A 
BRANCH  44  47
ATOM     47  O   UNL     1     -39.135  23.395 -23.739  1.00  0.00    -0.504 OA
ATOM     48  H   UNL     1     -38.892  23.268 -24.716  1.00  0.00     0.293 HD
ENDBRANCH  44  47
BRANCH  45  49
ATOM     49  O   UNL     1     -41.635  27.492 -22.960  1.00  0.00    -0.504 OA
ATOM     50  H   UNL     1     -41.833  28.293 -22.375  1.00  0.00     0.293 HD
ENDBRANCH  45  49
BRANCH  46  51
ATOM     51  O   UNL     1     -41.440  24.959 -24.155  1.00  0.00    -0.502 OA
ATOM     52  H   UNL     1     -42.407  25.220 -23.991  1.00  0.00     0.293 HD
ENDBRANCH  46  51
ENDBRANCH  39  41
ENDBRANCH  38  39
ENDBRANCH   3  38
BRANCH   5  53
ATOM     53  O   UNL     1     -36.161  32.101 -19.941  1.00  0.00    -0.428 OA
BRANCH  53  54
ATOM     54  C   UNL     1     -36.906  32.618 -21.009  1.00  0.00     0.340 C 
ATOM     55  O   UNL     1     -37.666  33.609 -20.831  1.00  0.00    -0.246 OA
BRANCH  54  56
ATOM     56  C   UNL     1     -36.815  31.974 -22.339  1.00  0.00     0.067 A 
ATOM     57  C   UNL     1     -36.777  30.574 -22.442  1.00  0.00     0.066 A 
ATOM     58  C   UNL     1     -36.779  32.751 -23.508  1.00  0.00     0.066 A 
ATOM     59  C   UNL     1     -36.695  29.955 -23.698  1.00  0.00     0.162 A 
ATOM     60  C   UNL     1     -36.704  32.138 -24.766  1.00  0.00     0.162 A 
ATOM     61  C   UNL     1     -36.654  30.739 -24.864  1.00  0.00     0.200 A 
BRANCH  59  62
ATOM     62  O   UNL     1     -36.653  28.566 -23.793  1.00  0.00    -0.504 OA
ATOM     63  H   UNL     1     -36.113  28.005 -23.145  1.00  0.00     0.293 HD
ENDBRANCH  59  62
BRANCH  60  64
ATOM     64  O   UNL     1     -36.666  32.931 -25.913  1.00  0.00    -0.504 OA
ATOM     65  H   UNL     1     -35.997  33.685 -26.021  1.00  0.00     0.293 HD
ENDBRANCH  60  64
BRANCH  61  66
ATOM     66  O   UNL     1     -36.567  30.143 -26.125  1.00  0.00    -0.502 OA
ATOM     67  H   UNL     1     -37.112  30.479 -26.918  1.00  0.00     0.293 HD
ENDBRANCH  61  66
ENDBRANCH  54  56
ENDBRANCH  53  54
ENDBRANCH   5  53
BRANCH   4  68
ATOM     68  O   UNL     1     -38.517  30.634 -20.250  1.00  0.00    -0.448 OA
BRANCH  68  69
ATOM     69  C   UNL     1     -39.735  31.272 -19.971  1.00  0.00     0.339 C 
ATOM     70  O   UNL     1     -39.842  32.014 -18.958  1.00  0.00    -0.246 OA
BRANCH  69  71
ATOM     71  C   UNL     1     -40.884  31.107 -20.887  1.00  0.00     0.067 A 
ATOM     72  C   UNL     1     -40.719  30.481 -22.136  1.00  0.00     0.066 A 
ATOM     73  C   UNL     1     -42.157  31.570 -20.519  1.00  0.00     0.066 A 
ATOM     74  C   UNL     1     -41.816  30.292 -22.988  1.00  0.00     0.162 A 
ATOM     75  C   UNL     1     -43.260  31.402 -21.367  1.00  0.00     0.162 A 
ATOM     76  C   UNL     1     -43.091  30.737 -22.608  1.00  0.00     0.200 A 
BRANCH  74  77
ATOM     77  O   UNL     1     -41.653  29.647 -24.214  1.00  0.00    -0.504 OA
ATOM     78  H   UNL     1     -41.074  28.825 -24.304  1.00  0.00     0.293 HD
ENDBRANCH  74  77
BRANCH  75  79
ATOM     79  O   UNL     1     -44.488  31.917 -20.942  1.00  0.00    -0.504 OA
ATOM     80  H   UNL     1     -44.625  32.863 -20.624  1.00  0.00     0.293 HD
ENDBRANCH  75  79
BRANCH  76  81
ATOM     81  O   UNL     1     -44.159  30.495 -23.475  1.00  0.00    -0.502 OA
ATOM     82  H   UNL     1     -44.988  31.062 -23.505  1.00  0.00     0.293 HD
ENDBRANCH  76  81
ENDBRANCH  69  71
ENDBRANCH  68  69
ENDBRANCH   4  68
TORSDOF 31
ENDMDL
MODEL 3
REMARK VINA RESULT:   108.565      0.509      2.126
REMARK INTER + INTRA:         261.025
REMARK INTER:                 257.026
REMARK INTRA:                   3.999
REMARK UNBOUND:                 3.314
REMARK SMILES O=C(OC[C@@H]1O[C@@H](OC(=O)c2cc(O)c(O)c(O)c2)[C@@H](OC(=O)c2cc(O)c(O)c(O)c2)[C@H](OC(=O)c2cc(O)c(O)c(O)c2)[C@@H]1OC(=O)c1cc(O)c(O)c(O)c1)c1cc(O)c(O)c(O)c1
REMARK SMILES IDX 5 1 46 2 33 3 20 4 7 5 6 6 4 7 3 8 2 9 1 10 59 11 60 12
REMARK SMILES IDX 61 13 67 14 63 15 65 16 62 17 64 19 66 21 47 23 48 24 49 25
REMARK SMILES IDX 50 26 58 27 51 28 56 29 52 30 54 31 57 32 53 34 55 36 34 38
REMARK SMILES IDX 35 39 36 40 37 41 45 42 38 43 43 44 39 45 41 46 44 47 40 49
REMARK SMILES IDX 42 51 8 53 9 54 10 55 11 56 19 57 12 58 17 59 13 60 15 61
REMARK SMILES IDX 18 62 14 64 16 66 21 68 22 69 23 70 24 71 32 72 25 73 30 74
REMARK SMILES IDX 26 75 28 76 31 77 27 79 29 81
REMARK H PARENT 62 18 64 20 66 22 57 33 53 35 55 37 44 48 40 50 42 52 18 63
REMARK H PARENT 14 65 16 67 31 78 27 80 29 82
REMARK Flexibility Score: inf
ROOT
ATOM      1  C   UNL     1     -35.055  29.621 -16.598  1.00  0.00     0.205 C 
ATOM      2  C   UNL     1     -34.812  30.621 -17.750  1.00  0.00     0.254 C 
ATOM      3  C   UNL     1     -36.147  30.893 -18.473  1.00  0.00     0.267 C 
ATOM      4  C   UNL     1     -36.806  29.564 -18.884  1.00  0.00     0.290 C 
ATOM      5  C   UNL     1     -36.878  28.612 -17.676  1.00  0.00     0.357 C 
ATOM      6  O   UNL     1     -35.598  28.409 -17.099  1.00  0.00    -0.329 OA
ENDROOT
BRANCH   1   7
ATOM      7  C   UNL     1     -33.749  29.316 -15.845  1.00  0.00     0.269 C 
BRANCH   7   8
ATOM      8  O   UNL     1     -32.914  28.453 -16.615  1.00  0.00    -0.459 OA
BRANCH   8   9
ATOM      9  C   UNL     1     -31.515  28.462 -16.565  1.00  0.00     0.338 C 
ATOM     10  O   UNL     1     -30.871  29.446 -17.020  1.00  0.00    -0.246 OA
BRANCH   9  11
ATOM     11  C   UNL     1     -30.799  27.327 -15.945  1.00  0.00     0.067 A 
ATOM     12  C   UNL     1     -30.963  27.050 -14.581  1.00  0.00     0.066 A 
ATOM     13  C   UNL     1     -30.280  25.991 -13.979  1.00  0.00     0.162 A 
ATOM     14  C   UNL     1     -29.942  26.518 -16.706  1.00  0.00     0.066 A 
ATOM     15  C   UNL     1     -29.412  25.187 -14.740  1.00  0.00     0.200 A 
ATOM     16  C   UNL     1     -29.250  25.452 -16.123  1.00  0.00     0.162 A 
BRANCH  13  17
ATOM     17  O   UNL     1     -30.461  25.763 -12.613  1.00  0.00    -0.504 OA
ATOM     18  H   UNL     1     -31.336  25.962 -12.141  1.00  0.00     0.293 HD
ENDBRANCH  13  17
BRANCH  15  19
ATOM     19  O   UNL     1     -28.730  24.151 -14.095  1.00  0.00    -0.502 OA
ATOM     20  H   UNL     1     -27.945  24.289 -13.478  1.00  0.00     0.293 HD
ENDBRANCH  15  19
BRANCH  16  21
ATOM     21  O   UNL     1     -28.425  24.682 -16.948  1.00  0.00    -0.504 OA
ATOM     22  H   UNL     1     -28.253  23.698 -16.821  1.00  0.00     0.293 HD
ENDBRANCH  16  21
ENDBRANCH   9  11
ENDBRANCH   8   9
ENDBRANCH   7   8
ENDBRANCH   1   7
BRANCH   2  23
ATOM     23  O   UNL     1     -33.869  30.068 -18.668  1.00  0.00    -0.452 OA
BRANCH  23  24
ATOM     24  C   UNL     1     -32.544  30.511 -18.792  1.00  0.00     0.338 C 
ATOM     25  O   UNL     1     -31.760  29.955 -19.609  1.00  0.00    -0.246 OA
BRANCH  24  26
ATOM     26  C   UNL     1     -32.073  31.638 -17.961  1.00  0.00     0.067 A 
ATOM     27  C   UNL     1     -32.248  32.966 -18.387  1.00  0.00     0.066 A 
ATOM     28  C   UNL     1     -31.450  31.391 -16.729  1.00  0.00     0.066 A 
ATOM     29  C   UNL     1     -31.811  34.031 -17.596  1.00  0.00     0.162 A 
ATOM     30  C   UNL     1     -31.003  32.450 -15.933  1.00  0.00     0.162 A 
ATOM     31  C   UNL     1     -31.180  33.776 -16.365  1.00  0.00     0.200 A 
BRANCH  29  32
ATOM     32  O   UNL     1     -32.027  35.337 -18.037  1.00  0.00    -0.504 OA
ATOM     33  H   UNL     1     -31.481  36.117 -17.690  1.00  0.00     0.293 HD
ENDBRANCH  29  32
BRANCH  30  34
ATOM     34  O   UNL     1     -30.374  32.191 -14.714  1.00  0.00    -0.504 OA
ATOM     35  H   UNL     1     -30.807  31.594 -14.016  1.00  0.00     0.293 HD
ENDBRANCH  30  34
BRANCH  31  36
ATOM     36  O   UNL     1     -30.743  34.845 -15.580  1.00  0.00    -0.502 OA
ATOM     37  H   UNL     1     -29.965  35.437 -15.856  1.00  0.00     0.293 HD
ENDBRANCH  31  36
ENDBRANCH  24  26
ENDBRANCH  23  24
ENDBRANCH   2  23
BRANCH   3  38
ATOM     38  O   UNL     1     -35.938  31.689 -19.640  1.00  0.00    -0.450 OA
BRANCH  38  39
ATOM     39  C   UNL     1     -36.951  32.088 -20.518  1.00  0.00     0.338 C 
ATOM     40  O   UNL     1     -37.990  32.649 -20.072  1.00  0.00    -0.246 OA
BRANCH  39  41
ATOM     41  C   UNL     1     -36.799  31.840 -21.970  1.00  0.00     0.067 A 
ATOM     42  C   UNL     1     -36.744  32.903 -22.889  1.00  0.00     0.066 A 
ATOM     43  C   UNL     1     -36.715  30.524 -22.450  1.00  0.00     0.066 A 
ATOM     44  C   UNL     1     -36.641  32.656 -24.265  1.00  0.00     0.162 A 
ATOM     45  C   UNL     1     -36.614  30.267 -23.820  1.00  0.00     0.162 A 
ATOM     46  C   UNL     1     -36.583  31.333 -24.734  1.00  0.00     0.200 A 
BRANCH  44  47
ATOM     47  O   UNL     1     -36.599  33.721 -25.171  1.00  0.00    -0.504 OA
ATOM     48  H   UNL     1     -37.243  34.502 -25.109  1.00  0.00     0.293 HD
ENDBRANCH  44  47
BRANCH  45  49
ATOM     49  O   UNL     1     -36.542  28.945 -24.258  1.00  0.00    -0.504 OA
ATOM     50  H   UNL     1     -36.720  28.164 -23.641  1.00  0.00     0.293 HD
ENDBRANCH  45  49
BRANCH  46  51
ATOM     51  O   UNL     1     -36.489  31.063 -26.099  1.00  0.00    -0.502 OA
ATOM     52  H   UNL     1     -37.271  31.182 -26.734  1.00  0.00     0.293 HD
ENDBRANCH  46  51
ENDBRANCH  39  41
ENDBRANCH  38  39
ENDBRANCH   3  38
BRANCH   5  53
ATOM     53  O   UNL     1     -37.801  29.099 -16.699  1.00  0.00    -0.428 OA
BRANCH  53  54
ATOM     54  C   UNL     1     -39.136  28.682 -16.624  1.00  0.00     0.340 C 
ATOM     55  O   UNL     1     -40.047  29.376 -17.152  1.00  0.00    -0.246 OA
BRANCH  54  56
ATOM     56  C   UNL     1     -39.471  27.439 -15.894  1.00  0.00     0.067 A 
ATOM     57  C   UNL     1     -40.690  26.786 -16.138  1.00  0.00     0.066 A 
ATOM     58  C   UNL     1     -38.572  26.893 -14.963  1.00  0.00     0.066 A 
ATOM     59  C   UNL     1     -41.014  25.606 -15.453  1.00  0.00     0.162 A 
ATOM     60  C   UNL     1     -38.887  25.710 -14.281  1.00  0.00     0.162 A 
ATOM     61  C   UNL     1     -40.112  25.067 -14.519  1.00  0.00     0.200 A 
BRANCH  59  62
ATOM     62  O   UNL     1     -42.227  24.966 -15.696  1.00  0.00    -0.504 OA
ATOM     63  H   UNL     1     -43.057  25.175 -15.154  1.00  0.00     0.293 HD
ENDBRANCH  59  62
BRANCH  60  64
ATOM     64  O   UNL     1     -37.980  25.189 -13.359  1.00  0.00    -0.504 OA
ATOM     65  H   UNL     1     -38.270  24.888 -12.435  1.00  0.00     0.293 HD
ENDBRANCH  60  64
BRANCH  61  66
ATOM     66  O   UNL     1     -40.417  23.894 -13.823  1.00  0.00    -0.502 OA
ATOM     67  H   UNL     1     -40.809  23.078 -14.290  1.00  0.00     0.293 HD
ENDBRANCH  61  66
ENDBRANCH  54  56
ENDBRANCH  53  54
ENDBRANCH   5  53
BRANCH   4  68
ATOM     68  O   UNL     1     -38.127  29.799 -19.382  1.00  0.00    -0.448 OA
BRANCH  68  69
ATOM     69  C   UNL     1     -38.585  29.320 -20.619  1.00  0.00     0.339 C 
ATOM     70  O   UNL     1     -37.905  28.474 -21.259  1.00  0.00    -0.246 OA
BRANCH  69  71
ATOM     71  C   UNL     1     -39.886  29.775 -21.153  1.00  0.00     0.067 A 
ATOM     72  C   UNL     1     -40.691  30.662 -20.416  1.00  0.00     0.066 A 
ATOM     73  C   UNL     1     -40.333  29.330 -22.407  1.00  0.00     0.066 A 
ATOM     74  C   UNL     1     -41.908  31.123 -20.940  1.00  0.00     0.162 A 
ATOM     75  C   UNL     1     -41.554  29.769 -22.936  1.00  0.00     0.162 A 
ATOM     76  C   UNL     1     -42.341  30.692 -22.202  1.00  0.00     0.200 A 
BRANCH  74  77
ATOM     77  O   UNL     1     -42.690  32.023 -20.217  1.00  0.00    -0.504 OA
ATOM     78  H   UNL     1     -42.332  32.924 -19.936  1.00  0.00     0.293 HD
ENDBRANCH  74  77
BRANCH  75  79
ATOM     79  O   UNL     1     -41.943  29.257 -24.178  1.00  0.00    -0.504 OA
ATOM     80  H   UNL     1     -41.704  29.676 -25.062  1.00  0.00     0.293 HD
ENDBRANCH  75  79
BRANCH  76  81
ATOM     81  O   UNL     1     -43.542  31.205 -22.697  1.00  0.00    -0.502 OA
ATOM     82  H   UNL     1     -44.156  30.692 -23.305  1.00  0.00     0.293 HD
ENDBRANCH  76  81
ENDBRANCH  69  71
ENDBRANCH  68  69
ENDBRANCH   4  68
TORSDOF 31
ENDMDL
MODEL 4
REMARK VINA RESULT:   109.804      1.419      3.006
REMARK INTER + INTRA:         263.968
REMARK INTER:                 265.528
REMARK INTRA:                  -1.560
REMARK UNBOUND:                 3.314
REMARK SMILES O=C(OC[C@@H]1O[C@@H](OC(=O)c2cc(O)c(O)c(O)c2)[C@@H](OC(=O)c2cc(O)c(O)c(O)c2)[C@H](OC(=O)c2cc(O)c(O)c(O)c2)[C@@H]1OC(=O)c1cc(O)c(O)c(O)c1)c1cc(O)c(O)c(O)c1
REMARK SMILES IDX 5 1 46 2 33 3 20 4 7 5 6 6 4 7 3 8 2 9 1 10 59 11 60 12
REMARK SMILES IDX 61 13 67 14 63 15 65 16 62 17 64 19 66 21 47 23 48 24 49 25
REMARK SMILES IDX 50 26 58 27 51 28 56 29 52 30 54 31 57 32 53 34 55 36 34 38
REMARK SMILES IDX 35 39 36 40 37 41 45 42 38 43 43 44 39 45 41 46 44 47 40 49
REMARK SMILES IDX 42 51 8 53 9 54 10 55 11 56 19 57 12 58 17 59 13 60 15 61
REMARK SMILES IDX 18 62 14 64 16 66 21 68 22 69 23 70 24 71 32 72 25 73 30 74
REMARK SMILES IDX 26 75 28 76 31 77 27 79 29 81
REMARK H PARENT 62 18 64 20 66 22 57 33 53 35 55 37 44 48 40 50 42 52 18 63
REMARK H PARENT 14 65 16 67 31 78 27 80 29 82
REMARK Flexibility Score: inf
ROOT
ATOM      1  C   UNL     1     -35.192  29.802 -16.438  1.00  0.00     0.205 C 
ATOM      2  C   UNL     1     -34.891  30.695 -17.661  1.00  0.00     0.254 C 
ATOM      3  C   UNL     1     -36.197  30.938 -18.444  1.00  0.00     0.267 C 
ATOM      4  C   UNL     1     -36.879  29.595 -18.762  1.00  0.00     0.290 C 
ATOM      5  C   UNL     1     -37.010  28.750 -17.483  1.00  0.00     0.357 C 
ATOM      6  O   UNL     1     -35.753  28.565 -16.853  1.00  0.00    -0.329 OA
ENDROOT
BRANCH   1   7
ATOM      7  C   UNL     1     -33.916  29.529 -15.623  1.00  0.00     0.269 C 
BRANCH   7   8
ATOM      8  O   UNL     1     -33.001  28.731 -16.373  1.00  0.00    -0.459 OA
BRANCH   8   9
ATOM      9  C   UNL     1     -31.610  28.784 -16.227  1.00  0.00     0.338 C 
ATOM     10  O   UNL     1     -30.998  29.877 -16.369  1.00  0.00    -0.246 OA
BRANCH   9  11
ATOM     11  C   UNL     1     -30.865  27.557 -15.871  1.00  0.00     0.067 A 
ATOM     12  C   UNL     1     -30.850  27.101 -14.546  1.00  0.00     0.066 A 
ATOM     13  C   UNL     1     -30.137  25.953 -14.194  1.00  0.00     0.162 A 
ATOM     14  C   UNL     1     -30.161  26.837 -16.848  1.00  0.00     0.066 A 
ATOM     15  C   UNL     1     -29.422  25.238 -15.171  1.00  0.00     0.200 A 
ATOM     16  C   UNL     1     -29.443  25.684 -16.516  1.00  0.00     0.162 A 
BRANCH  13  17
ATOM     17  O   UNL     1     -30.135  25.545 -12.858  1.00  0.00    -0.504 OA
ATOM     18  H   UNL     1     -30.989  25.435 -12.323  1.00  0.00     0.293 HD
ENDBRANCH  13  17
BRANCH  15  19
ATOM     19  O   UNL     1     -28.704  24.106 -14.773  1.00  0.00    -0.502 OA
ATOM     20  H   UNL     1     -27.769  24.133 -14.396  1.00  0.00     0.293 HD
ENDBRANCH  15  19
BRANCH  16  21
ATOM     21  O   UNL     1     -28.777  25.013 -17.546  1.00  0.00    -0.504 OA
ATOM     22  H   UNL     1     -28.242  25.468 -18.267  1.00  0.00     0.293 HD
ENDBRANCH  16  21
ENDBRANCH   9  11
ENDBRANCH   8   9
ENDBRANCH   7   8
ENDBRANCH   1   7
BRANCH   2  23
ATOM     23  O   UNL     1     -33.937  30.045 -18.501  1.00  0.00    -0.452 OA
BRANCH  23  24
ATOM     24  C   UNL     1     -32.684  30.584 -18.827  1.00  0.00     0.338 C 
ATOM     25  O   UNL     1     -32.313  31.681 -18.327  1.00  0.00    -0.246 OA
BRANCH  24  26
ATOM     26  C   UNL     1     -31.799  29.857 -19.760  1.00  0.00     0.067 A 
ATOM     27  C   UNL     1     -31.790  28.452 -19.791  1.00  0.00     0.066 A 
ATOM     28  C   UNL     1     -30.963  30.567 -20.634  1.00  0.00     0.066 A 
ATOM     29  C   UNL     1     -30.959  27.765 -20.681  1.00  0.00     0.162 A 
ATOM     30  C   UNL     1     -30.124  29.889 -21.522  1.00  0.00     0.162 A 
ATOM     31  C   UNL     1     -30.117  28.483 -21.548  1.00  0.00     0.200 A 
BRANCH  29  32
ATOM     32  O   UNL     1     -30.997  26.370 -20.704  1.00  0.00    -0.504 OA
ATOM     33  H   UNL     1     -30.526  25.834 -21.423  1.00  0.00     0.293 HD
ENDBRANCH  29  32
BRANCH  30  34
ATOM     34  O   UNL     1     -29.287  30.606 -22.380  1.00  0.00    -0.504 OA
ATOM     35  H   UNL     1     -28.292  30.414 -22.425  1.00  0.00     0.293 HD
ENDBRANCH  30  34
BRANCH  31  36
ATOM     36  O   UNL     1     -29.289  27.791 -22.433  1.00  0.00    -0.502 OA
ATOM     37  H   UNL     1     -29.428  27.819 -23.439  1.00  0.00     0.293 HD
ENDBRANCH  31  36
ENDBRANCH  24  26
ENDBRANCH  23  24
ENDBRANCH   2  23
BRANCH   3  38
ATOM     38  O   UNL     1     -35.935  31.628 -19.665  1.00  0.00    -0.450 OA
BRANCH  38  39
ATOM     39  C   UNL     1     -36.922  32.082 -20.546  1.00  0.00     0.338 C 
ATOM     40  O   UNL     1     -37.930  32.699 -20.104  1.00  0.00    -0.246 OA
BRANCH  39  41
ATOM     41  C   UNL     1     -36.780  31.826 -21.999  1.00  0.00     0.067 A 
ATOM     42  C   UNL     1     -36.740  32.882 -22.925  1.00  0.00     0.066 A 
ATOM     43  C   UNL     1     -36.690  30.507 -22.470  1.00  0.00     0.066 A 
ATOM     44  C   UNL     1     -36.647  32.627 -24.300  1.00  0.00     0.162 A 
ATOM     45  C   UNL     1     -36.599  30.241 -23.839  1.00  0.00     0.162 A 
ATOM     46  C   UNL     1     -36.583  31.301 -24.761  1.00  0.00     0.200 A 
BRANCH  44  47
ATOM     47  O   UNL     1     -36.620  33.685 -25.213  1.00  0.00    -0.504 OA
ATOM     48  H   UNL     1     -35.764  34.187 -25.426  1.00  0.00     0.293 HD
ENDBRANCH  44  47
BRANCH  45  49
ATOM     49  O   UNL     1     -36.520  28.916 -24.269  1.00  0.00    -0.504 OA
ATOM     50  H   UNL     1     -36.779  28.142 -23.672  1.00  0.00     0.293 HD
ENDBRANCH  45  49
BRANCH  46  51
ATOM     51  O   UNL     1     -36.498  31.023 -26.125  1.00  0.00    -0.502 OA
ATOM     52  H   UNL     1     -36.815  30.145 -26.523  1.00  0.00     0.293 HD
ENDBRANCH  46  51
ENDBRANCH  39  41
ENDBRANCH  38  39
ENDBRANCH   3  38
BRANCH   5  53
ATOM     53  O   UNL     1     -37.947  29.339 -16.577  1.00  0.00    -0.428 OA
BRANCH  53  54
ATOM     54  C   UNL     1     -38.296  28.766 -15.348  1.00  0.00     0.340 C 
ATOM     55  O   UNL     1     -37.854  29.256 -14.273  1.00  0.00    -0.246 OA
BRANCH  54  56
ATOM     56  C   UNL     1     -39.161  27.566 -15.323  1.00  0.00     0.067 A 
ATOM     57  C   UNL     1     -38.806  26.458 -14.535  1.00  0.00     0.066 A 
ATOM     58  C   UNL     1     -40.347  27.524 -16.074  1.00  0.00     0.066 A 
ATOM     59  C   UNL     1     -39.621  25.317 -14.504  1.00  0.00     0.162 A 
ATOM     60  C   UNL     1     -41.170  26.390 -16.040  1.00  0.00     0.162 A 
ATOM     61  C   UNL     1     -40.805  25.281 -15.261  1.00  0.00     0.200 A 
BRANCH  59  62
ATOM     62  O   UNL     1     -39.262  24.221 -13.725  1.00  0.00    -0.504 OA
ATOM     63  H   UNL     1     -38.820  23.403 -14.128  1.00  0.00     0.293 HD
ENDBRANCH  59  62
BRANCH  60  64
ATOM     64  O   UNL     1     -42.341  26.371 -16.797  1.00  0.00    -0.504 OA
ATOM     65  H   UNL     1     -42.748  25.505 -17.132  1.00  0.00     0.293 HD
ENDBRANCH  60  64
BRANCH  61  66
ATOM     66  O   UNL     1     -41.630  24.153 -15.248  1.00  0.00    -0.502 OA
ATOM     67  H   UNL     1     -41.248  23.208 -15.214  1.00  0.00     0.293 HD
ENDBRANCH  61  66
ENDBRANCH  54  56
ENDBRANCH  53  54
ENDBRANCH   5  53
BRANCH   4  68
ATOM     68  O   UNL     1     -38.179  29.820 -19.318  1.00  0.00    -0.448 OA
BRANCH  68  69
ATOM     69  C   UNL     1     -38.594  29.299 -20.553  1.00  0.00     0.339 C 
ATOM     70  O   UNL     1     -37.850  28.499 -21.183  1.00  0.00    -0.246 OA
BRANCH  69  71
ATOM     71  C   UNL     1     -39.921  29.655 -21.098  1.00  0.00     0.067 A 
ATOM     72  C   UNL     1     -40.039  30.229 -22.377  1.00  0.00     0.066 A 
ATOM     73  C   UNL     1     -41.084  29.419 -20.347  1.00  0.00     0.066 A 
ATOM     74  C   UNL     1     -41.300  30.532 -22.909  1.00  0.00     0.162 A 
ATOM     75  C   UNL     1     -42.350  29.732 -20.860  1.00  0.00     0.162 A 
ATOM     76  C   UNL     1     -42.460  30.277 -22.164  1.00  0.00     0.200 A 
BRANCH  74  77
ATOM     77  O   UNL     1     -41.413  31.077 -24.188  1.00  0.00    -0.504 OA
ATOM     78  H   UNL     1     -41.192  32.044 -24.369  1.00  0.00     0.293 HD
ENDBRANCH  74  77
BRANCH  75  79
ATOM     79  O   UNL     1     -43.457  29.495 -20.039  1.00  0.00    -0.504 OA
ATOM     80  H   UNL     1     -44.411  29.499 -20.362  1.00  0.00     0.293 HD
ENDBRANCH  75  79
BRANCH  76  81
ATOM     81  O   UNL     1     -43.695  30.563 -22.749  1.00  0.00    -0.502 OA
ATOM     82  H   UNL     1     -44.576  30.294 -22.346  1.00  0.00     0.293 HD
ENDBRANCH  76  81
ENDBRANCH  69  71
ENDBRANCH  68  69
ENDBRANCH   4  68
TORSDOF 31
ENDMDL
