MODEL 1
REMARK VINA RESULT:    -6.659      0.000      0.000
REMARK INTER + INTRA:          -9.382
REMARK INTER:                  -8.995
REMARK INTRA:                  -0.387
REMARK UNBOUND:                -0.387
REMARK SMILES O=c1c(-c2ccc(O)cc2)coc2c([C@@H]3O[C@@H](CO)[C@@H](O)[C@@H](O)[C@@H]3O)c(O)ccc12
REMARK SMILES IDX 3 1 11 2 12 3 13 4 30 5 2 6 1 7 29 8 28 9 26 10 14 11 4 12
REMARK SMILES IDX 5 13 6 14 7 15 10 16 9 17 8 18 15 20 24 21 16 22 22 23 17 24
REMARK SMILES IDX 20 25 25 26 23 28 18 30 19 31 21 33 27 35
REMARK H PARENT 8 19 25 27 23 29 19 32 21 34 27 36
REMARK Flexibility Score: inf
ROOT
ATOM      1  C   UNL     1      70.924  54.242  18.025  1.00  0.00     0.065 A 
ATOM      2  C   UNL     1      71.669  54.525  19.176  1.00  0.00     0.208 A 
ATOM      3  O   UNL     1      71.530  53.792  20.273  1.00  0.00    -0.463 OA
ATOM      4  C   UNL     1      70.695  52.762  20.366  1.00  0.00     0.147 A 
ATOM      5  C   UNL     1      69.875  52.431  19.266  1.00  0.00     0.066 A 
ATOM      6  C   UNL     1      70.005  53.176  18.077  1.00  0.00     0.200 A 
ATOM      7  O   UNL     1      69.348  52.845  17.049  1.00  0.00    -0.288 OA
ATOM      8  C   UNL     1      68.981  51.357  19.370  1.00  0.00     0.020 A 
ATOM      9  C   UNL     1      68.935  50.585  20.528  1.00  0.00     0.047 A 
ATOM     10  C   UNL     1      69.740  50.899  21.623  1.00  0.00     0.125 A 
ATOM     11  C   UNL     1      70.636  51.996  21.560  1.00  0.00     0.069 A 
ENDROOT
BRANCH   1  12
ATOM     12  C   UNL     1      71.238  54.955  16.757  1.00  0.00    -0.011 A 
ATOM     13  C   UNL     1      71.673  54.255  15.619  1.00  0.00     0.013 A 
ATOM     14  C   UNL     1      71.963  54.942  14.436  1.00  0.00     0.047 A 
ATOM     15  C   UNL     1      71.820  56.332  14.376  1.00  0.00     0.115 A 
ATOM     16  C   UNL     1      71.107  56.353  16.692  1.00  0.00     0.013 A 
ATOM     17  C   UNL     1      71.395  57.036  15.510  1.00  0.00     0.047 A 
BRANCH  15  18
ATOM     18  O   UNL     1      72.101  57.010  13.194  1.00  0.00    -0.508 OA
ATOM     19  H   UNL     1      72.301  58.003  13.188  1.00  0.00     0.293 HD
ENDBRANCH  15  18
ENDBRANCH   1  12
BRANCH  11  20
ATOM     20  C   UNL     1      71.635  52.254  22.689  1.00  0.00     0.188 C 
ATOM     21  C   UNL     1      71.327  53.559  23.529  1.00  0.00     0.179 C 
ATOM     22  O   UNL     1      71.779  51.042  23.418  1.00  0.00    -0.362 OA
ATOM     23  C   UNL     1      71.151  53.377  25.072  1.00  0.00     0.177 C 
ATOM     24  C   UNL     1      72.459  51.200  24.646  1.00  0.00     0.176 C 
ATOM     25  C   UNL     1      71.551  51.980  25.605  1.00  0.00     0.177 C 
BRANCH  21  26
ATOM     26  O   UNL     1      70.222  54.253  23.001  1.00  0.00    -0.387 OA
ATOM     27  H   UNL     1      69.447  53.640  22.999  1.00  0.00     0.211 HD
ENDBRANCH  21  26
BRANCH  23  28
ATOM     28  O   UNL     1      71.873  54.384  25.740  1.00  0.00    -0.387 OA
ATOM     29  H   UNL     1      71.597  55.249  25.348  1.00  0.00     0.211 HD
ENDBRANCH  23  28
BRANCH  24  30
ATOM     30  C   UNL     1      73.897  51.748  24.479  1.00  0.00     0.191 C 
BRANCH  30  31
ATOM     31  O   UNL     1      74.671  50.854  23.716  1.00  0.00    -0.394 OA
ATOM     32  H   UNL     1      74.450  51.031  22.762  1.00  0.00     0.210 HD
ENDBRANCH  30  31
ENDBRANCH  24  30
BRANCH  25  33
ATOM     33  O   UNL     1      72.052  52.020  26.920  1.00  0.00    -0.388 OA
ATOM     34  H   UNL     1      72.781  51.347  26.996  1.00  0.00     0.211 HD
ENDBRANCH  25  33
ENDBRANCH  11  20
BRANCH  10  35
ATOM     35  O   UNL     1      69.627  50.104  22.760  1.00  0.00    -0.507 OA
ATOM     36  H   UNL     1      68.712  49.870  23.126  1.00  0.00     0.293 HD
ENDBRANCH  10  35
TORSDOF 9
ENDMDL
MODEL 2
REMARK VINA RESULT:    -6.605      0.574      1.095
REMARK INTER + INTRA:          -9.309
REMARK INTER:                  -8.781
REMARK INTRA:                  -0.528
REMARK UNBOUND:                -0.387
REMARK SMILES O=c1c(-c2ccc(O)cc2)coc2c([C@@H]3O[C@@H](CO)[C@@H](O)[C@@H](O)[C@@H]3O)c(O)ccc12
REMARK SMILES IDX 3 1 11 2 12 3 13 4 30 5 2 6 1 7 29 8 28 9 26 10 14 11 4 12
REMARK SMILES IDX 5 13 6 14 7 15 10 16 9 17 8 18 15 20 24 21 16 22 22 23 17 24
REMARK SMILES IDX 20 25 25 26 23 28 18 30 19 31 21 33 27 35
REMARK H PARENT 8 19 25 27 23 29 19 32 21 34 27 36
REMARK Flexibility Score: inf
ROOT
ATOM      1  C   UNL     1      70.969  54.357  18.044  1.00  0.00     0.065 A 
ATOM      2  C   UNL     1      71.654  54.740  19.204  1.00  0.00     0.208 A 
ATOM      3  O   UNL     1      71.550  54.030  20.319  1.00  0.00    -0.463 OA
ATOM      4  C   UNL     1      70.809  52.932  20.424  1.00  0.00     0.147 A 
ATOM      5  C   UNL     1      70.053  52.496  19.315  1.00  0.00     0.066 A 
ATOM      6  C   UNL     1      70.149  53.214  18.107  1.00  0.00     0.200 A 
ATOM      7  O   UNL     1      69.553  52.795  17.074  1.00  0.00    -0.288 OA
ATOM      8  C   UNL     1      69.256  51.349  19.431  1.00  0.00     0.020 A 
ATOM      9  C   UNL     1      69.248  50.610  20.611  1.00  0.00     0.047 A 
ATOM     10  C   UNL     1      69.991  51.028  21.715  1.00  0.00     0.125 A 
ATOM     11  C   UNL     1      70.786  52.199  21.640  1.00  0.00     0.069 A 
ENDROOT
BRANCH   1  12
ATOM     12  C   UNL     1      71.253  55.058  16.762  1.00  0.00    -0.011 A 
ATOM     13  C   UNL     1      71.096  56.449  16.645  1.00  0.00     0.013 A 
ATOM     14  C   UNL     1      71.368  57.091  15.433  1.00  0.00     0.047 A 
ATOM     15  C   UNL     1      71.800  56.352  14.326  1.00  0.00     0.115 A 
ATOM     16  C   UNL     1      71.677  54.321  15.643  1.00  0.00     0.013 A 
ATOM     17  C   UNL     1      71.950  54.963  14.435  1.00  0.00     0.047 A 
BRANCH  15  18
ATOM     18  O   UNL     1      72.079  56.997  13.126  1.00  0.00    -0.508 OA
ATOM     19  H   UNL     1      71.359  57.153  12.430  1.00  0.00     0.293 HD
ENDBRANCH  15  18
ENDBRANCH   1  12
BRANCH  11  20
ATOM     20  C   UNL     1      71.726  52.580  22.785  1.00  0.00     0.188 C 
ATOM     21  C   UNL     1      71.250  53.842  23.611  1.00  0.00     0.179 C 
ATOM     22  O   UNL     1      71.999  51.396  23.525  1.00  0.00    -0.362 OA
ATOM     23  C   UNL     1      71.068  53.648  25.151  1.00  0.00     0.177 C 
ATOM     24  C   UNL     1      72.633  51.641  24.764  1.00  0.00     0.176 C 
ATOM     25  C   UNL     1      71.621  52.312  25.701  1.00  0.00     0.177 C 
BRANCH  21  26
ATOM     26  O   UNL     1      70.080  54.398  23.057  1.00  0.00    -0.387 OA
ATOM     27  H   UNL     1      69.892  53.932  22.206  1.00  0.00     0.211 HD
ENDBRANCH  21  26
BRANCH  23  28
ATOM     28  O   UNL     1      71.653  54.737  25.825  1.00  0.00    -0.387 OA
ATOM     29  H   UNL     1      70.913  55.289  26.183  1.00  0.00     0.211 HD
ENDBRANCH  23  28
BRANCH  24  30
ATOM     30  C   UNL     1      73.999  52.355  24.618  1.00  0.00     0.191 C 
BRANCH  30  31
ATOM     31  O   UNL     1      74.133  53.350  25.604  1.00  0.00    -0.394 OA
ATOM     32  H   UNL     1      74.340  54.197  25.126  1.00  0.00     0.210 HD
ENDBRANCH  30  31
ENDBRANCH  24  30
BRANCH  25  33
ATOM     33  O   UNL     1      72.089  52.417  27.024  1.00  0.00    -0.388 OA
ATOM     34  H   UNL     1      72.051  53.375  27.292  1.00  0.00     0.211 HD
ENDBRANCH  25  33
ENDBRANCH  11  20
BRANCH  10  35
ATOM     35  O   UNL     1      69.918  50.259  22.873  1.00  0.00    -0.507 OA
ATOM     36  H   UNL     1      70.120  50.678  23.773  1.00  0.00     0.293 HD
ENDBRANCH  10  35
TORSDOF 9
ENDMDL
MODEL 3
REMARK VINA RESULT:    -6.560      1.492      2.467
REMARK INTER + INTRA:          -9.248
REMARK INTER:                  -8.418
REMARK INTRA:                  -0.830
REMARK UNBOUND:                -0.387
REMARK SMILES O=c1c(-c2ccc(O)cc2)coc2c([C@@H]3O[C@@H](CO)[C@@H](O)[C@@H](O)[C@@H]3O)c(O)ccc12
REMARK SMILES IDX 3 1 11 2 12 3 13 4 30 5 2 6 1 7 29 8 28 9 26 10 14 11 4 12
REMARK SMILES IDX 5 13 6 14 7 15 10 16 9 17 8 18 15 20 24 21 16 22 22 23 17 24
REMARK SMILES IDX 20 25 25 26 23 28 18 30 19 31 21 33 27 35
REMARK H PARENT 8 19 25 27 23 29 19 32 21 34 27 36
REMARK Flexibility Score: inf
ROOT
ATOM      1  C   UNL     1      71.239  54.244  19.318  1.00  0.00     0.065 A 
ATOM      2  C   UNL     1      71.602  54.632  20.614  1.00  0.00     0.208 A 
ATOM      3  O   UNL     1      71.363  53.841  21.652  1.00  0.00    -0.463 OA
ATOM      4  C   UNL     1      70.775  52.653  21.549  1.00  0.00     0.147 A 
ATOM      5  C   UNL     1      70.339  52.201  20.287  1.00  0.00     0.066 A 
ATOM      6  C   UNL     1      70.589  53.005  19.157  1.00  0.00     0.200 A 
ATOM      7  O   UNL     1      70.290  52.583  18.003  1.00  0.00    -0.288 OA
ATOM      8  C   UNL     1      69.702  50.957  20.181  1.00  0.00     0.020 A 
ATOM      9  C   UNL     1      69.545  50.146  21.302  1.00  0.00     0.047 A 
ATOM     10  C   UNL     1      69.971  50.579  22.557  1.00  0.00     0.125 A 
ATOM     11  C   UNL     1      70.595  51.844  22.703  1.00  0.00     0.069 A 
ENDROOT
BRANCH   1  12
ATOM     12  C   UNL     1      71.689  55.059  18.158  1.00  0.00    -0.011 A 
ATOM     13  C   UNL     1      70.778  55.820  17.407  1.00  0.00     0.013 A 
ATOM     14  C   UNL     1      71.219  56.580  16.321  1.00  0.00     0.047 A 
ATOM     15  C   UNL     1      72.574  56.591  15.972  1.00  0.00     0.115 A 
ATOM     16  C   UNL     1      73.048  55.066  17.796  1.00  0.00     0.013 A 
ATOM     17  C   UNL     1      73.486  55.827  16.712  1.00  0.00     0.047 A 
BRANCH  15  18
ATOM     18  O   UNL     1      73.009  57.357  14.896  1.00  0.00    -0.508 OA
ATOM     19  H   UNL     1      72.921  57.028  13.942  1.00  0.00     0.293 HD
ENDBRANCH  15  18
ENDBRANCH   1  12
BRANCH  11  20
ATOM     20  C   UNL     1      71.209  52.263  24.039  1.00  0.00     0.188 C 
ATOM     21  C   UNL     1      72.790  52.207  24.063  1.00  0.00     0.179 C 
ATOM     22  O   UNL     1      70.605  53.494  24.419  1.00  0.00    -0.362 OA
ATOM     23  C   UNL     1      73.534  53.528  24.443  1.00  0.00     0.177 C 
ATOM     24  C   UNL     1      71.263  54.136  25.491  1.00  0.00     0.176 C 
ATOM     25  C   UNL     1      72.619  54.649  24.990  1.00  0.00     0.177 C 
BRANCH  21  26
ATOM     26  O   UNL     1      73.298  51.704  22.850  1.00  0.00    -0.387 OA
ATOM     27  H   UNL     1      73.355  52.453  22.208  1.00  0.00     0.211 HD
ENDBRANCH  21  26
BRANCH  23  28
ATOM     28  O   UNL     1      74.556  53.233  25.365  1.00  0.00    -0.387 OA
ATOM     29  H   UNL     1      74.116  52.946  26.204  1.00  0.00     0.211 HD
ENDBRANCH  23  28
BRANCH  24  30
ATOM     30  C   UNL     1      71.297  53.283  26.783  1.00  0.00     0.191 C 
BRANCH  30  31
ATOM     31  O   UNL     1      71.868  54.022  27.836  1.00  0.00    -0.394 OA
ATOM     32  H   UNL     1      71.441  54.919  27.817  1.00  0.00     0.210 HD
ENDBRANCH  30  31
ENDBRANCH  24  30
BRANCH  25  33
ATOM     33  O   UNL     1      73.269  55.478  25.925  1.00  0.00    -0.388 OA
ATOM     34  H   UNL     1      73.408  54.955  26.760  1.00  0.00     0.211 HD
ENDBRANCH  25  33
ENDBRANCH  11  20
BRANCH  10  35
ATOM     35  O   UNL     1      69.761  49.732  23.641  1.00  0.00    -0.507 OA
ATOM     36  H   UNL     1      69.928  50.063  24.583  1.00  0.00     0.293 HD
ENDBRANCH  10  35
TORSDOF 9
ENDMDL
MODEL 4
REMARK VINA RESULT:    -6.379      2.692      5.106
REMARK INTER + INTRA:          -9.003
REMARK INTER:                  -8.663
REMARK INTRA:                  -0.340
REMARK UNBOUND:                -0.387
REMARK SMILES O=c1c(-c2ccc(O)cc2)coc2c([C@@H]3O[C@@H](CO)[C@@H](O)[C@@H](O)[C@@H]3O)c(O)ccc12
REMARK SMILES IDX 3 1 11 2 12 3 13 4 30 5 2 6 1 7 29 8 28 9 26 10 14 11 4 12
REMARK SMILES IDX 5 13 6 14 7 15 10 16 9 17 8 18 15 20 24 21 16 22 22 23 17 24
REMARK SMILES IDX 20 25 25 26 23 28 18 30 19 31 21 33 27 35
REMARK H PARENT 8 19 25 27 23 29 19 32 21 34 27 36
REMARK Flexibility Score: inf
ROOT
ATOM      1  C   UNL     1      71.893  55.113  16.017  1.00  0.00     0.065 A 
ATOM      2  C   UNL     1      70.756  54.333  16.263  1.00  0.00     0.208 A 
ATOM      3  O   UNL     1      70.600  53.707  17.422  1.00  0.00    -0.463 OA
ATOM      4  C   UNL     1      71.485  53.765  18.412  1.00  0.00     0.147 A 
ATOM      5  C   UNL     1      72.678  54.495  18.235  1.00  0.00     0.066 A 
ATOM      6  C   UNL     1      72.874  55.189  17.024  1.00  0.00     0.200 A 
ATOM      7  O   UNL     1      73.892  55.922  16.874  1.00  0.00    -0.288 OA
ATOM      8  C   UNL     1      73.620  54.541  19.272  1.00  0.00     0.020 A 
ATOM      9  C   UNL     1      73.361  53.918  20.490  1.00  0.00     0.047 A 
ATOM     10  C   UNL     1      72.185  53.193  20.680  1.00  0.00     0.125 A 
ATOM     11  C   UNL     1      71.224  53.104  19.642  1.00  0.00     0.069 A 
ENDROOT
BRANCH   1  12
ATOM     12  C   UNL     1      71.951  55.955  14.790  1.00  0.00    -0.011 A 
ATOM     13  C   UNL     1      72.270  57.321  14.861  1.00  0.00     0.013 A 
ATOM     14  C   UNL     1      72.321  58.094  13.698  1.00  0.00     0.047 A 
ATOM     15  C   UNL     1      72.055  57.515  12.453  1.00  0.00     0.115 A 
ATOM     16  C   UNL     1      71.676  55.380  13.538  1.00  0.00     0.013 A 
ATOM     17  C   UNL     1      71.728  56.154  12.378  1.00  0.00     0.047 A 
BRANCH  15  18
ATOM     18  O   UNL     1      72.116  58.287  11.299  1.00  0.00    -0.508 OA
ATOM     19  H   UNL     1      72.324  57.875  10.397  1.00  0.00     0.293 HD
ENDBRANCH  15  18
ENDBRANCH   1  12
BRANCH  11  20
ATOM     20  C   UNL     1      69.864  52.449  19.889  1.00  0.00     0.188 C 
ATOM     21  C   UNL     1      68.735  53.466  20.329  1.00  0.00     0.179 C 
ATOM     22  O   UNL     1      69.580  51.620  18.769  1.00  0.00    -0.362 OA
ATOM     23  C   UNL     1      67.441  53.502  19.452  1.00  0.00     0.177 C 
ATOM     24  C   UNL     1      68.243  51.165  18.731  1.00  0.00     0.176 C 
ATOM     25  C   UNL     1      67.333  52.358  18.416  1.00  0.00     0.177 C 
BRANCH  21  26
ATOM     26  O   UNL     1      69.252  54.768  20.471  1.00  0.00    -0.387 OA
ATOM     27  H   UNL     1      68.798  55.352  19.816  1.00  0.00     0.211 HD
ENDBRANCH  21  26
BRANCH  23  28
ATOM     28  O   UNL     1      66.313  53.512  20.294  1.00  0.00    -0.387 OA
ATOM     29  H   UNL     1      66.475  52.842  21.005  1.00  0.00     0.211 HD
ENDBRANCH  23  28
BRANCH  24  30
ATOM     30  C   UNL     1      67.851  50.323  19.971  1.00  0.00     0.191 C 
BRANCH  30  31
ATOM     31  O   UNL     1      66.687  49.580  19.704  1.00  0.00    -0.394 OA
ATOM     32  H   UNL     1      66.480  49.071  20.533  1.00  0.00     0.210 HD
ENDBRANCH  30  31
ENDBRANCH  24  30
BRANCH  25  33
ATOM     33  O   UNL     1      66.002  51.978  18.159  1.00  0.00    -0.388 OA
ATOM     34  H   UNL     1      65.426  52.786  18.240  1.00  0.00     0.211 HD
ENDBRANCH  25  33
ENDBRANCH  11  20
BRANCH  10  35
ATOM     35  O   UNL     1      71.999  52.570  21.911  1.00  0.00    -0.507 OA
ATOM     36  H   UNL     1      72.753  52.546  22.587  1.00  0.00     0.293 HD
ENDBRANCH  10  35
TORSDOF 9
ENDMDL
MODEL 5
REMARK VINA RESULT:    -5.864      1.885      7.639
REMARK INTER + INTRA:          -8.308
REMARK INTER:                  -7.577
REMARK INTRA:                  -0.731
REMARK UNBOUND:                -0.387
REMARK SMILES O=c1c(-c2ccc(O)cc2)coc2c([C@@H]3O[C@@H](CO)[C@@H](O)[C@@H](O)[C@@H]3O)c(O)ccc12
REMARK SMILES IDX 3 1 11 2 12 3 13 4 30 5 2 6 1 7 29 8 28 9 26 10 14 11 4 12
REMARK SMILES IDX 5 13 6 14 7 15 10 16 9 17 8 18 15 20 24 21 16 22 22 23 17 24
REMARK SMILES IDX 20 25 25 26 23 28 18 30 19 31 21 33 27 35
REMARK H PARENT 8 19 25 27 23 29 19 32 21 34 27 36
REMARK Flexibility Score: inf
ROOT
ATOM      1  C   UNL     1      71.110  52.902  23.256  1.00  0.00     0.065 A 
ATOM      2  C   UNL     1      71.593  53.691  22.204  1.00  0.00     0.208 A 
ATOM      3  O   UNL     1      71.293  53.402  20.945  1.00  0.00    -0.463 OA
ATOM      4  C   UNL     1      70.535  52.370  20.590  1.00  0.00     0.147 A 
ATOM      5  C   UNL     1      70.039  51.498  21.582  1.00  0.00     0.066 A 
ATOM      6  C   UNL     1      70.322  51.780  22.933  1.00  0.00     0.200 A 
ATOM      7  O   UNL     1      69.816  51.068  23.846  1.00  0.00    -0.288 OA
ATOM      8  C   UNL     1      69.255  50.399  21.206  1.00  0.00     0.020 A 
ATOM      9  C   UNL     1      68.919  50.194  19.870  1.00  0.00     0.047 A 
ATOM     10  C   UNL     1      69.402  51.047  18.878  1.00  0.00     0.125 A 
ATOM     11  C   UNL     1      70.219  52.153  19.222  1.00  0.00     0.069 A 
ENDROOT
BRANCH   1  12
ATOM     12  C   UNL     1      71.302  53.357  24.660  1.00  0.00    -0.011 A 
ATOM     13  C   UNL     1      72.012  52.576  25.586  1.00  0.00     0.013 A 
ATOM     14  C   UNL     1      72.183  53.020  26.900  1.00  0.00     0.047 A 
ATOM     15  C   UNL     1      71.648  54.248  27.304  1.00  0.00     0.115 A 
ATOM     16  C   UNL     1      70.759  54.585  25.074  1.00  0.00     0.013 A 
ATOM     17  C   UNL     1      70.932  55.028  26.387  1.00  0.00     0.047 A 
BRANCH  15  18
ATOM     18  O   UNL     1      71.829  54.690  28.610  1.00  0.00    -0.508 OA
ATOM     19  H   UNL     1      71.919  55.675  28.828  1.00  0.00     0.293 HD
ENDBRANCH  15  18
ENDBRANCH   1  12
BRANCH  11  20
ATOM     20  C   UNL     1      70.622  53.185  18.168  1.00  0.00     0.188 C 
ATOM     21  C   UNL     1      69.887  54.578  18.321  1.00  0.00     0.179 C 
ATOM     22  O   UNL     1      72.043  53.212  18.119  1.00  0.00    -0.362 OA
ATOM     23  C   UNL     1      70.797  55.841  18.465  1.00  0.00     0.177 C 
ATOM     24  C   UNL     1      72.560  54.306  17.388  1.00  0.00     0.176 C 
ATOM     25  C   UNL     1      72.297  55.589  18.186  1.00  0.00     0.177 C 
BRANCH  21  26
ATOM     26  O   UNL     1      68.948  54.542  19.370  1.00  0.00    -0.387 OA
ATOM     27  H   UNL     1      68.920  53.620  19.725  1.00  0.00     0.211 HD
ENDBRANCH  21  26
BRANCH  23  28
ATOM     28  O   UNL     1      70.305  56.860  17.629  1.00  0.00    -0.387 OA
ATOM     29  H   UNL     1      70.870  57.659  17.780  1.00  0.00     0.211 HD
ENDBRANCH  23  28
BRANCH  24  30
ATOM     30  C   UNL     1      72.101  54.321  15.909  1.00  0.00     0.191 C 
BRANCH  30  31
ATOM     31  O   UNL     1      72.145  55.633  15.402  1.00  0.00    -0.394 OA
ATOM     32  H   UNL     1      73.104  55.896  15.379  1.00  0.00     0.210 HD
ENDBRANCH  30  31
ENDBRANCH  24  30
BRANCH  25  33
ATOM     33  O   UNL     1      72.948  56.713  17.642  1.00  0.00    -0.388 OA
ATOM     34  H   UNL     1      73.706  56.953  18.241  1.00  0.00     0.211 HD
ENDBRANCH  25  33
ENDBRANCH  11  20
BRANCH  10  35
ATOM     35  O   UNL     1      69.052  50.771  17.559  1.00  0.00    -0.507 OA
ATOM     36  H   UNL     1      69.707  50.296  16.950  1.00  0.00     0.293 HD
ENDBRANCH  10  35
TORSDOF 9
ENDMDL
MODEL 6
REMARK VINA RESULT:    -5.838      3.439      7.793
REMARK INTER + INTRA:          -8.272
REMARK INTER:                  -7.635
REMARK INTRA:                  -0.637
REMARK UNBOUND:                -0.387
REMARK SMILES O=c1c(-c2ccc(O)cc2)coc2c([C@@H]3O[C@@H](CO)[C@@H](O)[C@@H](O)[C@@H]3O)c(O)ccc12
REMARK SMILES IDX 3 1 11 2 12 3 13 4 30 5 2 6 1 7 29 8 28 9 26 10 14 11 4 12
REMARK SMILES IDX 5 13 6 14 7 15 10 16 9 17 8 18 15 20 24 21 16 22 22 23 17 24
REMARK SMILES IDX 20 25 25 26 23 28 18 30 19 31 21 33 27 35
REMARK H PARENT 8 19 25 27 23 29 19 32 21 34 27 36
REMARK Flexibility Score: inf
ROOT
ATOM      1  C   UNL     1      69.099  55.825  24.760  1.00  0.00     0.065 A 
ATOM      2  C   UNL     1      69.444  55.818  23.403  1.00  0.00     0.208 A 
ATOM      3  O   UNL     1      70.318  54.940  22.928  1.00  0.00    -0.463 OA
ATOM      4  C   UNL     1      70.921  54.025  23.681  1.00  0.00     0.147 A 
ATOM      5  C   UNL     1      70.664  53.987  25.067  1.00  0.00     0.066 A 
ATOM      6  C   UNL     1      69.729  54.892  25.607  1.00  0.00     0.200 A 
ATOM      7  O   UNL     1      69.413  54.821  26.829  1.00  0.00    -0.288 OA
ATOM      8  C   UNL     1      71.314  53.035  25.864  1.00  0.00     0.020 A 
ATOM      9  C   UNL     1      72.167  52.096  25.289  1.00  0.00     0.047 A 
ATOM     10  C   UNL     1      72.431  52.121  23.920  1.00  0.00     0.125 A 
ATOM     11  C   UNL     1      71.810  53.088  23.090  1.00  0.00     0.069 A 
ENDROOT
BRANCH   1  12
ATOM     12  C   UNL     1      67.980  56.689  25.226  1.00  0.00    -0.011 A 
ATOM     13  C   UNL     1      68.222  57.835  26.001  1.00  0.00     0.013 A 
ATOM     14  C   UNL     1      67.159  58.635  26.429  1.00  0.00     0.047 A 
ATOM     15  C   UNL     1      65.844  58.301  26.088  1.00  0.00     0.115 A 
ATOM     16  C   UNL     1      66.656  56.353  24.896  1.00  0.00     0.013 A 
ATOM     17  C   UNL     1      65.596  57.153  25.323  1.00  0.00     0.047 A 
BRANCH  15  18
ATOM     18  O   UNL     1      64.791  59.105  26.509  1.00  0.00    -0.508 OA
ATOM     19  H   UNL     1      64.954  59.987  26.980  1.00  0.00     0.293 HD
ENDBRANCH  15  18
ENDBRANCH   1  12
BRANCH  11  20
ATOM     20  C   UNL     1      71.965  53.029  21.570  1.00  0.00     0.188 C 
ATOM     21  C   UNL     1      70.872  52.140  20.850  1.00  0.00     0.179 C 
ATOM     22  O   UNL     1      72.114  54.364  21.103  1.00  0.00    -0.362 OA
ATOM     23  C   UNL     1      70.021  52.834  19.738  1.00  0.00     0.177 C 
ATOM     24  C   UNL     1      71.995  54.486  19.700  1.00  0.00     0.176 C 
ATOM     25  C   UNL     1      70.533  54.232  19.313  1.00  0.00     0.177 C 
BRANCH  21  26
ATOM     26  O   UNL     1      70.021  51.524  21.788  1.00  0.00    -0.387 OA
ATOM     27  H   UNL     1      69.134  51.956  21.727  1.00  0.00     0.211 HD
ENDBRANCH  21  26
BRANCH  23  28
ATOM     28  O   UNL     1      69.938  51.981  18.621  1.00  0.00    -0.387 OA
ATOM     29  H   UNL     1      70.478  52.392  17.900  1.00  0.00     0.211 HD
ENDBRANCH  23  28
BRANCH  24  30
ATOM     30  C   UNL     1      73.054  53.663  18.926  1.00  0.00     0.191 C 
BRANCH  30  31
ATOM     31  O   UNL     1      72.568  53.327  17.650  1.00  0.00    -0.394 OA
ATOM     32  H   UNL     1      73.294  53.538  17.004  1.00  0.00     0.210 HD
ENDBRANCH  30  31
ENDBRANCH  24  30
BRANCH  25  33
ATOM     33  O   UNL     1      70.266  54.525  17.962  1.00  0.00    -0.388 OA
ATOM     34  H   UNL     1      70.949  54.063  17.404  1.00  0.00     0.211 HD
ENDBRANCH  25  33
ENDBRANCH  11  20
BRANCH  10  35
ATOM     35  O   UNL     1      73.314  51.173  23.412  1.00  0.00    -0.507 OA
ATOM     36  H   UNL     1      74.306  51.375  23.370  1.00  0.00     0.293 HD
ENDBRANCH  10  35
TORSDOF 9
ENDMDL
MODEL 7
REMARK VINA RESULT:    -5.800      2.599      4.102
REMARK INTER + INTRA:          -8.222
REMARK INTER:                  -6.929
REMARK INTRA:                  -1.292
REMARK UNBOUND:                -0.387
REMARK SMILES O=c1c(-c2ccc(O)cc2)coc2c([C@@H]3O[C@@H](CO)[C@@H](O)[C@@H](O)[C@@H]3O)c(O)ccc12
REMARK SMILES IDX 3 1 11 2 12 3 13 4 30 5 2 6 1 7 29 8 28 9 26 10 14 11 4 12
REMARK SMILES IDX 5 13 6 14 7 15 10 16 9 17 8 18 15 20 24 21 16 22 22 23 17 24
REMARK SMILES IDX 20 25 25 26 23 28 18 30 19 31 21 33 27 35
REMARK H PARENT 8 19 25 27 23 29 19 32 21 34 27 36
REMARK Flexibility Score: inf
ROOT
ATOM      1  C   UNL     1      72.736  54.650  19.044  1.00  0.00     0.065 A 
ATOM      2  C   UNL     1      71.764  54.941  20.010  1.00  0.00     0.208 A 
ATOM      3  O   UNL     1      71.998  54.718  21.296  1.00  0.00    -0.463 OA
ATOM      4  C   UNL     1      73.137  54.213  21.758  1.00  0.00     0.147 A 
ATOM      5  C   UNL     1      74.155  53.853  20.852  1.00  0.00     0.066 A 
ATOM      6  C   UNL     1      73.953  54.089  19.477  1.00  0.00     0.200 A 
ATOM      7  O   UNL     1      74.883  53.859  18.653  1.00  0.00    -0.288 OA
ATOM      8  C   UNL     1      75.349  53.302  21.337  1.00  0.00     0.020 A 
ATOM      9  C   UNL     1      75.556  53.160  22.707  1.00  0.00     0.047 A 
ATOM     10  C   UNL     1      74.559  53.512  23.615  1.00  0.00     0.125 A 
ATOM     11  C   UNL     1      73.329  54.047  23.156  1.00  0.00     0.069 A 
ENDROOT
BRANCH   1  12
ATOM     12  C   UNL     1      72.522  55.087  17.637  1.00  0.00    -0.011 A 
ATOM     13  C   UNL     1      72.852  56.388  17.222  1.00  0.00     0.013 A 
ATOM     14  C   UNL     1      72.644  56.779  15.896  1.00  0.00     0.047 A 
ATOM     15  C   UNL     1      72.108  55.878  14.971  1.00  0.00     0.115 A 
ATOM     16  C   UNL     1      71.974  54.189  16.705  1.00  0.00     0.013 A 
ATOM     17  C   UNL     1      71.770  54.581  15.381  1.00  0.00     0.047 A 
BRANCH  15  18
ATOM     18  O   UNL     1      71.913  56.270  13.651  1.00  0.00    -0.508 OA
ATOM     19  H   UNL     1      72.645  56.174  12.957  1.00  0.00     0.293 HD
ENDBRANCH  15  18
ENDBRANCH   1  12
BRANCH  11  20
ATOM     20  C   UNL     1      72.292  54.584  24.144  1.00  0.00     0.188 C 
ATOM     21  C   UNL     1      71.435  53.456  24.848  1.00  0.00     0.179 C 
ATOM     22  O   UNL     1      72.954  55.511  24.995  1.00  0.00    -0.362 OA
ATOM     23  C   UNL     1      71.448  53.436  26.411  1.00  0.00     0.177 C 
ATOM     24  C   UNL     1      72.191  55.884  26.123  1.00  0.00     0.176 C 
ATOM     25  C   UNL     1      72.099  54.677  27.066  1.00  0.00     0.177 C 
BRANCH  21  26
ATOM     26  O   UNL     1      71.767  52.182  24.350  1.00  0.00    -0.387 OA
ATOM     27  H   UNL     1      72.354  51.739  25.009  1.00  0.00     0.211 HD
ENDBRANCH  21  26
BRANCH  23  28
ATOM     28  O   UNL     1      70.133  53.264  26.881  1.00  0.00    -0.387 OA
ATOM     29  H   UNL     1      69.622  54.070  26.619  1.00  0.00     0.211 HD
ENDBRANCH  23  28
BRANCH  24  30
ATOM     30  C   UNL     1      70.846  56.558  25.753  1.00  0.00     0.191 C 
BRANCH  30  31
ATOM     31  O   UNL     1      69.830  56.120  26.621  1.00  0.00    -0.394 OA
ATOM     32  H   UNL     1      70.126  55.243  26.985  1.00  0.00     0.210 HD
ENDBRANCH  30  31
ENDBRANCH  24  30
BRANCH  25  33
ATOM     33  O   UNL     1      71.528  55.000  28.312  1.00  0.00    -0.388 OA
ATOM     34  H   UNL     1      71.505  54.173  28.866  1.00  0.00     0.211 HD
ENDBRANCH  25  33
ENDBRANCH  11  20
BRANCH  10  35
ATOM     35  O   UNL     1      74.818  53.320  24.970  1.00  0.00    -0.507 OA
ATOM     36  H   UNL     1      75.774  53.287  25.304  1.00  0.00     0.293 HD
ENDBRANCH  10  35
TORSDOF 9
ENDMDL
MODEL 8
REMARK VINA RESULT:    -5.548      3.418      7.884
REMARK INTER + INTRA:          -7.880
REMARK INTER:                  -7.253
REMARK INTRA:                  -0.627
REMARK UNBOUND:                -0.387
REMARK SMILES O=c1c(-c2ccc(O)cc2)coc2c([C@@H]3O[C@@H](CO)[C@@H](O)[C@@H](O)[C@@H]3O)c(O)ccc12
REMARK SMILES IDX 3 1 11 2 12 3 13 4 30 5 2 6 1 7 29 8 28 9 26 10 14 11 4 12
REMARK SMILES IDX 5 13 6 14 7 15 10 16 9 17 8 18 15 20 24 21 16 22 22 23 17 24
REMARK SMILES IDX 20 25 25 26 23 28 18 30 19 31 21 33 27 35
REMARK H PARENT 8 19 25 27 23 29 19 32 21 34 27 36
REMARK Flexibility Score: inf
ROOT
ATOM      1  C   UNL     1      70.813  55.507  23.860  1.00  0.00     0.065 A 
ATOM      2  C   UNL     1      70.708  54.462  22.932  1.00  0.00     0.208 A 
ATOM      3  O   UNL     1      69.752  54.465  22.012  1.00  0.00    -0.463 OA
ATOM      4  C   UNL     1      68.843  55.428  21.902  1.00  0.00     0.147 A 
ATOM      5  C   UNL     1      68.849  56.498  22.821  1.00  0.00     0.066 A 
ATOM      6  C   UNL     1      69.858  56.541  23.803  1.00  0.00     0.200 A 
ATOM      7  O   UNL     1      69.941  57.533  24.581  1.00  0.00    -0.288 OA
ATOM      8  C   UNL     1      67.878  57.504  22.716  1.00  0.00     0.020 A 
ATOM      9  C   UNL     1      66.946  57.481  21.682  1.00  0.00     0.047 A 
ATOM     10  C   UNL     1      66.927  56.430  20.766  1.00  0.00     0.125 A 
ATOM     11  C   UNL     1      67.878  55.383  20.860  1.00  0.00     0.069 A 
ENDROOT
BRANCH   1  12
ATOM     12  C   UNL     1      72.002  55.575  24.752  1.00  0.00    -0.011 A 
ATOM     13  C   UNL     1      71.925  55.174  26.096  1.00  0.00     0.013 A 
ATOM     14  C   UNL     1      73.053  55.244  26.919  1.00  0.00     0.047 A 
ATOM     15  C   UNL     1      74.268  55.714  26.410  1.00  0.00     0.115 A 
ATOM     16  C   UNL     1      73.223  56.056  24.250  1.00  0.00     0.013 A 
ATOM     17  C   UNL     1      74.348  56.124  25.072  1.00  0.00     0.047 A 
BRANCH  15  18
ATOM     18  O   UNL     1      75.390  55.773  27.231  1.00  0.00    -0.508 OA
ATOM     19  H   UNL     1      76.111  56.471  27.092  1.00  0.00     0.293 HD
ENDBRANCH  15  18
ENDBRANCH   1  12
BRANCH  11  20
ATOM     20  C   UNL     1      67.971  54.312  19.772  1.00  0.00     0.188 C 
ATOM     21  C   UNL     1      69.233  54.464  18.831  1.00  0.00     0.179 C 
ATOM     22  O   UNL     1      67.788  53.049  20.401  1.00  0.00    -0.362 OA
ATOM     23  C   UNL     1      70.188  53.231  18.731  1.00  0.00     0.177 C 
ATOM     24  C   UNL     1      68.116  51.955  19.570  1.00  0.00     0.176 C 
ATOM     25  C   UNL     1      69.637  51.935  19.372  1.00  0.00     0.177 C 
BRANCH  21  26
ATOM     26  O   UNL     1      69.973  55.617  19.156  1.00  0.00    -0.387 OA
ATOM     27  H   UNL     1      70.196  55.576  20.118  1.00  0.00     0.211 HD
ENDBRANCH  21  26
BRANCH  23  28
ATOM     28  O   UNL     1      70.517  53.010  17.380  1.00  0.00    -0.387 OA
ATOM     29  H   UNL     1      70.010  53.671  16.845  1.00  0.00     0.211 HD
ENDBRANCH  23  28
BRANCH  24  30
ATOM     30  C   UNL     1      67.264  51.894  18.278  1.00  0.00     0.191 C 
BRANCH  30  31
ATOM     31  O   UNL     1      65.899  51.791  18.602  1.00  0.00    -0.394 OA
ATOM     32  H   UNL     1      65.630  52.671  18.980  1.00  0.00     0.210 HD
ENDBRANCH  30  31
ENDBRANCH  24  30
BRANCH  25  33
ATOM     33  O   UNL     1      70.088  50.769  18.724  1.00  0.00    -0.388 OA
ATOM     34  H   UNL     1      69.323  50.137  18.653  1.00  0.00     0.211 HD
ENDBRANCH  25  33
ENDBRANCH  11  20
BRANCH  10  35
ATOM     35  O   UNL     1      65.952  56.453  19.773  1.00  0.00    -0.507 OA
ATOM     36  H   UNL     1      65.659  55.591  19.329  1.00  0.00     0.293 HD
ENDBRANCH  10  35
TORSDOF 9
ENDMDL
MODEL 9
REMARK VINA RESULT:    -5.490      2.071      8.401
REMARK INTER + INTRA:          -7.802
REMARK INTER:                  -6.459
REMARK INTRA:                  -1.343
REMARK UNBOUND:                -0.387
REMARK SMILES O=c1c(-c2ccc(O)cc2)coc2c([C@@H]3O[C@@H](CO)[C@@H](O)[C@@H](O)[C@@H]3O)c(O)ccc12
REMARK SMILES IDX 3 1 11 2 12 3 13 4 30 5 2 6 1 7 29 8 28 9 26 10 14 11 4 12
REMARK SMILES IDX 5 13 6 14 7 15 10 16 9 17 8 18 15 20 24 21 16 22 22 23 17 24
REMARK SMILES IDX 20 25 25 26 23 28 18 30 19 31 21 33 27 35
REMARK H PARENT 8 19 25 27 23 29 19 32 21 34 27 36
REMARK Flexibility Score: inf
ROOT
ATOM      1  C   UNL     1      70.834  54.006  23.576  1.00  0.00     0.065 A 
ATOM      2  C   UNL     1      71.264  55.104  22.821  1.00  0.00     0.208 A 
ATOM      3  O   UNL     1      71.350  55.027  21.499  1.00  0.00    -0.463 OA
ATOM      4  C   UNL     1      71.047  53.934  20.807  1.00  0.00     0.147 A 
ATOM      5  C   UNL     1      70.645  52.768  21.490  1.00  0.00     0.066 A 
ATOM      6  C   UNL     1      70.525  52.813  22.894  1.00  0.00     0.200 A 
ATOM      7  O   UNL     1      70.082  51.811  23.523  1.00  0.00    -0.288 OA
ATOM      8  C   UNL     1      70.345  51.609  20.762  1.00  0.00     0.020 A 
ATOM      9  C   UNL     1      70.389  51.618  19.370  1.00  0.00     0.047 A 
ATOM     10  C   UNL     1      70.784  52.764  18.680  1.00  0.00     0.125 A 
ATOM     11  C   UNL     1      71.121  53.945  19.388  1.00  0.00     0.069 A 
ENDROOT
BRANCH   1  12
ATOM     12  C   UNL     1      70.565  54.178  25.030  1.00  0.00    -0.011 A 
ATOM     13  C   UNL     1      71.501  53.773  25.995  1.00  0.00     0.013 A 
ATOM     14  C   UNL     1      71.231  53.944  27.356  1.00  0.00     0.047 A 
ATOM     15  C   UNL     1      70.026  54.522  27.768  1.00  0.00     0.115 A 
ATOM     16  C   UNL     1      69.351  54.749  25.450  1.00  0.00     0.013 A 
ATOM     17  C   UNL     1      69.084  54.920  26.809  1.00  0.00     0.047 A 
BRANCH  15  18
ATOM     18  O   UNL     1      69.766  54.698  29.123  1.00  0.00    -0.508 OA
ATOM     19  H   UNL     1      69.114  55.402  29.449  1.00  0.00     0.293 HD
ENDBRANCH  15  18
ENDBRANCH   1  12
BRANCH  11  20
ATOM     20  C   UNL     1      71.401  55.250  18.643  1.00  0.00     0.188 C 
ATOM     21  C   UNL     1      72.919  55.448  18.247  1.00  0.00     0.179 C 
ATOM     22  O   UNL     1      70.446  55.356  17.594  1.00  0.00    -0.362 OA
ATOM     23  C   UNL     1      73.226  55.680  16.732  1.00  0.00     0.177 C 
ATOM     24  C   UNL     1      70.748  56.370  16.658  1.00  0.00     0.176 C 
ATOM     25  C   UNL     1      71.979  55.936  15.853  1.00  0.00     0.177 C 
BRANCH  21  26
ATOM     26  O   UNL     1      73.713  54.394  18.739  1.00  0.00    -0.387 OA
ATOM     27  H   UNL     1      73.760  53.695  18.043  1.00  0.00     0.211 HD
ENDBRANCH  21  26
BRANCH  23  28
ATOM     28  O   UNL     1      74.144  56.740  16.604  1.00  0.00    -0.387 OA
ATOM     29  H   UNL     1      73.619  57.580  16.591  1.00  0.00     0.211 HD
ENDBRANCH  23  28
BRANCH  24  30
ATOM     30  C   UNL     1      70.816  57.782  17.292  1.00  0.00     0.191 C 
BRANCH  30  31
ATOM     31  O   UNL     1      71.682  58.605  16.549  1.00  0.00    -0.394 OA
ATOM     32  H   UNL     1      72.415  58.020  16.219  1.00  0.00     0.210 HD
ENDBRANCH  30  31
ENDBRANCH  24  30
BRANCH  25  33
ATOM     33  O   UNL     1      72.244  56.784  14.761  1.00  0.00    -0.388 OA
ATOM     34  H   UNL     1      72.534  57.667  15.116  1.00  0.00     0.211 HD
ENDBRANCH  25  33
ENDBRANCH  11  20
BRANCH  10  35
ATOM     35  O   UNL     1      70.833  52.699  17.290  1.00  0.00    -0.507 OA
ATOM     36  H   UNL     1      71.718  52.804  16.808  1.00  0.00     0.293 HD
ENDBRANCH  10  35
TORSDOF 9
ENDMDL
