MODEL 1
REMARK VINA RESULT:    -2.480      0.000      0.000
REMARK INTER + INTRA:          -8.328
REMARK INTER:                  -6.540
REMARK INTRA:                  -1.788
REMARK UNBOUND:                -1.788
REMARK SMILES CCCCCCCCCCCCCCCCCCCCCCCCCCCCCC(=O)[O-]
REMARK SMILES IDX 16 1 17 2 18 3 19 4 20 5 21 6 22 7 23 8 24 9 25 10 26 11
REMARK SMILES IDX 27 12 28 13 29 14 30 15 31 16 32 17 15 18 14 19 13 20 12 21
REMARK SMILES IDX 11 22 10 23 9 24 8 25 7 26 6 27 5 28 4 29 3 30 2 31 1 32
REMARK H PARENT
REMARK Flexibility Score: inf
ROOT
ATOM      1  C   UNL     1      30.041 159.016 120.538  1.00  0.00     0.000 C 
ENDROOT
BRANCH   1   2
ATOM      2  C   UNL     1      29.739 160.247 121.416  1.00  0.00     0.000 C 
BRANCH   2   3
ATOM      3  C   UNL     1      30.487 161.536 121.016  1.00  0.00     0.000 C 
BRANCH   3   4
ATOM      4  C   UNL     1      31.684 161.900 121.915  1.00  0.00     0.000 C 
BRANCH   4   5
ATOM      5  C   UNL     1      33.023 162.056 121.173  1.00  0.00     0.000 C 
BRANCH   5   6
ATOM      6  C   UNL     1      33.862 160.760 121.131  1.00  0.00     0.000 C 
BRANCH   6   7
ATOM      7  C   UNL     1      35.100 160.831 122.042  1.00  0.00     0.000 C 
BRANCH   7   8
ATOM      8  C   UNL     1      36.390 160.394 121.315  1.00  0.00     0.000 C 
BRANCH   8   9
ATOM      9  C   UNL     1      37.632 161.220 121.701  1.00  0.00     0.000 C 
BRANCH   9  10
ATOM     10  C   UNL     1      38.180 162.125 120.585  1.00  0.00     0.000 C 
BRANCH  10  11
ATOM     11  C   UNL     1      39.653 161.840 120.257  1.00  0.00     0.000 C 
BRANCH  11  12
ATOM     12  C   UNL     1      39.796 161.208 118.865  1.00  0.00     0.000 C 
BRANCH  12  13
ATOM     13  C   UNL     1      40.641 162.057 117.900  1.00  0.00     0.006 C 
BRANCH  13  14
ATOM     14  C   UNL     1      41.003 161.340 116.588  1.00  0.00     0.053 C 
BRANCH  14  15
ATOM     15  C   UNL     1      42.342 160.668 116.650  1.00  0.00     0.041 C 
ATOM     16  O   UNL     1      43.042 160.748 117.694  1.00  0.00    -0.550 OA
ATOM     17  O   UNL     1      42.805 159.926 115.570  1.00  0.00    -0.550 OA
ENDBRANCH  14  15
ENDBRANCH  13  14
ENDBRANCH  12  13
ENDBRANCH  11  12
ENDBRANCH  10  11
ENDBRANCH   9  10
ENDBRANCH   8   9
ENDBRANCH   7   8
ENDBRANCH   6   7
ENDBRANCH   5   6
ENDBRANCH   4   5
ENDBRANCH   3   4
ENDBRANCH   2   3
ENDBRANCH   1   2
BRANCH   1  18
ATOM     18  C   UNL     1      31.233 158.158 121.007  1.00  0.00     0.000 C 
BRANCH  18  19
ATOM     19  C   UNL     1      30.862 156.940 121.876  1.00  0.00     0.000 C 
BRANCH  19  20
ATOM     20  C   UNL     1      29.427 156.412 121.684  1.00  0.00     0.000 C 
BRANCH  20  21
ATOM     21  C   UNL     1      28.357 157.424 122.124  1.00  0.00     0.000 C 
BRANCH  21  22
ATOM     22  C   UNL     1      27.036 157.276 121.347  1.00  0.00     0.000 C 
BRANCH  22  23
ATOM     23  C   UNL     1      25.785 157.833 122.058  1.00  0.00     0.000 C 
BRANCH  23  24
ATOM     24  C   UNL     1      25.084 158.995 121.332  1.00  0.00    -0.000 C 
BRANCH  24  25
ATOM     25  C   UNL     1      25.180 160.320 122.101  1.00  0.00    -0.000 C 
BRANCH  25  26
ATOM     26  C   UNL     1      26.158 161.282 121.415  1.00  0.00    -0.000 C 
BRANCH  26  27
ATOM     27  C   UNL     1      26.592 160.741 120.046  1.00  0.00    -0.000 C 
BRANCH  27  28
ATOM     28  C   UNL     1      27.000 161.853 119.061  1.00  0.00    -0.000 C 
BRANCH  28  29
ATOM     29  C   UNL     1      26.882 161.482 117.572  1.00  0.00    -0.000 C 
BRANCH  29  30
ATOM     30  C   UNL     1      27.410 160.082 117.202  1.00  0.00    -0.000 C 
BRANCH  30  31
ATOM     31  C   UNL     1      28.773 160.099 116.478  1.00  0.00    -0.003 C 
ATOM     32  C   UNL     1      29.954 160.226 117.441  1.00  0.00     0.004 C 
ENDBRANCH  30  31
ENDBRANCH  29  30
ENDBRANCH  28  29
ENDBRANCH  27  28
ENDBRANCH  26  27
ENDBRANCH  25  26
ENDBRANCH  24  25
ENDBRANCH  23  24
ENDBRANCH  22  23
ENDBRANCH  21  22
ENDBRANCH  20  21
ENDBRANCH  19  20
ENDBRANCH  18  19
ENDBRANCH   1  18
TORSDOF 28
ENDMDL
MODEL 2
REMARK VINA RESULT:    -2.443      1.752      3.058
REMARK INTER + INTRA:          -8.229
REMARK INTER:                  -7.015
REMARK INTRA:                  -1.214
REMARK UNBOUND:                -1.788
REMARK SMILES CCCCCCCCCCCCCCCCCCCCCCCCCCCCCC(=O)[O-]
REMARK SMILES IDX 16 1 17 2 18 3 19 4 20 5 21 6 22 7 23 8 24 9 25 10 26 11
REMARK SMILES IDX 27 12 28 13 29 14 30 15 31 16 32 17 15 18 14 19 13 20 12 21
REMARK SMILES IDX 11 22 10 23 9 24 8 25 7 26 6 27 5 28 4 29 3 30 2 31 1 32
REMARK H PARENT
REMARK Flexibility Score: inf
ROOT
ATOM      1  C   UNL     1      30.949 161.453 121.249  1.00  0.00     0.000 C 
ENDROOT
BRANCH   1   2
ATOM      2  C   UNL     1      31.407 162.030 119.894  1.00  0.00     0.000 C 
BRANCH   2   3
ATOM      3  C   UNL     1      32.836 161.637 119.466  1.00  0.00     0.000 C 
BRANCH   3   4
ATOM      4  C   UNL     1      33.752 161.162 120.610  1.00  0.00     0.000 C 
BRANCH   4   5
ATOM      5  C   UNL     1      35.086 161.921 120.725  1.00  0.00     0.000 C 
BRANCH   5   6
ATOM      6  C   UNL     1      35.922 161.518 121.960  1.00  0.00     0.000 C 
BRANCH   6   7
ATOM      7  C   UNL     1      37.337 162.121 121.934  1.00  0.00     0.000 C 
BRANCH   7   8
ATOM      8  C   UNL     1      37.948 162.124 120.515  1.00  0.00     0.000 C 
BRANCH   8   9
ATOM      9  C   UNL     1      39.175 161.205 120.364  1.00  0.00     0.000 C 
BRANCH   9  10
ATOM     10  C   UNL     1      39.663 161.010 118.919  1.00  0.00     0.000 C 
BRANCH  10  11
ATOM     11  C   UNL     1      40.987 161.737 118.634  1.00  0.00     0.000 C 
BRANCH  11  12
ATOM     12  C   UNL     1      41.460 161.477 117.197  1.00  0.00     0.000 C 
BRANCH  12  13
ATOM     13  C   UNL     1      42.357 160.234 117.072  1.00  0.00     0.006 C 
BRANCH  13  14
ATOM     14  C   UNL     1      42.617 159.793 115.621  1.00  0.00     0.053 C 
BRANCH  14  15
ATOM     15  C   UNL     1      44.018 160.085 115.173  1.00  0.00     0.041 C 
ATOM     16  O   UNL     1      44.891 159.177 115.191  1.00  0.00    -0.550 OA
ATOM     17  O   UNL     1      44.354 161.349 114.706  1.00  0.00    -0.550 OA
ENDBRANCH  14  15
ENDBRANCH  13  14
ENDBRANCH  12  13
ENDBRANCH  11  12
ENDBRANCH  10  11
ENDBRANCH   9  10
ENDBRANCH   8   9
ENDBRANCH   7   8
ENDBRANCH   6   7
ENDBRANCH   5   6
ENDBRANCH   4   5
ENDBRANCH   3   4
ENDBRANCH   2   3
ENDBRANCH   1   2
BRANCH   1  18
ATOM     18  C   UNL     1      29.598 161.987 121.762  1.00  0.00     0.000 C 
BRANCH  18  19
ATOM     19  C   UNL     1      28.448 160.960 121.772  1.00  0.00     0.000 C 
BRANCH  19  20
ATOM     20  C   UNL     1      28.381 160.041 120.539  1.00  0.00     0.000 C 
BRANCH  20  21
ATOM     21  C   UNL     1      28.129 158.569 120.905  1.00  0.00     0.000 C 
BRANCH  21  22
ATOM     22  C   UNL     1      26.867 158.372 121.765  1.00  0.00     0.000 C 
BRANCH  22  23
ATOM     23  C   UNL     1      25.834 157.374 121.202  1.00  0.00     0.000 C 
BRANCH  23  24
ATOM     24  C   UNL     1      25.100 157.841 119.932  1.00  0.00    -0.000 C 
BRANCH  24  25
ATOM     25  C   UNL     1      25.740 157.303 118.644  1.00  0.00    -0.000 C 
BRANCH  25  26
ATOM     26  C   UNL     1      25.582 158.306 117.494  1.00  0.00    -0.000 C 
BRANCH  26  27
ATOM     27  C   UNL     1      26.832 159.187 117.359  1.00  0.00    -0.000 C 
BRANCH  27  28
ATOM     28  C   UNL     1      26.730 160.201 116.203  1.00  0.00    -0.000 C 
BRANCH  28  29
ATOM     29  C   UNL     1      26.270 161.612 116.611  1.00  0.00    -0.000 C 
BRANCH  29  30
ATOM     30  C   UNL     1      26.390 161.931 118.115  1.00  0.00    -0.000 C 
BRANCH  30  31
ATOM     31  C   UNL     1      25.542 161.011 119.018  1.00  0.00    -0.003 C 
ATOM     32  C   UNL     1      24.883 161.763 120.177  1.00  0.00     0.004 C 
ENDBRANCH  30  31
ENDBRANCH  29  30
ENDBRANCH  28  29
ENDBRANCH  27  28
ENDBRANCH  26  27
ENDBRANCH  25  26
ENDBRANCH  24  25
ENDBRANCH  23  24
ENDBRANCH  22  23
ENDBRANCH  21  22
ENDBRANCH  20  21
ENDBRANCH  19  20
ENDBRANCH  18  19
ENDBRANCH   1  18
TORSDOF 28
ENDMDL
MODEL 3
REMARK VINA RESULT:    -1.298      3.444      7.794
REMARK INTER + INTRA:          -5.209
REMARK INTER:                  -3.121
REMARK INTRA:                  -2.088
REMARK UNBOUND:                -1.788
REMARK SMILES CCCCCCCCCCCCCCCCCCCCCCCCCCCCCC(=O)[O-]
REMARK SMILES IDX 16 1 17 2 18 3 19 4 20 5 21 6 22 7 23 8 24 9 25 10 26 11
REMARK SMILES IDX 27 12 28 13 29 14 30 15 31 16 32 17 15 18 14 19 13 20 12 21
REMARK SMILES IDX 11 22 10 23 9 24 8 25 7 26 6 27 5 28 4 29 3 30 2 31 1 32
REMARK H PARENT
REMARK Flexibility Score: inf
ROOT
ATOM      1  C   UNL     1      27.181 158.974 115.943  1.00  0.00     0.000 C 
ENDROOT
BRANCH   1   2
ATOM      2  C   UNL     1      25.836 158.281 115.647  1.00  0.00     0.000 C 
BRANCH   2   3
ATOM      3  C   UNL     1      25.137 157.658 116.873  1.00  0.00     0.000 C 
BRANCH   3   4
ATOM      4  C   UNL     1      25.992 157.609 118.154  1.00  0.00     0.000 C 
BRANCH   4   5
ATOM      5  C   UNL     1      25.322 156.907 119.350  1.00  0.00     0.000 C 
BRANCH   5   6
ATOM      6  C   UNL     1      26.110 157.050 120.670  1.00  0.00     0.000 C 
BRANCH   6   7
ATOM      7  C   UNL     1      27.334 156.119 120.728  1.00  0.00     0.000 C 
BRANCH   7   8
ATOM      8  C   UNL     1      28.234 156.408 121.949  1.00  0.00     0.000 C 
BRANCH   8   9
ATOM      9  C   UNL     1      29.271 157.521 121.709  1.00  0.00     0.000 C 
BRANCH   9  10
ATOM     10  C   UNL     1      30.725 157.130 122.021  1.00  0.00     0.000 C 
BRANCH  10  11
ATOM     11  C   UNL     1      31.748 158.064 121.356  1.00  0.00     0.000 C 
BRANCH  11  12
ATOM     12  C   UNL     1      31.394 158.311 119.883  1.00  0.00     0.000 C 
BRANCH  12  13
ATOM     13  C   UNL     1      32.055 159.575 119.307  1.00  0.00     0.006 C 
BRANCH  13  14
ATOM     14  C   UNL     1      32.471 159.446 117.831  1.00  0.00     0.053 C 
BRANCH  14  15
ATOM     15  C   UNL     1      32.664 160.778 117.170  1.00  0.00     0.041 C 
ATOM     16  O   UNL     1      32.480 161.840 117.820  1.00  0.00    -0.550 OA
ATOM     17  O   UNL     1      33.080 160.849 115.846  1.00  0.00    -0.550 OA
ENDBRANCH  14  15
ENDBRANCH  13  14
ENDBRANCH  12  13
ENDBRANCH  11  12
ENDBRANCH  10  11
ENDBRANCH   9  10
ENDBRANCH   8   9
ENDBRANCH   7   8
ENDBRANCH   6   7
ENDBRANCH   5   6
ENDBRANCH   4   5
ENDBRANCH   3   4
ENDBRANCH   2   3
ENDBRANCH   1   2
BRANCH   1  18
ATOM     18  C   UNL     1      27.223 160.481 115.621  1.00  0.00     0.000 C 
BRANCH  18  19
ATOM     19  C   UNL     1      27.366 161.409 116.845  1.00  0.00     0.000 C 
BRANCH  19  20
ATOM     20  C   UNL     1      26.039 161.853 117.488  1.00  0.00     0.000 C 
BRANCH  20  21
ATOM     21  C   UNL     1      26.014 161.638 119.011  1.00  0.00     0.000 C 
BRANCH  21  22
ATOM     22  C   UNL     1      26.675 160.316 119.441  1.00  0.00     0.000 C 
BRANCH  22  23
ATOM     23  C   UNL     1      27.546 160.396 120.712  1.00  0.00     0.000 C 
BRANCH  23  24
ATOM     24  C   UNL     1      27.519 161.753 121.437  1.00  0.00    -0.000 C 
BRANCH  24  25
ATOM     25  C   UNL     1      28.855 162.092 122.113  1.00  0.00    -0.000 C 
BRANCH  25  26
ATOM     26  C   UNL     1      30.013 161.336 121.450  1.00  0.00    -0.000 C 
BRANCH  26  27
ATOM     27  C   UNL     1      31.334 162.100 121.614  1.00  0.00    -0.000 C 
BRANCH  27  28
ATOM     28  C   UNL     1      32.534 161.173 121.885  1.00  0.00    -0.000 C 
BRANCH  28  29
ATOM     29  C   UNL     1      33.653 161.227 120.829  1.00  0.00    -0.000 C 
BRANCH  29  30
ATOM     30  C   UNL     1      34.853 162.124 121.191  1.00  0.00    -0.000 C 
BRANCH  30  31
ATOM     31  C   UNL     1      35.879 161.449 122.125  1.00  0.00    -0.003 C 
ATOM     32  C   UNL     1      37.191 161.109 121.417  1.00  0.00     0.004 C 
ENDBRANCH  30  31
ENDBRANCH  29  30
ENDBRANCH  28  29
ENDBRANCH  27  28
ENDBRANCH  26  27
ENDBRANCH  25  26
ENDBRANCH  24  25
ENDBRANCH  23  24
ENDBRANCH  22  23
ENDBRANCH  21  22
ENDBRANCH  20  21
ENDBRANCH  19  20
ENDBRANCH  18  19
ENDBRANCH   1  18
TORSDOF 28
ENDMDL
MODEL 4
REMARK VINA RESULT:    -0.759      3.674      9.875
REMARK INTER + INTRA:          -3.790
REMARK INTER:                  -1.738
REMARK INTRA:                  -2.052
REMARK UNBOUND:                -1.788
REMARK SMILES CCCCCCCCCCCCCCCCCCCCCCCCCCCCCC(=O)[O-]
REMARK SMILES IDX 16 1 17 2 18 3 19 4 20 5 21 6 22 7 23 8 24 9 25 10 26 11
REMARK SMILES IDX 27 12 28 13 29 14 30 15 31 16 32 17 15 18 14 19 13 20 12 21
REMARK SMILES IDX 11 22 10 23 9 24 8 25 7 26 6 27 5 28 4 29 3 30 2 31 1 32
REMARK H PARENT
REMARK Flexibility Score: inf
ROOT
ATOM      1  C   UNL     1      26.365 158.835 117.395  1.00  0.00     0.000 C 
ENDROOT
BRANCH   1   2
ATOM      2  C   UNL     1      25.673 157.802 116.484  1.00  0.00     0.000 C 
BRANCH   2   3
ATOM      3  C   UNL     1      25.658 156.358 117.028  1.00  0.00     0.000 C 
BRANCH   3   4
ATOM      4  C   UNL     1      25.333 156.230 118.528  1.00  0.00     0.000 C 
BRANCH   4   5
ATOM      5  C   UNL     1      25.516 154.817 119.110  1.00  0.00     0.000 C 
BRANCH   5   6
ATOM      6  C   UNL     1      26.403 154.780 120.375  1.00  0.00     0.000 C 
BRANCH   6   7
ATOM      7  C   UNL     1      25.650 155.247 121.633  1.00  0.00     0.000 C 
BRANCH   7   8
ATOM      8  C   UNL     1      25.999 156.701 122.020  1.00  0.00     0.000 C 
BRANCH   8   9
ATOM      9  C   UNL     1      25.185 157.761 121.255  1.00  0.00     0.000 C 
BRANCH   9  10
ATOM     10  C   UNL     1      25.958 159.043 120.906  1.00  0.00     0.000 C 
BRANCH  10  11
ATOM     11  C   UNL     1      26.738 159.612 122.101  1.00  0.00     0.000 C 
BRANCH  11  12
ATOM     12  C   UNL     1      28.237 159.707 121.785  1.00  0.00     0.000 C 
BRANCH  12  13
ATOM     13  C   UNL     1      28.732 158.582 120.859  1.00  0.00     0.006 C 
BRANCH  13  14
ATOM     14  C   UNL     1      29.552 157.496 121.578  1.00  0.00     0.053 C 
BRANCH  14  15
ATOM     15  C   UNL     1      31.028 157.759 121.521  1.00  0.00     0.041 C 
ATOM     16  O   UNL     1      31.518 158.750 122.124  1.00  0.00    -0.550 OA
ATOM     17  O   UNL     1      31.867 156.892 120.831  1.00  0.00    -0.550 OA
ENDBRANCH  14  15
ENDBRANCH  13  14
ENDBRANCH  12  13
ENDBRANCH  11  12
ENDBRANCH  10  11
ENDBRANCH   9  10
ENDBRANCH   8   9
ENDBRANCH   7   8
ENDBRANCH   6   7
ENDBRANCH   5   6
ENDBRANCH   4   5
ENDBRANCH   3   4
ENDBRANCH   2   3
ENDBRANCH   1   2
BRANCH   1  18
ATOM     18  C   UNL     1      27.480 159.658 116.718  1.00  0.00     0.000 C 
BRANCH  18  19
ATOM     19  C   UNL     1      28.694 159.977 117.614  1.00  0.00     0.000 C 
BRANCH  19  20
ATOM     20  C   UNL     1      29.129 161.455 117.624  1.00  0.00     0.000 C 
BRANCH  20  21
ATOM     21  C   UNL     1      29.010 162.102 119.013  1.00  0.00     0.000 C 
BRANCH  21  22
ATOM     22  C   UNL     1      30.329 162.067 119.806  1.00  0.00     0.000 C 
BRANCH  22  23
ATOM     23  C   UNL     1      30.984 160.676 119.937  1.00  0.00     0.000 C 
BRANCH  23  24
ATOM     24  C   UNL     1      32.213 160.447 119.038  1.00  0.00    -0.000 C 
BRANCH  24  25
ATOM     25  C   UNL     1      33.514 160.967 119.666  1.00  0.00    -0.000 C 
BRANCH  25  26
ATOM     26  C   UNL     1      34.133 159.916 120.595  1.00  0.00    -0.000 C 
BRANCH  26  27
ATOM     27  C   UNL     1      34.405 160.505 121.986  1.00  0.00    -0.000 C 
BRANCH  27  28
ATOM     28  C   UNL     1      34.905 161.962 121.935  1.00  0.00    -0.000 C 
BRANCH  28  29
ATOM     29  C   UNL     1      36.422 162.125 121.730  1.00  0.00    -0.000 C 
BRANCH  29  30
ATOM     30  C   UNL     1      37.172 160.836 121.339  1.00  0.00    -0.000 C 
BRANCH  30  31
ATOM     31  C   UNL     1      38.582 161.085 120.763  1.00  0.00    -0.003 C 
ATOM     32  C   UNL     1      39.437 161.987 121.655  1.00  0.00     0.004 C 
ENDBRANCH  30  31
ENDBRANCH  29  30
ENDBRANCH  28  29
ENDBRANCH  27  28
ENDBRANCH  26  27
ENDBRANCH  25  26
ENDBRANCH  24  25
ENDBRANCH  23  24
ENDBRANCH  22  23
ENDBRANCH  21  22
ENDBRANCH  20  21
ENDBRANCH  19  20
ENDBRANCH  18  19
ENDBRANCH   1  18
TORSDOF 28
ENDMDL
MODEL 5
REMARK VINA RESULT:    -0.666      4.217     12.254
REMARK INTER + INTRA:          -3.544
REMARK INTER:                  -2.115
REMARK INTRA:                  -1.428
REMARK UNBOUND:                -1.788
REMARK SMILES CCCCCCCCCCCCCCCCCCCCCCCCCCCCCC(=O)[O-]
REMARK SMILES IDX 16 1 17 2 18 3 19 4 20 5 21 6 22 7 23 8 24 9 25 10 26 11
REMARK SMILES IDX 27 12 28 13 29 14 30 15 31 16 32 17 15 18 14 19 13 20 12 21
REMARK SMILES IDX 11 22 10 23 9 24 8 25 7 26 6 27 5 28 4 29 3 30 2 31 1 32
REMARK H PARENT
REMARK Flexibility Score: inf
ROOT
ATOM      1  C   UNL     1      33.261 159.744 118.122  1.00  0.00     0.000 C 
ENDROOT
BRANCH   1   2
ATOM      2  C   UNL     1      32.239 160.893 118.230  1.00  0.00     0.000 C 
BRANCH   2   3
ATOM      3  C   UNL     1      30.906 160.520 118.912  1.00  0.00     0.000 C 
BRANCH   3   4
ATOM      4  C   UNL     1      30.645 161.220 120.259  1.00  0.00     0.000 C 
BRANCH   4   5
ATOM      5  C   UNL     1      29.303 160.863 120.922  1.00  0.00     0.000 C 
BRANCH   5   6
ATOM      6  C   UNL     1      28.269 162.010 120.884  1.00  0.00     0.000 C 
BRANCH   6   7
ATOM      7  C   UNL     1      27.095 161.710 119.936  1.00  0.00     0.000 C 
BRANCH   7   8
ATOM      8  C   UNL     1      25.884 161.099 120.676  1.00  0.00     0.000 C 
BRANCH   8   9
ATOM      9  C   UNL     1      25.113 160.053 119.850  1.00  0.00     0.000 C 
BRANCH   9  10
ATOM     10  C   UNL     1      25.870 159.504 118.629  1.00  0.00     0.000 C 
BRANCH  10  11
ATOM     11  C   UNL     1      25.496 158.051 118.300  1.00  0.00     0.000 C 
BRANCH  11  12
ATOM     12  C   UNL     1      25.322 157.223 119.582  1.00  0.00     0.000 C 
BRANCH  12  13
ATOM     13  C   UNL     1      26.350 156.086 119.710  1.00  0.00     0.006 C 
BRANCH  13  14
ATOM     14  C   UNL     1      27.029 156.009 121.088  1.00  0.00     0.053 C 
BRANCH  14  15
ATOM     15  C   UNL     1      28.132 157.015 121.242  1.00  0.00     0.041 C 
ATOM     16  O   UNL     1      29.046 156.828 122.088  1.00  0.00    -0.550 OA
ATOM     17  O   UNL     1      28.169 158.142 120.430  1.00  0.00    -0.550 OA
ENDBRANCH  14  15
ENDBRANCH  13  14
ENDBRANCH  12  13
ENDBRANCH  11  12
ENDBRANCH  10  11
ENDBRANCH   9  10
ENDBRANCH   8   9
ENDBRANCH   7   8
ENDBRANCH   6   7
ENDBRANCH   5   6
ENDBRANCH   4   5
ENDBRANCH   3   4
ENDBRANCH   2   3
ENDBRANCH   1   2
BRANCH   1  18
ATOM     18  C   UNL     1      33.915 159.325 119.454  1.00  0.00     0.000 C 
BRANCH  18  19
ATOM     19  C   UNL     1      34.161 160.475 120.452  1.00  0.00     0.000 C 
BRANCH  19  20
ATOM     20  C   UNL     1      35.415 160.320 121.333  1.00  0.00     0.000 C 
BRANCH  20  21
ATOM     21  C   UNL     1      36.143 161.653 121.573  1.00  0.00     0.000 C 
BRANCH  21  22
ATOM     22  C   UNL     1      37.081 162.041 120.416  1.00  0.00     0.000 C 
BRANCH  22  23
ATOM     23  C   UNL     1      38.501 161.441 120.488  1.00  0.00     0.000 C 
BRANCH  23  24
ATOM     24  C   UNL     1      39.383 161.988 121.625  1.00  0.00    -0.000 C 
BRANCH  24  25
ATOM     25  C   UNL     1      40.734 161.264 121.729  1.00  0.00    -0.000 C 
BRANCH  25  26
ATOM     26  C   UNL     1      41.862 162.122 121.144  1.00  0.00    -0.000 C 
BRANCH  26  27
ATOM     27  C   UNL     1      41.997 161.896 119.631  1.00  0.00    -0.000 C 
BRANCH  27  28
ATOM     28  C   UNL     1      43.416 161.468 119.212  1.00  0.00    -0.000 C 
BRANCH  28  29
ATOM     29  C   UNL     1      43.476 160.340 118.165  1.00  0.00    -0.000 C 
BRANCH  29  30
ATOM     30  C   UNL     1      42.238 160.227 117.254  1.00  0.00    -0.000 C 
BRANCH  30  31
ATOM     31  C   UNL     1      42.532 159.596 115.876  1.00  0.00    -0.003 C 
ATOM     32  C   UNL     1      44.028 159.410 115.617  1.00  0.00     0.004 C 
ENDBRANCH  30  31
ENDBRANCH  29  30
ENDBRANCH  28  29
ENDBRANCH  27  28
ENDBRANCH  26  27
ENDBRANCH  25  26
ENDBRANCH  24  25
ENDBRANCH  23  24
ENDBRANCH  22  23
ENDBRANCH  21  22
ENDBRANCH  20  21
ENDBRANCH  19  20
ENDBRANCH  18  19
ENDBRANCH   1  18
TORSDOF 28
ENDMDL
MODEL 6
REMARK VINA RESULT:    -0.118      2.362      5.214
REMARK INTER + INTRA:          -2.098
REMARK INTER:                  -0.927
REMARK INTRA:                  -1.171
REMARK UNBOUND:                -1.788
REMARK SMILES CCCCCCCCCCCCCCCCCCCCCCCCCCCCCC(=O)[O-]
REMARK SMILES IDX 16 1 17 2 18 3 19 4 20 5 21 6 22 7 23 8 24 9 25 10 26 11
REMARK SMILES IDX 27 12 28 13 29 14 30 15 31 16 32 17 15 18 14 19 13 20 12 21
REMARK SMILES IDX 11 22 10 23 9 24 8 25 7 26 6 27 5 28 4 29 3 30 2 31 1 32
REMARK H PARENT
REMARK Flexibility Score: inf
ROOT
ATOM      1  C   UNL     1      32.419 159.677 117.435  1.00  0.00     0.000 C 
ENDROOT
BRANCH   1   2
ATOM      2  C   UNL     1      33.041 159.925 118.823  1.00  0.00     0.000 C 
BRANCH   2   3
ATOM      3  C   UNL     1      33.772 158.714 119.439  1.00  0.00     0.000 C 
BRANCH   3   4
ATOM      4  C   UNL     1      32.850 157.617 120.005  1.00  0.00     0.000 C 
BRANCH   4   5
ATOM      5  C   UNL     1      31.420 158.081 120.332  1.00  0.00     0.000 C 
BRANCH   5   6
ATOM      6  C   UNL     1      31.302 159.604 120.562  1.00  0.00     0.000 C 
BRANCH   6   7
ATOM      7  C   UNL     1      29.937 160.006 121.149  1.00  0.00     0.000 C 
BRANCH   7   8
ATOM      8  C   UNL     1      29.839 161.522 121.423  1.00  0.00     0.000 C 
BRANCH   8   9
ATOM      9  C   UNL     1      31.078 162.110 122.125  1.00  0.00     0.000 C 
BRANCH   9  10
ATOM     10  C   UNL     1      32.361 162.117 121.277  1.00  0.00     0.000 C 
BRANCH  10  11
ATOM     11  C   UNL     1      33.635 161.981 122.125  1.00  0.00     0.000 C 
BRANCH  11  12
ATOM     12  C   UNL     1      34.262 160.589 121.958  1.00  0.00     0.000 C 
BRANCH  12  13
ATOM     13  C   UNL     1      35.799 160.609 122.012  1.00  0.00     0.006 C 
BRANCH  13  14
ATOM     14  C   UNL     1      36.458 161.320 120.816  1.00  0.00     0.053 C 
BRANCH  14  15
ATOM     15  C   UNL     1      37.946 161.136 120.787  1.00  0.00     0.041 C 
ATOM     16  O   UNL     1      38.650 161.509 121.762  1.00  0.00    -0.550 OA
ATOM     17  O   UNL     1      38.554 160.522 119.699  1.00  0.00    -0.550 OA
ENDBRANCH  14  15
ENDBRANCH  13  14
ENDBRANCH  12  13
ENDBRANCH  11  12
ENDBRANCH  10  11
ENDBRANCH   9  10
ENDBRANCH   8   9
ENDBRANCH   7   8
ENDBRANCH   6   7
ENDBRANCH   5   6
ENDBRANCH   4   5
ENDBRANCH   3   4
ENDBRANCH   2   3
ENDBRANCH   1   2
BRANCH   1  18
ATOM     18  C   UNL     1      31.137 160.480 117.141  1.00  0.00     0.000 C 
BRANCH  18  19
ATOM     19  C   UNL     1      29.839 159.648 117.093  1.00  0.00     0.000 C 
BRANCH  19  20
ATOM     20  C   UNL     1      28.543 160.465 116.937  1.00  0.00     0.000 C 
BRANCH  20  21
ATOM     21  C   UNL     1      27.455 160.053 117.942  1.00  0.00     0.000 C 
BRANCH  21  22
ATOM     22  C   UNL     1      27.282 161.066 119.089  1.00  0.00     0.000 C 
BRANCH  22  23
ATOM     23  C   UNL     1      26.158 162.103 118.890  1.00  0.00     0.000 C 
BRANCH  23  24
ATOM     24  C   UNL     1      25.041 162.066 119.949  1.00  0.00    -0.000 C 
BRANCH  24  25
ATOM     25  C   UNL     1      25.568 161.762 121.358  1.00  0.00    -0.000 C 
BRANCH  25  26
ATOM     26  C   UNL     1      24.902 160.507 121.934  1.00  0.00    -0.000 C 
BRANCH  26  27
ATOM     27  C   UNL     1      25.541 159.234 121.362  1.00  0.00    -0.000 C 
BRANCH  27  28
ATOM     28  C   UNL     1      26.935 158.945 121.951  1.00  0.00    -0.000 C 
BRANCH  28  29
ATOM     29  C   UNL     1      27.294 157.453 122.078  1.00  0.00    -0.000 C 
BRANCH  29  30
ATOM     30  C   UNL     1      27.495 156.711 120.742  1.00  0.00    -0.000 C 
BRANCH  30  31
ATOM     31  C   UNL     1      26.353 155.736 120.390  1.00  0.00    -0.003 C 
ATOM     32  C   UNL     1      25.327 156.345 119.433  1.00  0.00     0.004 C 
ENDBRANCH  30  31
ENDBRANCH  29  30
ENDBRANCH  28  29
ENDBRANCH  27  28
ENDBRANCH  26  27
ENDBRANCH  25  26
ENDBRANCH  24  25
ENDBRANCH  23  24
ENDBRANCH  22  23
ENDBRANCH  21  22
ENDBRANCH  20  21
ENDBRANCH  19  20
ENDBRANCH  18  19
ENDBRANCH   1  18
TORSDOF 28
ENDMDL
MODEL 7
REMARK VINA RESULT:     0.389      5.433     10.185
REMARK INTER + INTRA:          -0.761
REMARK INTER:                  -2.204
REMARK INTRA:                   1.443
REMARK UNBOUND:                -1.788
REMARK SMILES CCCCCCCCCCCCCCCCCCCCCCCCCCCCCC(=O)[O-]
REMARK SMILES IDX 16 1 17 2 18 3 19 4 20 5 21 6 22 7 23 8 24 9 25 10 26 11
REMARK SMILES IDX 27 12 28 13 29 14 30 15 31 16 32 17 15 18 14 19 13 20 12 21
REMARK SMILES IDX 11 22 10 23 9 24 8 25 7 26 6 27 5 28 4 29 3 30 2 31 1 32
REMARK H PARENT
REMARK Flexibility Score: inf
ROOT
ATOM      1  C   UNL     1      26.362 158.867 117.350  1.00  0.00     0.000 C 
ENDROOT
BRANCH   1   2
ATOM      2  C   UNL     1      25.402 157.838 116.719  1.00  0.00     0.000 C 
BRANCH   2   3
ATOM      3  C   UNL     1      25.633 156.376 117.155  1.00  0.00     0.000 C 
BRANCH   3   4
ATOM      4  C   UNL     1      25.591 156.136 118.676  1.00  0.00     0.000 C 
BRANCH   4   5
ATOM      5  C   UNL     1      26.353 154.886 119.153  1.00  0.00     0.000 C 
BRANCH   5   6
ATOM      6  C   UNL     1      27.292 155.155 120.349  1.00  0.00     0.000 C 
BRANCH   6   7
ATOM      7  C   UNL     1      26.521 155.427 121.652  1.00  0.00     0.000 C 
BRANCH   7   8
ATOM      8  C   UNL     1      26.273 156.934 121.884  1.00  0.00     0.000 C 
BRANCH   8   9
ATOM      9  C   UNL     1      24.910 157.428 121.365  1.00  0.00     0.000 C 
BRANCH   9  10
ATOM     10  C   UNL     1      24.876 158.905 120.937  1.00  0.00     0.000 C 
BRANCH  10  11
ATOM     11  C   UNL     1      25.022 159.871 122.122  1.00  0.00     0.000 C 
BRANCH  11  12
ATOM     12  C   UNL     1      26.306 160.704 121.999  1.00  0.00     0.000 C 
BRANCH  12  13
ATOM     13  C   UNL     1      26.063 162.104 121.407  1.00  0.00     0.006 C 
BRANCH  13  14
ATOM     14  C   UNL     1      25.073 162.121 120.229  1.00  0.00     0.053 C 
BRANCH  14  15
ATOM     15  C   UNL     1      25.712 161.709 118.935  1.00  0.00     0.041 C 
ATOM     16  O   UNL     1      25.136 161.946 117.841  1.00  0.00    -0.550 OA
ATOM     17  O   UNL     1      26.959 161.095 118.935  1.00  0.00    -0.550 OA
ENDBRANCH  14  15
ENDBRANCH  13  14
ENDBRANCH  12  13
ENDBRANCH  11  12
ENDBRANCH  10  11
ENDBRANCH   9  10
ENDBRANCH   8   9
ENDBRANCH   7   8
ENDBRANCH   6   7
ENDBRANCH   5   6
ENDBRANCH   4   5
ENDBRANCH   3   4
ENDBRANCH   2   3
ENDBRANCH   1   2
BRANCH   1  18
ATOM     18  C   UNL     1      27.097 159.775 116.345  1.00  0.00     0.000 C 
BRANCH  18  19
ATOM     19  C   UNL     1      28.561 160.100 116.705  1.00  0.00     0.000 C 
BRANCH  19  20
ATOM     20  C   UNL     1      28.895 161.601 116.795  1.00  0.00     0.000 C 
BRANCH  20  21
ATOM     21  C   UNL     1      28.962 162.110 118.244  1.00  0.00     0.000 C 
BRANCH  21  22
ATOM     22  C   UNL     1      30.274 161.727 118.954  1.00  0.00     0.000 C 
BRANCH  22  23
ATOM     23  C   UNL     1      30.324 160.291 119.517  1.00  0.00     0.000 C 
BRANCH  23  24
ATOM     24  C   UNL     1      29.947 160.160 121.004  1.00  0.00    -0.000 C 
BRANCH  24  25
ATOM     25  C   UNL     1      28.991 158.989 121.273  1.00  0.00    -0.000 C 
BRANCH  25  26
ATOM     26  C   UNL     1      29.519 157.694 120.643  1.00  0.00    -0.000 C 
BRANCH  26  27
ATOM     27  C   UNL     1      30.508 156.990 121.582  1.00  0.00    -0.000 C 
BRANCH  27  28
ATOM     28  C   UNL     1      31.754 157.842 121.892  1.00  0.00    -0.000 C 
BRANCH  28  29
ATOM     29  C   UNL     1      32.669 158.123 120.686  1.00  0.00    -0.000 C 
BRANCH  29  30
ATOM     30  C   UNL     1      33.137 159.585 120.545  1.00  0.00    -0.000 C 
BRANCH  30  31
ATOM     31  C   UNL     1      33.659 160.203 121.859  1.00  0.00    -0.003 C 
ATOM     32  C   UNL     1      33.202 161.649 122.057  1.00  0.00     0.004 C 
ENDBRANCH  30  31
ENDBRANCH  29  30
ENDBRANCH  28  29
ENDBRANCH  27  28
ENDBRANCH  26  27
ENDBRANCH  25  26
ENDBRANCH  24  25
ENDBRANCH  23  24
ENDBRANCH  22  23
ENDBRANCH  21  22
ENDBRANCH  20  21
ENDBRANCH  19  20
ENDBRANCH  18  19
ENDBRANCH   1  18
TORSDOF 28
ENDMDL
