MODEL 1
REMARK VINA RESULT:    -3.846      0.000      0.000
REMARK INTER + INTRA:          -3.846
REMARK INTER:                  -3.846
REMARK INTRA:                   0.000
REMARK UNBOUND:                 0.000
REMARK SMILES CC1(C)O[C@]2(C)CC[C@H]1CC2
REMARK SMILES IDX 1 1 2 2 9 3 10 4 11 5 5 6 4 7 7 8 8 9 6 10 3 11
REMARK H PARENT
REMARK Flexibility Score: inf
ROOT
ATOM      1  C   UNL     1      -3.723  82.034  -7.437  1.00  0.00     0.042 C 
ATOM      2  C   UNL     1      -3.985  82.980  -8.629  1.00  0.00     0.066 C 
ATOM      3  C   UNL     1      -5.513  83.363  -8.713  1.00  0.00     0.021 C 
ATOM      4  C   UNL     1      -5.893  84.144  -7.432  1.00  0.00     0.009 C 
ATOM      5  C   UNL     1      -4.891  85.306  -7.228  1.00  0.00     0.035 C 
ATOM      6  C   UNL     1      -3.896  85.359  -8.423  1.00  0.00     0.066 C 
ATOM      7  O   UNL     1      -3.154  84.140  -8.469  1.00  0.00    -0.369 OA
ATOM      8  C   UNL     1      -4.701  85.517  -9.744  1.00  0.00     0.035 C 
ATOM      9  C   UNL     1      -5.708  84.350  -9.889  1.00  0.00     0.009 C 
ATOM     10  C   UNL     1      -2.919  86.526  -8.251  1.00  0.00     0.042 C 
ATOM     11  C   UNL     1      -3.537  82.242  -9.908  1.00  0.00     0.042 C 
ENDROOT
TORSDOF 0
ENDMDL
MODEL 2
REMARK VINA RESULT:    -3.833      7.462      8.823
REMARK INTER + INTRA:          -3.833
REMARK INTER:                  -3.833
REMARK INTRA:                   0.000
REMARK UNBOUND:                 0.000
REMARK SMILES CC1(C)O[C@]2(C)CC[C@H]1CC2
REMARK SMILES IDX 1 1 2 2 9 3 10 4 11 5 5 6 4 7 7 8 8 9 6 10 3 11
REMARK H PARENT
REMARK Flexibility Score: inf
ROOT
ATOM      1  C   UNL     1     -12.753  80.383  -7.493  1.00  0.00     0.042 C 
ATOM      2  C   UNL     1     -13.198  81.615  -8.311  1.00  0.00     0.066 C 
ATOM      3  C   UNL     1     -12.355  82.887  -7.908  1.00  0.00     0.021 C 
ATOM      4  C   UNL     1     -10.873  82.625  -8.266  1.00  0.00     0.009 C 
ATOM      5  C   UNL     1     -10.778  82.162  -9.740  1.00  0.00     0.035 C 
ATOM      6  C   UNL     1     -12.189  82.203 -10.396  1.00  0.00     0.066 C 
ATOM      7  O   UNL     1     -13.054  81.300  -9.704  1.00  0.00    -0.369 OA
ATOM      8  C   UNL     1     -12.759  83.645 -10.280  1.00  0.00     0.035 C 
ATOM      9  C   UNL     1     -12.806  84.073  -8.793  1.00  0.00     0.009 C 
ATOM     10  C   UNL     1     -12.106  81.779 -11.866  1.00  0.00     0.042 C 
ATOM     11  C   UNL     1     -14.697  81.840  -8.024  1.00  0.00     0.042 C 
ENDROOT
TORSDOF 0
ENDMDL
MODEL 3
REMARK VINA RESULT:    -3.803      7.206      8.754
REMARK INTER + INTRA:          -3.803
REMARK INTER:                  -3.803
REMARK INTRA:                   0.000
REMARK UNBOUND:                 0.000
REMARK SMILES CC1(C)O[C@]2(C)CC[C@H]1CC2
REMARK SMILES IDX 1 1 2 2 9 3 10 4 11 5 5 6 4 7 7 8 8 9 6 10 3 11
REMARK H PARENT
REMARK Flexibility Score: inf
ROOT
ATOM      1  C   UNL     1     -14.191  84.521  -9.191  1.00  0.00     0.042 C 
ATOM      2  C   UNL     1     -12.714  84.106  -9.365  1.00  0.00     0.066 C 
ATOM      3  C   UNL     1     -12.286  83.081  -8.245  1.00  0.00     0.021 C 
ATOM      4  C   UNL     1     -13.132  81.796  -8.408  1.00  0.00     0.009 C 
ATOM      5  C   UNL     1     -13.040  81.308  -9.874  1.00  0.00     0.035 C 
ATOM      6  C   UNL     1     -12.057  82.215 -10.670  1.00  0.00     0.066 C 
ATOM      7  O   UNL     1     -12.558  83.553 -10.681  1.00  0.00    -0.369 OA
ATOM      8  C   UNL     1     -10.670  82.196  -9.968  1.00  0.00     0.035 C 
ATOM      9  C   UNL     1     -10.818  82.663  -8.499  1.00  0.00     0.009 C 
ATOM     10  C   UNL     1     -11.931  81.724 -12.116  1.00  0.00     0.042 C 
ATOM     11  C   UNL     1     -11.863  85.392  -9.283  1.00  0.00     0.042 C 
ENDROOT
TORSDOF 0
ENDMDL
MODEL 4
REMARK VINA RESULT:    -3.778      1.067      2.174
REMARK INTER + INTRA:          -3.778
REMARK INTER:                  -3.778
REMARK INTRA:                   0.000
REMARK UNBOUND:                 0.000
REMARK SMILES CC1(C)O[C@]2(C)CC[C@H]1CC2
REMARK SMILES IDX 1 1 2 2 9 3 10 4 11 5 5 6 4 7 7 8 8 9 6 10 3 11
REMARK H PARENT
REMARK Flexibility Score: inf
ROOT
ATOM      1  C   UNL     1      -3.376  82.106  -9.873  1.00  0.00     0.042 C 
ATOM      2  C   UNL     1      -4.248  83.117  -9.096  1.00  0.00     0.066 C 
ATOM      3  C   UNL     1      -4.505  82.616  -7.622  1.00  0.00     0.021 C 
ATOM      4  C   UNL     1      -3.145  82.542  -6.887  1.00  0.00     0.009 C 
ATOM      5  C   UNL     1      -2.405  83.892  -7.048  1.00  0.00     0.035 C 
ATOM      6  C   UNL     1      -3.310  84.901  -7.813  1.00  0.00     0.066 C 
ATOM      7  O   UNL     1      -3.583  84.389  -9.118  1.00  0.00    -0.369 OA
ATOM      8  C   UNL     1      -4.649  85.066  -7.039  1.00  0.00     0.035 C 
ATOM      9  C   UNL     1      -5.336  83.688  -6.879  1.00  0.00     0.009 C 
ATOM     10  C   UNL     1      -2.603  86.253  -7.950  1.00  0.00     0.042 C 
ATOM     11  C   UNL     1      -5.580  83.259  -9.864  1.00  0.00     0.042 C 
ENDROOT
TORSDOF 0
ENDMDL
MODEL 5
REMARK VINA RESULT:    -3.721      0.984      3.296
REMARK INTER + INTRA:          -3.721
REMARK INTER:                  -3.721
REMARK INTRA:                   0.000
REMARK UNBOUND:                 0.000
REMARK SMILES CC1(C)O[C@]2(C)CC[C@H]1CC2
REMARK SMILES IDX 1 1 2 2 9 3 10 4 11 5 5 6 4 7 7 8 8 9 6 10 3 11
REMARK H PARENT
REMARK Flexibility Score: inf
ROOT
ATOM      1  C   UNL     1      -4.504  86.292  -9.340  1.00  0.00     0.042 C 
ATOM      2  C   UNL     1      -4.455  85.183  -8.266  1.00  0.00     0.066 C 
ATOM      3  C   UNL     1      -5.842  84.437  -8.171  1.00  0.00     0.021 C 
ATOM      4  C   UNL     1      -6.114  83.736  -9.523  1.00  0.00     0.009 C 
ATOM      5  C   UNL     1      -4.884  82.879  -9.910  1.00  0.00     0.035 C 
ATOM      6  C   UNL     1      -3.826  82.934  -8.770  1.00  0.00     0.066 C 
ATOM      7  O   UNL     1      -3.388  84.284  -8.601  1.00  0.00    -0.369 OA
ATOM      8  C   UNL     1      -4.480  82.441  -7.448  1.00  0.00     0.035 C 
ATOM      9  C   UNL     1      -5.720  83.308  -7.120  1.00  0.00     0.009 C 
ATOM     10  C   UNL     1      -2.616  82.063  -9.125  1.00  0.00     0.042 C 
ATOM     11  C   UNL     1      -4.107  85.860  -6.923  1.00  0.00     0.042 C 
ENDROOT
TORSDOF 0
ENDMDL
MODEL 6
REMARK VINA RESULT:    -3.712      7.534      8.690
REMARK INTER + INTRA:          -3.712
REMARK INTER:                  -3.712
REMARK INTRA:                   0.000
REMARK UNBOUND:                 0.000
REMARK SMILES CC1(C)O[C@]2(C)CC[C@H]1CC2
REMARK SMILES IDX 1 1 2 2 9 3 10 4 11 5 5 6 4 7 7 8 8 9 6 10 3 11
REMARK H PARENT
REMARK Flexibility Score: inf
ROOT
ATOM      1  C   UNL     1     -11.303  82.674  -7.296  1.00  0.00     0.042 C 
ATOM      2  C   UNL     1     -11.598  82.622  -8.811  1.00  0.00     0.066 C 
ATOM      3  C   UNL     1     -12.591  81.443  -9.146  1.00  0.00     0.021 C 
ATOM      4  C   UNL     1     -13.939  81.721  -8.438  1.00  0.00     0.009 C 
ATOM      5  C   UNL     1     -14.411  83.154  -8.787  1.00  0.00     0.035 C 
ATOM      6  C   UNL     1     -13.425  83.800  -9.803  1.00  0.00     0.066 C 
ATOM      7  O   UNL     1     -12.131  83.895  -9.205  1.00  0.00    -0.369 OA
ATOM      8  C   UNL     1     -13.338  82.898 -11.067  1.00  0.00     0.035 C 
ATOM      9  C   UNL     1     -12.892  81.471 -10.663  1.00  0.00     0.009 C 
ATOM     10  C   UNL     1     -13.899  85.207 -10.183  1.00  0.00     0.042 C 
ATOM     11  C   UNL     1     -10.250  82.422  -9.535  1.00  0.00     0.042 C 
ENDROOT
TORSDOF 0
ENDMDL
MODEL 7
REMARK VINA RESULT:    -3.671      7.242      8.735
REMARK INTER + INTRA:          -3.671
REMARK INTER:                  -3.671
REMARK INTRA:                   0.000
REMARK UNBOUND:                 0.000
REMARK SMILES CC1(C)O[C@]2(C)CC[C@H]1CC2
REMARK SMILES IDX 1 1 2 2 9 3 10 4 11 5 5 6 4 7 7 8 8 9 6 10 3 11
REMARK H PARENT
REMARK Flexibility Score: inf
ROOT
ATOM      1  C   UNL     1     -13.915  84.287 -10.328  1.00  0.00     0.042 C 
ATOM      2  C   UNL     1     -13.264  83.474  -9.187  1.00  0.00     0.066 C 
ATOM      3  C   UNL     1     -13.567  81.935  -9.356  1.00  0.00     0.021 C 
ATOM      4  C   UNL     1     -12.919  81.450 -10.675  1.00  0.00     0.009 C 
ATOM      5  C   UNL     1     -11.431  81.877 -10.700  1.00  0.00     0.035 C 
ATOM      6  C   UNL     1     -11.060  82.567  -9.355  1.00  0.00     0.066 C 
ATOM      7  O   UNL     1     -11.854  83.744  -9.197  1.00  0.00    -0.369 OA
ATOM      8  C   UNL     1     -11.359  81.588  -8.185  1.00  0.00     0.035 C 
ATOM      9  C   UNL     1     -12.849  81.167  -8.220  1.00  0.00     0.009 C 
ATOM     10  C   UNL     1      -9.581  82.965  -9.352  1.00  0.00     0.042 C 
ATOM     11  C   UNL     1     -13.844  84.002  -7.858  1.00  0.00     0.042 C 
ENDROOT
TORSDOF 0
ENDMDL
MODEL 8
REMARK VINA RESULT:    -3.626      7.861      9.297
REMARK INTER + INTRA:          -3.626
REMARK INTER:                  -3.626
REMARK INTRA:                   0.000
REMARK UNBOUND:                 0.000
REMARK SMILES CC1(C)O[C@]2(C)CC[C@H]1CC2
REMARK SMILES IDX 1 1 2 2 9 3 10 4 11 5 5 6 4 7 7 8 8 9 6 10 3 11
REMARK H PARENT
REMARK Flexibility Score: inf
ROOT
ATOM      1  C   UNL     1     -13.605  82.396 -12.131  1.00  0.00     0.042 C 
ATOM      2  C   UNL     1     -12.652  82.332 -10.918  1.00  0.00     0.066 C 
ATOM      3  C   UNL     1     -12.463  83.762 -10.281  1.00  0.00     0.021 C 
ATOM      4  C   UNL     1     -13.832  84.245  -9.747  1.00  0.00     0.009 C 
ATOM      5  C   UNL     1     -14.440  83.150  -8.837  1.00  0.00     0.035 C 
ATOM      6  C   UNL     1     -13.434  81.971  -8.689  1.00  0.00     0.066 C 
ATOM      7  O   UNL     1     -13.194  81.396  -9.974  1.00  0.00    -0.369 OA
ATOM      8  C   UNL     1     -12.095  82.519  -8.117  1.00  0.00     0.035 C 
ATOM      9  C   UNL     1     -11.543  83.630  -9.043  1.00  0.00     0.009 C 
ATOM     10  C   UNL     1     -14.009  80.894  -7.764  1.00  0.00     0.042 C 
ATOM     11  C   UNL     1     -11.303  81.777 -11.423  1.00  0.00     0.042 C 
ENDROOT
TORSDOF 0
ENDMDL
MODEL 9
REMARK VINA RESULT:    -3.490      6.954      8.388
REMARK INTER + INTRA:          -3.490
REMARK INTER:                  -3.490
REMARK INTRA:                   0.000
REMARK UNBOUND:                 0.000
REMARK SMILES CC1(C)O[C@]2(C)CC[C@H]1CC2
REMARK SMILES IDX 1 1 2 2 9 3 10 4 11 5 5 6 4 7 7 8 8 9 6 10 3 11
REMARK H PARENT
REMARK Flexibility Score: inf
ROOT
ATOM      1  C   UNL     1     -10.374  84.139  -8.405  1.00  0.00     0.042 C 
ATOM      2  C   UNL     1     -11.160  82.820  -8.570  1.00  0.00     0.066 C 
ATOM      3  C   UNL     1     -12.676  83.023  -8.185  1.00  0.00     0.021 C 
ATOM      4  C   UNL     1     -13.300  84.039  -9.170  1.00  0.00     0.009 C 
ATOM      5  C   UNL     1     -13.001  83.592 -10.622  1.00  0.00     0.035 C 
ATOM      6  C   UNL     1     -12.256  82.225 -10.608  1.00  0.00     0.066 C 
ATOM      7  O   UNL     1     -11.009  82.378  -9.927  1.00  0.00    -0.369 OA
ATOM      8  C   UNL     1     -13.126  81.182  -9.851  1.00  0.00     0.035 C 
ATOM      9  C   UNL     1     -13.423  81.688  -8.418  1.00  0.00     0.009 C 
ATOM     10  C   UNL     1     -11.982  81.754 -12.039  1.00  0.00     0.042 C 
ATOM     11  C   UNL     1     -10.498  81.774  -7.649  1.00  0.00     0.042 C 
ENDROOT
TORSDOF 0
ENDMDL
