MODEL 1
REMARK VINA RESULT:    -5.377      0.000      0.000
REMARK INTER + INTRA:          -7.454
REMARK INTER:                  -6.792
REMARK INTRA:                  -0.663
REMARK UNBOUND:                -0.663
REMARK SMILES Oc1cc(O)cc(CCc2ccccc2O)c1
REMARK SMILES IDX 9 1 10 2 12 3 13 4 11 5 14 6 15 7 16 8 8 10 7 11 6 12 17 13
REMARK SMILES IDX 4 14 2 15 3 16 5 17 1 19
REMARK H PARENT 16 9 5 18 1 20
REMARK Flexibility Score: inf
ROOT
ATOM      1  C   UNL     1      32.900  -7.738 -23.930  1.00  0.00     0.044 C 
ENDROOT
BRANCH   1   2
ATOM      2  C   UNL     1      33.201  -6.429 -23.239  1.00  0.00    -0.006 A 
ATOM      3  C   UNL     1      33.110  -5.087 -21.209  1.00  0.00     0.001 A 
ATOM      4  C   UNL     1      33.693  -4.014 -21.884  1.00  0.00     0.004 A 
ATOM      5  C   UNL     1      32.862  -6.285 -21.881  1.00  0.00     0.007 A 
ATOM      6  C   UNL     1      34.022  -4.135 -23.235  1.00  0.00     0.046 A 
ATOM      7  C   UNL     1      33.775  -5.329 -23.925  1.00  0.00     0.118 A 
BRANCH   7   8
ATOM      8  O   UNL     1      34.105  -5.381 -25.281  1.00  0.00    -0.508 OA
ATOM      9  H   UNL     1      33.565  -4.927 -26.006  1.00  0.00     0.293 HD
ENDBRANCH   7   8
ENDBRANCH   1   2
BRANCH   1  10
ATOM     10  C   UNL     1      31.455  -8.171 -23.669  1.00  0.00     0.040 C 
BRANCH  10  11
ATOM     11  C   UNL     1      30.515  -7.473 -24.615  1.00  0.00    -0.040 A 
ATOM     12  C   UNL     1      30.953  -7.096 -25.895  1.00  0.00     0.050 A 
ATOM     13  C   UNL     1      29.178  -7.247 -24.249  1.00  0.00     0.050 A 
ATOM     14  C   UNL     1      30.074  -6.478 -26.790  1.00  0.00     0.119 A 
ATOM     15  C   UNL     1      28.296  -6.628 -25.145  1.00  0.00     0.119 A 
ATOM     16  C   UNL     1      28.745  -6.242 -26.412  1.00  0.00     0.092 A 
BRANCH  14  17
ATOM     17  O   UNL     1      30.528  -6.105 -28.053  1.00  0.00    -0.508 OA
ATOM     18  H   UNL     1      30.992  -6.765 -28.665  1.00  0.00     0.293 HD
ENDBRANCH  14  17
BRANCH  15  19
ATOM     19  O   UNL     1      26.970  -6.393 -24.785  1.00  0.00    -0.508 OA
ATOM     20  H   UNL     1      26.571  -5.462 -24.808  1.00  0.00     0.293 HD
ENDBRANCH  15  19
ENDBRANCH  10  11
ENDBRANCH   1  10
TORSDOF 6
ENDMDL
MODEL 2
REMARK VINA RESULT:    -5.331      1.992      3.218
REMARK INTER + INTRA:          -7.396
REMARK INTER:                  -6.845
REMARK INTRA:                  -0.551
REMARK UNBOUND:                -0.663
REMARK SMILES Oc1cc(O)cc(CCc2ccccc2O)c1
REMARK SMILES IDX 9 1 10 2 12 3 13 4 11 5 14 6 15 7 16 8 8 10 7 11 6 12 17 13
REMARK SMILES IDX 4 14 2 15 3 16 5 17 1 19
REMARK H PARENT 16 9 5 18 1 20
REMARK Flexibility Score: inf
ROOT
ATOM      1  C   UNL     1      32.213  -7.095 -21.913  1.00  0.00     0.044 C 
ENDROOT
BRANCH   1   2
ATOM      2  C   UNL     1      32.866  -5.922 -21.221  1.00  0.00    -0.006 A 
ATOM      3  C   UNL     1      33.936  -3.742 -21.399  1.00  0.00     0.001 A 
ATOM      4  C   UNL     1      34.124  -3.713 -20.017  1.00  0.00     0.004 A 
ATOM      5  C   UNL     1      33.316  -4.839 -21.998  1.00  0.00     0.007 A 
ATOM      6  C   UNL     1      33.698  -4.786 -19.232  1.00  0.00     0.046 A 
ATOM      7  C   UNL     1      33.077  -5.897 -19.819  1.00  0.00     0.118 A 
BRANCH   7   8
ATOM      8  O   UNL     1      32.693  -6.948 -18.984  1.00  0.00    -0.508 OA
ATOM      9  H   UNL     1      33.333  -7.653 -18.642  1.00  0.00     0.293 HD
ENDBRANCH   7   8
ENDBRANCH   1   2
BRANCH   1  10
ATOM     10  C   UNL     1      32.765  -7.264 -23.332  1.00  0.00     0.040 C 
BRANCH  10  11
ATOM     11  C   UNL     1      31.656  -7.168 -24.345  1.00  0.00    -0.040 A 
ATOM     12  C   UNL     1      30.369  -7.632 -24.030  1.00  0.00     0.050 A 
ATOM     13  C   UNL     1      31.885  -6.561 -25.591  1.00  0.00     0.050 A 
ATOM     14  C   UNL     1      29.328  -7.514 -24.956  1.00  0.00     0.119 A 
ATOM     15  C   UNL     1      30.843  -6.442 -26.521  1.00  0.00     0.119 A 
ATOM     16  C   UNL     1      29.568  -6.921 -26.203  1.00  0.00     0.092 A 
BRANCH  14  17
ATOM     17  O   UNL     1      28.059  -7.987 -24.628  1.00  0.00    -0.508 OA
ATOM     18  H   UNL     1      27.458  -7.487 -23.983  1.00  0.00     0.293 HD
ENDBRANCH  14  17
BRANCH  15  19
ATOM     19  O   UNL     1      31.064  -5.848 -27.761  1.00  0.00    -0.508 OA
ATOM     20  H   UNL     1      30.664  -4.947 -27.996  1.00  0.00     0.293 HD
ENDBRANCH  15  19
ENDBRANCH  10  11
ENDBRANCH   1  10
TORSDOF 6
ENDMDL
MODEL 3
REMARK VINA RESULT:    -5.305      3.578      5.172
REMARK INTER + INTRA:          -7.363
REMARK INTER:                  -6.842
REMARK INTRA:                  -0.521
REMARK UNBOUND:                -0.663
REMARK SMILES Oc1cc(O)cc(CCc2ccccc2O)c1
REMARK SMILES IDX 9 1 10 2 12 3 13 4 11 5 14 6 15 7 16 8 8 10 7 11 6 12 17 13
REMARK SMILES IDX 4 14 2 15 3 16 5 17 1 19
REMARK H PARENT 16 9 5 18 1 20
REMARK Flexibility Score: inf
ROOT
ATOM      1  C   UNL     1      29.047  -4.300 -23.890  1.00  0.00     0.044 C 
ENDROOT
BRANCH   1   2
ATOM      2  C   UNL     1      29.150  -2.812 -24.127  1.00  0.00    -0.006 A 
ATOM      3  C   UNL     1      30.562  -0.868 -24.526  1.00  0.00     0.001 A 
ATOM      4  C   UNL     1      29.437  -0.045 -24.538  1.00  0.00     0.004 A 
ATOM      5  C   UNL     1      30.422  -2.241 -24.318  1.00  0.00     0.007 A 
ATOM      6  C   UNL     1      28.169  -0.591 -24.335  1.00  0.00     0.046 A 
ATOM      7  C   UNL     1      28.012  -1.967 -24.121  1.00  0.00     0.118 A 
BRANCH   7   8
ATOM      8  O   UNL     1      26.720  -2.451 -23.901  1.00  0.00    -0.508 OA
ATOM      9  H   UNL     1      25.909  -1.856 -23.799  1.00  0.00     0.293 HD
ENDBRANCH   7   8
ENDBRANCH   1   2
BRANCH   1  10
ATOM     10  C   UNL     1      30.193  -4.789 -23.000  1.00  0.00     0.040 C 
BRANCH  10  11
ATOM     11  C   UNL     1      30.835  -6.016 -23.591  1.00  0.00    -0.040 A 
ATOM     12  C   UNL     1      30.239  -6.669 -24.682  1.00  0.00     0.050 A 
ATOM     13  C   UNL     1      32.063  -6.483 -23.095  1.00  0.00     0.050 A 
ATOM     14  C   UNL     1      30.849  -7.789 -25.256  1.00  0.00     0.119 A 
ATOM     15  C   UNL     1      32.676  -7.605 -23.668  1.00  0.00     0.119 A 
ATOM     16  C   UNL     1      32.067  -8.258 -24.745  1.00  0.00     0.092 A 
BRANCH  14  17
ATOM     17  O   UNL     1      30.238  -8.428 -26.333  1.00  0.00    -0.508 OA
ATOM     18  H   UNL     1      29.321  -8.150 -26.662  1.00  0.00     0.293 HD
ENDBRANCH  14  17
BRANCH  15  19
ATOM     19  O   UNL     1      33.891  -8.078 -23.177  1.00  0.00    -0.508 OA
ATOM     20  H   UNL     1      34.438  -8.763 -23.685  1.00  0.00     0.293 HD
ENDBRANCH  15  19
ENDBRANCH  10  11
ENDBRANCH   1  10
TORSDOF 6
ENDMDL
MODEL 4
REMARK VINA RESULT:    -5.303      0.314      2.058
REMARK INTER + INTRA:          -7.361
REMARK INTER:                  -6.706
REMARK INTRA:                  -0.655
REMARK UNBOUND:                -0.663
REMARK SMILES Oc1cc(O)cc(CCc2ccccc2O)c1
REMARK SMILES IDX 9 1 10 2 12 3 13 4 11 5 14 6 15 7 16 8 8 10 7 11 6 12 17 13
REMARK SMILES IDX 4 14 2 15 3 16 5 17 1 19
REMARK H PARENT 16 9 5 18 1 20
REMARK Flexibility Score: inf
ROOT
ATOM      1  C   UNL     1      32.983  -7.571 -23.627  1.00  0.00     0.044 C 
ENDROOT
BRANCH   1   2
ATOM      2  C   UNL     1      33.274  -6.271 -22.914  1.00  0.00    -0.006 A 
ATOM      3  C   UNL     1      33.220  -4.981 -20.849  1.00  0.00     0.001 A 
ATOM      4  C   UNL     1      33.750  -3.877 -21.517  1.00  0.00     0.004 A 
ATOM      5  C   UNL     1      32.978  -6.168 -21.542  1.00  0.00     0.007 A 
ATOM      6  C   UNL     1      34.035  -3.957 -22.881  1.00  0.00     0.046 A 
ATOM      7  C   UNL     1      33.794  -5.140 -23.592  1.00  0.00     0.118 A 
BRANCH   7   8
ATOM      8  O   UNL     1      34.078  -5.151 -24.959  1.00  0.00    -0.508 OA
ATOM      9  H   UNL     1      34.941  -4.803 -25.355  1.00  0.00     0.293 HD
ENDBRANCH   7   8
ENDBRANCH   1   2
BRANCH   1  10
ATOM     10  C   UNL     1      31.542  -8.021 -23.370  1.00  0.00     0.040 C 
BRANCH  10  11
ATOM     11  C   UNL     1      30.617  -7.451 -24.412  1.00  0.00    -0.040 A 
ATOM     12  C   UNL     1      29.259  -7.247 -24.115  1.00  0.00     0.050 A 
ATOM     13  C   UNL     1      31.114  -7.065 -25.667  1.00  0.00     0.050 A 
ATOM     14  C   UNL     1      28.403  -6.687 -25.070  1.00  0.00     0.119 A 
ATOM     15  C   UNL     1      30.258  -6.504 -26.624  1.00  0.00     0.119 A 
ATOM     16  C   UNL     1      28.905  -6.318 -26.326  1.00  0.00     0.092 A 
BRANCH  14  17
ATOM     17  O   UNL     1      27.058  -6.500 -24.760  1.00  0.00    -0.508 OA
ATOM     18  H   UNL     1      26.504  -7.236 -24.338  1.00  0.00     0.293 HD
ENDBRANCH  14  17
BRANCH  15  19
ATOM     19  O   UNL     1      30.743  -6.125 -27.874  1.00  0.00    -0.508 OA
ATOM     20  H   UNL     1      30.914  -5.153 -28.104  1.00  0.00     0.293 HD
ENDBRANCH  15  19
ENDBRANCH  10  11
ENDBRANCH   1  10
TORSDOF 6
ENDMDL
MODEL 5
REMARK VINA RESULT:    -5.283      1.857      2.359
REMARK INTER + INTRA:          -7.336
REMARK INTER:                  -6.815
REMARK INTRA:                  -0.521
REMARK UNBOUND:                -0.663
REMARK SMILES Oc1cc(O)cc(CCc2ccccc2O)c1
REMARK SMILES IDX 9 1 10 2 12 3 13 4 11 5 14 6 15 7 16 8 8 10 7 11 6 12 17 13
REMARK SMILES IDX 4 14 2 15 3 16 5 17 1 19
REMARK H PARENT 16 9 5 18 1 20
REMARK Flexibility Score: inf
ROOT
ATOM      1  C   UNL     1      32.137  -7.204 -21.961  1.00  0.00     0.044 C 
ENDROOT
BRANCH   1   2
ATOM      2  C   UNL     1      32.820  -5.952 -21.466  1.00  0.00    -0.006 A 
ATOM      3  C   UNL     1      33.773  -3.770 -21.976  1.00  0.00     0.001 A 
ATOM      4  C   UNL     1      34.125  -3.602 -20.638  1.00  0.00     0.004 A 
ATOM      5  C   UNL     1      33.129  -4.937 -22.391  1.00  0.00     0.007 A 
ATOM      6  C   UNL     1      33.840  -4.606 -19.710  1.00  0.00     0.046 A 
ATOM      7  C   UNL     1      33.199  -5.785 -20.110  1.00  0.00     0.118 A 
BRANCH   7   8
ATOM      8  O   UNL     1      32.962  -6.762 -19.141  1.00  0.00    -0.508 OA
ATOM      9  H   UNL     1      33.630  -7.480 -18.894  1.00  0.00     0.293 HD
ENDBRANCH   7   8
ENDBRANCH   1   2
BRANCH   1  10
ATOM     10  C   UNL     1      32.594  -7.548 -23.382  1.00  0.00     0.040 C 
BRANCH  10  11
ATOM     11  C   UNL     1      31.497  -7.265 -24.373  1.00  0.00    -0.040 A 
ATOM     12  C   UNL     1      31.802  -6.686 -25.616  1.00  0.00     0.050 A 
ATOM     13  C   UNL     1      30.172  -7.630 -24.089  1.00  0.00     0.050 A 
ATOM     14  C   UNL     1      30.790  -6.451 -26.554  1.00  0.00     0.119 A 
ATOM     15  C   UNL     1      29.157  -7.396 -25.027  1.00  0.00     0.119 A 
ATOM     16  C   UNL     1      29.467  -6.806 -26.256  1.00  0.00     0.092 A 
BRANCH  14  17
ATOM     17  O   UNL     1      31.110  -5.869 -27.778  1.00  0.00    -0.508 OA
ATOM     18  H   UNL     1      32.071  -5.781 -28.088  1.00  0.00     0.293 HD
ENDBRANCH  14  17
BRANCH  15  19
ATOM     19  O   UNL     1      27.839  -7.750 -24.748  1.00  0.00    -0.508 OA
ATOM     20  H   UNL     1      27.285  -8.291 -25.402  1.00  0.00     0.293 HD
ENDBRANCH  15  19
ENDBRANCH  10  11
ENDBRANCH   1  10
TORSDOF 6
ENDMDL
MODEL 6
REMARK VINA RESULT:    -5.223      3.329      6.745
REMARK INTER + INTRA:          -7.260
REMARK INTER:                  -6.782
REMARK INTRA:                  -0.478
REMARK UNBOUND:                -0.663
REMARK SMILES Oc1cc(O)cc(CCc2ccccc2O)c1
REMARK SMILES IDX 9 1 10 2 12 3 13 4 11 5 14 6 15 7 16 8 8 10 7 11 6 12 17 13
REMARK SMILES IDX 4 14 2 15 3 16 5 17 1 19
REMARK H PARENT 16 9 5 18 1 20
REMARK Flexibility Score: inf
ROOT
ATOM      1  C   UNL     1      32.727  -4.550 -22.427  1.00  0.00     0.044 C 
ENDROOT
BRANCH   1   2
ATOM      2  C   UNL     1      32.676  -5.849 -23.197  1.00  0.00    -0.006 A 
ATOM      3  C   UNL     1      31.987  -8.182 -23.285  1.00  0.00     0.001 A 
ATOM      4  C   UNL     1      32.567  -8.314 -24.546  1.00  0.00     0.004 A 
ATOM      5  C   UNL     1      32.044  -6.961 -22.612  1.00  0.00     0.007 A 
ATOM      6  C   UNL     1      33.213  -7.225 -25.134  1.00  0.00     0.046 A 
ATOM      7  C   UNL     1      33.282  -5.993 -24.471  1.00  0.00     0.118 A 
BRANCH   7   8
ATOM      8  O   UNL     1      33.961  -4.948 -25.101  1.00  0.00    -0.508 OA
ATOM      9  H   UNL     1      34.177  -4.936 -26.088  1.00  0.00     0.293 HD
ENDBRANCH   7   8
ENDBRANCH   1   2
BRANCH   1  10
ATOM     10  C   UNL     1      34.125  -4.318 -21.845  1.00  0.00     0.040 C 
BRANCH  10  11
ATOM     11  C   UNL     1      34.107  -4.477 -20.348  1.00  0.00    -0.040 A 
ATOM     12  C   UNL     1      34.124  -3.345 -19.517  1.00  0.00     0.050 A 
ATOM     13  C   UNL     1      34.014  -5.754 -19.771  1.00  0.00     0.050 A 
ATOM     14  C   UNL     1      34.074  -3.487 -18.126  1.00  0.00     0.119 A 
ATOM     15  C   UNL     1      33.964  -5.899 -18.378  1.00  0.00     0.119 A 
ATOM     16  C   UNL     1      33.996  -4.766 -17.558  1.00  0.00     0.092 A 
BRANCH  14  17
ATOM     17  O   UNL     1      34.099  -2.352 -17.318  1.00  0.00    -0.508 OA
ATOM     18  H   UNL     1      34.968  -1.881 -17.095  1.00  0.00     0.293 HD
ENDBRANCH  14  17
BRANCH  15  19
ATOM     19  O   UNL     1      33.879  -7.163 -17.799  1.00  0.00    -0.508 OA
ATOM     20  H   UNL     1      34.281  -7.979 -18.246  1.00  0.00     0.293 HD
ENDBRANCH  15  19
ENDBRANCH  10  11
ENDBRANCH   1  10
TORSDOF 6
ENDMDL
MODEL 7
REMARK VINA RESULT:    -5.210      2.931      3.837
REMARK INTER + INTRA:          -7.243
REMARK INTER:                  -6.825
REMARK INTRA:                  -0.417
REMARK UNBOUND:                -0.663
REMARK SMILES Oc1cc(O)cc(CCc2ccccc2O)c1
REMARK SMILES IDX 9 1 10 2 12 3 13 4 11 5 14 6 15 7 16 8 8 10 7 11 6 12 17 13
REMARK SMILES IDX 4 14 2 15 3 16 5 17 1 19
REMARK H PARENT 16 9 5 18 1 20
REMARK Flexibility Score: inf
ROOT
ATOM      1  C   UNL     1      32.990  -6.117 -21.103  1.00  0.00     0.044 C 
ENDROOT
BRANCH   1   2
ATOM      2  C   UNL     1      33.292  -5.601 -19.716  1.00  0.00    -0.006 A 
ATOM      3  C   UNL     1      34.122  -3.793 -18.312  1.00  0.00     0.001 A 
ATOM      4  C   UNL     1      33.917  -4.573 -17.174  1.00  0.00     0.004 A 
ATOM      5  C   UNL     1      33.817  -4.303 -19.574  1.00  0.00     0.007 A 
ATOM      6  C   UNL     1      33.412  -5.868 -17.297  1.00  0.00     0.046 A 
ATOM      7  C   UNL     1      33.105  -6.397 -18.558  1.00  0.00     0.118 A 
BRANCH   7   8
ATOM      8  O   UNL     1      32.625  -7.707 -18.618  1.00  0.00    -0.508 OA
ATOM      9  H   UNL     1      32.268  -8.133 -19.463  1.00  0.00     0.293 HD
ENDBRANCH   7   8
ENDBRANCH   1   2
BRANCH   1  10
ATOM     10  C   UNL     1      32.428  -5.001 -21.988  1.00  0.00     0.040 C 
BRANCH  10  11
ATOM     11  C   UNL     1      31.511  -5.570 -23.038  1.00  0.00    -0.040 A 
ATOM     12  C   UNL     1      31.905  -6.691 -23.786  1.00  0.00     0.050 A 
ATOM     13  C   UNL     1      30.234  -5.022 -23.236  1.00  0.00     0.050 A 
ATOM     14  C   UNL     1      31.042  -7.244 -24.739  1.00  0.00     0.119 A 
ATOM     15  C   UNL     1      29.368  -5.574 -24.190  1.00  0.00     0.119 A 
ATOM     16  C   UNL     1      29.774  -6.681 -24.941  1.00  0.00     0.092 A 
BRANCH  14  17
ATOM     17  O   UNL     1      31.453  -8.351 -25.477  1.00  0.00    -0.508 OA
ATOM     18  H   UNL     1      32.425  -8.490 -25.726  1.00  0.00     0.293 HD
ENDBRANCH  14  17
BRANCH  15  19
ATOM     19  O   UNL     1      28.102  -5.030 -24.397  1.00  0.00    -0.508 OA
ATOM     20  H   UNL     1      27.608  -4.542 -23.659  1.00  0.00     0.293 HD
ENDBRANCH  15  19
ENDBRANCH  10  11
ENDBRANCH   1  10
TORSDOF 6
ENDMDL
MODEL 8
REMARK VINA RESULT:    -5.185      2.937      4.141
REMARK INTER + INTRA:          -7.212
REMARK INTER:                  -6.663
REMARK INTRA:                  -0.549
REMARK UNBOUND:                -0.663
REMARK SMILES Oc1cc(O)cc(CCc2ccccc2O)c1
REMARK SMILES IDX 9 1 10 2 12 3 13 4 11 5 14 6 15 7 16 8 8 10 7 11 6 12 17 13
REMARK SMILES IDX 4 14 2 15 3 16 5 17 1 19
REMARK H PARENT 16 9 5 18 1 20
REMARK Flexibility Score: inf
ROOT
ATOM      1  C   UNL     1      33.904  -4.510 -21.241  1.00  0.00     0.044 C 
ENDROOT
BRANCH   1   2
ATOM      2  C   UNL     1      33.897  -4.607 -19.733  1.00  0.00    -0.006 A 
ATOM      3  C   UNL     1      33.721  -6.005 -17.747  1.00  0.00     0.001 A 
ATOM      4  C   UNL     1      33.836  -4.877 -16.935  1.00  0.00     0.004 A 
ATOM      5  C   UNL     1      33.747  -5.873 -19.136  1.00  0.00     0.007 A 
ATOM      6  C   UNL     1      33.969  -3.612 -17.511  1.00  0.00     0.046 A 
ATOM      7  C   UNL     1      33.992  -3.462 -18.903  1.00  0.00     0.118 A 
BRANCH   7   8
ATOM      8  O   UNL     1      34.105  -2.170 -19.420  1.00  0.00    -0.508 OA
ATOM      9  H   UNL     1      33.314  -1.558 -19.575  1.00  0.00     0.293 HD
ENDBRANCH   7   8
ENDBRANCH   1   2
BRANCH   1  10
ATOM     10  C   UNL     1      34.122  -5.888 -21.873  1.00  0.00     0.040 C 
BRANCH  10  11
ATOM     11  C   UNL     1      32.994  -6.222 -22.812  1.00  0.00    -0.040 A 
ATOM     12  C   UNL     1      33.089  -7.337 -23.661  1.00  0.00     0.050 A 
ATOM     13  C   UNL     1      31.815  -5.460 -22.804  1.00  0.00     0.050 A 
ATOM     14  C   UNL     1      32.029  -7.672 -24.511  1.00  0.00     0.119 A 
ATOM     15  C   UNL     1      30.752  -5.793 -23.655  1.00  0.00     0.119 A 
ATOM     16  C   UNL     1      30.861  -6.896 -24.507  1.00  0.00     0.092 A 
BRANCH  14  17
ATOM     17  O   UNL     1      32.144  -8.776 -25.351  1.00  0.00    -0.508 OA
ATOM     18  H   UNL     1      32.810  -8.793 -26.115  1.00  0.00     0.293 HD
ENDBRANCH  14  17
BRANCH  15  19
ATOM     19  O   UNL     1      29.582  -5.036 -23.658  1.00  0.00    -0.508 OA
ATOM     20  H   UNL     1      29.606  -4.023 -23.637  1.00  0.00     0.293 HD
ENDBRANCH  15  19
ENDBRANCH  10  11
ENDBRANCH   1  10
TORSDOF 6
ENDMDL
MODEL 9
REMARK VINA RESULT:    -4.612      2.868      4.729
REMARK INTER + INTRA:          -6.488
REMARK INTER:                  -6.054
REMARK INTRA:                  -0.434
REMARK UNBOUND:                -0.663
REMARK SMILES Oc1cc(O)cc(CCc2ccccc2O)c1
REMARK SMILES IDX 9 1 10 2 12 3 13 4 11 5 14 6 15 7 16 8 8 10 7 11 6 12 17 13
REMARK SMILES IDX 4 14 2 15 3 16 5 17 1 19
REMARK H PARENT 16 9 5 18 1 20
REMARK Flexibility Score: inf
ROOT
ATOM      1  C   UNL     1      34.088  -5.608 -20.900  1.00  0.00     0.044 C 
ENDROOT
BRANCH   1   2
ATOM      2  C   UNL     1      33.707  -5.208 -19.494  1.00  0.00    -0.006 A 
ATOM      3  C   UNL     1      33.783  -3.542 -17.720  1.00  0.00     0.001 A 
ATOM      4  C   UNL     1      33.071  -4.396 -16.878  1.00  0.00     0.004 A 
ATOM      5  C   UNL     1      34.103  -3.945 -19.017  1.00  0.00     0.007 A 
ATOM      6  C   UNL     1      32.684  -5.659 -17.329  1.00  0.00     0.046 A 
ATOM      7  C   UNL     1      33.001  -6.081 -18.627  1.00  0.00     0.118 A 
BRANCH   7   8
ATOM      8  O   UNL     1      32.607  -7.363 -19.014  1.00  0.00    -0.508 OA
ATOM      9  H   UNL     1      31.788  -7.551 -19.576  1.00  0.00     0.293 HD
ENDBRANCH   7   8
ENDBRANCH   1   2
BRANCH   1  10
ATOM     10  C   UNL     1      33.145  -4.967 -21.922  1.00  0.00     0.040 C 
BRANCH  10  11
ATOM     11  C   UNL     1      32.728  -5.975 -22.961  1.00  0.00    -0.040 A 
ATOM     12  C   UNL     1      31.413  -6.468 -22.978  1.00  0.00     0.050 A 
ATOM     13  C   UNL     1      33.631  -6.384 -23.955  1.00  0.00     0.050 A 
ATOM     14  C   UNL     1      31.012  -7.378 -23.962  1.00  0.00     0.119 A 
ATOM     15  C   UNL     1      33.232  -7.296 -24.941  1.00  0.00     0.119 A 
ATOM     16  C   UNL     1      31.925  -7.793 -24.942  1.00  0.00     0.092 A 
BRANCH  14  17
ATOM     17  O   UNL     1      29.706  -7.862 -23.958  1.00  0.00    -0.508 OA
ATOM     18  H   UNL     1      28.910  -7.239 -24.038  1.00  0.00     0.293 HD
ENDBRANCH  14  17
BRANCH  15  19
ATOM     19  O   UNL     1      34.125  -7.712 -25.926  1.00  0.00    -0.508 OA
ATOM     20  H   UNL     1      34.655  -8.572 -25.832  1.00  0.00     0.293 HD
ENDBRANCH  15  19
ENDBRANCH  10  11
ENDBRANCH   1  10
TORSDOF 6
ENDMDL
