MODEL 1
REMARK VINA RESULT:    -2.557      0.000      0.000
REMARK INTER + INTRA:          -4.160
REMARK INTER:                  -3.603
REMARK INTRA:                  -0.557
REMARK UNBOUND:                -0.557
REMARK SMILES CCCCCCCCC=O
REMARK SMILES IDX 5 1 4 2 3 3 2 4 1 5 6 6 7 7 8 8 9 9 10 10
REMARK H PARENT
REMARK Flexibility Score: inf
ROOT
ATOM      1  C   UNL     1     142.842 146.267 141.242  1.00  0.00     0.000 C 
ENDROOT
BRANCH   1   2
ATOM      2  C   UNL     1     143.014 147.690 141.790  1.00  0.00    -0.000 C 
BRANCH   2   3
ATOM      3  C   UNL     1     142.326 148.757 140.919  1.00  0.00    -0.000 C 
BRANCH   3   4
ATOM      4  C   UNL     1     140.929 148.368 140.402  1.00  0.00    -0.003 C 
ATOM      5  C   UNL     1     139.842 148.489 141.470  1.00  0.00     0.004 C 
ENDBRANCH   3   4
ENDBRANCH   2   3
ENDBRANCH   1   2
BRANCH   1   6
ATOM      6  C   UNL     1     141.977 145.416 142.185  1.00  0.00     0.000 C 
BRANCH   6   7
ATOM      7  C   UNL     1     141.854 146.027 143.589  1.00  0.00     0.008 C 
BRANCH   7   8
ATOM      8  C   UNL     1     142.356 145.082 144.691  1.00  0.00     0.072 C 
BRANCH   8   9
ATOM      9  C   UNL     1     142.488 143.681 144.173  1.00  0.00     0.224 C 
ATOM     10  O   UNL     1     143.140 142.852 144.789  1.00  0.00    -0.303 OA
ENDBRANCH   8   9
ENDBRANCH   7   8
ENDBRANCH   6   7
ENDBRANCH   1   6
TORSDOF 7
ENDMDL
MODEL 2
REMARK VINA RESULT:    -2.485      7.992      9.687
REMARK INTER + INTRA:          -4.059
REMARK INTER:                  -3.201
REMARK INTRA:                  -0.857
REMARK UNBOUND:                -0.557
REMARK SMILES CCCCCCCCC=O
REMARK SMILES IDX 5 1 4 2 3 3 2 4 1 5 6 6 7 7 8 8 9 9 10 10
REMARK H PARENT
REMARK Flexibility Score: inf
ROOT
ATOM      1  C   UNL     1     148.121 141.654 140.848  1.00  0.00     0.000 C 
ENDROOT
BRANCH   1   2
ATOM      2  C   UNL     1     148.471 141.287 139.400  1.00  0.00    -0.000 C 
BRANCH   2   3
ATOM      3  C   UNL     1     149.623 140.270 139.299  1.00  0.00    -0.000 C 
BRANCH   3   4
ATOM      4  C   UNL     1     150.424 140.069 140.598  1.00  0.00    -0.003 C 
ATOM      5  C   UNL     1     150.794 138.608 140.853  1.00  0.00     0.004 C 
ENDBRANCH   3   4
ENDBRANCH   2   3
ENDBRANCH   1   2
BRANCH   1   6
ATOM      6  C   UNL     1     146.794 141.006 141.274  1.00  0.00     0.000 C 
BRANCH   6   7
ATOM      7  C   UNL     1     146.951 140.073 142.484  1.00  0.00     0.008 C 
BRANCH   7   8
ATOM      8  C   UNL     1     147.353 138.646 142.083  1.00  0.00     0.072 C 
BRANCH   8   9
ATOM      9  C   UNL     1     146.778 138.286 140.745  1.00  0.00     0.224 C 
ATOM     10  O   UNL     1     147.417 137.605 139.959  1.00  0.00    -0.303 OA
ENDBRANCH   8   9
ENDBRANCH   7   8
ENDBRANCH   6   7
ENDBRANCH   1   6
TORSDOF 7
ENDMDL
MODEL 3
REMARK VINA RESULT:    -2.439      7.853      9.870
REMARK INTER + INTRA:          -3.994
REMARK INTER:                  -3.638
REMARK INTRA:                  -0.356
REMARK UNBOUND:                -0.557
REMARK SMILES CCCCCCCCC=O
REMARK SMILES IDX 5 1 4 2 3 3 2 4 1 5 6 6 7 7 8 8 9 9 10 10
REMARK H PARENT
REMARK Flexibility Score: inf
ROOT
ATOM      1  C   UNL     1     138.929 138.919 143.778  1.00  0.00     0.000 C 
ENDROOT
BRANCH   1   2
ATOM      2  C   UNL     1     138.600 138.113 145.043  1.00  0.00    -0.000 C 
BRANCH   2   3
ATOM      3  C   UNL     1     138.913 136.613 144.898  1.00  0.00    -0.000 C 
BRANCH   3   4
ATOM      4  C   UNL     1     139.935 136.268 143.799  1.00  0.00    -0.003 C 
ATOM      5  C   UNL     1     139.462 135.147 142.874  1.00  0.00     0.004 C 
ENDBRANCH   3   4
ENDBRANCH   2   3
ENDBRANCH   1   2
BRANCH   1   6
ATOM      6  C   UNL     1     138.190 140.266 143.777  1.00  0.00     0.000 C 
BRANCH   6   7
ATOM      7  C   UNL     1     137.516 140.574 145.123  1.00  0.00     0.008 C 
BRANCH   7   8
ATOM      8  C   UNL     1     136.269 141.457 144.972  1.00  0.00     0.072 C 
BRANCH   8   9
ATOM      9  C   UNL     1     136.016 141.780 143.529  1.00  0.00     0.224 C 
ATOM     10  O   UNL     1     134.950 141.493 143.008  1.00  0.00    -0.303 OA
ENDBRANCH   8   9
ENDBRANCH   7   8
ENDBRANCH   6   7
ENDBRANCH   1   6
TORSDOF 7
ENDMDL
MODEL 4
REMARK VINA RESULT:    -2.438      2.287      4.711
REMARK INTER + INTRA:          -3.993
REMARK INTER:                  -3.500
REMARK INTRA:                  -0.493
REMARK UNBOUND:                -0.557
REMARK SMILES CCCCCCCCC=O
REMARK SMILES IDX 5 1 4 2 3 3 2 4 1 5 6 6 7 7 8 8 9 9 10 10
REMARK H PARENT
REMARK Flexibility Score: inf
ROOT
ATOM      1  C   UNL     1     140.762 146.179 140.237  1.00  0.00     0.000 C 
ENDROOT
BRANCH   1   2
ATOM      2  C   UNL     1     140.705 145.186 141.405  1.00  0.00    -0.000 C 
BRANCH   2   3
ATOM      3  C   UNL     1     141.980 145.201 142.269  1.00  0.00    -0.000 C 
BRANCH   3   4
ATOM      4  C   UNL     1     141.827 145.894 143.635  1.00  0.00    -0.003 C 
ATOM      5  C   UNL     1     142.533 145.148 144.767  1.00  0.00     0.004 C 
ENDBRANCH   3   4
ENDBRANCH   2   3
ENDBRANCH   1   2
BRANCH   1   6
ATOM      6  C   UNL     1     139.845 147.385 140.495  1.00  0.00     0.000 C 
BRANCH   6   7
ATOM      7  C   UNL     1     140.563 148.531 141.224  1.00  0.00     0.008 C 
BRANCH   7   8
ATOM      8  C   UNL     1     141.533 149.296 140.310  1.00  0.00     0.072 C 
BRANCH   8   9
ATOM      9  C   UNL     1     142.956 148.980 140.662  1.00  0.00     0.224 C 
ATOM     10  O   UNL     1     143.226 148.432 141.719  1.00  0.00    -0.303 OA
ENDBRANCH   8   9
ENDBRANCH   7   8
ENDBRANCH   6   7
ENDBRANCH   1   6
TORSDOF 7
ENDMDL
MODEL 5
REMARK VINA RESULT:    -2.429      7.150      8.648
REMARK INTER + INTRA:          -3.981
REMARK INTER:                  -3.452
REMARK INTRA:                  -0.529
REMARK UNBOUND:                -0.557
REMARK SMILES CCCCCCCCC=O
REMARK SMILES IDX 5 1 4 2 3 3 2 4 1 5 6 6 7 7 8 8 9 9 10 10
REMARK H PARENT
REMARK Flexibility Score: inf
ROOT
ATOM      1  C   UNL     1     145.346 141.006 141.380  1.00  0.00     0.000 C 
ENDROOT
BRANCH   1   2
ATOM      2  C   UNL     1     145.223 139.640 142.068  1.00  0.00    -0.000 C 
BRANCH   2   3
ATOM      3  C   UNL     1     146.036 139.549 143.373  1.00  0.00    -0.000 C 
BRANCH   3   4
ATOM      4  C   UNL     1     145.207 139.232 144.631  1.00  0.00    -0.003 C 
ATOM      5  C   UNL     1     143.716 139.065 144.338  1.00  0.00     0.004 C 
ENDBRANCH   3   4
ENDBRANCH   2   3
ENDBRANCH   1   2
BRANCH   1   6
ATOM      6  C   UNL     1     146.382 140.960 140.246  1.00  0.00     0.000 C 
BRANCH   6   7
ATOM      7  C   UNL     1     147.631 141.800 140.550  1.00  0.00     0.008 C 
BRANCH   7   8
ATOM      8  C   UNL     1     148.822 140.944 141.006  1.00  0.00     0.072 C 
BRANCH   8   9
ATOM      9  C   UNL     1     148.650 139.518 140.573  1.00  0.00     0.224 C 
ATOM     10  O   UNL     1     148.930 138.603 141.332  1.00  0.00    -0.303 OA
ENDBRANCH   8   9
ENDBRANCH   7   8
ENDBRANCH   6   7
ENDBRANCH   1   6
TORSDOF 7
ENDMDL
MODEL 6
REMARK VINA RESULT:    -2.420      8.835     10.003
REMARK INTER + INTRA:          -3.967
REMARK INTER:                  -3.398
REMARK INTRA:                  -0.569
REMARK UNBOUND:                -0.557
REMARK SMILES CCCCCCCCC=O
REMARK SMILES IDX 5 1 4 2 3 3 2 4 1 5 6 6 7 7 8 8 9 9 10 10
REMARK H PARENT
REMARK Flexibility Score: inf
ROOT
ATOM      1  C   UNL     1     135.330 140.591 140.835  1.00  0.00     0.000 C 
ENDROOT
BRANCH   1   2
ATOM      2  C   UNL     1     135.702 141.941 141.465  1.00  0.00    -0.000 C 
BRANCH   2   3
ATOM      3  C   UNL     1     135.120 142.126 142.878  1.00  0.00    -0.000 C 
BRANCH   3   4
ATOM      4  C   UNL     1     136.143 141.998 144.021  1.00  0.00    -0.003 C 
ATOM      5  C   UNL     1     137.582 142.239 143.565  1.00  0.00     0.004 C 
ENDBRANCH   3   4
ENDBRANCH   2   3
ENDBRANCH   1   2
BRANCH   1   6
ATOM      6  C   UNL     1     133.839 140.282 141.037  1.00  0.00     0.000 C 
BRANCH   6   7
ATOM      7  C   UNL     1     132.953 140.892 139.939  1.00  0.00     0.008 C 
BRANCH   7   8
ATOM      8  C   UNL     1     131.735 141.635 140.507  1.00  0.00     0.072 C 
BRANCH   8   9
ATOM      9  C   UNL     1     132.116 143.012 140.963  1.00  0.00     0.224 C 
ATOM     10  O   UNL     1     132.849 143.710 140.280  1.00  0.00    -0.303 OA
ENDBRANCH   8   9
ENDBRANCH   7   8
ENDBRANCH   6   7
ENDBRANCH   1   6
TORSDOF 7
ENDMDL
MODEL 7
REMARK VINA RESULT:    -2.380      8.581     10.648
REMARK INTER + INTRA:          -3.911
REMARK INTER:                  -3.409
REMARK INTRA:                  -0.502
REMARK UNBOUND:                -0.557
REMARK SMILES CCCCCCCCC=O
REMARK SMILES IDX 5 1 4 2 3 3 2 4 1 5 6 6 7 7 8 8 9 9 10 10
REMARK H PARENT
REMARK Flexibility Score: inf
ROOT
ATOM      1  C   UNL     1     140.071 135.750 144.327  1.00  0.00     0.000 C 
ENDROOT
BRANCH   1   2
ATOM      2  C   UNL     1     139.165 136.739 145.074  1.00  0.00    -0.000 C 
BRANCH   2   3
ATOM      3  C   UNL     1     139.677 138.189 145.012  1.00  0.00    -0.000 C 
BRANCH   3   4
ATOM      4  C   UNL     1     138.682 139.203 144.419  1.00  0.00    -0.003 C 
ATOM      5  C   UNL     1     138.766 139.302 142.896  1.00  0.00     0.004 C 
ENDBRANCH   3   4
ENDBRANCH   2   3
ENDBRANCH   1   2
BRANCH   1   6
ATOM      6  C   UNL     1     139.595 135.555 142.879  1.00  0.00     0.000 C 
BRANCH   6   7
ATOM      7  C   UNL     1     140.538 136.202 141.853  1.00  0.00     0.008 C 
BRANCH   7   8
ATOM      8  C   UNL     1     141.042 135.202 140.800  1.00  0.00     0.072 C 
BRANCH   8   9
ATOM      9  C   UNL     1     141.103 133.816 141.368  1.00  0.00     0.224 C 
ATOM     10  O   UNL     1     142.152 133.191 141.364  1.00  0.00    -0.303 OA
ENDBRANCH   8   9
ENDBRANCH   7   8
ENDBRANCH   6   7
ENDBRANCH   1   6
TORSDOF 7
ENDMDL
MODEL 8
REMARK VINA RESULT:    -2.358      8.255      9.042
REMARK INTER + INTRA:          -3.880
REMARK INTER:                  -3.311
REMARK INTRA:                  -0.569
REMARK UNBOUND:                -0.557
REMARK SMILES CCCCCCCCC=O
REMARK SMILES IDX 5 1 4 2 3 3 2 4 1 5 6 6 7 7 8 8 9 9 10 10
REMARK H PARENT
REMARK Flexibility Score: inf
ROOT
ATOM      1  C   UNL     1     135.323 140.609 140.742  1.00  0.00     0.000 C 
ENDROOT
BRANCH   1   2
ATOM      2  C   UNL     1     133.873 140.173 140.998  1.00  0.00    -0.000 C 
BRANCH   2   3
ATOM      3  C   UNL     1     132.876 140.783 139.996  1.00  0.00    -0.000 C 
BRANCH   3   4
ATOM      4  C   UNL     1     131.755 141.625 140.630  1.00  0.00    -0.003 C 
ATOM      5  C   UNL     1     132.191 143.055 140.952  1.00  0.00     0.004 C 
ENDBRANCH   3   4
ENDBRANCH   2   3
ENDBRANCH   1   2
BRANCH   1   6
ATOM      6  C   UNL     1     135.688 141.832 141.597  1.00  0.00     0.000 C 
BRANCH   6   7
ATOM      7  C   UNL     1     135.132 141.744 143.026  1.00  0.00     0.008 C 
BRANCH   7   8
ATOM      8  C   UNL     1     136.157 142.172 144.087  1.00  0.00     0.072 C 
BRANCH   8   9
ATOM      9  C   UNL     1     137.538 142.217 143.505  1.00  0.00     0.224 C 
ATOM     10  O   UNL     1     138.397 141.438 143.889  1.00  0.00    -0.303 OA
ENDBRANCH   8   9
ENDBRANCH   7   8
ENDBRANCH   6   7
ENDBRANCH   1   6
TORSDOF 7
ENDMDL
MODEL 9
REMARK VINA RESULT:    -2.311     10.259     12.414
REMARK INTER + INTRA:          -3.813
REMARK INTER:                  -3.250
REMARK INTRA:                  -0.563
REMARK UNBOUND:                -0.557
REMARK SMILES CCCCCCCCC=O
REMARK SMILES IDX 5 1 4 2 3 3 2 4 1 5 6 6 7 7 8 8 9 9 10 10
REMARK H PARENT
REMARK Flexibility Score: inf
ROOT
ATOM      1  C   UNL     1     140.890 135.645 140.922  1.00  0.00     0.000 C 
ENDROOT
BRANCH   1   2
ATOM      2  C   UNL     1     139.752 135.948 141.906  1.00  0.00    -0.000 C 
BRANCH   2   3
ATOM      3  C   UNL     1     139.915 135.222 143.255  1.00  0.00    -0.000 C 
BRANCH   3   4
ATOM      4  C   UNL     1     139.917 136.142 144.489  1.00  0.00    -0.003 C 
ATOM      5  C   UNL     1     139.193 137.467 144.248  1.00  0.00     0.004 C 
ENDBRANCH   3   4
ENDBRANCH   2   3
ENDBRANCH   1   2
BRANCH   1   6
ATOM      6  C   UNL     1     141.378 134.196 141.075  1.00  0.00     0.000 C 
BRANCH   6   7
ATOM      7  C   UNL     1     140.812 133.263 139.994  1.00  0.00     0.008 C 
BRANCH   7   8
ATOM      8  C   UNL     1     140.031 132.080 140.585  1.00  0.00     0.072 C 
BRANCH   8   9
ATOM      9  C   UNL     1     138.656 132.506 141.005  1.00  0.00     0.224 C 
ATOM     10  O   UNL     1     137.990 133.239 140.290  1.00  0.00    -0.303 OA
ENDBRANCH   8   9
ENDBRANCH   7   8
ENDBRANCH   6   7
ENDBRANCH   1   6
TORSDOF 7
ENDMDL
