MODEL 1
REMARK VINA RESULT:    -1.657      0.000      0.000
REMARK INTER + INTRA:          -2.684
REMARK INTER:                  -2.819
REMARK INTRA:                   0.135
REMARK UNBOUND:                 0.135
REMARK SMILES CCCCCCCCCCCCCC(=O)[O-]
REMARK SMILES IDX 8 1 9 2 10 3 11 4 12 5 13 6 14 7 15 8 16 9 7 10 6 11 5 12
REMARK SMILES IDX 4 13 3 14 2 15 1 16
REMARK H PARENT
REMARK Flexibility Score: inf
ROOT
ATOM      1  C   UNL     1      -6.028  34.825  19.205  1.00  0.00     0.000 C 
ENDROOT
BRANCH   1   2
ATOM      2  C   UNL     1      -5.089  34.078  18.245  1.00  0.00     0.000 C 
BRANCH   2   3
ATOM      3  C   UNL     1      -3.915  34.947  17.767  1.00  0.00     0.000 C 
BRANCH   3   4
ATOM      4  C   UNL     1      -4.077  35.415  16.313  1.00  0.00     0.000 C 
BRANCH   4   5
ATOM      5  C   UNL     1      -2.731  35.387  15.575  1.00  0.00     0.006 C 
BRANCH   5   6
ATOM      6  C   UNL     1      -2.597  36.536  14.566  1.00  0.00     0.053 C 
BRANCH   6   7
ATOM      7  C   UNL     1      -3.899  37.245  14.355  1.00  0.00     0.041 C 
ATOM      8  O   UNL     1      -4.886  36.628  13.875  1.00  0.00    -0.550 OA
ATOM      9  O   UNL     1      -4.013  38.597  14.657  1.00  0.00    -0.550 OA
ENDBRANCH   6   7
ENDBRANCH   5   6
ENDBRANCH   4   5
ENDBRANCH   3   4
ENDBRANCH   2   3
ENDBRANCH   1   2
BRANCH   1  10
ATOM     10  C   UNL     1      -5.293  35.981  19.899  1.00  0.00     0.000 C 
BRANCH  10  11
ATOM     11  C   UNL     1      -5.586  36.052  21.407  1.00  0.00    -0.000 C 
BRANCH  11  12
ATOM     12  C   UNL     1      -6.118  34.721  21.968  1.00  0.00    -0.000 C 
BRANCH  12  13
ATOM     13  C   UNL     1      -5.479  34.352  23.318  1.00  0.00    -0.000 C 
BRANCH  13  14
ATOM     14  C   UNL     1      -6.118  35.095  24.501  1.00  0.00    -0.000 C 
BRANCH  14  15
ATOM     15  C   UNL     1      -5.644  36.551  24.553  1.00  0.00    -0.003 C 
ATOM     16  C   UNL     1      -5.032  36.884  25.910  1.00  0.00     0.004 C 
ENDBRANCH  14  15
ENDBRANCH  13  14
ENDBRANCH  12  13
ENDBRANCH  11  12
ENDBRANCH  10  11
ENDBRANCH   1  10
TORSDOF 12
ENDMDL
MODEL 2
REMARK VINA RESULT:    -0.940      1.494      2.549
REMARK INTER + INTRA:          -1.465
REMARK INTER:                  -1.233
REMARK INTRA:                  -0.232
REMARK UNBOUND:                 0.135
REMARK SMILES CCCCCCCCCCCCCC(=O)[O-]
REMARK SMILES IDX 8 1 9 2 10 3 11 4 12 5 13 6 14 7 15 8 16 9 7 10 6 11 5 12
REMARK SMILES IDX 4 13 3 14 2 15 1 16
REMARK H PARENT
REMARK Flexibility Score: inf
ROOT
ATOM      1  C   UNL     1      -4.748  37.538  20.030  1.00  0.00     0.000 C 
ENDROOT
BRANCH   1   2
ATOM      2  C   UNL     1      -5.696  36.396  19.629  1.00  0.00     0.000 C 
BRANCH   2   3
ATOM      3  C   UNL     1      -4.968  35.054  19.457  1.00  0.00     0.000 C 
BRANCH   3   4
ATOM      4  C   UNL     1      -4.836  34.634  17.985  1.00  0.00     0.000 C 
BRANCH   4   5
ATOM      5  C   UNL     1      -4.181  35.747  17.155  1.00  0.00     0.006 C 
BRANCH   5   6
ATOM      6  C   UNL     1      -3.137  35.200  16.170  1.00  0.00     0.053 C 
BRANCH   6   7
ATOM      7  C   UNL     1      -3.116  35.982  14.893  1.00  0.00     0.041 C 
ATOM      8  O   UNL     1      -2.043  36.110  14.247  1.00  0.00    -0.550 OA
ATOM      9  O   UNL     1      -4.274  36.598  14.433  1.00  0.00    -0.550 OA
ENDBRANCH   6   7
ENDBRANCH   5   6
ENDBRANCH   4   5
ENDBRANCH   3   4
ENDBRANCH   2   3
ENDBRANCH   1   2
BRANCH   1  10
ATOM     10  C   UNL     1      -5.534  38.719  20.619  1.00  0.00     0.000 C 
BRANCH  10  11
ATOM     11  C   UNL     1      -5.875  38.525  22.105  1.00  0.00    -0.000 C 
BRANCH  11  12
ATOM     12  C   UNL     1      -5.755  37.056  22.551  1.00  0.00    -0.000 C 
BRANCH  12  13
ATOM     13  C   UNL     1      -5.935  36.884  24.069  1.00  0.00    -0.000 C 
BRANCH  13  14
ATOM     14  C   UNL     1      -5.673  35.444  24.539  1.00  0.00    -0.000 C 
BRANCH  14  15
ATOM     15  C   UNL     1      -5.605  34.483  23.347  1.00  0.00    -0.003 C 
ATOM     16  C   UNL     1      -6.125  33.099  23.724  1.00  0.00     0.004 C 
ENDBRANCH  14  15
ENDBRANCH  13  14
ENDBRANCH  12  13
ENDBRANCH  11  12
ENDBRANCH  10  11
ENDBRANCH   1  10
TORSDOF 12
ENDMDL
MODEL 3
REMARK VINA RESULT:    -0.832      1.663      2.852
REMARK INTER + INTRA:          -1.280
REMARK INTER:                  -0.517
REMARK INTRA:                  -0.763
REMARK UNBOUND:                 0.135
REMARK SMILES CCCCCCCCCCCCCC(=O)[O-]
REMARK SMILES IDX 8 1 9 2 10 3 11 4 12 5 13 6 14 7 15 8 16 9 7 10 6 11 5 12
REMARK SMILES IDX 4 13 3 14 2 15 1 16
REMARK H PARENT
REMARK Flexibility Score: inf
ROOT
ATOM      1  C   UNL     1      -4.797  35.258  21.419  1.00  0.00     0.000 C 
ENDROOT
BRANCH   1   2
ATOM      2  C   UNL     1      -4.893  35.745  19.965  1.00  0.00     0.000 C 
BRANCH   2   3
ATOM      3  C   UNL     1      -5.608  34.738  19.049  1.00  0.00     0.000 C 
BRANCH   3   4
ATOM      4  C   UNL     1      -4.729  34.273  17.879  1.00  0.00     0.000 C 
BRANCH   4   5
ATOM      5  C   UNL     1      -4.149  35.474  17.118  1.00  0.00     0.006 C 
BRANCH   5   6
ATOM      6  C   UNL     1      -3.152  35.048  16.031  1.00  0.00     0.053 C 
BRANCH   6   7
ATOM      7  C   UNL     1      -3.081  36.049  14.920  1.00  0.00     0.041 C 
ATOM      8  O   UNL     1      -2.023  36.175  14.249  1.00  0.00    -0.550 OA
ATOM      9  O   UNL     1      -4.171  36.866  14.647  1.00  0.00    -0.550 OA
ENDBRANCH   6   7
ENDBRANCH   5   6
ENDBRANCH   4   5
ENDBRANCH   3   4
ENDBRANCH   2   3
ENDBRANCH   1   2
BRANCH   1  10
ATOM     10  C   UNL     1      -6.125  35.477  22.159  1.00  0.00     0.000 C 
BRANCH  10  11
ATOM     11  C   UNL     1      -6.024  35.178  23.664  1.00  0.00    -0.000 C 
BRANCH  11  12
ATOM     12  C   UNL     1      -6.002  36.457  24.520  1.00  0.00    -0.000 C 
BRANCH  12  13
ATOM     13  C   UNL     1      -5.013  37.507  23.986  1.00  0.00    -0.000 C 
BRANCH  13  14
ATOM     14  C   UNL     1      -5.630  38.911  23.892  1.00  0.00    -0.000 C 
BRANCH  14  15
ATOM     15  C   UNL     1      -5.139  39.642  22.638  1.00  0.00    -0.003 C 
ATOM     16  C   UNL     1      -5.584  38.922  21.368  1.00  0.00     0.004 C 
ENDBRANCH  14  15
ENDBRANCH  13  14
ENDBRANCH  12  13
ENDBRANCH  11  12
ENDBRANCH  10  11
ENDBRANCH   1  10
TORSDOF 12
ENDMDL
MODEL 4
REMARK VINA RESULT:    -0.470      2.818      7.341
REMARK INTER + INTRA:          -0.665
REMARK INTER:                  -0.734
REMARK INTRA:                   0.069
REMARK UNBOUND:                 0.135
REMARK SMILES CCCCCCCCCCCCCC(=O)[O-]
REMARK SMILES IDX 8 1 9 2 10 3 11 4 12 5 13 6 14 7 15 8 16 9 7 10 6 11 5 12
REMARK SMILES IDX 4 13 3 14 2 15 1 16
REMARK H PARENT
REMARK Flexibility Score: inf
ROOT
ATOM      1  C   UNL     1      -4.254  34.963  21.584  1.00  0.00     0.000 C 
ENDROOT
BRANCH   1   2
ATOM      2  C   UNL     1      -4.603  34.007  22.736  1.00  0.00     0.000 C 
BRANCH   2   3
ATOM      3  C   UNL     1      -5.972  34.312  23.366  1.00  0.00     0.000 C 
BRANCH   3   4
ATOM      4  C   UNL     1      -6.086  35.761  23.863  1.00  0.00     0.000 C 
BRANCH   4   5
ATOM      5  C   UNL     1      -6.123  36.744  22.684  1.00  0.00     0.006 C 
BRANCH   5   6
ATOM      6  C   UNL     1      -5.750  38.172  23.105  1.00  0.00     0.053 C 
BRANCH   6   7
ATOM      7  C   UNL     1      -5.571  39.071  21.921  1.00  0.00     0.041 C 
ATOM      8  O   UNL     1      -5.582  38.593  20.756  1.00  0.00    -0.550 OA
ATOM      9  O   UNL     1      -5.360  40.432  22.105  1.00  0.00    -0.550 OA
ENDBRANCH   6   7
ENDBRANCH   5   6
ENDBRANCH   4   5
ENDBRANCH   3   4
ENDBRANCH   2   3
ENDBRANCH   1   2
BRANCH   1  10
ATOM     10  C   UNL     1      -4.823  34.446  20.254  1.00  0.00     0.000 C 
BRANCH  10  11
ATOM     11  C   UNL     1      -4.714  35.479  19.120  1.00  0.00    -0.000 C 
BRANCH  11  12
ATOM     12  C   UNL     1      -4.496  34.824  17.744  1.00  0.00    -0.000 C 
BRANCH  12  13
ATOM     13  C   UNL     1      -4.015  35.826  16.682  1.00  0.00    -0.000 C 
BRANCH  13  14
ATOM     14  C   UNL     1      -2.970  35.228  15.729  1.00  0.00    -0.000 C 
BRANCH  14  15
ATOM     15  C   UNL     1      -2.744  36.141  14.520  1.00  0.00    -0.003 C 
ATOM     16  C   UNL     1      -3.956  37.031  14.265  1.00  0.00     0.004 C 
ENDBRANCH  14  15
ENDBRANCH  13  14
ENDBRANCH  12  13
ENDBRANCH  11  12
ENDBRANCH  10  11
ENDBRANCH   1  10
TORSDOF 12
ENDMDL
MODEL 5
REMARK VINA RESULT:    -0.349      2.989      7.028
REMARK INTER + INTRA:          -0.459
REMARK INTER:                   0.662
REMARK INTRA:                  -1.121
REMARK UNBOUND:                 0.135
REMARK SMILES CCCCCCCCCCCCCC(=O)[O-]
REMARK SMILES IDX 8 1 9 2 10 3 11 4 12 5 13 6 14 7 15 8 16 9 7 10 6 11 5 12
REMARK SMILES IDX 4 13 3 14 2 15 1 16
REMARK H PARENT
REMARK Flexibility Score: inf
ROOT
ATOM      1  C   UNL     1      -5.983  34.541  24.463  1.00  0.00     0.000 C 
ENDROOT
BRANCH   1   2
ATOM      2  C   UNL     1      -6.125  36.028  24.821  1.00  0.00     0.000 C 
BRANCH   2   3
ATOM      3  C   UNL     1      -5.059  36.502  25.822  1.00  0.00     0.000 C 
BRANCH   3   4
ATOM      4  C   UNL     1      -4.467  37.871  25.455  1.00  0.00     0.000 C 
BRANCH   4   5
ATOM      5  C   UNL     1      -5.327  38.573  24.394  1.00  0.00     0.006 C 
BRANCH   5   6
ATOM      6  C   UNL     1      -4.528  38.907  23.126  1.00  0.00     0.053 C 
BRANCH   6   7
ATOM      7  C   UNL     1      -5.387  39.554  22.084  1.00  0.00     0.041 C 
ATOM      8  O   UNL     1      -5.860  38.869  21.139  1.00  0.00    -0.550 OA
ATOM      9  O   UNL     1      -5.637  40.920  22.136  1.00  0.00    -0.550 OA
ENDBRANCH   6   7
ENDBRANCH   5   6
ENDBRANCH   4   5
ENDBRANCH   3   4
ENDBRANCH   2   3
ENDBRANCH   1   2
BRANCH   1  10
ATOM     10  C   UNL     1      -6.059  34.335  22.943  1.00  0.00     0.000 C 
BRANCH  10  11
ATOM     11  C   UNL     1      -5.904  35.647  22.156  1.00  0.00    -0.000 C 
BRANCH  11  12
ATOM     12  C   UNL     1      -4.883  35.530  21.010  1.00  0.00    -0.000 C 
BRANCH  12  13
ATOM     13  C   UNL     1      -5.499  35.844  19.636  1.00  0.00    -0.000 C 
BRANCH  13  14
ATOM     14  C   UNL     1      -6.045  34.594  18.929  1.00  0.00    -0.000 C 
BRANCH  14  15
ATOM     15  C   UNL     1      -4.952  33.916  18.096  1.00  0.00    -0.003 C 
ATOM     16  C   UNL     1      -4.017  34.944  17.468  1.00  0.00     0.004 C 
ENDBRANCH  14  15
ENDBRANCH  13  14
ENDBRANCH  12  13
ENDBRANCH  11  12
ENDBRANCH  10  11
ENDBRANCH   1  10
TORSDOF 12
ENDMDL
MODEL 6
REMARK VINA RESULT:    -0.094      5.291      8.024
REMARK INTER + INTRA:          -0.025
REMARK INTER:                   1.140
REMARK INTRA:                  -1.165
REMARK UNBOUND:                 0.135
REMARK SMILES CCCCCCCCCCCCCC(=O)[O-]
REMARK SMILES IDX 8 1 9 2 10 3 11 4 12 5 13 6 14 7 15 8 16 9 7 10 6 11 5 12
REMARK SMILES IDX 4 13 3 14 2 15 1 16
REMARK H PARENT
REMARK Flexibility Score: inf
ROOT
ATOM      1  C   UNL     1      -4.700  33.840  22.679  1.00  0.00     0.000 C 
ENDROOT
BRANCH   1   2
ATOM      2  C   UNL     1      -5.848  34.207  23.634  1.00  0.00     0.000 C 
BRANCH   2   3
ATOM      3  C   UNL     1      -6.125  35.719  23.674  1.00  0.00     0.000 C 
BRANCH   3   4
ATOM      4  C   UNL     1      -5.910  36.324  25.069  1.00  0.00     0.000 C 
BRANCH   4   5
ATOM      5  C   UNL     1      -4.429  36.267  25.469  1.00  0.00     0.006 C 
BRANCH   5   6
ATOM      6  C   UNL     1      -4.031  37.427  26.392  1.00  0.00     0.053 C 
BRANCH   6   7
ATOM      7  C   UNL     1      -2.658  37.238  26.960  1.00  0.00     0.041 C 
ATOM      8  O   UNL     1      -1.751  38.077  26.716  1.00  0.00    -0.550 OA
ATOM      9  O   UNL     1      -2.370  36.119  27.731  1.00  0.00    -0.550 OA
ENDBRANCH   6   7
ENDBRANCH   5   6
ENDBRANCH   4   5
ENDBRANCH   3   4
ENDBRANCH   2   3
ENDBRANCH   1   2
BRANCH   1  10
ATOM     10  C   UNL     1      -4.209  35.078  21.914  1.00  0.00     0.000 C 
BRANCH  10  11
ATOM     11  C   UNL     1      -4.477  34.988  20.402  1.00  0.00    -0.000 C 
BRANCH  11  12
ATOM     12  C   UNL     1      -5.609  35.925  19.947  1.00  0.00    -0.000 C 
BRANCH  12  13
ATOM     13  C   UNL     1      -5.089  37.290  19.468  1.00  0.00    -0.000 C 
BRANCH  13  14
ATOM     14  C   UNL     1      -5.745  38.468  20.205  1.00  0.00    -0.000 C 
BRANCH  14  15
ATOM     15  C   UNL     1      -5.364  38.466  21.689  1.00  0.00    -0.003 C 
ATOM     16  C   UNL     1      -5.373  39.879  22.264  1.00  0.00     0.004 C 
ENDBRANCH  14  15
ENDBRANCH  13  14
ENDBRANCH  12  13
ENDBRANCH  11  12
ENDBRANCH  10  11
ENDBRANCH   1  10
TORSDOF 12
ENDMDL
MODEL 7
REMARK VINA RESULT:     0.108      2.277      4.370
REMARK INTER + INTRA:           0.319
REMARK INTER:                   1.288
REMARK INTRA:                  -0.969
REMARK UNBOUND:                 0.135
REMARK SMILES CCCCCCCCCCCCCC(=O)[O-]
REMARK SMILES IDX 8 1 9 2 10 3 11 4 12 5 13 6 14 7 15 8 16 9 7 10 6 11 5 12
REMARK SMILES IDX 4 13 3 14 2 15 1 16
REMARK H PARENT
REMARK Flexibility Score: inf
ROOT
ATOM      1  C   UNL     1      -5.777  33.848  23.065  1.00  0.00     0.000 C 
ENDROOT
BRANCH   1   2
ATOM      2  C   UNL     1      -4.356  34.256  22.645  1.00  0.00     0.000 C 
BRANCH   2   3
ATOM      3  C   UNL     1      -4.342  35.151  21.395  1.00  0.00     0.000 C 
BRANCH   3   4
ATOM      4  C   UNL     1      -5.710  35.787  21.104  1.00  0.00     0.000 C 
BRANCH   4   5
ATOM      5  C   UNL     1      -5.970  35.858  19.593  1.00  0.00     0.006 C 
BRANCH   5   6
ATOM      6  C   UNL     1      -4.673  36.000  18.784  1.00  0.00     0.053 C 
BRANCH   6   7
ATOM      7  C   UNL     1      -4.504  34.880  17.805  1.00  0.00     0.041 C 
ATOM      8  O   UNL     1      -3.767  35.028  16.795  1.00  0.00    -0.550 OA
ATOM      9  O   UNL     1      -5.187  33.684  17.989  1.00  0.00    -0.550 OA
ENDBRANCH   6   7
ENDBRANCH   5   6
ENDBRANCH   4   5
ENDBRANCH   3   4
ENDBRANCH   2   3
ENDBRANCH   1   2
BRANCH   1  10
ATOM     10  C   UNL     1      -6.124  34.418  24.448  1.00  0.00     0.000 C 
BRANCH  10  11
ATOM     11  C   UNL     1      -6.124  35.956  24.474  1.00  0.00    -0.000 C 
BRANCH  11  12
ATOM     12  C   UNL     1      -5.019  36.531  25.377  1.00  0.00    -0.000 C 
BRANCH  12  13
ATOM     13  C   UNL     1      -5.070  38.065  25.469  1.00  0.00    -0.000 C 
BRANCH  13  14
ATOM     14  C   UNL     1      -4.464  38.755  24.237  1.00  0.00    -0.000 C 
BRANCH  14  15
ATOM     15  C   UNL     1      -5.557  39.391  23.372  1.00  0.00    -0.003 C 
ATOM     16  C   UNL     1      -5.411  38.984  21.909  1.00  0.00     0.004 C 
ENDBRANCH  14  15
ENDBRANCH  13  14
ENDBRANCH  12  13
ENDBRANCH  11  12
ENDBRANCH  10  11
ENDBRANCH   1  10
TORSDOF 12
ENDMDL
MODEL 8
REMARK VINA RESULT:     0.130      4.049      8.208
REMARK INTER + INTRA:           0.357
REMARK INTER:                   0.461
REMARK INTRA:                  -0.103
REMARK UNBOUND:                 0.135
REMARK SMILES CCCCCCCCCCCCCC(=O)[O-]
REMARK SMILES IDX 8 1 9 2 10 3 11 4 12 5 13 6 14 7 15 8 16 9 7 10 6 11 5 12
REMARK SMILES IDX 4 13 3 14 2 15 1 16
REMARK H PARENT
REMARK Flexibility Score: inf
ROOT
ATOM      1  C   UNL     1      -4.622  36.645  19.110  1.00  0.00     0.000 C 
ENDROOT
BRANCH   1   2
ATOM      2  C   UNL     1      -4.718  37.024  20.596  1.00  0.00     0.000 C 
BRANCH   2   3
ATOM      3  C   UNL     1      -5.819  38.060  20.874  1.00  0.00     0.000 C 
BRANCH   3   4
ATOM      4  C   UNL     1      -5.718  38.670  22.280  1.00  0.00     0.000 C 
BRANCH   4   5
ATOM      5  C   UNL     1      -5.341  37.601  23.316  1.00  0.00     0.006 C 
BRANCH   5   6
ATOM      6  C   UNL     1      -6.125  36.296  23.117  1.00  0.00     0.053 C 
BRANCH   6   7
ATOM      7  C   UNL     1      -5.848  35.310  24.209  1.00  0.00     0.041 C 
ATOM      8  O   UNL     1      -5.420  35.705  25.325  1.00  0.00    -0.550 OA
ATOM      9  O   UNL     1      -6.032  33.951  23.984  1.00  0.00    -0.550 OA
ENDBRANCH   6   7
ENDBRANCH   5   6
ENDBRANCH   4   5
ENDBRANCH   3   4
ENDBRANCH   2   3
ENDBRANCH   1   2
BRANCH   1  10
ATOM     10  C   UNL     1      -5.086  35.198  18.884  1.00  0.00     0.000 C 
BRANCH  10  11
ATOM     11  C   UNL     1      -4.718  34.667  17.488  1.00  0.00    -0.000 C 
BRANCH  11  12
ATOM     12  C   UNL     1      -3.375  35.222  16.981  1.00  0.00    -0.000 C 
BRANCH  12  13
ATOM     13  C   UNL     1      -3.323  35.332  15.448  1.00  0.00    -0.000 C 
BRANCH  13  14
ATOM     14  C   UNL     1      -3.201  36.783  14.960  1.00  0.00    -0.000 C 
BRANCH  14  15
ATOM     15  C   UNL     1      -4.387  37.162  14.066  1.00  0.00    -0.003 C 
ATOM     16  C   UNL     1      -4.563  38.675  13.993  1.00  0.00     0.004 C 
ENDBRANCH  14  15
ENDBRANCH  13  14
ENDBRANCH  12  13
ENDBRANCH  11  12
ENDBRANCH  10  11
ENDBRANCH   1  10
TORSDOF 12
ENDMDL
