MODEL 1
REMARK VINA RESULT:    -4.383      0.000      0.000
REMARK INTER + INTRA:          -9.524
REMARK INTER:                  -6.689
REMARK INTRA:                  -2.835
REMARK UNBOUND:                -2.835
REMARK SMILES CC(=O)CCC=C(C)CCC=C(C)CCC=C(C)C
REMARK SMILES IDX 10 1 11 2 12 3 13 4 14 5 15 6 16 7 18 8 17 9 19 10 9 11 7 12
REMARK SMILES IDX 6 13 8 14 5 15 4 16 2 17 3 18 1 19
REMARK H PARENT
REMARK Flexibility Score: inf
ROOT
ATOM      1  C   UNL     1       5.904   6.344  -9.984  1.00  0.00     0.032 C 
ENDROOT
BRANCH   1   2
ATOM      2  C   UNL     1       4.761   5.408  -9.662  1.00  0.00    -0.028 C 
ATOM      3  C   UNL     1       4.697   4.104 -10.016  1.00  0.00    -0.077 C 
ATOM      4  C   UNL     1       3.450   3.333  -9.665  1.00  0.00     0.039 C 
BRANCH   3   5
ATOM      5  C   UNL     1       5.819   3.386 -10.739  1.00  0.00     0.034 C 
BRANCH   5   6
ATOM      6  C   UNL     1       5.898   1.917 -10.306  1.00  0.00     0.032 C 
BRANCH   6   7
ATOM      7  C   UNL     1       6.817   1.746  -9.121  1.00  0.00    -0.028 C 
ATOM      8  C   UNL     1       8.962   1.328  -7.993  1.00  0.00     0.039 C 
ATOM      9  C   UNL     1       8.135   1.483  -9.243  1.00  0.00    -0.080 C 
ATOM     10  C   UNL     1       8.791   1.345 -10.596  1.00  0.00     0.039 C 
ENDBRANCH   6   7
ENDBRANCH   5   6
ENDBRANCH   3   5
ENDBRANCH   1   2
BRANCH   1  11
ATOM     11  C   UNL     1       6.755   6.639  -8.741  1.00  0.00     0.034 C 
BRANCH  11  12
ATOM     12  C   UNL     1       7.708   5.503  -8.413  1.00  0.00    -0.077 C 
ATOM     13  C   UNL     1       7.555   4.701  -7.334  1.00  0.00    -0.028 C 
ATOM     14  C   UNL     1       8.860   5.229  -9.346  1.00  0.00     0.039 C 
BRANCH  13  15
ATOM     15  C   UNL     1       6.488   4.862  -6.281  1.00  0.00     0.035 C 
BRANCH  15  16
ATOM     16  C   UNL     1       5.845   3.506  -5.952  1.00  0.00     0.079 C 
BRANCH  16  17
ATOM     17  C   UNL     1       6.772   2.526  -5.265  1.00  0.00     0.130 C 
ATOM     18  O   UNL     1       6.605   1.333  -5.464  1.00  0.00    -0.300 OA
ATOM     19  C   UNL     1       7.891   2.957  -4.357  1.00  0.00     0.087 C 
ENDBRANCH  16  17
ENDBRANCH  15  16
ENDBRANCH  13  15
ENDBRANCH  11  12
ENDBRANCH   1  11
TORSDOF 9
ENDMDL
MODEL 2
REMARK VINA RESULT:    -4.196     13.416     15.949
REMARK INTER + INTRA:          -9.238
REMARK INTER:                  -7.564
REMARK INTRA:                  -1.673
REMARK UNBOUND:                -2.835
REMARK SMILES CC(=O)CCC=C(C)CCC=C(C)CCC=C(C)C
REMARK SMILES IDX 10 1 11 2 12 3 13 4 14 5 15 6 16 7 18 8 17 9 19 10 9 11 7 12
REMARK SMILES IDX 6 13 8 14 5 15 4 16 2 17 3 18 1 19
REMARK H PARENT
REMARK Flexibility Score: inf
ROOT
ATOM      1  C   UNL     1      -6.420  11.003  -5.270  1.00  0.00     0.032 C 
ENDROOT
BRANCH   1   2
ATOM      2  C   UNL     1      -7.598  10.767  -4.352  1.00  0.00    -0.028 C 
ATOM      3  C   UNL     1      -8.665   9.985  -4.637  1.00  0.00    -0.077 C 
ATOM      4  C   UNL     1      -9.783   9.913  -3.628  1.00  0.00     0.039 C 
BRANCH   3   5
ATOM      5  C   UNL     1      -8.781   9.175  -5.913  1.00  0.00     0.034 C 
BRANCH   5   6
ATOM      6  C   UNL     1      -9.652   9.902  -6.945  1.00  0.00     0.032 C 
BRANCH   6   7
ATOM      7  C   UNL     1      -8.804  10.659  -7.938  1.00  0.00    -0.028 C 
ATOM      8  C   UNL     1      -7.815  12.659  -8.972  1.00  0.00     0.039 C 
ATOM      9  C   UNL     1      -8.686  12.004  -7.932  1.00  0.00    -0.080 C 
ATOM     10  C   UNL     1      -9.403  12.855  -6.911  1.00  0.00     0.039 C 
ENDBRANCH   6   7
ENDBRANCH   5   6
ENDBRANCH   3   5
ENDBRANCH   1   2
BRANCH   1  11
ATOM     11  C   UNL     1      -6.009  12.482  -5.286  1.00  0.00     0.034 C 
BRANCH  11  12
ATOM     12  C   UNL     1      -4.643  12.705  -4.660  1.00  0.00    -0.077 C 
ATOM     13  C   UNL     1      -3.483  12.496  -5.326  1.00  0.00    -0.028 C 
ATOM     14  C   UNL     1      -4.569  13.213  -3.242  1.00  0.00     0.039 C 
BRANCH  13  15
ATOM     15  C   UNL     1      -3.378  11.952  -6.728  1.00  0.00     0.035 C 
BRANCH  15  16
ATOM     16  C   UNL     1      -2.215  12.617  -7.479  1.00  0.00     0.079 C 
BRANCH  16  17
ATOM     17  C   UNL     1      -1.685  11.814  -8.647  1.00  0.00     0.130 C 
ATOM     18  O   UNL     1      -0.475  11.749  -8.804  1.00  0.00    -0.300 OA
ATOM     19  C   UNL     1      -2.579  11.087  -9.614  1.00  0.00     0.087 C 
ENDBRANCH  16  17
ENDBRANCH  15  16
ENDBRANCH  13  15
ENDBRANCH  11  12
ENDBRANCH   1  11
TORSDOF 9
ENDMDL
MODEL 3
REMARK VINA RESULT:    -4.135      1.467      4.192
REMARK INTER + INTRA:          -9.145
REMARK INTER:                  -6.584
REMARK INTRA:                  -2.561
REMARK UNBOUND:                -2.835
REMARK SMILES CC(=O)CCC=C(C)CCC=C(C)CCC=C(C)C
REMARK SMILES IDX 10 1 11 2 12 3 13 4 14 5 15 6 16 7 18 8 17 9 19 10 9 11 7 12
REMARK SMILES IDX 6 13 8 14 5 15 4 16 2 17 3 18 1 19
REMARK H PARENT
REMARK Flexibility Score: inf
ROOT
ATOM      1  C   UNL     1       7.808   4.348  -9.053  1.00  0.00     0.032 C 
ENDROOT
BRANCH   1   2
ATOM      2  C   UNL     1       7.583   5.165  -7.801  1.00  0.00    -0.028 C 
ATOM      3  C   UNL     1       6.694   4.870  -6.825  1.00  0.00    -0.077 C 
ATOM      4  C   UNL     1       6.557   5.833  -5.673  1.00  0.00     0.039 C 
BRANCH   3   5
ATOM      5  C   UNL     1       5.840   3.617  -6.834  1.00  0.00     0.034 C 
BRANCH   5   6
ATOM      6  C   UNL     1       6.282   2.646  -5.732  1.00  0.00     0.032 C 
BRANCH   6   7
ATOM      7  C   UNL     1       7.430   1.781  -6.196  1.00  0.00    -0.028 C 
ATOM      8  C   UNL     1       9.749   0.964  -6.222  1.00  0.00     0.039 C 
ATOM      9  C   UNL     1       8.675   1.874  -5.684  1.00  0.00    -0.080 C 
ATOM     10  C   UNL     1       9.009   2.863  -4.591  1.00  0.00     0.039 C 
ENDBRANCH   6   7
ENDBRANCH   5   6
ENDBRANCH   3   5
ENDBRANCH   1   2
BRANCH   1  11
ATOM     11  C   UNL     1       7.305   5.085 -10.302  1.00  0.00     0.034 C 
BRANCH  11  12
ATOM     12  C   UNL     1       5.789   5.164 -10.351  1.00  0.00    -0.077 C 
ATOM     13  C   UNL     1       5.004   4.096 -10.628  1.00  0.00    -0.028 C 
ATOM     14  C   UNL     1       5.120   6.480 -10.047  1.00  0.00     0.039 C 
BRANCH  13  15
ATOM     15  C   UNL     1       5.509   2.724 -10.994  1.00  0.00     0.035 C 
BRANCH  15  16
ATOM     16  C   UNL     1       5.061   1.688  -9.952  1.00  0.00     0.079 C 
BRANCH  16  17
ATOM     17  C   UNL     1       6.143   0.715  -9.535  1.00  0.00     0.130 C 
ATOM     18  O   UNL     1       5.826  -0.244  -8.848  1.00  0.00    -0.300 OA
ATOM     19  C   UNL     1       7.584   0.872  -9.934  1.00  0.00     0.087 C 
ENDBRANCH  16  17
ENDBRANCH  15  16
ENDBRANCH  13  15
ENDBRANCH  11  12
ENDBRANCH   1  11
TORSDOF 9
ENDMDL
MODEL 4
REMARK VINA RESULT:    -4.127      1.629      3.859
REMARK INTER + INTRA:          -9.133
REMARK INTER:                  -7.295
REMARK INTRA:                  -1.838
REMARK UNBOUND:                -2.835
REMARK SMILES CC(=O)CCC=C(C)CCC=C(C)CCC=C(C)C
REMARK SMILES IDX 10 1 11 2 12 3 13 4 14 5 15 6 16 7 18 8 17 9 19 10 9 11 7 12
REMARK SMILES IDX 6 13 8 14 5 15 4 16 2 17 3 18 1 19
REMARK H PARENT
REMARK Flexibility Score: inf
ROOT
ATOM      1  C   UNL     1       6.642   5.823  -7.240  1.00  0.00     0.032 C 
ENDROOT
BRANCH   1   2
ATOM      2  C   UNL     1       7.188   6.661  -8.373  1.00  0.00    -0.028 C 
ATOM      3  C   UNL     1       6.531   6.942  -9.523  1.00  0.00    -0.077 C 
ATOM      4  C   UNL     1       7.253   7.743 -10.576  1.00  0.00     0.039 C 
BRANCH   3   5
ATOM      5  C   UNL     1       5.108   6.497  -9.793  1.00  0.00     0.034 C 
BRANCH   5   6
ATOM      6  C   UNL     1       5.071   5.395 -10.860  1.00  0.00     0.032 C 
BRANCH   6   7
ATOM      7  C   UNL     1       5.761   4.144 -10.375  1.00  0.00    -0.028 C 
ATOM      8  C   UNL     1       5.893   1.919  -9.335  1.00  0.00     0.039 C 
ATOM      9  C   UNL     1       5.105   3.122  -9.785  1.00  0.00    -0.080 C 
ATOM     10  C   UNL     1       3.610   3.161  -9.572  1.00  0.00     0.039 C 
ENDBRANCH   6   7
ENDBRANCH   5   6
ENDBRANCH   3   5
ENDBRANCH   1   2
BRANCH   1  11
ATOM     11  C   UNL     1       7.446   4.527  -7.062  1.00  0.00     0.034 C 
BRANCH  11  12
ATOM     12  C   UNL     1       6.846   3.619  -6.003  1.00  0.00    -0.077 C 
ATOM     13  C   UNL     1       7.594   2.820  -5.206  1.00  0.00    -0.028 C 
ATOM     14  C   UNL     1       5.352   3.627  -5.801  1.00  0.00     0.039 C 
BRANCH  13  15
ATOM     15  C   UNL     1       9.090   2.660  -5.303  1.00  0.00     0.035 C 
BRANCH  15  16
ATOM     16  C   UNL     1       9.560   1.462  -4.464  1.00  0.00     0.079 C 
BRANCH  16  17
ATOM     17  C   UNL     1       9.662   0.163  -5.233  1.00  0.00     0.130 C 
ATOM     18  O   UNL     1       9.349  -0.872  -4.665  1.00  0.00    -0.300 OA
ATOM     19  C   UNL     1      10.124   0.091  -6.663  1.00  0.00     0.087 C 
ENDBRANCH  16  17
ENDBRANCH  15  16
ENDBRANCH  13  15
ENDBRANCH  11  12
ENDBRANCH   1  11
TORSDOF 9
ENDMDL
MODEL 5
REMARK VINA RESULT:    -4.109     13.197     15.853
REMARK INTER + INTRA:          -9.106
REMARK INTER:                  -7.427
REMARK INTRA:                  -1.679
REMARK UNBOUND:                -2.835
REMARK SMILES CC(=O)CCC=C(C)CCC=C(C)CCC=C(C)C
REMARK SMILES IDX 10 1 11 2 12 3 13 4 14 5 15 6 16 7 18 8 17 9 19 10 9 11 7 12
REMARK SMILES IDX 6 13 8 14 5 15 4 16 2 17 3 18 1 19
REMARK H PARENT
REMARK Flexibility Score: inf
ROOT
ATOM      1  C   UNL     1      -6.115  11.226  -4.981  1.00  0.00     0.032 C 
ENDROOT
BRANCH   1   2
ATOM      2  C   UNL     1      -5.515  12.226  -4.020  1.00  0.00    -0.028 C 
ATOM      3  C   UNL     1      -4.715  13.260  -4.367  1.00  0.00    -0.077 C 
ATOM      4  C   UNL     1      -4.153  14.125  -3.267  1.00  0.00     0.039 C 
BRANCH   3   5
ATOM      5  C   UNL     1      -4.367  13.591  -5.805  1.00  0.00     0.034 C 
BRANCH   5   6
ATOM      6  C   UNL     1      -3.015  12.981  -6.195  1.00  0.00     0.032 C 
BRANCH   6   7
ATOM      7  C   UNL     1      -3.159  12.044  -7.370  1.00  0.00    -0.028 C 
ATOM      8  C   UNL     1      -2.468  10.959  -9.467  1.00  0.00     0.039 C 
ATOM      9  C   UNL     1      -2.222  11.923  -8.335  1.00  0.00    -0.080 C 
ATOM     10  C   UNL     1      -0.944  12.727  -8.300  1.00  0.00     0.039 C 
ENDBRANCH   6   7
ENDBRANCH   5   6
ENDBRANCH   3   5
ENDBRANCH   1   2
BRANCH   1  11
ATOM     11  C   UNL     1      -7.641  11.375  -5.066  1.00  0.00     0.034 C 
BRANCH  11  12
ATOM     12  C   UNL     1      -8.224  10.636  -6.258  1.00  0.00    -0.077 C 
ATOM     13  C   UNL     1      -8.266  11.164  -7.504  1.00  0.00    -0.028 C 
ATOM     14  C   UNL     1      -8.754   9.239  -6.059  1.00  0.00     0.039 C 
BRANCH  13  15
ATOM     15  C   UNL     1      -7.821  12.558  -7.868  1.00  0.00     0.035 C 
BRANCH  15  16
ATOM     16  C   UNL     1      -6.489  12.517  -8.633  1.00  0.00     0.079 C 
BRANCH  16  17
ATOM     17  C   UNL     1      -6.632  12.576 -10.138  1.00  0.00     0.130 C 
ATOM     18  O   UNL     1      -7.501  13.293 -10.610  1.00  0.00    -0.300 OA
ATOM     19  C   UNL     1      -5.749  11.799 -11.076  1.00  0.00     0.087 C 
ENDBRANCH  16  17
ENDBRANCH  15  16
ENDBRANCH  13  15
ENDBRANCH  11  12
ENDBRANCH   1  11
TORSDOF 9
ENDMDL
MODEL 6
REMARK VINA RESULT:    -4.091      1.489      4.522
REMARK INTER + INTRA:          -9.078
REMARK INTER:                  -6.423
REMARK INTRA:                  -2.655
REMARK UNBOUND:                -2.835
REMARK SMILES CC(=O)CCC=C(C)CCC=C(C)CCC=C(C)C
REMARK SMILES IDX 10 1 11 2 12 3 13 4 14 5 15 6 16 7 18 8 17 9 19 10 9 11 7 12
REMARK SMILES IDX 6 13 8 14 5 15 4 16 2 17 3 18 1 19
REMARK H PARENT
REMARK Flexibility Score: inf
ROOT
ATOM      1  C   UNL     1       5.038   6.472 -10.017  1.00  0.00     0.032 C 
ENDROOT
BRANCH   1   2
ATOM      2  C   UNL     1       6.435   6.917  -9.649  1.00  0.00    -0.028 C 
ATOM      3  C   UNL     1       6.848   7.244  -8.402  1.00  0.00    -0.077 C 
ATOM      4  C   UNL     1       8.264   7.729  -8.227  1.00  0.00     0.039 C 
BRANCH   3   5
ATOM      5  C   UNL     1       5.956   7.138  -7.181  1.00  0.00     0.034 C 
BRANCH   5   6
ATOM      6  C   UNL     1       6.596   6.242  -6.113  1.00  0.00     0.032 C 
BRANCH   6   7
ATOM      7  C   UNL     1       6.399   4.782  -6.437  1.00  0.00    -0.028 C 
ATOM      8  C   UNL     1       6.550   2.359  -6.040  1.00  0.00     0.039 C 
ATOM      9  C   UNL     1       6.793   3.785  -5.616  1.00  0.00    -0.080 C 
ATOM     10  C   UNL     1       7.465   4.070  -4.294  1.00  0.00     0.039 C 
ENDBRANCH   6   7
ENDBRANCH   5   6
ENDBRANCH   3   5
ENDBRANCH   1   2
BRANCH   1  11
ATOM     11  C   UNL     1       5.061   5.191 -10.862  1.00  0.00     0.034 C 
BRANCH  11  12
ATOM     12  C   UNL     1       5.050   3.937 -10.005  1.00  0.00    -0.077 C 
ATOM     13  C   UNL     1       6.162   3.209  -9.750  1.00  0.00    -0.028 C 
ATOM     14  C   UNL     1       3.751   3.495  -9.382  1.00  0.00     0.039 C 
BRANCH  13  15
ATOM     15  C   UNL     1       7.528   3.486 -10.326  1.00  0.00     0.035 C 
BRANCH  15  16
ATOM     16  C   UNL     1       8.520   3.853  -9.212  1.00  0.00     0.079 C 
BRANCH  16  17
ATOM     17  C   UNL     1       9.256   2.672  -8.618  1.00  0.00     0.130 C 
ATOM     18  O   UNL     1       9.689   2.771  -7.481  1.00  0.00    -0.300 OA
ATOM     19  C   UNL     1       9.471   1.382  -9.362  1.00  0.00     0.087 C 
ENDBRANCH  16  17
ENDBRANCH  15  16
ENDBRANCH  13  15
ENDBRANCH  11  12
ENDBRANCH   1  11
TORSDOF 9
ENDMDL
MODEL 7
REMARK VINA RESULT:    -3.997      1.621      4.082
REMARK INTER + INTRA:          -8.935
REMARK INTER:                  -6.410
REMARK INTRA:                  -2.524
REMARK UNBOUND:                -2.835
REMARK SMILES CC(=O)CCC=C(C)CCC=C(C)CCC=C(C)C
REMARK SMILES IDX 10 1 11 2 12 3 13 4 14 5 15 6 16 7 18 8 17 9 19 10 9 11 7 12
REMARK SMILES IDX 6 13 8 14 5 15 4 16 2 17 3 18 1 19
REMARK H PARENT
REMARK Flexibility Score: inf
ROOT
ATOM      1  C   UNL     1       5.939   3.954  -8.274  1.00  0.00     0.032 C 
ENDROOT
BRANCH   1   2
ATOM      2  C   UNL     1       6.587   2.920  -9.166  1.00  0.00    -0.028 C 
ATOM      3  C   UNL     1       7.914   2.827  -9.418  1.00  0.00    -0.077 C 
ATOM      4  C   UNL     1       8.381   1.769 -10.385  1.00  0.00     0.039 C 
BRANCH   3   5
ATOM      5  C   UNL     1       8.944   3.730  -8.769  1.00  0.00     0.034 C 
BRANCH   5   6
ATOM      6  C   UNL     1       9.320   4.890  -9.699  1.00  0.00     0.032 C 
BRANCH   6   7
ATOM      7  C   UNL     1       8.687   6.181  -9.243  1.00  0.00    -0.028 C 
ATOM      8  C   UNL     1       7.098   8.055  -9.347  1.00  0.00     0.039 C 
ATOM      9  C   UNL     1       7.652   6.762  -9.886  1.00  0.00    -0.080 C 
ATOM     10  C   UNL     1       7.046   6.146 -11.124  1.00  0.00     0.039 C 
ENDBRANCH   6   7
ENDBRANCH   5   6
ENDBRANCH   3   5
ENDBRANCH   1   2
BRANCH   1  11
ATOM     11  C   UNL     1       6.007   3.543  -6.796  1.00  0.00     0.034 C 
BRANCH  11  12
ATOM     12  C   UNL     1       6.645   4.616  -5.931  1.00  0.00    -0.077 C 
ATOM     13  C   UNL     1       7.452   4.333  -4.882  1.00  0.00    -0.028 C 
ATOM     14  C   UNL     1       6.398   6.064  -6.269  1.00  0.00     0.039 C 
BRANCH  13  15
ATOM     15  C   UNL     1       7.768   2.946  -4.383  1.00  0.00     0.035 C 
BRANCH  15  16
ATOM     16  C   UNL     1       9.158   2.503  -4.862  1.00  0.00     0.079 C 
BRANCH  16  17
ATOM     17  C   UNL     1       9.208   1.097  -5.419  1.00  0.00     0.130 C 
ATOM     18  O   UNL     1       8.793   0.183  -4.724  1.00  0.00    -0.300 OA
ATOM     19  C   UNL     1       9.737   0.778  -6.791  1.00  0.00     0.087 C 
ENDBRANCH  16  17
ENDBRANCH  15  16
ENDBRANCH  13  15
ENDBRANCH  11  12
ENDBRANCH   1  11
TORSDOF 9
ENDMDL
MODEL 8
REMARK VINA RESULT:    -3.924      1.154      1.676
REMARK INTER + INTRA:          -8.824
REMARK INTER:                  -6.326
REMARK INTRA:                  -2.497
REMARK UNBOUND:                -2.835
REMARK SMILES CC(=O)CCC=C(C)CCC=C(C)CCC=C(C)C
REMARK SMILES IDX 10 1 11 2 12 3 13 4 14 5 15 6 16 7 18 8 17 9 19 10 9 11 7 12
REMARK SMILES IDX 6 13 8 14 5 15 4 16 2 17 3 18 1 19
REMARK H PARENT
REMARK Flexibility Score: inf
ROOT
ATOM      1  C   UNL     1       4.424   4.471 -11.030  1.00  0.00     0.032 C 
ENDROOT
BRANCH   1   2
ATOM      2  C   UNL     1       3.874   3.105 -10.689  1.00  0.00    -0.028 C 
ATOM      3  C   UNL     1       4.566   1.945 -10.755  1.00  0.00    -0.077 C 
ATOM      4  C   UNL     1       3.838   0.664 -10.438  1.00  0.00     0.039 C 
BRANCH   3   5
ATOM      5  C   UNL     1       6.035   1.878 -11.125  1.00  0.00     0.034 C 
BRANCH   5   6
ATOM      6  C   UNL     1       6.727   0.713 -10.406  1.00  0.00     0.032 C 
BRANCH   6   7
ATOM      7  C   UNL     1       7.520   1.200  -9.218  1.00  0.00    -0.028 C 
ATOM      8  C   UNL     1       9.451   2.207  -8.075  1.00  0.00     0.039 C 
ATOM      9  C   UNL     1       8.744   1.758  -9.328  1.00  0.00    -0.080 C 
ATOM     10  C   UNL     1       9.412   1.941 -10.670  1.00  0.00     0.039 C 
ENDBRANCH   6   7
ENDBRANCH   5   6
ENDBRANCH   3   5
ENDBRANCH   1   2
BRANCH   1  11
ATOM     11  C   UNL     1       4.937   5.198  -9.779  1.00  0.00     0.034 C 
BRANCH  11  12
ATOM     12  C   UNL     1       6.447   5.108  -9.641  1.00  0.00    -0.077 C 
ATOM     13  C   UNL     1       7.067   4.881  -8.459  1.00  0.00    -0.028 C 
ATOM     14  C   UNL     1       7.299   5.246 -10.877  1.00  0.00     0.039 C 
BRANCH  13  15
ATOM     15  C   UNL     1       6.372   4.763  -7.127  1.00  0.00     0.035 C 
BRANCH  15  16
ATOM     16  C   UNL     1       6.047   3.294  -6.816  1.00  0.00     0.079 C 
BRANCH  16  17
ATOM     17  C   UNL     1       6.640   2.785  -5.520  1.00  0.00     0.130 C 
ATOM     18  O   UNL     1       6.234   1.723  -5.075  1.00  0.00    -0.300 OA
ATOM     19  C   UNL     1       7.710   3.523  -4.763  1.00  0.00     0.087 C 
ENDBRANCH  16  17
ENDBRANCH  15  16
ENDBRANCH  13  15
ENDBRANCH  11  12
ENDBRANCH   1  11
TORSDOF 9
ENDMDL
MODEL 9
REMARK VINA RESULT:    -3.800      1.182      3.710
REMARK INTER + INTRA:          -8.634
REMARK INTER:                  -5.845
REMARK INTRA:                  -2.789
REMARK UNBOUND:                -2.835
REMARK SMILES CC(=O)CCC=C(C)CCC=C(C)CCC=C(C)C
REMARK SMILES IDX 10 1 11 2 12 3 13 4 14 5 15 6 16 7 18 8 17 9 19 10 9 11 7 12
REMARK SMILES IDX 6 13 8 14 5 15 4 16 2 17 3 18 1 19
REMARK H PARENT
REMARK Flexibility Score: inf
ROOT
ATOM      1  C   UNL     1       6.477   1.197 -10.739  1.00  0.00     0.032 C 
ENDROOT
BRANCH   1   2
ATOM      2  C   UNL     1       5.131   1.659 -10.231  1.00  0.00    -0.028 C 
ATOM      3  C   UNL     1       4.715   2.946 -10.179  1.00  0.00    -0.077 C 
ATOM      4  C   UNL     1       3.361   3.232  -9.582  1.00  0.00     0.039 C 
BRANCH   3   5
ATOM      5  C   UNL     1       5.542   4.104 -10.700  1.00  0.00     0.034 C 
BRANCH   5   6
ATOM      6  C   UNL     1       5.834   5.115  -9.584  1.00  0.00     0.032 C 
BRANCH   6   7
ATOM      7  C   UNL     1       7.251   5.628  -9.670  1.00  0.00    -0.028 C 
ATOM      8  C   UNL     1       9.277   6.757  -8.851  1.00  0.00     0.039 C 
ATOM      9  C   UNL     1       7.859   6.283  -8.658  1.00  0.00    -0.080 C 
ATOM     10  C   UNL     1       7.154   6.546  -7.349  1.00  0.00     0.039 C 
ENDBRANCH   6   7
ENDBRANCH   5   6
ENDBRANCH   3   5
ENDBRANCH   1   2
BRANCH   1  11
ATOM     11  C   UNL     1       7.497   1.076  -9.597  1.00  0.00     0.034 C 
BRANCH  11  12
ATOM     12  C   UNL     1       8.597   2.118  -9.696  1.00  0.00    -0.077 C 
ATOM     13  C   UNL     1       9.332   2.517  -8.632  1.00  0.00    -0.028 C 
ATOM     14  C   UNL     1       8.911   2.717 -11.043  1.00  0.00     0.039 C 
BRANCH  13  15
ATOM     15  C   UNL     1       9.122   2.052  -7.213  1.00  0.00     0.035 C 
BRANCH  15  16
ATOM     16  C   UNL     1       8.250   3.054  -6.441  1.00  0.00     0.079 C 
BRANCH  16  17
ATOM     17  C   UNL     1       6.863   2.548  -6.109  1.00  0.00     0.130 C 
ATOM     18  O   UNL     1       6.758   1.463  -5.557  1.00  0.00    -0.300 OA
ATOM     19  C   UNL     1       5.612   3.322  -6.422  1.00  0.00     0.087 C 
ENDBRANCH  16  17
ENDBRANCH  15  16
ENDBRANCH  13  15
ENDBRANCH  11  12
ENDBRANCH   1  11
TORSDOF 9
ENDMDL
