MODEL 1
REMARK VINA RESULT:    -2.916      0.000      0.000
REMARK INTER + INTRA:          -3.529
REMARK INTER:                  -3.427
REMARK INTRA:                  -0.102
REMARK UNBOUND:                -0.102
REMARK SMILES O=C([O-])CCC(=O)[O-]
REMARK SMILES IDX 4 1 2 2 1 3 3 4 5 5 6 6 7 7 8 8
REMARK H PARENT
REMARK Flexibility Score: inf
ROOT
ATOM      1  C   UNL     1      11.533  35.932  36.396  1.00  0.00     0.059 C 
ENDROOT
BRANCH   1   2
ATOM      2  C   UNL     1      11.092  36.688  37.608  1.00  0.00     0.042 C 
ATOM      3  O   UNL     1       9.875  36.964  37.776  1.00  0.00    -0.550 OA
ATOM      4  O   UNL     1      12.031  37.134  38.529  1.00  0.00    -0.550 OA
ENDBRANCH   1   2
BRANCH   1   5
ATOM      5  C   UNL     1      10.322  35.449  35.595  1.00  0.00     0.059 C 
BRANCH   5   6
ATOM      6  C   UNL     1      10.339  36.032  34.217  1.00  0.00     0.042 C 
ATOM      7  O   UNL     1       9.980  35.336  33.231  1.00  0.00    -0.550 OA
ATOM      8  O   UNL     1      10.704  37.358  34.028  1.00  0.00    -0.550 OA
ENDBRANCH   5   6
ENDBRANCH   1   5
TORSDOF 3
ENDMDL
MODEL 2
REMARK VINA RESULT:    -2.661      1.916      2.840
REMARK INTER + INTRA:          -3.229
REMARK INTER:                  -3.160
REMARK INTRA:                  -0.069
REMARK UNBOUND:                -0.102
REMARK SMILES O=C([O-])CCC(=O)[O-]
REMARK SMILES IDX 4 1 2 2 1 3 3 4 5 5 6 6 7 7 8 8
REMARK H PARENT
REMARK Flexibility Score: inf
ROOT
ATOM      1  C   UNL     1      12.073  37.344  38.397  1.00  0.00     0.059 C 
ENDROOT
BRANCH   1   2
ATOM      2  C   UNL     1      11.451  37.846  39.662  1.00  0.00     0.042 C 
ATOM      3  O   UNL     1      12.146  37.975  40.703  1.00  0.00    -0.550 OA
ATOM      4  O   UNL     1      10.091  38.125  39.704  1.00  0.00    -0.550 OA
ENDBRANCH   1   2
BRANCH   1   5
ATOM      5  C   UNL     1      11.347  37.918  37.179  1.00  0.00     0.059 C 
BRANCH   5   6
ATOM      6  C   UNL     1      11.109  36.848  36.160  1.00  0.00     0.042 C 
ATOM      7  O   UNL     1      10.882  37.155  34.960  1.00  0.00    -0.550 OA
ATOM      8  O   UNL     1      11.185  35.511  36.526  1.00  0.00    -0.550 OA
ENDBRANCH   5   6
ENDBRANCH   1   5
TORSDOF 3
ENDMDL
MODEL 3
REMARK VINA RESULT:    -2.444      1.911      4.747
REMARK INTER + INTRA:          -2.975
REMARK INTER:                  -2.942
REMARK INTRA:                  -0.033
REMARK UNBOUND:                -0.102
REMARK SMILES O=C([O-])CCC(=O)[O-]
REMARK SMILES IDX 4 1 2 2 1 3 3 4 5 5 6 6 7 7 8 8
REMARK H PARENT
REMARK Flexibility Score: inf
ROOT
ATOM      1  C   UNL     1      11.606  36.620  37.641  1.00  0.00     0.059 C 
ENDROOT
BRANCH   1   2
ATOM      2  C   UNL     1      11.211  36.665  36.199  1.00  0.00     0.042 C 
ATOM      3  O   UNL     1      11.148  37.766  35.593  1.00  0.00    -0.550 OA
ATOM      4  O   UNL     1      10.863  35.495  35.537  1.00  0.00    -0.550 OA
ENDBRANCH   1   2
BRANCH   1   5
ATOM      5  C   UNL     1      11.429  37.996  38.288  1.00  0.00     0.059 C 
BRANCH   5   6
ATOM      6  C   UNL     1      11.564  37.896  39.775  1.00  0.00     0.042 C 
ATOM      7  O   UNL     1      10.573  38.124  40.518  1.00  0.00    -0.550 OA
ATOM      8  O   UNL     1      12.770  37.504  40.339  1.00  0.00    -0.550 OA
ENDBRANCH   5   6
ENDBRANCH   1   5
TORSDOF 3
ENDMDL
MODEL 4
REMARK VINA RESULT:    -2.246     18.714     19.915
REMARK INTER + INTRA:          -2.742
REMARK INTER:                  -2.711
REMARK INTRA:                  -0.031
REMARK UNBOUND:                -0.102
REMARK SMILES O=C([O-])CCC(=O)[O-]
REMARK SMILES IDX 4 1 2 2 1 3 3 4 5 5 6 6 7 7 8 8
REMARK H PARENT
REMARK Flexibility Score: inf
ROOT
ATOM      1  C   UNL     1      28.930  36.545  43.211  1.00  0.00     0.059 C 
ENDROOT
BRANCH   1   2
ATOM      2  C   UNL     1      29.474  36.669  44.599  1.00  0.00     0.042 C 
ATOM      3  O   UNL     1      30.043  35.690  45.147  1.00  0.00    -0.550 OA
ATOM      4  O   UNL     1      29.307  37.853  45.307  1.00  0.00    -0.550 OA
ENDBRANCH   1   2
BRANCH   1   5
ATOM      5  C   UNL     1      29.949  37.054  42.189  1.00  0.00     0.059 C 
BRANCH   5   6
ATOM      6  C   UNL     1      29.281  37.335  40.880  1.00  0.00     0.042 C 
ATOM      7  O   UNL     1      29.849  38.063  40.023  1.00  0.00    -0.550 OA
ATOM      8  O   UNL     1      28.055  36.756  40.586  1.00  0.00    -0.550 OA
ENDBRANCH   5   6
ENDBRANCH   1   5
TORSDOF 3
ENDMDL
MODEL 5
REMARK VINA RESULT:    -2.161     10.257     11.207
REMARK INTER + INTRA:          -2.642
REMARK INTER:                  -2.546
REMARK INTRA:                  -0.095
REMARK UNBOUND:                -0.102
REMARK SMILES O=C([O-])CCC(=O)[O-]
REMARK SMILES IDX 4 1 2 2 1 3 3 4 5 5 6 6 7 7 8 8
REMARK H PARENT
REMARK Flexibility Score: inf
ROOT
ATOM      1  C   UNL     1      17.600  30.495  31.775  1.00  0.00     0.059 C 
ENDROOT
BRANCH   1   2
ATOM      2  C   UNL     1      17.738  29.116  31.212  1.00  0.00     0.042 C 
ATOM      3  O   UNL     1      16.715  28.434  30.944  1.00  0.00    -0.550 OA
ATOM      4  O   UNL     1      19.000  28.563  31.029  1.00  0.00    -0.550 OA
ENDBRANCH   1   2
BRANCH   1   5
ATOM      5  C   UNL     1      18.306  31.513  30.877  1.00  0.00     0.059 C 
BRANCH   5   6
ATOM      6  C   UNL     1      19.384  32.221  31.635  1.00  0.00     0.042 C 
ATOM      7  O   UNL     1      19.093  33.162  32.420  1.00  0.00    -0.550 OA
ATOM      8  O   UNL     1      20.705  31.810  31.513  1.00  0.00    -0.550 OA
ENDBRANCH   5   6
ENDBRANCH   1   5
TORSDOF 3
ENDMDL
MODEL 6
REMARK VINA RESULT:    -2.133      9.992     10.674
REMARK INTER + INTRA:          -2.609
REMARK INTER:                  -2.532
REMARK INTRA:                  -0.077
REMARK UNBOUND:                -0.102
REMARK SMILES O=C([O-])CCC(=O)[O-]
REMARK SMILES IDX 4 1 2 2 1 3 3 4 5 5 6 6 7 7 8 8
REMARK H PARENT
REMARK Flexibility Score: inf
ROOT
ATOM      1  C   UNL     1      18.150  30.828  31.196  1.00  0.00     0.059 C 
ENDROOT
BRANCH   1   2
ATOM      2  C   UNL     1      18.496  31.797  32.282  1.00  0.00     0.042 C 
ATOM      3  O   UNL     1      18.146  31.570  33.469  1.00  0.00    -0.550 OA
ATOM      4  O   UNL     1      19.163  32.976  31.975  1.00  0.00    -0.550 OA
ENDBRANCH   1   2
BRANCH   1   5
ATOM      5  C   UNL     1      17.087  29.839  31.679  1.00  0.00     0.059 C 
BRANCH   5   6
ATOM      6  C   UNL     1      17.454  28.443  31.287  1.00  0.00     0.042 C 
ATOM      7  O   UNL     1      18.664  28.099  31.227  1.00  0.00    -0.550 OA
ATOM      8  O   UNL     1      16.460  27.508  31.034  1.00  0.00    -0.550 OA
ENDBRANCH   5   6
ENDBRANCH   1   5
TORSDOF 3
ENDMDL
MODEL 7
REMARK VINA RESULT:    -2.128     16.106     17.548
REMARK INTER + INTRA:          -2.602
REMARK INTER:                  -2.506
REMARK INTRA:                  -0.096
REMARK UNBOUND:                -0.102
REMARK SMILES O=C([O-])CCC(=O)[O-]
REMARK SMILES IDX 4 1 2 2 1 3 3 4 5 5 6 6 7 7 8 8
REMARK H PARENT
REMARK Flexibility Score: inf
ROOT
ATOM      1  C   UNL     1      25.677  31.952  45.503  1.00  0.00     0.059 C 
ENDROOT
BRANCH   1   2
ATOM      2  C   UNL     1      26.078  31.814  44.068  1.00  0.00     0.042 C 
ATOM      3  O   UNL     1      26.470  30.704  43.623  1.00  0.00    -0.550 OA
ATOM      4  O   UNL     1      26.067  32.925  43.234  1.00  0.00    -0.550 OA
ENDBRANCH   1   2
BRANCH   1   5
ATOM      5  C   UNL     1      24.494  31.034  45.819  1.00  0.00     0.059 C 
BRANCH   5   6
ATOM      6  C   UNL     1      23.223  31.821  45.880  1.00  0.00     0.042 C 
ATOM      7  O   UNL     1      22.773  32.213  46.988  1.00  0.00    -0.550 OA
ATOM      8  O   UNL     1      22.560  32.162  44.709  1.00  0.00    -0.550 OA
ENDBRANCH   5   6
ENDBRANCH   1   5
TORSDOF 3
ENDMDL
MODEL 8
REMARK VINA RESULT:    -2.105     16.463     17.612
REMARK INTER + INTRA:          -2.576
REMARK INTER:                  -2.456
REMARK INTRA:                  -0.120
REMARK UNBOUND:                -0.102
REMARK SMILES O=C([O-])CCC(=O)[O-]
REMARK SMILES IDX 4 1 2 2 1 3 3 4 5 5 6 6 7 7 8 8
REMARK H PARENT
REMARK Flexibility Score: inf
ROOT
ATOM      1  C   UNL     1      24.558  31.693  46.235  1.00  0.00     0.059 C 
ENDROOT
BRANCH   1   2
ATOM      2  C   UNL     1      24.134  30.277  46.465  1.00  0.00     0.042 C 
ATOM      3  O   UNL     1      23.821  29.544  45.491  1.00  0.00    -0.550 OA
ATOM      4  O   UNL     1      24.038  29.781  47.759  1.00  0.00    -0.550 OA
ENDBRANCH   1   2
BRANCH   1   5
ATOM      5  C   UNL     1      25.659  31.758  45.174  1.00  0.00     0.059 C 
BRANCH   5   6
ATOM      6  C   UNL     1      25.160  32.452  43.946  1.00  0.00     0.042 C 
ATOM      7  O   UNL     1      25.975  32.888  43.090  1.00  0.00    -0.550 OA
ATOM      8  O   UNL     1      23.796  32.574  43.721  1.00  0.00    -0.550 OA
ENDBRANCH   5   6
ENDBRANCH   1   5
TORSDOF 3
ENDMDL
MODEL 9
REMARK VINA RESULT:    -2.093     17.721     19.082
REMARK INTER + INTRA:          -2.562
REMARK INTER:                  -2.482
REMARK INTRA:                  -0.080
REMARK UNBOUND:                -0.102
REMARK SMILES O=C([O-])CCC(=O)[O-]
REMARK SMILES IDX 4 1 2 2 1 3 3 4 5 5 6 6 7 7 8 8
REMARK H PARENT
REMARK Flexibility Score: inf
ROOT
ATOM      1  C   UNL     1      21.340  29.856  51.091  1.00  0.00     0.059 C 
ENDROOT
BRANCH   1   2
ATOM      2  C   UNL     1      22.436  29.201  50.311  1.00  0.00     0.042 C 
ATOM      3  O   UNL     1      23.003  28.169  50.757  1.00  0.00    -0.550 OA
ATOM      4  O   UNL     1      22.866  29.759  49.114  1.00  0.00    -0.550 OA
ENDBRANCH   1   2
BRANCH   1   5
ATOM      5  C   UNL     1      21.540  31.373  51.125  1.00  0.00     0.059 C 
BRANCH   5   6
ATOM      6  C   UNL     1      20.480  32.057  50.321  1.00  0.00     0.042 C 
ATOM      7  O   UNL     1      19.316  31.579  50.269  1.00  0.00    -0.550 OA
ATOM      8  O   UNL     1      20.764  33.249  49.668  1.00  0.00    -0.550 OA
ENDBRANCH   5   6
ENDBRANCH   1   5
TORSDOF 3
ENDMDL
