MODEL 1
REMARK VINA RESULT:    -5.551      0.000      0.000
REMARK INTER + INTRA:          -7.485
REMARK INTER:                  -7.336
REMARK INTRA:                  -0.149
REMARK UNBOUND:                -0.149
REMARK SMILES CC(C)=CCC[C@H](C(=O)[O-])[C@H]1CC[C@]2(C)C3=C(CC[C@]12C)[C@@]1(C)CC[C@H](O)C(C)(C)[C@H]1CC3
REMARK SMILES IDX 6 1 7 2 8 3 9 4 10 5 11 6 12 7 20 8 13 9 14 10 19 11 21 12
REMARK SMILES IDX 15 13 16 14 18 15 17 16 33 17 22 18 32 19 31 20 24 21 23 22
REMARK SMILES IDX 28 23 25 24 26 25 29 26 30 27 27 28 5 30 4 31 2 32 1 33 3 34
REMARK H PARENT 27 29
REMARK Flexibility Score: inf
ROOT
ATOM      1  C   UNL     1      91.165 111.846 106.576  1.00  0.00     0.014 C 
ENDROOT
BRANCH   1   2
ATOM      2  C   UNL     1      91.257 112.605 107.934  1.00  0.00     0.039 C 
BRANCH   2   3
ATOM      3  C   UNL     1      90.394 113.851 107.963  1.00  0.00     0.045 C 
ATOM      4  O   UNL     1      89.640 114.065 108.949  1.00  0.00    -0.550 OA
ATOM      5  O   UNL     1      90.396 114.759 106.909  1.00  0.00    -0.550 OA
ENDBRANCH   2   3
BRANCH   2   6
ATOM      6  C   UNL     1      92.700 112.898 108.477  1.00  0.00     0.004 C 
ATOM      7  C   UNL     1      92.738 113.198 109.976  1.00  0.00     0.006 C 
ATOM      8  C   UNL     1      93.929 111.946 108.171  1.00  0.00    -0.020 C 
ATOM      9  C   UNL     1      94.176 112.946 110.394  1.00  0.00     0.012 C 
ATOM     10  C   UNL     1      94.647 111.736 109.565  1.00  0.00    -0.006 C 
ATOM     11  C   UNL     1      94.885 112.716 107.224  1.00  0.00     0.012 C 
ATOM     12  C   UNL     1      93.552 110.605 107.478  1.00  0.00     0.012 C 
ATOM     13  C   UNL     1      94.168 110.443 110.291  1.00  0.00     0.017 C 
ATOM     14  C   UNL     1      96.195 111.684 109.509  1.00  0.00    -0.064 C 
ATOM     15  C   UNL     1      96.224 112.021 107.033  1.00  0.00     0.032 C 
ATOM     16  C   UNL     1      96.914 111.674 108.345  1.00  0.00    -0.064 C 
ATOM     17  C   UNL     1      96.939 111.545 110.815  1.00  0.00     0.032 C 
ATOM     18  C   UNL     1      98.385 111.126 108.330  1.00  0.00    -0.008 C 
ATOM     19  C   UNL     1      98.312 112.187 110.703  1.00  0.00     0.009 C 
ATOM     20  C   UNL     1      99.173 111.383 109.706  1.00  0.00     0.007 C 
ATOM     21  C   UNL     1      99.189 111.704 107.126  1.00  0.00     0.014 C 
ATOM     22  C   UNL     1      98.263 109.601 108.101  1.00  0.00     0.016 C 
ATOM     23  C   UNL     1     100.652 111.957 109.566  1.00  0.00    -0.006 C 
ATOM     24  C   UNL     1      99.654 113.119 107.425  1.00  0.00     0.033 C 
ATOM     25  C   UNL     1     100.726 113.149 108.531  1.00  0.00     0.120 C 
ATOM     26  C   UNL     1     101.192 112.484 110.926  1.00  0.00     0.014 C 
ATOM     27  C   UNL     1     101.619 110.788 109.193  1.00  0.00     0.014 C 
BRANCH  25  28
ATOM     28  O   UNL     1     101.995 113.220 107.929  1.00  0.00    -0.393 OA
ATOM     29  H   UNL     1     102.156 112.348 107.482  1.00  0.00     0.210 HD
ENDBRANCH  25  28
ENDBRANCH   2   6
ENDBRANCH   1   2
BRANCH   1  30
ATOM     30  C   UNL     1      89.780 111.218 106.346  1.00  0.00     0.028 C 
BRANCH  30  31
ATOM     31  C   UNL     1      89.838 109.708 106.313  1.00  0.00    -0.028 C 
ATOM     32  C   UNL     1      88.859 108.922 106.808  1.00  0.00    -0.080 C 
ATOM     33  C   UNL     1      89.016 107.425 106.716  1.00  0.00     0.039 C 
ATOM     34  C   UNL     1      87.618 109.508 107.441  1.00  0.00     0.039 C 
ENDBRANCH  30  31
ENDBRANCH   1  30
TORSDOF 6
ENDMDL
MODEL 2
REMARK VINA RESULT:    -4.917      1.797      8.909
REMARK INTER + INTRA:          -6.647
REMARK INTER:                  -5.832
REMARK INTRA:                  -0.815
REMARK UNBOUND:                -0.149
REMARK SMILES CC(C)=CCC[C@H](C(=O)[O-])[C@H]1CC[C@]2(C)C3=C(CC[C@]12C)[C@@]1(C)CC[C@H](O)C(C)(C)[C@H]1CC3
REMARK SMILES IDX 6 1 7 2 8 3 9 4 10 5 11 6 12 7 20 8 13 9 14 10 19 11 21 12
REMARK SMILES IDX 15 13 16 14 18 15 17 16 33 17 22 18 32 19 31 20 24 21 23 22
REMARK SMILES IDX 28 23 25 24 26 25 29 26 30 27 27 28 5 30 4 31 2 32 1 33 3 34
REMARK H PARENT 27 29
REMARK Flexibility Score: inf
ROOT
ATOM      1  C   UNL     1     100.905 112.314 110.954  1.00  0.00     0.014 C 
ENDROOT
BRANCH   1   2
ATOM      2  C   UNL     1     100.539 112.186 109.445  1.00  0.00     0.039 C 
BRANCH   2   3
ATOM      3  C   UNL     1     101.619 112.737 108.535  1.00  0.00     0.045 C 
ATOM      4  O   UNL     1     102.281 113.747 108.893  1.00  0.00    -0.550 OA
ATOM      5  O   UNL     1     101.883 112.166 107.294  1.00  0.00    -0.550 OA
ENDBRANCH   2   3
BRANCH   2   6
ATOM      6  C   UNL     1      99.119 112.704 109.022  1.00  0.00     0.004 C 
ATOM      7  C   UNL     1      99.164 113.831 107.989  1.00  0.00     0.006 C 
ATOM      8  C   UNL     1      97.958 111.722 108.574  1.00  0.00    -0.020 C 
ATOM      9  C   UNL     1      97.788 113.836 107.348  1.00  0.00     0.012 C 
ATOM     10  C   UNL     1      97.365 112.358 107.253  1.00  0.00    -0.006 C 
ATOM     11  C   UNL     1      96.873 111.756 109.680  1.00  0.00     0.012 C 
ATOM     12  C   UNL     1      98.400 110.242 108.387  1.00  0.00     0.012 C 
ATOM     13  C   UNL     1      98.006 111.758 105.965  1.00  0.00     0.017 C 
ATOM     14  C   UNL     1      95.828 112.240 107.097  1.00  0.00    -0.064 C 
ATOM     15  C   UNL     1      95.589 111.046 109.278  1.00  0.00     0.032 C 
ATOM     16  C   UNL     1      95.030 111.524 107.946  1.00  0.00    -0.064 C 
ATOM     17  C   UNL     1      95.196 112.881 105.885  1.00  0.00     0.032 C 
ATOM     18  C   UNL     1      93.615 111.033 107.475  1.00  0.00    -0.008 C 
ATOM     19  C   UNL     1      93.768 113.294 106.198  1.00  0.00     0.009 C 
ATOM     20  C   UNL     1      92.909 112.033 106.433  1.00  0.00     0.007 C 
ATOM     21  C   UNL     1      92.678 110.765 108.692  1.00  0.00     0.014 C 
ATOM     22  C   UNL     1      93.853 109.673 106.779  1.00  0.00     0.016 C 
ATOM     23  C   UNL     1      91.380 112.372 106.720  1.00  0.00    -0.006 C 
ATOM     24  C   UNL     1      92.114 112.069 109.229  1.00  0.00     0.033 C 
ATOM     25  C   UNL     1      91.127 112.718 108.241  1.00  0.00     0.120 C 
ATOM     26  C   UNL     1      90.897 113.586 105.876  1.00  0.00     0.014 C 
ATOM     27  C   UNL     1      90.494 111.183 106.227  1.00  0.00     0.014 C 
BRANCH  25  28
ATOM     28  O   UNL     1      89.816 112.384 108.625  1.00  0.00    -0.393 OA
ATOM     29  H   UNL     1      89.215 112.655 107.884  1.00  0.00     0.210 HD
ENDBRANCH  25  28
ENDBRANCH   2   6
ENDBRANCH   1   2
BRANCH   1  30
ATOM     30  C   UNL     1      99.692 112.097 111.874  1.00  0.00     0.028 C 
BRANCH  30  31
ATOM     31  C   UNL     1      99.892 112.719 113.237  1.00  0.00    -0.028 C 
ATOM     32  C   UNL     1      99.731 112.036 114.390  1.00  0.00    -0.080 C 
ATOM     33  C   UNL     1      99.962 112.755 115.695  1.00  0.00     0.039 C 
ATOM     34  C   UNL     1      99.332 110.579 114.396  1.00  0.00     0.039 C 
ENDBRANCH  30  31
ENDBRANCH   1  30
TORSDOF 6
ENDMDL
MODEL 3
REMARK VINA RESULT:    -3.914      1.612      2.955
REMARK INTER + INTRA:          -5.322
REMARK INTER:                  -5.435
REMARK INTRA:                   0.114
REMARK UNBOUND:                -0.149
REMARK SMILES CC(C)=CCC[C@H](C(=O)[O-])[C@H]1CC[C@]2(C)C3=C(CC[C@]12C)[C@@]1(C)CC[C@H](O)C(C)(C)[C@H]1CC3
REMARK SMILES IDX 6 1 7 2 8 3 9 4 10 5 11 6 12 7 20 8 13 9 14 10 19 11 21 12
REMARK SMILES IDX 15 13 16 14 18 15 17 16 33 17 22 18 32 19 31 20 24 21 23 22
REMARK SMILES IDX 28 23 25 24 26 25 29 26 30 27 27 28 5 30 4 31 2 32 1 33 3 34
REMARK H PARENT 27 29
REMARK Flexibility Score: inf
ROOT
ATOM      1  C   UNL     1      90.790 113.687 105.877  1.00  0.00     0.014 C 
ENDROOT
BRANCH   1   2
ATOM      2  C   UNL     1      91.522 112.424 106.423  1.00  0.00     0.039 C 
BRANCH   2   3
ATOM      3  C   UNL     1      90.582 111.465 107.125  1.00  0.00     0.045 C 
ATOM      4  O   UNL     1      90.802 110.226 107.076  1.00  0.00    -0.550 OA
ATOM      5  O   UNL     1      89.458 111.920 107.807  1.00  0.00    -0.550 OA
ENDBRANCH   2   3
BRANCH   2   6
ATOM      6  C   UNL     1      92.817 112.677 107.272  1.00  0.00     0.004 C 
ATOM      7  C   UNL     1      92.582 112.592 108.782  1.00  0.00     0.006 C 
ATOM      8  C   UNL     1      94.182 111.925 106.981  1.00  0.00    -0.020 C 
ATOM      9  C   UNL     1      93.955 112.350 109.383  1.00  0.00     0.012 C 
ATOM     10  C   UNL     1      94.689 111.425 108.393  1.00  0.00    -0.006 C 
ATOM     11  C   UNL     1      95.179 112.976 106.431  1.00  0.00     0.012 C 
ATOM     12  C   UNL     1      94.077 110.777 105.936  1.00  0.00     0.012 C 
ATOM     13  C   UNL     1      94.254 109.959 108.696  1.00  0.00     0.017 C 
ATOM     14  C   UNL     1      96.221 111.502 108.609  1.00  0.00    -0.064 C 
ATOM     15  C   UNL     1      96.603 112.452 106.330  1.00  0.00     0.032 C 
ATOM     16  C   UNL     1      97.112 111.838 107.626  1.00  0.00    -0.064 C 
ATOM     17  C   UNL     1      96.760 111.095 109.959  1.00  0.00     0.032 C 
ATOM     18  C   UNL     1      98.621 111.421 107.751  1.00  0.00    -0.008 C 
ATOM     19  C   UNL     1      98.049 111.843 110.253  1.00  0.00     0.009 C 
ATOM     20  C   UNL     1      99.146 111.382 109.269  1.00  0.00     0.007 C 
ATOM     21  C   UNL     1      99.532 112.340 106.883  1.00  0.00     0.014 C 
ATOM     22  C   UNL     1      98.713 109.998 107.153  1.00  0.00     0.016 C 
ATOM     23  C   UNL     1     100.551 112.080 109.539  1.00  0.00    -0.006 C 
ATOM     24  C   UNL     1      99.777 113.665 107.586  1.00  0.00     0.033 C 
ATOM     25  C   UNL     1     100.649 113.495 108.844  1.00  0.00     0.120 C 
ATOM     26  C   UNL     1     100.804 112.286 111.060  1.00  0.00     0.014 C 
ATOM     27  C   UNL     1     101.694 111.116 109.085  1.00  0.00     0.014 C 
BRANCH  25  28
ATOM     28  O   UNL     1     101.982 113.808 108.516  1.00  0.00    -0.393 OA
ATOM     29  H   UNL     1     102.025 113.906 107.530  1.00  0.00     0.210 HD
ENDBRANCH  25  28
ENDBRANCH   2   6
ENDBRANCH   1   2
BRANCH   1  30
ATOM     30  C   UNL     1      90.068 114.472 106.985  1.00  0.00     0.028 C 
BRANCH  30  31
ATOM     31  C   UNL     1      91.037 115.140 107.935  1.00  0.00    -0.028 C 
ATOM     32  C   UNL     1      90.797 115.276 109.256  1.00  0.00    -0.080 C 
ATOM     33  C   UNL     1      91.836 115.954 110.113  1.00  0.00     0.039 C 
ATOM     34  C   UNL     1      89.523 114.764 109.886  1.00  0.00     0.039 C 
ENDBRANCH  30  31
ENDBRANCH   1  30
TORSDOF 6
ENDMDL
