MODEL 1
REMARK VINA RESULT:    -5.421      0.000      0.000
REMARK INTER + INTRA:          -8.772
REMARK INTER:                  -7.956
REMARK INTRA:                  -0.816
REMARK UNBOUND:                -0.816
REMARK SMILES O=C([O-])CCCCCCCC(=O)[O-]
REMARK SMILES IDX 7 1 6 2 5 3 4 4 2 5 1 6 3 7 8 8 9 9 10 10 11 11 12 12 13 13
REMARK H PARENT
REMARK Flexibility Score: inf
ROOT
ATOM      1  C   UNL     1       7.438  14.496   0.700  1.00  0.00     0.000 C 
ENDROOT
BRANCH   1   2
ATOM      2  C   UNL     1       8.479  14.665   1.813  1.00  0.00     0.000 C 
BRANCH   2   3
ATOM      3  C   UNL     1       7.824  14.577   3.199  1.00  0.00     0.006 C 
BRANCH   3   4
ATOM      4  C   UNL     1       7.347  15.944   3.704  1.00  0.00     0.053 C 
BRANCH   4   5
ATOM      5  C   UNL     1       5.853  16.058   3.672  1.00  0.00     0.041 C 
ATOM      6  O   UNL     1       5.274  16.521   2.654  1.00  0.00    -0.550 OA
ATOM      7  O   UNL     1       5.104  15.681   4.779  1.00  0.00    -0.550 OA
ENDBRANCH   4   5
ENDBRANCH   3   4
ENDBRANCH   2   3
ENDBRANCH   1   2
BRANCH   1   8
ATOM      8  C   UNL     1       6.511  13.310   0.989  1.00  0.00     0.000 C 
BRANCH   8   9
ATOM      9  C   UNL     1       5.059  13.643   0.615  1.00  0.00     0.006 C 
BRANCH   9  10
ATOM     10  C   UNL     1       4.066  13.227   1.708  1.00  0.00     0.053 C 
BRANCH  10  11
ATOM     11  C   UNL     1       2.794  14.015   1.634  1.00  0.00     0.041 C 
ATOM     12  O   UNL     1       2.459  14.767   2.587  1.00  0.00    -0.550 OA
ATOM     13  O   UNL     1       1.997  13.945   0.499  1.00  0.00    -0.550 OA
ENDBRANCH  10  11
ENDBRANCH   9  10
ENDBRANCH   8   9
ENDBRANCH   1   8
TORSDOF 8
ENDMDL
MODEL 2
REMARK VINA RESULT:    -5.413      0.144      3.954
REMARK INTER + INTRA:          -8.761
REMARK INTER:                  -7.902
REMARK INTRA:                  -0.858
REMARK UNBOUND:                -0.816
REMARK SMILES O=C([O-])CCCCCCCC(=O)[O-]
REMARK SMILES IDX 7 1 6 2 5 3 4 4 2 5 1 6 3 7 8 8 9 9 10 10 11 11 12 12 13 13
REMARK H PARENT
REMARK Flexibility Score: inf
ROOT
ATOM      1  C   UNL     1       7.449  14.549   0.682  1.00  0.00     0.000 C 
ENDROOT
BRANCH   1   2
ATOM      2  C   UNL     1       6.617  13.293   0.965  1.00  0.00     0.000 C 
BRANCH   2   3
ATOM      3  C   UNL     1       5.132  13.534   0.658  1.00  0.00     0.006 C 
BRANCH   3   4
ATOM      4  C   UNL     1       4.238  13.283   1.878  1.00  0.00     0.053 C 
BRANCH   4   5
ATOM      5  C   UNL     1       2.927  13.999   1.764  1.00  0.00     0.041 C 
ATOM      6  O   UNL     1       2.491  14.682   2.727  1.00  0.00    -0.550 OA
ATOM      7  O   UNL     1       2.173  13.885   0.602  1.00  0.00    -0.550 OA
ENDBRANCH   4   5
ENDBRANCH   3   4
ENDBRANCH   2   3
ENDBRANCH   1   2
BRANCH   1   8
ATOM      8  C   UNL     1       8.449  14.813   1.813  1.00  0.00     0.000 C 
BRANCH   8   9
ATOM      9  C   UNL     1       7.795  14.604   3.187  1.00  0.00     0.006 C 
BRANCH   9  10
ATOM     10  C   UNL     1       7.349  15.925   3.826  1.00  0.00     0.053 C 
BRANCH  10  11
ATOM     11  C   UNL     1       5.864  16.106   3.752  1.00  0.00     0.041 C 
ATOM     12  O   UNL     1       5.330  16.534   2.695  1.00  0.00    -0.550 OA
ATOM     13  O   UNL     1       5.066  15.768   4.837  1.00  0.00    -0.550 OA
ENDBRANCH  10  11
ENDBRANCH   9  10
ENDBRANCH   8   9
ENDBRANCH   1   8
TORSDOF 8
ENDMDL
MODEL 3
REMARK VINA RESULT:    -5.206      2.347      4.337
REMARK INTER + INTRA:          -8.457
REMARK INTER:                  -7.806
REMARK INTRA:                  -0.651
REMARK UNBOUND:                -0.816
REMARK SMILES O=C([O-])CCCCCCCC(=O)[O-]
REMARK SMILES IDX 7 1 6 2 5 3 4 4 2 5 1 6 3 7 8 8 9 9 10 10 11 11 12 12 13 13
REMARK H PARENT
REMARK Flexibility Score: inf
ROOT
ATOM      1  C   UNL     1       4.310  13.107   1.695  1.00  0.00     0.000 C 
ENDROOT
BRANCH   1   2
ATOM      2  C   UNL     1       3.022  13.910   1.912  1.00  0.00     0.000 C 
BRANCH   2   3
ATOM      3  C   UNL     1       3.207  14.960   3.018  1.00  0.00     0.006 C 
BRANCH   3   4
ATOM      4  C   UNL     1       4.304  14.566   4.015  1.00  0.00     0.053 C 
BRANCH   4   5
ATOM      5  C   UNL     1       4.923  15.768   4.663  1.00  0.00     0.041 C 
ATOM      6  O   UNL     1       4.332  16.354   5.608  1.00  0.00    -0.550 OA
ATOM      7  O   UNL     1       6.138  16.257   4.201  1.00  0.00    -0.550 OA
ENDBRANCH   4   5
ENDBRANCH   3   4
ENDBRANCH   2   3
ENDBRANCH   1   2
BRANCH   1   8
ATOM      8  C   UNL     1       4.987  13.499   0.377  1.00  0.00     0.000 C 
BRANCH   8   9
ATOM      9  C   UNL     1       6.137  14.487   0.622  1.00  0.00     0.006 C 
BRANCH   9  10
ATOM     10  C   UNL     1       7.146  13.962   1.653  1.00  0.00     0.053 C 
BRANCH  10  11
ATOM     11  C   UNL     1       8.558  14.252   1.247  1.00  0.00     0.041 C 
ATOM     12  O   UNL     1       9.056  13.688   0.238  1.00  0.00    -0.550 OA
ATOM     13  O   UNL     1       9.313  15.173   1.962  1.00  0.00    -0.550 OA
ENDBRANCH  10  11
ENDBRANCH   9  10
ENDBRANCH   8   9
ENDBRANCH   1   8
TORSDOF 8
ENDMDL
MODEL 4
REMARK VINA RESULT:    -5.192      2.357      4.124
REMARK INTER + INTRA:          -8.436
REMARK INTER:                  -7.930
REMARK INTRA:                  -0.507
REMARK UNBOUND:                -0.816
REMARK SMILES O=C([O-])CCCCCCCC(=O)[O-]
REMARK SMILES IDX 7 1 6 2 5 3 4 4 2 5 1 6 3 7 8 8 9 9 10 10 11 11 12 12 13 13
REMARK H PARENT
REMARK Flexibility Score: inf
ROOT
ATOM      1  C   UNL     1       4.334  13.114   1.673  1.00  0.00     0.000 C 
ENDROOT
BRANCH   1   2
ATOM      2  C   UNL     1       5.041  13.577   0.393  1.00  0.00     0.000 C 
BRANCH   2   3
ATOM      3  C   UNL     1       6.232  14.490   0.721  1.00  0.00     0.006 C 
BRANCH   3   4
ATOM      4  C   UNL     1       7.561  13.725   0.745  1.00  0.00     0.053 C 
BRANCH   4   5
ATOM      5  C   UNL     1       8.695  14.597   1.191  1.00  0.00     0.041 C 
ATOM      6  O   UNL     1       8.792  14.946   2.397  1.00  0.00    -0.550 OA
ATOM      7  O   UNL     1       9.629  15.049   0.266  1.00  0.00    -0.550 OA
ENDBRANCH   4   5
ENDBRANCH   3   4
ENDBRANCH   2   3
ENDBRANCH   1   2
BRANCH   1   8
ATOM      8  C   UNL     1       3.026  13.884   1.888  1.00  0.00     0.000 C 
BRANCH   8   9
ATOM      9  C   UNL     1       3.187  14.948   2.983  1.00  0.00     0.006 C 
BRANCH   9  10
ATOM     10  C   UNL     1       4.272  14.575   4.002  1.00  0.00     0.053 C 
BRANCH  10  11
ATOM     11  C   UNL     1       4.907  15.788   4.609  1.00  0.00     0.041 C 
ATOM     12  O   UNL     1       4.299  16.444   5.495  1.00  0.00    -0.550 OA
ATOM     13  O   UNL     1       6.184  16.173   4.223  1.00  0.00    -0.550 OA
ENDBRANCH  10  11
ENDBRANCH   9  10
ENDBRANCH   8   9
ENDBRANCH   1   8
TORSDOF 8
ENDMDL
MODEL 5
REMARK VINA RESULT:    -5.149      1.630      4.275
REMARK INTER + INTRA:          -8.373
REMARK INTER:                  -7.831
REMARK INTRA:                  -0.542
REMARK UNBOUND:                -0.816
REMARK SMILES O=C([O-])CCCCCCCC(=O)[O-]
REMARK SMILES IDX 7 1 6 2 5 3 4 4 2 5 1 6 3 7 8 8 9 9 10 10 11 11 12 12 13 13
REMARK H PARENT
REMARK Flexibility Score: inf
ROOT
ATOM      1  C   UNL     1       6.196  14.289   0.949  1.00  0.00     0.000 C 
ENDROOT
BRANCH   1   2
ATOM      2  C   UNL     1       5.194  13.139   0.792  1.00  0.00     0.000 C 
BRANCH   2   3
ATOM      3  C   UNL     1       4.166  13.145   1.933  1.00  0.00     0.006 C 
BRANCH   3   4
ATOM      4  C   UNL     1       4.428  14.267   2.945  1.00  0.00     0.053 C 
BRANCH   4   5
ATOM      5  C   UNL     1       3.157  14.934   3.376  1.00  0.00     0.041 C 
ATOM      6  O   UNL     1       2.114  14.821   2.681  1.00  0.00    -0.550 OA
ATOM      7  O   UNL     1       3.135  15.706   4.532  1.00  0.00    -0.550 OA
ENDBRANCH   4   5
ENDBRANCH   3   4
ENDBRANCH   2   3
ENDBRANCH   1   2
BRANCH   1   8
ATOM      8  C   UNL     1       7.627  13.813   0.675  1.00  0.00     0.000 C 
BRANCH   8   9
ATOM      9  C   UNL     1       8.638  14.585   1.536  1.00  0.00     0.006 C 
BRANCH   9  10
ATOM     10  C   UNL     1       8.326  14.479   3.035  1.00  0.00     0.053 C 
BRANCH  10  11
ATOM     11  C   UNL     1       8.099  15.824   3.653  1.00  0.00     0.041 C 
ATOM     12  O   UNL     1       6.946  16.162   4.029  1.00  0.00    -0.550 OA
ATOM     13  O   UNL     1       9.167  16.691   3.845  1.00  0.00    -0.550 OA
ENDBRANCH  10  11
ENDBRANCH   9  10
ENDBRANCH   8   9
ENDBRANCH   1   8
TORSDOF 8
ENDMDL
MODEL 6
REMARK VINA RESULT:    -5.142      1.377      4.640
REMARK INTER + INTRA:          -8.363
REMARK INTER:                  -7.975
REMARK INTRA:                  -0.388
REMARK UNBOUND:                -0.816
REMARK SMILES O=C([O-])CCCCCCCC(=O)[O-]
REMARK SMILES IDX 7 1 6 2 5 3 4 4 2 5 1 6 3 7 8 8 9 9 10 10 11 11 12 12 13 13
REMARK H PARENT
REMARK Flexibility Score: inf
ROOT
ATOM      1  C   UNL     1       6.127  14.284   0.840  1.00  0.00     0.000 C 
ENDROOT
BRANCH   1   2
ATOM      2  C   UNL     1       5.145  13.107   0.805  1.00  0.00     0.000 C 
BRANCH   2   3
ATOM      3  C   UNL     1       4.288  13.067   2.079  1.00  0.00     0.006 C 
BRANCH   3   4
ATOM      4  C   UNL     1       3.365  14.287   2.196  1.00  0.00     0.053 C 
BRANCH   4   5
ATOM      5  C   UNL     1       2.057  14.063   1.502  1.00  0.00     0.041 C 
ATOM      6  O   UNL     1       2.006  14.010   0.245  1.00  0.00    -0.550 OA
ATOM      7  O   UNL     1       0.888  13.944   2.244  1.00  0.00    -0.550 OA
ENDBRANCH   4   5
ENDBRANCH   3   4
ENDBRANCH   2   3
ENDBRANCH   1   2
BRANCH   1   8
ATOM      8  C   UNL     1       7.571  13.801   0.659  1.00  0.00     0.000 C 
BRANCH   8   9
ATOM      9  C   UNL     1       8.535  14.606   1.544  1.00  0.00     0.006 C 
BRANCH   9  10
ATOM     10  C   UNL     1       8.205  14.469   3.037  1.00  0.00     0.053 C 
BRANCH  10  11
ATOM     11  C   UNL     1       7.914  15.797   3.666  1.00  0.00     0.041 C 
ATOM     12  O   UNL     1       8.843  16.624   3.860  1.00  0.00    -0.550 OA
ATOM     13  O   UNL     1       6.610  16.135   4.006  1.00  0.00    -0.550 OA
ENDBRANCH  10  11
ENDBRANCH   9  10
ENDBRANCH   8   9
ENDBRANCH   1   8
TORSDOF 8
ENDMDL
MODEL 7
REMARK VINA RESULT:    -5.132      1.525      2.069
REMARK INTER + INTRA:          -8.348
REMARK INTER:                  -7.845
REMARK INTRA:                  -0.504
REMARK UNBOUND:                -0.816
REMARK SMILES O=C([O-])CCCCCCCC(=O)[O-]
REMARK SMILES IDX 7 1 6 2 5 3 4 4 2 5 1 6 3 7 8 8 9 9 10 10 11 11 12 12 13 13
REMARK H PARENT
REMARK Flexibility Score: inf
ROOT
ATOM      1  C   UNL     1       6.240  14.243   0.659  1.00  0.00     0.000 C 
ENDROOT
BRANCH   1   2
ATOM      2  C   UNL     1       7.675  13.705   0.635  1.00  0.00     0.000 C 
BRANCH   2   3
ATOM      3  C   UNL     1       8.605  14.575   1.493  1.00  0.00     0.006 C 
BRANCH   3   4
ATOM      4  C   UNL     1       8.332  14.414   2.993  1.00  0.00     0.053 C 
BRANCH   4   5
ATOM      5  C   UNL     1       7.976  15.719   3.637  1.00  0.00     0.041 C 
ATOM      6  O   UNL     1       8.874  16.559   3.907  1.00  0.00    -0.550 OA
ATOM      7  O   UNL     1       6.654  15.993   3.966  1.00  0.00    -0.550 OA
ENDBRANCH   4   5
ENDBRANCH   3   4
ENDBRANCH   2   3
ENDBRANCH   1   2
BRANCH   1   8
ATOM      8  C   UNL     1       5.233  13.116   0.912  1.00  0.00     0.000 C 
BRANCH   8   9
ATOM      9  C   UNL     1       4.344  13.435   2.123  1.00  0.00     0.006 C 
BRANCH   9  10
ATOM     10  C   UNL     1       3.471  14.676   1.893  1.00  0.00     0.053 C 
BRANCH  10  11
ATOM     11  C   UNL     1       2.647  15.007   3.100  1.00  0.00     0.041 C 
ATOM     12  O   UNL     1       3.204  15.385   4.163  1.00  0.00    -0.550 OA
ATOM     13  O   UNL     1       1.261  14.934   3.038  1.00  0.00    -0.550 OA
ENDBRANCH  10  11
ENDBRANCH   9  10
ENDBRANCH   8   9
ENDBRANCH   1   8
TORSDOF 8
ENDMDL
MODEL 8
REMARK VINA RESULT:    -5.045      2.441      4.705
REMARK INTER + INTRA:          -8.221
REMARK INTER:                  -7.514
REMARK INTRA:                  -0.706
REMARK UNBOUND:                -0.816
REMARK SMILES O=C([O-])CCCCCCCC(=O)[O-]
REMARK SMILES IDX 7 1 6 2 5 3 4 4 2 5 1 6 3 7 8 8 9 9 10 10 11 11 12 12 13 13
REMARK H PARENT
REMARK Flexibility Score: inf
ROOT
ATOM      1  C   UNL     1       5.158  13.500   0.642  1.00  0.00     0.000 C 
ENDROOT
BRANCH   1   2
ATOM      2  C   UNL     1       4.222  13.086   1.784  1.00  0.00     0.000 C 
BRANCH   2   3
ATOM      3  C   UNL     1       3.630  14.317   2.485  1.00  0.00     0.006 C 
BRANCH   3   4
ATOM      4  C   UNL     1       4.411  14.697   3.750  1.00  0.00     0.053 C 
BRANCH   4   5
ATOM      5  C   UNL     1       5.283  15.894   3.526  1.00  0.00     0.041 C 
ATOM      6  O   UNL     1       6.181  16.190   4.358  1.00  0.00    -0.550 OA
ATOM      7  O   UNL     1       5.083  16.701   2.413  1.00  0.00    -0.550 OA
ENDBRANCH   4   5
ENDBRANCH   3   4
ENDBRANCH   2   3
ENDBRANCH   1   2
BRANCH   1   8
ATOM      8  C   UNL     1       6.621  13.216   1.000  1.00  0.00     0.000 C 
BRANCH   8   9
ATOM      9  C   UNL     1       7.456  14.505   0.968  1.00  0.00     0.006 C 
BRANCH   9  10
ATOM     10  C   UNL     1       8.472  14.568   2.116  1.00  0.00     0.053 C 
BRANCH  10  11
ATOM     11  C   UNL     1       9.882  14.584   1.611  1.00  0.00     0.041 C 
ATOM     12  O   UNL     1      10.548  13.517   1.557  1.00  0.00    -0.550 OA
ATOM     13  O   UNL     1      10.449  15.771   1.166  1.00  0.00    -0.550 OA
ENDBRANCH  10  11
ENDBRANCH   9  10
ENDBRANCH   8   9
ENDBRANCH   1   8
TORSDOF 8
ENDMDL
MODEL 9
REMARK VINA RESULT:    -5.005      2.173      3.195
REMARK INTER + INTRA:          -8.163
REMARK INTER:                  -7.832
REMARK INTRA:                  -0.331
REMARK UNBOUND:                -0.816
REMARK SMILES O=C([O-])CCCCCCCC(=O)[O-]
REMARK SMILES IDX 7 1 6 2 5 3 4 4 2 5 1 6 3 7 8 8 9 9 10 10 11 11 12 12 13 13
REMARK H PARENT
REMARK Flexibility Score: inf
ROOT
ATOM      1  C   UNL     1       3.847  13.218   1.890  1.00  0.00     0.000 C 
ENDROOT
BRANCH   1   2
ATOM      2  C   UNL     1       5.176  13.175   1.128  1.00  0.00     0.000 C 
BRANCH   2   3
ATOM      3  C   UNL     1       5.951  14.490   1.298  1.00  0.00     0.006 C 
BRANCH   3   4
ATOM      4  C   UNL     1       6.966  14.422   2.446  1.00  0.00     0.053 C 
BRANCH   4   5
ATOM      5  C   UNL     1       6.637  15.396   3.537  1.00  0.00     0.041 C 
ATOM      6  O   UNL     1       7.500  16.224   3.930  1.00  0.00    -0.550 OA
ATOM      7  O   UNL     1       5.385  15.367   4.139  1.00  0.00    -0.550 OA
ENDBRANCH   4   5
ENDBRANCH   3   4
ENDBRANCH   2   3
ENDBRANCH   1   2
BRANCH   1   8
ATOM      8  C   UNL     1       2.877  14.217   1.249  1.00  0.00     0.000 C 
BRANCH   8   9
ATOM      9  C   UNL     1       1.419  13.843   1.557  1.00  0.00     0.006 C 
BRANCH   9  10
ATOM     10  C   UNL     1       0.871  14.595   2.777  1.00  0.00     0.053 C 
BRANCH  10  11
ATOM     11  C   UNL     1      -0.545  14.208   3.079  1.00  0.00     0.041 C 
ATOM     12  O   UNL     1      -0.955  14.186   4.269  1.00  0.00    -0.550 OA
ATOM     13  O   UNL     1      -1.420  13.905   2.044  1.00  0.00    -0.550 OA
ENDBRANCH  10  11
ENDBRANCH   9  10
ENDBRANCH   8   9
ENDBRANCH   1   8
TORSDOF 8
ENDMDL
