MODEL 1
REMARK VINA RESULT:    -5.151      0.000      0.000
REMARK INTER + INTRA:          -6.483
REMARK INTER:                  -6.205
REMARK INTRA:                  -0.277
REMARK UNBOUND:                -0.277
REMARK SMILES O=c1c(O)c(-c2ccc(O)c(O)c2)oc2cc(O)cc(O)c12
REMARK SMILES IDX 5 1 3 2 2 3 1 4 22 5 20 6 19 7 17 8 16 9 15 10 14 11 6 12
REMARK SMILES IDX 7 13 8 14 9 15 13 16 11 17 10 18 12 20 4 22 21 24 18 26
REMARK H PARENT 10 19 12 21 4 23 21 25 18 27
REMARK Flexibility Score: inf
ROOT
ATOM      1  C   UNL     1      21.369  -2.755  17.806  1.00  0.00     0.180 A 
ATOM      2  C   UNL     1      21.352  -3.279  16.501  1.00  0.00     0.208 A 
ATOM      3  C   UNL     1      20.119  -3.605  15.914  1.00  0.00     0.238 A 
ATOM      4  O   UNL     1      20.113  -4.124  14.768  1.00  0.00    -0.285 OA
ATOM      5  C   UNL     1      18.918  -3.389  16.632  1.00  0.00     0.111 A 
ATOM      6  C   UNL     1      17.610  -3.645  16.121  1.00  0.00     0.134 A 
ATOM      7  C   UNL     1      16.500  -3.517  16.965  1.00  0.00     0.093 A 
ATOM      8  C   UNL     1      16.644  -3.081  18.282  1.00  0.00     0.123 A 
ATOM      9  C   UNL     1      17.912  -2.769  18.774  1.00  0.00     0.094 A 
ATOM     10  C   UNL     1      19.042  -2.922  17.967  1.00  0.00     0.146 A 
ATOM     11  O   UNL     1      20.231  -2.626  18.477  1.00  0.00    -0.452 OA
ENDROOT
BRANCH   1  12
ATOM     12  C   UNL     1      22.627  -2.364  18.481  1.00  0.00     0.025 A 
ATOM     13  C   UNL     1      23.493  -3.326  19.030  1.00  0.00     0.016 A 
ATOM     14  C   UNL     1      24.688  -2.935  19.641  1.00  0.00     0.051 A 
ATOM     15  C   UNL     1      25.040  -1.579  19.700  1.00  0.00     0.157 A 
ATOM     16  C   UNL     1      22.997  -1.009  18.525  1.00  0.00     0.062 A 
ATOM     17  C   UNL     1      24.194  -0.615  19.138  1.00  0.00     0.158 A 
BRANCH  15  18
ATOM     18  O   UNL     1      26.229  -1.186  20.310  1.00  0.00    -0.504 OA
ATOM     19  H   UNL     1      26.242  -0.490  21.047  1.00  0.00     0.293 HD
ENDBRANCH  15  18
BRANCH  17  20
ATOM     20  O   UNL     1      24.550   0.730  19.192  1.00  0.00    -0.504 OA
ATOM     21  H   UNL     1      25.351   1.046  19.727  1.00  0.00     0.293 HD
ENDBRANCH  17  20
ENDBRANCH   1  12
BRANCH   2  22
ATOM     22  O   UNL     1      22.550  -3.504  15.819  1.00  0.00    -0.502 OA
ATOM     23  H   UNL     1      22.750  -3.088  14.917  1.00  0.00     0.293 HD
ENDBRANCH   2  22
BRANCH   6  24
ATOM     24  O   UNL     1      17.347  -3.999  14.794  1.00  0.00    -0.507 OA
ATOM     25  H   UNL     1      18.042  -4.316  14.135  1.00  0.00     0.293 HD
ENDBRANCH   6  24
BRANCH   8  26
ATOM     26  O   UNL     1      15.516  -2.950  19.088  1.00  0.00    -0.508 OA
ATOM     27  H   UNL     1      15.143  -3.737  19.609  1.00  0.00     0.293 HD
ENDBRANCH   8  26
TORSDOF 6
ENDMDL
MODEL 2
REMARK VINA RESULT:    -4.910      3.059      7.359
REMARK INTER + INTRA:          -6.192
REMARK INTER:                  -5.876
REMARK INTRA:                  -0.315
REMARK UNBOUND:                -0.277
REMARK SMILES O=c1c(O)c(-c2ccc(O)c(O)c2)oc2cc(O)cc(O)c12
REMARK SMILES IDX 5 1 3 2 2 3 1 4 22 5 20 6 19 7 17 8 16 9 15 10 14 11 6 12
REMARK SMILES IDX 7 13 8 14 9 15 13 16 11 17 10 18 12 20 4 22 21 24 18 26
REMARK H PARENT 10 19 12 21 4 23 21 25 18 27
REMARK Flexibility Score: inf
ROOT
ATOM      1  C   UNL     1      22.857  -0.228  19.320  1.00  0.00     0.180 A 
ATOM      2  C   UNL     1      24.128  -0.504  19.857  1.00  0.00     0.208 A 
ATOM      3  C   UNL     1      24.601   0.279  20.922  1.00  0.00     0.238 A 
ATOM      4  O   UNL     1      25.760   0.064  21.362  1.00  0.00    -0.285 OA
ATOM      5  C   UNL     1      23.793   1.316  21.447  1.00  0.00     0.111 A 
ATOM      6  C   UNL     1      24.155   2.145  22.552  1.00  0.00     0.134 A 
ATOM      7  C   UNL     1      23.334   3.224  22.904  1.00  0.00     0.093 A 
ATOM      8  C   UNL     1      22.135   3.465  22.234  1.00  0.00     0.123 A 
ATOM      9  C   UNL     1      21.742   2.624  21.193  1.00  0.00     0.094 A 
ATOM     10  C   UNL     1      22.557   1.562  20.795  1.00  0.00     0.146 A 
ATOM     11  O   UNL     1      22.152   0.792  19.792  1.00  0.00    -0.452 OA
ENDROOT
BRANCH   1  12
ATOM     12  C   UNL     1      22.280  -1.026  18.214  1.00  0.00     0.025 A 
ATOM     13  C   UNL     1      22.580  -0.739  16.870  1.00  0.00     0.016 A 
ATOM     14  C   UNL     1      22.043  -1.521  15.844  1.00  0.00     0.051 A 
ATOM     15  C   UNL     1      21.210  -2.608  16.146  1.00  0.00     0.157 A 
ATOM     16  C   UNL     1      21.462  -2.129  18.510  1.00  0.00     0.062 A 
ATOM     17  C   UNL     1      20.922  -2.913  17.481  1.00  0.00     0.158 A 
BRANCH  15  18
ATOM     18  O   UNL     1      20.672  -3.388  15.125  1.00  0.00    -0.504 OA
ATOM     19  H   UNL     1      21.258  -3.809  14.413  1.00  0.00     0.293 HD
ENDBRANCH  15  18
BRANCH  17  20
ATOM     20  O   UNL     1      20.100  -3.998  17.779  1.00  0.00    -0.504 OA
ATOM     21  H   UNL     1      19.147  -4.052  17.435  1.00  0.00     0.293 HD
ENDBRANCH  17  20
ENDBRANCH   1  12
BRANCH   2  22
ATOM     22  O   UNL     1      24.917  -1.517  19.308  1.00  0.00    -0.502 OA
ATOM     23  H   UNL     1      25.599  -1.342  18.579  1.00  0.00     0.293 HD
ENDBRANCH   2  22
BRANCH   6  24
ATOM     24  O   UNL     1      25.286   1.937  23.346  1.00  0.00    -0.507 OA
ATOM     25  H   UNL     1      26.059   2.581  23.426  1.00  0.00     0.293 HD
ENDBRANCH   6  24
BRANCH   8  26
ATOM     26  O   UNL     1      21.336   4.538  22.622  1.00  0.00    -0.508 OA
ATOM     27  H   UNL     1      20.443   4.395  23.081  1.00  0.00     0.293 HD
ENDBRANCH   8  26
TORSDOF 6
ENDMDL
MODEL 3
REMARK VINA RESULT:    -4.786      3.468      7.753
REMARK INTER + INTRA:          -6.042
REMARK INTER:                  -5.763
REMARK INTRA:                  -0.279
REMARK UNBOUND:                -0.277
REMARK SMILES O=c1c(O)c(-c2ccc(O)c(O)c2)oc2cc(O)cc(O)c12
REMARK SMILES IDX 5 1 3 2 2 3 1 4 22 5 20 6 19 7 17 8 16 9 15 10 14 11 6 12
REMARK SMILES IDX 7 13 8 14 9 15 13 16 11 17 10 18 12 20 4 22 21 24 18 26
REMARK H PARENT 10 19 12 21 4 23 21 25 18 27
REMARK Flexibility Score: inf
ROOT
ATOM      1  C   UNL     1      22.140   0.028  20.075  1.00  0.00     0.180 A 
ATOM      2  C   UNL     1      21.124   0.920  20.461  1.00  0.00     0.208 A 
ATOM      3  C   UNL     1      21.432   1.955  21.358  1.00  0.00     0.238 A 
ATOM      4  O   UNL     1      20.506   2.717  21.742  1.00  0.00    -0.285 OA
ATOM      5  C   UNL     1      22.753   2.096  21.845  1.00  0.00     0.111 A 
ATOM      6  C   UNL     1      23.187   3.133  22.726  1.00  0.00     0.134 A 
ATOM      7  C   UNL     1      24.486   3.100  23.246  1.00  0.00     0.093 A 
ATOM      8  C   UNL     1      25.387   2.105  22.867  1.00  0.00     0.123 A 
ATOM      9  C   UNL     1      24.993   1.121  21.960  1.00  0.00     0.094 A 
ATOM     10  C   UNL     1      23.692   1.107  21.452  1.00  0.00     0.146 A 
ATOM     11  O   UNL     1      23.354   0.147  20.600  1.00  0.00    -0.452 OA
ENDROOT
BRANCH   1  12
ATOM     12  C   UNL     1      21.899  -1.073  19.115  1.00  0.00     0.025 A 
ATOM     13  C   UNL     1      21.244  -2.255  19.504  1.00  0.00     0.016 A 
ATOM     14  C   UNL     1      21.005  -3.270  18.574  1.00  0.00     0.051 A 
ATOM     15  C   UNL     1      21.405  -3.114  17.240  1.00  0.00     0.157 A 
ATOM     16  C   UNL     1      22.278  -0.914  17.771  1.00  0.00     0.062 A 
ATOM     17  C   UNL     1      22.041  -1.932  16.838  1.00  0.00     0.158 A 
BRANCH  15  18
ATOM     18  O   UNL     1      21.171  -4.125  16.311  1.00  0.00    -0.504 OA
ATOM     19  H   UNL     1      20.701  -4.985  16.569  1.00  0.00     0.293 HD
ENDBRANCH  15  18
BRANCH  17  20
ATOM     20  O   UNL     1      22.430  -1.777  15.509  1.00  0.00    -0.504 OA
ATOM     21  H   UNL     1      21.790  -1.427  14.806  1.00  0.00     0.293 HD
ENDBRANCH  17  20
ENDBRANCH   1  12
BRANCH   2  22
ATOM     22  O   UNL     1      19.822   0.749  19.986  1.00  0.00    -0.502 OA
ATOM     23  H   UNL     1      19.222   1.530  19.747  1.00  0.00     0.293 HD
ENDBRANCH   2  22
BRANCH   6  24
ATOM     24  O   UNL     1      22.395   4.223  23.096  1.00  0.00    -0.507 OA
ATOM     25  H   UNL     1      22.244   5.044  22.528  1.00  0.00     0.293 HD
ENDBRANCH   6  24
BRANCH   8  26
ATOM     26  O   UNL     1      26.678   2.112  23.393  1.00  0.00    -0.508 OA
ATOM     27  H   UNL     1      27.048   2.923  23.876  1.00  0.00     0.293 HD
ENDBRANCH   8  26
TORSDOF 6
ENDMDL
MODEL 4
REMARK VINA RESULT:    -4.640      4.644      6.744
REMARK INTER + INTRA:          -5.867
REMARK INTER:                  -5.583
REMARK INTRA:                  -0.284
REMARK UNBOUND:                -0.277
REMARK SMILES O=c1c(O)c(-c2ccc(O)c(O)c2)oc2cc(O)cc(O)c12
REMARK SMILES IDX 5 1 3 2 2 3 1 4 22 5 20 6 19 7 17 8 16 9 15 10 14 11 6 12
REMARK SMILES IDX 7 13 8 14 9 15 13 16 11 17 10 18 12 20 4 22 21 24 18 26
REMARK H PARENT 10 19 12 21 4 23 21 25 18 27
REMARK Flexibility Score: inf
ROOT
ATOM      1  C   UNL     1      21.646   2.118  21.065  1.00  0.00     0.180 A 
ATOM      2  C   UNL     1      20.352   1.756  21.481  1.00  0.00     0.208 A 
ATOM      3  C   UNL     1      19.813   0.536  21.043  1.00  0.00     0.238 A 
ATOM      4  O   UNL     1      18.634   0.243  21.373  1.00  0.00    -0.285 OA
ATOM      5  C   UNL     1      20.578  -0.314  20.210  1.00  0.00     0.111 A 
ATOM      6  C   UNL     1      20.148  -1.591  19.739  1.00  0.00     0.134 A 
ATOM      7  C   UNL     1      20.935  -2.289  18.815  1.00  0.00     0.093 A 
ATOM      8  C   UNL     1      22.165  -1.786  18.393  1.00  0.00     0.123 A 
ATOM      9  C   UNL     1      22.624  -0.567  18.892  1.00  0.00     0.094 A 
ATOM     10  C   UNL     1      21.845   0.169  19.788  1.00  0.00     0.146 A 
ATOM     11  O   UNL     1      22.313   1.329  20.231  1.00  0.00    -0.452 OA
ENDROOT
BRANCH   1  12
ATOM     12  C   UNL     1      22.291   3.376  21.505  1.00  0.00     0.025 A 
ATOM     13  C   UNL     1      21.956   4.613  20.926  1.00  0.00     0.016 A 
ATOM     14  C   UNL     1      22.561   5.790  21.375  1.00  0.00     0.051 A 
ATOM     15  C   UNL     1      23.498   5.750  22.416  1.00  0.00     0.157 A 
ATOM     16  C   UNL     1      23.216   3.346  22.563  1.00  0.00     0.062 A 
ATOM     17  C   UNL     1      23.824   4.526  23.013  1.00  0.00     0.158 A 
BRANCH  15  18
ATOM     18  O   UNL     1      24.104   6.922  22.865  1.00  0.00    -0.504 OA
ATOM     19  H   UNL     1      25.050   7.167  22.595  1.00  0.00     0.293 HD
ENDBRANCH  15  18
BRANCH  17  20
ATOM     20  O   UNL     1      24.750   4.490  24.052  1.00  0.00    -0.504 OA
ATOM     21  H   UNL     1      24.469   4.298  25.007  1.00  0.00     0.293 HD
ENDBRANCH  17  20
ENDBRANCH   1  12
BRANCH   2  22
ATOM     22  O   UNL     1      19.606   2.620  22.286  1.00  0.00    -0.502 OA
ATOM     23  H   UNL     1      19.229   2.339  23.183  1.00  0.00     0.293 HD
ENDBRANCH   2  22
BRANCH   6  24
ATOM     24  O   UNL     1      18.978  -2.226  20.167  1.00  0.00    -0.507 OA
ATOM     25  H   UNL     1      18.508  -2.964  19.665  1.00  0.00     0.293 HD
ENDBRANCH   6  24
BRANCH   8  26
ATOM     26  O   UNL     1      22.929  -2.515  17.483  1.00  0.00    -0.508 OA
ATOM     27  H   UNL     1      23.239  -3.458  17.689  1.00  0.00     0.293 HD
ENDBRANCH   8  26
TORSDOF 6
ENDMDL
MODEL 5
REMARK VINA RESULT:    -4.400      4.978      6.430
REMARK INTER + INTRA:          -5.578
REMARK INTER:                  -5.283
REMARK INTRA:                  -0.295
REMARK UNBOUND:                -0.277
REMARK SMILES O=c1c(O)c(-c2ccc(O)c(O)c2)oc2cc(O)cc(O)c12
REMARK SMILES IDX 5 1 3 2 2 3 1 4 22 5 20 6 19 7 17 8 16 9 15 10 14 11 6 12
REMARK SMILES IDX 7 13 8 14 9 15 13 16 11 17 10 18 12 20 4 22 21 24 18 26
REMARK H PARENT 10 19 12 21 4 23 21 25 18 27
REMARK Flexibility Score: inf
ROOT
ATOM      1  C   UNL     1      21.504   2.433  21.344  1.00  0.00     0.180 A 
ATOM      2  C   UNL     1      21.945   1.430  20.463  1.00  0.00     0.208 A 
ATOM      3  C   UNL     1      21.070   0.384  20.129  1.00  0.00     0.238 A 
ATOM      4  O   UNL     1      21.488  -0.539  19.383  1.00  0.00    -0.285 OA
ATOM      5  C   UNL     1      19.761   0.362  20.666  1.00  0.00     0.111 A 
ATOM      6  C   UNL     1      18.777  -0.627  20.365  1.00  0.00     0.134 A 
ATOM      7  C   UNL     1      17.558  -0.623  21.055  1.00  0.00     0.093 A 
ATOM      8  C   UNL     1      17.263   0.371  21.988  1.00  0.00     0.123 A 
ATOM      9  C   UNL     1      18.193   1.378  22.246  1.00  0.00     0.094 A 
ATOM     10  C   UNL     1      19.432   1.379  21.600  1.00  0.00     0.146 A 
ATOM     11  O   UNL     1      20.294   2.348  21.883  1.00  0.00    -0.452 OA
ENDROOT
BRANCH   1  12
ATOM     12  C   UNL     1      22.360   3.580  21.723  1.00  0.00     0.025 A 
ATOM     13  C   UNL     1      22.195   4.845  21.132  1.00  0.00     0.016 A 
ATOM     14  C   UNL     1      22.998   5.919  21.523  1.00  0.00     0.051 A 
ATOM     15  C   UNL     1      23.969   5.748  22.520  1.00  0.00     0.157 A 
ATOM     16  C   UNL     1      23.320   3.421  22.737  1.00  0.00     0.062 A 
ATOM     17  C   UNL     1      24.128   4.498  23.129  1.00  0.00     0.158 A 
BRANCH  15  18
ATOM     18  O   UNL     1      24.773   6.816  22.911  1.00  0.00    -0.504 OA
ATOM     19  H   UNL     1      24.989   7.578  22.278  1.00  0.00     0.293 HD
ENDBRANCH  15  18
BRANCH  17  20
ATOM     20  O   UNL     1      25.088   4.333  24.125  1.00  0.00    -0.504 OA
ATOM     21  H   UNL     1      25.962   3.851  23.945  1.00  0.00     0.293 HD
ENDBRANCH  17  20
ENDBRANCH   1  12
BRANCH   2  22
ATOM     22  O   UNL     1      23.249   1.460  19.961  1.00  0.00    -0.502 OA
ATOM     23  H   UNL     1      23.455   1.344  18.976  1.00  0.00     0.293 HD
ENDBRANCH   2  22
BRANCH   6  24
ATOM     24  O   UNL     1      18.935  -1.611  19.385  1.00  0.00    -0.507 OA
ATOM     25  H   UNL     1      19.645  -2.328  19.399  1.00  0.00     0.293 HD
ENDBRANCH   6  24
BRANCH   8  26
ATOM     26  O   UNL     1      16.034   0.353  22.644  1.00  0.00    -0.508 OA
ATOM     27  H   UNL     1      15.818  -0.348  23.344  1.00  0.00     0.293 HD
ENDBRANCH   8  26
TORSDOF 6
ENDMDL
MODEL 6
REMARK VINA RESULT:    -4.388      4.091      6.274
REMARK INTER + INTRA:          -5.563
REMARK INTER:                  -5.240
REMARK INTRA:                  -0.323
REMARK UNBOUND:                -0.277
REMARK SMILES O=c1c(O)c(-c2ccc(O)c(O)c2)oc2cc(O)cc(O)c12
REMARK SMILES IDX 5 1 3 2 2 3 1 4 22 5 20 6 19 7 17 8 16 9 15 10 14 11 6 12
REMARK SMILES IDX 7 13 8 14 9 15 13 16 11 17 10 18 12 20 4 22 21 24 18 26
REMARK H PARENT 10 19 12 21 4 23 21 25 18 27
REMARK Flexibility Score: inf
ROOT
ATOM      1  C   UNL     1      21.857   1.172  20.943  1.00  0.00     0.180 A 
ATOM      2  C   UNL     1      20.986   0.336  21.664  1.00  0.00     0.208 A 
ATOM      3  C   UNL     1      20.654  -0.921  21.134  1.00  0.00     0.238 A 
ATOM      4  O   UNL     1      19.832  -1.642  21.758  1.00  0.00    -0.285 OA
ATOM      5  C   UNL     1      21.209  -1.334  19.900  1.00  0.00     0.111 A 
ATOM      6  C   UNL     1      20.975  -2.603  19.289  1.00  0.00     0.134 A 
ATOM      7  C   UNL     1      21.472  -2.854  18.004  1.00  0.00     0.093 A 
ATOM      8  C   UNL     1      22.248  -1.908  17.335  1.00  0.00     0.123 A 
ATOM      9  C   UNL     1      22.535  -0.688  17.948  1.00  0.00     0.094 A 
ATOM     10  C   UNL     1      22.023  -0.394  19.214  1.00  0.00     0.146 A 
ATOM     11  O   UNL     1      22.309   0.783  19.757  1.00  0.00    -0.452 OA
ENDROOT
BRANCH   1  12
ATOM     12  C   UNL     1      22.272   2.500  21.448  1.00  0.00     0.025 A 
ATOM     13  C   UNL     1      21.526   3.658  21.164  1.00  0.00     0.016 A 
ATOM     14  C   UNL     1      21.924   4.898  21.673  1.00  0.00     0.051 A 
ATOM     15  C   UNL     1      23.064   4.996  22.482  1.00  0.00     0.157 A 
ATOM     16  C   UNL     1      23.402   2.602  22.277  1.00  0.00     0.062 A 
ATOM     17  C   UNL     1      23.802   3.845  22.787  1.00  0.00     0.158 A 
BRANCH  15  18
ATOM     18  O   UNL     1      23.465   6.230  22.989  1.00  0.00    -0.504 OA
ATOM     19  H   UNL     1      23.747   6.988  22.379  1.00  0.00     0.293 HD
ENDBRANCH  15  18
BRANCH  17  20
ATOM     20  O   UNL     1      24.931   3.945  23.597  1.00  0.00    -0.504 OA
ATOM     21  H   UNL     1      25.191   4.819  24.040  1.00  0.00     0.293 HD
ENDBRANCH  17  20
ENDBRANCH   1  12
BRANCH   2  22
ATOM     22  O   UNL     1      20.432   0.773  22.870  1.00  0.00    -0.502 OA
ATOM     23  H   UNL     1      19.432   0.820  23.024  1.00  0.00     0.293 HD
ENDBRANCH   2  22
BRANCH   6  24
ATOM     24  O   UNL     1      20.289  -3.651  19.908  1.00  0.00    -0.507 OA
ATOM     25  H   UNL     1      19.796  -4.384  19.419  1.00  0.00     0.293 HD
ENDBRANCH   6  24
BRANCH   8  26
ATOM     26  O   UNL     1      22.740  -2.199  16.064  1.00  0.00    -0.508 OA
ATOM     27  H   UNL     1      22.224  -1.951  15.227  1.00  0.00     0.293 HD
ENDBRANCH   8  26
TORSDOF 6
ENDMDL
MODEL 7
REMARK VINA RESULT:    -4.356      1.683      7.364
REMARK INTER + INTRA:          -5.524
REMARK INTER:                  -5.306
REMARK INTRA:                  -0.219
REMARK UNBOUND:                -0.277
REMARK SMILES O=c1c(O)c(-c2ccc(O)c(O)c2)oc2cc(O)cc(O)c12
REMARK SMILES IDX 5 1 3 2 2 3 1 4 22 5 20 6 19 7 17 8 16 9 15 10 14 11 6 12
REMARK SMILES IDX 7 13 8 14 9 15 13 16 11 17 10 18 12 20 4 22 21 24 18 26
REMARK H PARENT 10 19 12 21 4 23 21 25 18 27
REMARK Flexibility Score: inf
ROOT
ATOM      1  C   UNL     1      21.517  -1.930  19.088  1.00  0.00     0.180 A 
ATOM      2  C   UNL     1      21.588  -0.602  19.545  1.00  0.00     0.208 A 
ATOM      3  C   UNL     1      22.821  -0.100  19.991  1.00  0.00     0.238 A 
ATOM      4  O   UNL     1      22.867   1.071  20.451  1.00  0.00    -0.285 OA
ATOM      5  C   UNL     1      23.970  -0.925  19.960  1.00  0.00     0.111 A 
ATOM      6  C   UNL     1      25.279  -0.509  20.349  1.00  0.00     0.134 A 
ATOM      7  C   UNL     1      26.317  -1.447  20.400  1.00  0.00     0.093 A 
ATOM      8  C   UNL     1      26.110  -2.771  20.014  1.00  0.00     0.123 A 
ATOM      9  C   UNL     1      24.849  -3.175  19.574  1.00  0.00     0.094 A 
ATOM     10  C   UNL     1      23.785  -2.271  19.547  1.00  0.00     0.146 A 
ATOM     11  O   UNL     1      22.599  -2.698  19.132  1.00  0.00    -0.452 OA
ENDROOT
BRANCH   1  12
ATOM     12  C   UNL     1      20.259  -2.521  18.579  1.00  0.00     0.025 A 
ATOM     13  C   UNL     1      19.186  -2.814  19.440  1.00  0.00     0.016 A 
ATOM     14  C   UNL     1      17.999  -3.350  18.933  1.00  0.00     0.051 A 
ATOM     15  C   UNL     1      17.862  -3.588  17.558  1.00  0.00     0.157 A 
ATOM     16  C   UNL     1      20.107  -2.743  17.200  1.00  0.00     0.062 A 
ATOM     17  C   UNL     1      18.918  -3.281  16.690  1.00  0.00     0.158 A 
BRANCH  15  18
ATOM     18  O   UNL     1      16.681  -4.123  17.050  1.00  0.00    -0.504 OA
ATOM     19  H   UNL     1      15.804  -4.047  17.553  1.00  0.00     0.293 HD
ENDBRANCH  15  18
BRANCH  17  20
ATOM     20  O   UNL     1      18.776  -3.512  15.324  1.00  0.00    -0.504 OA
ATOM     21  H   UNL     1      18.074  -3.029  14.774  1.00  0.00     0.293 HD
ENDBRANCH  17  20
ENDBRANCH   1  12
BRANCH   2  22
ATOM     22  O   UNL     1      20.437   0.188  19.588  1.00  0.00    -0.502 OA
ATOM     23  H   UNL     1      19.667  -0.006  20.218  1.00  0.00     0.293 HD
ENDBRANCH   2  22
BRANCH   6  24
ATOM     24  O   UNL     1      25.615   0.810  20.667  1.00  0.00    -0.507 OA
ATOM     25  H   UNL     1      25.069   1.620  20.413  1.00  0.00     0.293 HD
ENDBRANCH   6  24
BRANCH   8  26
ATOM     26  O   UNL     1      27.170  -3.674  20.062  1.00  0.00    -0.508 OA
ATOM     27  H   UNL     1      27.489  -4.161  19.232  1.00  0.00     0.293 HD
ENDBRANCH   8  26
TORSDOF 6
ENDMDL
MODEL 8
REMARK VINA RESULT:    -4.341     17.239     18.684
REMARK INTER + INTRA:          -5.506
REMARK INTER:                  -5.210
REMARK INTRA:                  -0.297
REMARK UNBOUND:                -0.277
REMARK SMILES O=c1c(O)c(-c2ccc(O)c(O)c2)oc2cc(O)cc(O)c12
REMARK SMILES IDX 5 1 3 2 2 3 1 4 22 5 20 6 19 7 17 8 16 9 15 10 14 11 6 12
REMARK SMILES IDX 7 13 8 14 9 15 13 16 11 17 10 18 12 20 4 22 21 24 18 26
REMARK H PARENT 10 19 12 21 4 23 21 25 18 27
REMARK Flexibility Score: inf
ROOT
ATOM      1  C   UNL     1      27.198  10.369   5.849  1.00  0.00     0.180 A 
ATOM      2  C   UNL     1      26.039  11.076   5.481  1.00  0.00     0.208 A 
ATOM      3  C   UNL     1      24.972  10.378   4.893  1.00  0.00     0.238 A 
ATOM      4  O   UNL     1      23.961  11.025   4.516  1.00  0.00    -0.285 OA
ATOM      5  C   UNL     1      25.070   8.980   4.695  1.00  0.00     0.111 A 
ATOM      6  C   UNL     1      24.035   8.164   4.146  1.00  0.00     0.134 A 
ATOM      7  C   UNL     1      24.289   6.814   3.875  1.00  0.00     0.093 A 
ATOM      8  C   UNL     1      25.518   6.235   4.193  1.00  0.00     0.123 A 
ATOM      9  C   UNL     1      26.515   7.008   4.786  1.00  0.00     0.094 A 
ATOM     10  C   UNL     1      26.304   8.366   5.035  1.00  0.00     0.146 A 
ATOM     11  O   UNL     1      27.284   9.070   5.590  1.00  0.00    -0.452 OA
ENDROOT
BRANCH   1  12
ATOM     12  C   UNL     1      28.352  11.031   6.496  1.00  0.00     0.025 A 
ATOM     13  C   UNL     1      29.475  11.437   5.753  1.00  0.00     0.016 A 
ATOM     14  C   UNL     1      30.544  12.083   6.382  1.00  0.00     0.051 A 
ATOM     15  C   UNL     1      30.499  12.345   7.759  1.00  0.00     0.157 A 
ATOM     16  C   UNL     1      28.305  11.316   7.871  1.00  0.00     0.062 A 
ATOM     17  C   UNL     1      29.376  11.963   8.504  1.00  0.00     0.158 A 
BRANCH  15  18
ATOM     18  O   UNL     1      31.562  12.986   8.389  1.00  0.00    -0.504 OA
ATOM     19  H   UNL     1      31.929  12.660   9.276  1.00  0.00     0.293 HD
ENDBRANCH  15  18
BRANCH  17  20
ATOM     20  O   UNL     1      29.331  12.231   9.870  1.00  0.00    -0.504 OA
ATOM     21  H   UNL     1      29.966  11.782  10.520  1.00  0.00     0.293 HD
ENDBRANCH  17  20
ENDBRANCH   1  12
BRANCH   2  22
ATOM     22  O   UNL     1      25.973  12.459   5.666  1.00  0.00    -0.502 OA
ATOM     23  H   UNL     1      25.891  12.883   6.583  1.00  0.00     0.293 HD
ENDBRANCH   2  22
BRANCH   6  24
ATOM     24  O   UNL     1      22.742   8.622   3.876  1.00  0.00    -0.507 OA
ATOM     25  H   UNL     1      22.481   9.162   3.064  1.00  0.00     0.293 HD
ENDBRANCH   6  24
BRANCH   8  26
ATOM     26  O   UNL     1      25.729   4.884   3.924  1.00  0.00    -0.508 OA
ATOM     27  H   UNL     1      25.398   4.457   3.066  1.00  0.00     0.293 HD
ENDBRANCH   8  26
TORSDOF 6
ENDMDL
