MODEL 1
REMARK VINA RESULT:    -6.301      0.000      0.000
REMARK INTER + INTRA:          -8.097
REMARK INTER:                  -7.774
REMARK INTRA:                  -0.323
REMARK UNBOUND:                -0.323
REMARK SMILES O=c1c(O)c(-c2cc(O)c(O)c(O)c2)oc2cc(O)cc(O)c12
REMARK SMILES IDX 5 1 3 2 2 3 1 4 23 5 21 6 20 7 18 8 17 9 16 10 15 11 6 12
REMARK SMILES IDX 7 13 8 14 14 15 10 16 12 17 9 18 11 20 13 22 4 24 22 26
REMARK SMILES IDX 19 28
REMARK H PARENT 9 19 11 21 13 23 4 25 22 27 19 29
REMARK Flexibility Score: inf
ROOT
ATOM      1  C   UNL     1       8.964  11.185  38.650  1.00  0.00     0.180 A 
ATOM      2  C   UNL     1       8.936  12.006  39.794  1.00  0.00     0.208 A 
ATOM      3  C   UNL     1       8.908  13.399  39.628  1.00  0.00     0.238 A 
ATOM      4  O   UNL     1       8.871  14.145  40.645  1.00  0.00    -0.285 OA
ATOM      5  C   UNL     1       8.928  13.947  38.329  1.00  0.00     0.111 A 
ATOM      6  C   UNL     1       8.906  15.340  38.077  1.00  0.00     0.134 A 
ATOM      7  C   UNL     1       8.938  15.807  36.754  1.00  0.00     0.093 A 
ATOM      8  C   UNL     1       8.994  14.909  35.682  1.00  0.00     0.123 A 
ATOM      9  C   UNL     1       9.015  13.536  35.928  1.00  0.00     0.094 A 
ATOM     10  C   UNL     1       8.982  13.050  37.237  1.00  0.00     0.146 A 
ATOM     11  O   UNL     1       8.998  11.738  37.441  1.00  0.00    -0.452 OA
ENDROOT
BRANCH   1  12
ATOM     12  C   UNL     1       8.976   9.707  38.742  1.00  0.00     0.029 A 
ATOM     13  C   UNL     1      10.160   9.008  38.465  1.00  0.00     0.062 A 
ATOM     14  C   UNL     1      10.196   7.611  38.524  1.00  0.00     0.162 A 
ATOM     15  C   UNL     1       7.810   8.984  39.046  1.00  0.00     0.062 A 
ATOM     16  C   UNL     1       9.032   6.893  38.850  1.00  0.00     0.200 A 
ATOM     17  C   UNL     1       7.836   7.584  39.106  1.00  0.00     0.162 A 
BRANCH  14  18
ATOM     18  O   UNL     1      11.396   6.954  38.256  1.00  0.00    -0.504 OA
ATOM     19  H   UNL     1      11.552   6.448  37.392  1.00  0.00     0.293 HD
ENDBRANCH  14  18
BRANCH  16  20
ATOM     20  O   UNL     1       9.076   5.500  38.909  1.00  0.00    -0.502 OA
ATOM     21  H   UNL     1       8.722   4.915  38.161  1.00  0.00     0.293 HD
ENDBRANCH  16  20
BRANCH  17  22
ATOM     22  O   UNL     1       6.675   6.877  39.415  1.00  0.00    -0.504 OA
ATOM     23  H   UNL     1       6.409   6.683  40.374  1.00  0.00     0.293 HD
ENDBRANCH  17  22
ENDBRANCH   1  12
BRANCH   2  24
ATOM     24  O   UNL     1       8.966  11.439  41.070  1.00  0.00    -0.502 OA
ATOM     25  H   UNL     1       9.676  11.675  41.753  1.00  0.00     0.293 HD
ENDBRANCH   2  24
BRANCH   6  26
ATOM     26  O   UNL     1       8.852  16.260  39.125  1.00  0.00    -0.507 OA
ATOM     27  H   UNL     1       9.629  16.388  39.762  1.00  0.00     0.293 HD
ENDBRANCH   6  26
BRANCH   8  28
ATOM     28  O   UNL     1       9.027  15.373  34.369  1.00  0.00    -0.508 OA
ATOM     29  H   UNL     1       8.331  15.090  33.689  1.00  0.00     0.293 HD
ENDBRANCH   8  28
TORSDOF 7
ENDMDL
MODEL 2
REMARK VINA RESULT:    -6.217      1.733      6.948
REMARK INTER + INTRA:          -7.994
REMARK INTER:                  -7.975
REMARK INTRA:                  -0.019
REMARK UNBOUND:                -0.323
REMARK SMILES O=c1c(O)c(-c2cc(O)c(O)c(O)c2)oc2cc(O)cc(O)c12
REMARK SMILES IDX 5 1 3 2 2 3 1 4 23 5 21 6 20 7 18 8 17 9 16 10 15 11 6 12
REMARK SMILES IDX 7 13 8 14 14 15 10 16 12 17 9 18 11 20 13 22 4 24 22 26
REMARK SMILES IDX 19 28
REMARK H PARENT 9 19 11 21 13 23 4 25 22 27 19 29
REMARK Flexibility Score: inf
ROOT
ATOM      1  C   UNL     1       9.319  11.561  38.447  1.00  0.00     0.180 A 
ATOM      2  C   UNL     1       8.978  11.048  39.713  1.00  0.00     0.208 A 
ATOM      3  C   UNL     1       9.228   9.694  39.987  1.00  0.00     0.238 A 
ATOM      4  O   UNL     1       8.937   9.226  41.121  1.00  0.00    -0.285 OA
ATOM      5  C   UNL     1       9.794   8.875  38.988  1.00  0.00     0.111 A 
ATOM      6  C   UNL     1      10.073   7.500  39.182  1.00  0.00     0.134 A 
ATOM      7  C   UNL     1      10.629   6.750  38.135  1.00  0.00     0.093 A 
ATOM      8  C   UNL     1      10.908   7.346  36.900  1.00  0.00     0.123 A 
ATOM      9  C   UNL     1      10.634   8.700  36.706  1.00  0.00     0.094 A 
ATOM     10  C   UNL     1      10.083   9.466  37.736  1.00  0.00     0.146 A 
ATOM     11  O   UNL     1       9.838  10.754  37.525  1.00  0.00    -0.452 OA
ENDROOT
BRANCH   1  12
ATOM     12  C   UNL     1       9.104  12.981  38.090  1.00  0.00     0.029 A 
ATOM     13  C   UNL     1       7.835  13.552  38.265  1.00  0.00     0.062 A 
ATOM     14  C   UNL     1       7.597  14.886  37.917  1.00  0.00     0.162 A 
ATOM     15  C   UNL     1      10.131  13.757  37.524  1.00  0.00     0.062 A 
ATOM     16  C   UNL     1       8.633  15.664  37.372  1.00  0.00     0.200 A 
ATOM     17  C   UNL     1       9.901  15.094  37.171  1.00  0.00     0.162 A 
BRANCH  14  18
ATOM     18  O   UNL     1       6.325  15.420  38.120  1.00  0.00    -0.504 OA
ATOM     19  H   UNL     1       6.086  16.364  37.840  1.00  0.00     0.293 HD
ENDBRANCH  14  18
BRANCH  16  20
ATOM     20  O   UNL     1       8.389  16.995  37.030  1.00  0.00    -0.502 OA
ATOM     21  H   UNL     1       8.493  17.752  37.695  1.00  0.00     0.293 HD
ENDBRANCH  16  20
BRANCH  17  22
ATOM     22  O   UNL     1      10.929  15.856  36.617  1.00  0.00    -0.504 OA
ATOM     23  H   UNL     1      10.911  16.147  35.646  1.00  0.00     0.293 HD
ENDBRANCH  17  22
ENDBRANCH   1  12
BRANCH   2  24
ATOM     24  O   UNL     1       8.374  11.869  40.668  1.00  0.00    -0.502 OA
ATOM     25  H   UNL     1       8.416  11.670  41.661  1.00  0.00     0.293 HD
ENDBRANCH   2  24
BRANCH   6  26
ATOM     26  O   UNL     1       9.805   6.877  40.402  1.00  0.00    -0.507 OA
ATOM     27  H   UNL     1       9.599   5.887  40.460  1.00  0.00     0.293 HD
ENDBRANCH   6  26
BRANCH   8  28
ATOM     28  O   UNL     1      11.458   6.601  35.860  1.00  0.00    -0.508 OA
ATOM     29  H   UNL     1      11.094   6.658  34.916  1.00  0.00     0.293 HD
ENDBRANCH   8  28
TORSDOF 7
ENDMDL
MODEL 3
REMARK VINA RESULT:    -6.184      0.088      1.756
REMARK INTER + INTRA:          -7.954
REMARK INTER:                  -7.682
REMARK INTRA:                  -0.271
REMARK UNBOUND:                -0.323
REMARK SMILES O=c1c(O)c(-c2cc(O)c(O)c(O)c2)oc2cc(O)cc(O)c12
REMARK SMILES IDX 5 1 3 2 2 3 1 4 23 5 21 6 20 7 18 8 17 9 16 10 15 11 6 12
REMARK SMILES IDX 7 13 8 14 14 15 10 16 12 17 9 18 11 20 13 22 4 24 22 26
REMARK SMILES IDX 19 28
REMARK H PARENT 9 19 11 21 13 23 4 25 22 27 19 29
REMARK Flexibility Score: inf
ROOT
ATOM      1  C   UNL     1       9.026  11.179  38.577  1.00  0.00     0.180 A 
ATOM      2  C   UNL     1       8.960  11.970  39.740  1.00  0.00     0.208 A 
ATOM      3  C   UNL     1       8.911  13.366  39.609  1.00  0.00     0.238 A 
ATOM      4  O   UNL     1       8.841  14.084  40.644  1.00  0.00    -0.285 OA
ATOM      5  C   UNL     1       8.950  13.948  38.325  1.00  0.00     0.111 A 
ATOM      6  C   UNL     1       8.911  15.346  38.108  1.00  0.00     0.134 A 
ATOM      7  C   UNL     1       8.963  15.847  36.798  1.00  0.00     0.093 A 
ATOM      8  C   UNL     1       9.056  14.978  35.705  1.00  0.00     0.123 A 
ATOM      9  C   UNL     1       9.096  13.600  35.916  1.00  0.00     0.094 A 
ATOM     10  C   UNL     1       9.043  13.080  37.212  1.00  0.00     0.146 A 
ATOM     11  O   UNL     1       9.076  11.763  37.383  1.00  0.00    -0.452 OA
ENDROOT
BRANCH   1  12
ATOM     12  C   UNL     1       9.060   9.700  38.632  1.00  0.00     0.029 A 
ATOM     13  C   UNL     1       7.904   8.996  39.001  1.00  0.00     0.062 A 
ATOM     14  C   UNL     1       7.912   7.600  39.081  1.00  0.00     0.162 A 
ATOM     15  C   UNL     1      10.243   8.986  38.378  1.00  0.00     0.062 A 
ATOM     16  C   UNL     1       9.093   6.888  38.805  1.00  0.00     0.200 A 
ATOM     17  C   UNL     1      10.261   7.586  38.457  1.00  0.00     0.162 A 
BRANCH  14  18
ATOM     18  O   UNL     1       6.739   6.937  39.437  1.00  0.00    -0.504 OA
ATOM     19  H   UNL     1       5.997   7.394  39.954  1.00  0.00     0.293 HD
ENDBRANCH  14  18
BRANCH  16  20
ATOM     20  O   UNL     1       9.092   5.495  38.884  1.00  0.00    -0.502 OA
ATOM     21  H   UNL     1       8.548   4.993  39.575  1.00  0.00     0.293 HD
ENDBRANCH  16  20
BRANCH  17  22
ATOM     22  O   UNL     1      11.439   6.888  38.197  1.00  0.00    -0.504 OA
ATOM     23  H   UNL     1      11.434   5.897  37.982  1.00  0.00     0.293 HD
ENDBRANCH  17  22
ENDBRANCH   1  12
BRANCH   2  24
ATOM     24  O   UNL     1       8.971  11.371  41.002  1.00  0.00    -0.502 OA
ATOM     25  H   UNL     1       8.451  11.746  41.786  1.00  0.00     0.293 HD
ENDBRANCH   2  24
BRANCH   6  26
ATOM     26  O   UNL     1       8.819  16.238  39.177  1.00  0.00    -0.507 OA
ATOM     27  H   UNL     1       8.577  15.928  40.111  1.00  0.00     0.293 HD
ENDBRANCH   6  26
BRANCH   8  28
ATOM     28  O   UNL     1       9.110  15.476  34.406  1.00  0.00    -0.508 OA
ATOM     29  H   UNL     1       9.169  14.859  33.603  1.00  0.00     0.293 HD
ENDBRANCH   8  28
TORSDOF 7
ENDMDL
MODEL 4
REMARK VINA RESULT:    -5.869      1.951      7.535
REMARK INTER + INTRA:          -7.564
REMARK INTER:                  -7.284
REMARK INTRA:                  -0.280
REMARK UNBOUND:                -0.323
REMARK SMILES O=c1c(O)c(-c2cc(O)c(O)c(O)c2)oc2cc(O)cc(O)c12
REMARK SMILES IDX 5 1 3 2 2 3 1 4 23 5 21 6 20 7 18 8 17 9 16 10 15 11 6 12
REMARK SMILES IDX 7 13 8 14 14 15 10 16 12 17 9 18 11 20 13 22 4 24 22 26
REMARK SMILES IDX 19 28
REMARK H PARENT 9 19 11 21 13 23 4 25 22 27 19 29
REMARK Flexibility Score: inf
ROOT
ATOM      1  C   UNL     1       9.362  14.546  37.217  1.00  0.00     0.180 A 
ATOM      2  C   UNL     1       9.121  14.779  38.586  1.00  0.00     0.208 A 
ATOM      3  C   UNL     1       9.025  13.680  39.454  1.00  0.00     0.238 A 
ATOM      4  O   UNL     1       8.820  13.877  40.683  1.00  0.00    -0.285 OA
ATOM      5  C   UNL     1       9.150  12.373  38.941  1.00  0.00     0.111 A 
ATOM      6  C   UNL     1       9.060  11.213  39.748  1.00  0.00     0.134 A 
ATOM      7  C   UNL     1       9.186   9.946  39.160  1.00  0.00     0.093 A 
ATOM      8  C   UNL     1       9.397   9.817  37.782  1.00  0.00     0.123 A 
ATOM      9  C   UNL     1       9.486  10.958  36.984  1.00  0.00     0.094 A 
ATOM     10  C   UNL     1       9.365  12.230  37.550  1.00  0.00     0.146 A 
ATOM     11  O   UNL     1       9.459  13.298  36.767  1.00  0.00    -0.452 OA
ENDROOT
BRANCH   1  12
ATOM     12  C   UNL     1       9.496  15.652  36.243  1.00  0.00     0.029 A 
ATOM     13  C   UNL     1       8.351  16.348  35.828  1.00  0.00     0.062 A 
ATOM     14  C   UNL     1       8.444  17.384  34.893  1.00  0.00     0.162 A 
ATOM     15  C   UNL     1      10.739  15.983  35.679  1.00  0.00     0.062 A 
ATOM     16  C   UNL     1       9.693  17.727  34.347  1.00  0.00     0.200 A 
ATOM     17  C   UNL     1      10.842  17.019  34.740  1.00  0.00     0.162 A 
BRANCH  14  18
ATOM     18  O   UNL     1       7.284  18.061  34.517  1.00  0.00    -0.504 OA
ATOM     19  H   UNL     1       6.395  17.902  34.975  1.00  0.00     0.293 HD
ENDBRANCH  14  18
BRANCH  16  20
ATOM     20  O   UNL     1       9.779  18.763  33.417  1.00  0.00    -0.502 OA
ATOM     21  H   UNL     1       8.976  19.324  33.158  1.00  0.00     0.293 HD
ENDBRANCH  16  20
BRANCH  17  22
ATOM     22  O   UNL     1      12.082  17.344  34.192  1.00  0.00    -0.504 OA
ATOM     23  H   UNL     1      12.763  16.631  33.955  1.00  0.00     0.293 HD
ENDBRANCH  17  22
ENDBRANCH   1  12
BRANCH   2  24
ATOM     24  O   UNL     1       8.953  16.082  39.060  1.00  0.00    -0.502 OA
ATOM     25  H   UNL     1       8.056  16.435  39.369  1.00  0.00     0.293 HD
ENDBRANCH   2  24
BRANCH   6  26
ATOM     26  O   UNL     1       8.849  11.310  41.124  1.00  0.00    -0.507 OA
ATOM     27  H   UNL     1       8.292  12.054  41.527  1.00  0.00     0.293 HD
ENDBRANCH   6  26
BRANCH   8  28
ATOM     28  O   UNL     1       9.521   8.559  37.198  1.00  0.00    -0.508 OA
ATOM     29  H   UNL     1      10.143   7.856  37.580  1.00  0.00     0.293 HD
ENDBRANCH   8  28
TORSDOF 7
ENDMDL
MODEL 5
REMARK VINA RESULT:    -5.866      8.472     10.905
REMARK INTER + INTRA:          -7.561
REMARK INTER:                  -7.273
REMARK INTRA:                  -0.287
REMARK UNBOUND:                -0.323
REMARK SMILES O=c1c(O)c(-c2cc(O)c(O)c(O)c2)oc2cc(O)cc(O)c12
REMARK SMILES IDX 5 1 3 2 2 3 1 4 23 5 21 6 20 7 18 8 17 9 16 10 15 11 6 12
REMARK SMILES IDX 7 13 8 14 14 15 10 16 12 17 9 18 11 20 13 22 4 24 22 26
REMARK SMILES IDX 19 28
REMARK H PARENT 9 19 11 21 13 23 4 25 22 27 19 29
REMARK Flexibility Score: inf
ROOT
ATOM      1  C   UNL     1       0.527  12.564  38.349  1.00  0.00     0.180 A 
ATOM      2  C   UNL     1       1.739  12.906  37.719  1.00  0.00     0.208 A 
ATOM      3  C   UNL     1       2.717  11.915  37.545  1.00  0.00     0.238 A 
ATOM      4  O   UNL     1       3.803  12.208  36.973  1.00  0.00    -0.285 OA
ATOM      5  C   UNL     1       2.478  10.609  38.018  1.00  0.00     0.111 A 
ATOM      6  C   UNL     1       3.413   9.554  37.886  1.00  0.00     0.134 A 
ATOM      7  C   UNL     1       3.103   8.283  38.392  1.00  0.00     0.093 A 
ATOM      8  C   UNL     1       1.879   8.048  39.029  1.00  0.00     0.123 A 
ATOM      9  C   UNL     1       0.955   9.085  39.160  1.00  0.00     0.094 A 
ATOM     10  C   UNL     1       1.243  10.358  38.662  1.00  0.00     0.146 A 
ATOM     11  O   UNL     1       0.342  11.324  38.796  1.00  0.00    -0.452 OA
ENDROOT
BRANCH   1  12
ATOM     12  C   UNL     1      -0.560  13.548  38.552  1.00  0.00     0.029 A 
ATOM     13  C   UNL     1      -1.690  13.508  37.723  1.00  0.00     0.062 A 
ATOM     14  C   UNL     1      -2.724  14.437  37.878  1.00  0.00     0.162 A 
ATOM     15  C   UNL     1      -0.459  14.559  39.522  1.00  0.00     0.062 A 
ATOM     16  C   UNL     1      -2.629  15.435  38.864  1.00  0.00     0.200 A 
ATOM     17  C   UNL     1      -1.489  15.496  39.684  1.00  0.00     0.162 A 
BRANCH  14  18
ATOM     18  O   UNL     1      -3.837  14.355  37.042  1.00  0.00    -0.504 OA
ATOM     19  H   UNL     1      -4.718  13.964  37.355  1.00  0.00     0.293 HD
ENDBRANCH  14  18
BRANCH  16  20
ATOM     20  O   UNL     1      -3.665  16.357  39.014  1.00  0.00    -0.502 OA
ATOM     21  H   UNL     1      -3.554  17.337  38.783  1.00  0.00     0.293 HD
ENDBRANCH  16  20
BRANCH  17  22
ATOM     22  O   UNL     1      -1.382  16.491  40.654  1.00  0.00    -0.504 OA
ATOM     23  H   UNL     1      -1.837  16.407  41.556  1.00  0.00     0.293 HD
ENDBRANCH  17  22
ENDBRANCH   1  12
BRANCH   2  24
ATOM     24  O   UNL     1       1.971  14.220  37.303  1.00  0.00    -0.502 OA
ATOM     25  H   UNL     1       1.249  14.791  36.881  1.00  0.00     0.293 HD
ENDBRANCH   2  24
BRANCH   6  26
ATOM     26  O   UNL     1       4.643   9.758  37.258  1.00  0.00    -0.507 OA
ATOM     27  H   UNL     1       5.375   9.058  37.279  1.00  0.00     0.293 HD
ENDBRANCH   6  26
BRANCH   8  28
ATOM     28  O   UNL     1       1.572   6.786  39.532  1.00  0.00    -0.508 OA
ATOM     29  H   UNL     1       2.281   6.195  39.951  1.00  0.00     0.293 HD
ENDBRANCH   8  28
TORSDOF 7
ENDMDL
MODEL 6
REMARK VINA RESULT:    -5.812     13.050     14.500
REMARK INTER + INTRA:          -7.494
REMARK INTER:                  -7.128
REMARK INTRA:                  -0.367
REMARK UNBOUND:                -0.323
REMARK SMILES O=c1c(O)c(-c2cc(O)c(O)c(O)c2)oc2cc(O)cc(O)c12
REMARK SMILES IDX 5 1 3 2 2 3 1 4 23 5 21 6 20 7 18 8 17 9 16 10 15 11 6 12
REMARK SMILES IDX 7 13 8 14 14 15 10 16 12 17 9 18 11 20 13 22 4 24 22 26
REMARK SMILES IDX 19 28
REMARK H PARENT 9 19 11 21 13 23 4 25 22 27 19 29
REMARK Flexibility Score: inf
ROOT
ATOM      1  C   UNL     1      12.638  16.466  25.513  1.00  0.00     0.180 A 
ATOM      2  C   UNL     1      13.390  17.568  25.060  1.00  0.00     0.208 A 
ATOM      3  C   UNL     1      12.952  18.864  25.375  1.00  0.00     0.238 A 
ATOM      4  O   UNL     1      13.624  19.857  24.984  1.00  0.00    -0.285 OA
ATOM      5  C   UNL     1      11.766  19.038  26.117  1.00  0.00     0.111 A 
ATOM      6  C   UNL     1      11.255  20.310  26.472  1.00  0.00     0.134 A 
ATOM      7  C   UNL     1      10.062  20.399  27.204  1.00  0.00     0.093 A 
ATOM      8  C   UNL     1       9.371  19.244  27.586  1.00  0.00     0.123 A 
ATOM      9  C   UNL     1       9.872  17.989  27.238  1.00  0.00     0.094 A 
ATOM     10  C   UNL     1      11.059  17.877  26.510  1.00  0.00     0.146 A 
ATOM     11  O   UNL     1      11.516  16.670  26.198  1.00  0.00    -0.452 OA
ENDROOT
BRANCH   1  12
ATOM     12  C   UNL     1      13.044  15.070  25.238  1.00  0.00     0.029 A 
ATOM     13  C   UNL     1      12.519  14.406  24.120  1.00  0.00     0.062 A 
ATOM     14  C   UNL     1      12.869  13.079  23.846  1.00  0.00     0.162 A 
ATOM     15  C   UNL     1      13.901  14.373  26.107  1.00  0.00     0.062 A 
ATOM     16  C   UNL     1      13.743  12.393  24.706  1.00  0.00     0.200 A 
ATOM     17  C   UNL     1      14.256  13.043  25.842  1.00  0.00     0.162 A 
BRANCH  14  18
ATOM     18  O   UNL     1      12.336  12.460  22.716  1.00  0.00    -0.504 OA
ATOM     19  H   UNL     1      11.479  11.921  22.750  1.00  0.00     0.293 HD
ENDBRANCH  14  18
BRANCH  16  20
ATOM     20  O   UNL     1      14.090  11.071  24.425  1.00  0.00    -0.502 OA
ATOM     21  H   UNL     1      13.469  10.296  24.625  1.00  0.00     0.293 HD
ENDBRANCH  16  20
BRANCH  17  22
ATOM     22  O   UNL     1      15.112  12.363  26.707  1.00  0.00    -0.504 OA
ATOM     23  H   UNL     1      16.110  12.542  26.717  1.00  0.00     0.293 HD
ENDBRANCH  17  22
ENDBRANCH   1  12
BRANCH   2  24
ATOM     24  O   UNL     1      14.535  17.369  24.285  1.00  0.00    -0.502 OA
ATOM     25  H   UNL     1      15.300  18.032  24.267  1.00  0.00     0.293 HD
ENDBRANCH   2  24
BRANCH   6  26
ATOM     26  O   UNL     1      11.921  21.480  26.104  1.00  0.00    -0.507 OA
ATOM     27  H   UNL     1      11.487  22.391  26.194  1.00  0.00     0.293 HD
ENDBRANCH   6  26
BRANCH   8  28
ATOM     28  O   UNL     1       8.186  19.334  28.312  1.00  0.00    -0.508 OA
ATOM     29  H   UNL     1       7.462  18.628  28.235  1.00  0.00     0.293 HD
ENDBRANCH   8  28
TORSDOF 7
ENDMDL
MODEL 7
REMARK VINA RESULT:    -5.801      8.364     11.687
REMARK INTER + INTRA:          -7.480
REMARK INTER:                  -7.113
REMARK INTRA:                  -0.367
REMARK UNBOUND:                -0.323
REMARK SMILES O=c1c(O)c(-c2cc(O)c(O)c(O)c2)oc2cc(O)cc(O)c12
REMARK SMILES IDX 5 1 3 2 2 3 1 4 23 5 21 6 20 7 18 8 17 9 16 10 15 11 6 12
REMARK SMILES IDX 7 13 8 14 14 15 10 16 12 17 9 18 11 20 13 22 4 24 22 26
REMARK SMILES IDX 19 28
REMARK H PARENT 9 19 11 21 13 23 4 25 22 27 19 29
REMARK Flexibility Score: inf
ROOT
ATOM      1  C   UNL     1       7.860  21.046  34.688  1.00  0.00     0.180 A 
ATOM      2  C   UNL     1       8.818  22.074  34.590  1.00  0.00     0.208 A 
ATOM      3  C   UNL     1      10.161  21.731  34.370  1.00  0.00     0.238 A 
ATOM      4  O   UNL     1      11.026  22.643  34.270  1.00  0.00    -0.285 OA
ATOM      5  C   UNL     1      10.527  20.372  34.273  1.00  0.00     0.111 A 
ATOM      6  C   UNL     1      11.859  19.943  34.057  1.00  0.00     0.134 A 
ATOM      7  C   UNL     1      12.143  18.572  33.981  1.00  0.00     0.093 A 
ATOM      8  C   UNL     1      11.123  17.623  34.119  1.00  0.00     0.123 A 
ATOM      9  C   UNL     1       9.809  18.043  34.331  1.00  0.00     0.094 A 
ATOM     10  C   UNL     1       9.504  19.404  34.408  1.00  0.00     0.146 A 
ATOM     11  O   UNL     1       8.244  19.775  34.606  1.00  0.00    -0.452 OA
ENDROOT
BRANCH   1  12
ATOM     12  C   UNL     1       6.422  21.328  34.899  1.00  0.00     0.029 A 
ATOM     13  C   UNL     1       5.907  21.343  36.204  1.00  0.00     0.062 A 
ATOM     14  C   UNL     1       4.549  21.586  36.433  1.00  0.00     0.162 A 
ATOM     15  C   UNL     1       5.548  21.523  33.817  1.00  0.00     0.062 A 
ATOM     16  C   UNL     1       3.682  21.803  35.348  1.00  0.00     0.200 A 
ATOM     17  C   UNL     1       4.185  21.767  34.036  1.00  0.00     0.162 A 
BRANCH  14  18
ATOM     18  O   UNL     1       4.078  21.607  37.745  1.00  0.00    -0.504 OA
ATOM     19  H   UNL     1       3.618  22.419  38.140  1.00  0.00     0.293 HD
ENDBRANCH  14  18
BRANCH  16  20
ATOM     20  O   UNL     1       2.329  22.048  35.584  1.00  0.00    -0.502 OA
ATOM     21  H   UNL     1       1.612  21.820  34.906  1.00  0.00     0.293 HD
ENDBRANCH  16  20
BRANCH  17  22
ATOM     22  O   UNL     1       3.329  21.966  32.955  1.00  0.00    -0.504 OA
ATOM     23  H   UNL     1       2.330  22.084  33.082  1.00  0.00     0.293 HD
ENDBRANCH  17  22
ENDBRANCH   1  12
BRANCH   2  24
ATOM     24  O   UNL     1       8.437  23.409  34.738  1.00  0.00    -0.502 OA
ATOM     25  H   UNL     1       9.103  24.172  34.699  1.00  0.00     0.293 HD
ENDBRANCH   2  24
BRANCH   6  26
ATOM     26  O   UNL     1      12.897  20.865  33.917  1.00  0.00    -0.507 OA
ATOM     27  H   UNL     1      13.397  21.230  34.719  1.00  0.00     0.293 HD
ENDBRANCH   6  26
BRANCH   8  28
ATOM     28  O   UNL     1      11.406  16.262  34.044  1.00  0.00    -0.508 OA
ATOM     29  H   UNL     1      12.332  15.901  34.244  1.00  0.00     0.293 HD
ENDBRANCH   8  28
TORSDOF 7
ENDMDL
MODEL 8
REMARK VINA RESULT:    -5.767      8.289     10.630
REMARK INTER + INTRA:          -7.438
REMARK INTER:                  -7.076
REMARK INTRA:                  -0.362
REMARK UNBOUND:                -0.323
REMARK SMILES O=c1c(O)c(-c2cc(O)c(O)c(O)c2)oc2cc(O)cc(O)c12
REMARK SMILES IDX 5 1 3 2 2 3 1 4 23 5 21 6 20 7 18 8 17 9 16 10 15 11 6 12
REMARK SMILES IDX 7 13 8 14 14 15 10 16 12 17 9 18 11 20 13 22 4 24 22 26
REMARK SMILES IDX 19 28
REMARK H PARENT 9 19 11 21 13 23 4 25 22 27 19 29
REMARK Flexibility Score: inf
ROOT
ATOM      1  C   UNL     1       1.697  15.817  37.465  1.00  0.00     0.180 A 
ATOM      2  C   UNL     1       1.335  14.465  37.311  1.00  0.00     0.208 A 
ATOM      3  C   UNL     1      -0.013  14.102  37.457  1.00  0.00     0.238 A 
ATOM      4  O   UNL     1      -0.350  12.895  37.311  1.00  0.00    -0.285 OA
ATOM      5  C   UNL     1      -0.970  15.089  37.773  1.00  0.00     0.111 A 
ATOM      6  C   UNL     1      -2.347  14.805  37.941  1.00  0.00     0.134 A 
ATOM      7  C   UNL     1      -3.235  15.842  38.264  1.00  0.00     0.093 A 
ATOM      8  C   UNL     1      -2.773  17.153  38.424  1.00  0.00     0.123 A 
ATOM      9  C   UNL     1      -1.417  17.436  38.258  1.00  0.00     0.094 A 
ATOM     10  C   UNL     1      -0.515  16.418  37.935  1.00  0.00     0.146 A 
ATOM     11  O   UNL     1       0.769  16.718  37.778  1.00  0.00    -0.452 OA
ENDROOT
BRANCH   1  12
ATOM     12  C   UNL     1       3.094  16.280  37.308  1.00  0.00     0.029 A 
ATOM     13  C   UNL     1       3.943  16.303  38.423  1.00  0.00     0.062 A 
ATOM     14  C   UNL     1       5.262  16.755  38.309  1.00  0.00     0.162 A 
ATOM     15  C   UNL     1       3.572  16.755  36.075  1.00  0.00     0.062 A 
ATOM     16  C   UNL     1       5.743  17.208  37.069  1.00  0.00     0.200 A 
ATOM     17  C   UNL     1       4.892  17.211  35.951  1.00  0.00     0.162 A 
BRANCH  14  18
ATOM     18  O   UNL     1       6.079  16.747  39.439  1.00  0.00    -0.504 OA
ATOM     19  H   UNL     1       7.077  16.585  39.382  1.00  0.00     0.293 HD
ENDBRANCH  14  18
BRANCH  16  20
ATOM     20  O   UNL     1       7.061  17.654  36.962  1.00  0.00    -0.502 OA
ATOM     21  H   UNL     1       7.732  17.214  36.344  1.00  0.00     0.293 HD
ENDBRANCH  16  20
BRANCH  17  22
ATOM     22  O   UNL     1       5.358  17.673  34.721  1.00  0.00    -0.504 OA
ATOM     23  H   UNL     1       5.890  18.532  34.642  1.00  0.00     0.293 HD
ENDBRANCH  17  22
ENDBRANCH   1  12
BRANCH   2  24
ATOM     24  O   UNL     1       2.309  13.499  37.047  1.00  0.00    -0.502 OA
ATOM     25  H   UNL     1       2.095  12.623  36.585  1.00  0.00     0.293 HD
ENDBRANCH   2  24
BRANCH   6  26
ATOM     26  O   UNL     1      -2.837  13.507  37.791  1.00  0.00    -0.507 OA
ATOM     27  H   UNL     1      -2.286  12.776  37.357  1.00  0.00     0.293 HD
ENDBRANCH   6  26
BRANCH   8  28
ATOM     28  O   UNL     1      -3.655  18.182  38.745  1.00  0.00    -0.508 OA
ATOM     29  H   UNL     1      -3.477  18.810  39.521  1.00  0.00     0.293 HD
ENDBRANCH   8  28
TORSDOF 7
ENDMDL
MODEL 9
REMARK VINA RESULT:    -4.890      1.667      6.976
REMARK INTER + INTRA:          -6.356
REMARK INTER:                  -5.991
REMARK INTRA:                  -0.365
REMARK UNBOUND:                -0.323
REMARK SMILES O=c1c(O)c(-c2cc(O)c(O)c(O)c2)oc2cc(O)cc(O)c12
REMARK SMILES IDX 5 1 3 2 2 3 1 4 23 5 21 6 20 7 18 8 17 9 16 10 15 11 6 12
REMARK SMILES IDX 7 13 8 14 14 15 10 16 12 17 9 18 11 20 13 22 4 24 22 26
REMARK SMILES IDX 19 28
REMARK H PARENT 9 19 11 21 13 23 4 25 22 27 19 29
REMARK Flexibility Score: inf
ROOT
ATOM      1  C   UNL     1       9.219  12.271  37.564  1.00  0.00     0.180 A 
ATOM      2  C   UNL     1       8.647  12.282  38.851  1.00  0.00     0.208 A 
ATOM      3  C   UNL     1       8.708  11.118  39.632  1.00  0.00     0.238 A 
ATOM      4  O   UNL     1       8.208  11.120  40.790  1.00  0.00    -0.285 OA
ATOM      5  C   UNL     1       9.319   9.960  39.108  1.00  0.00     0.111 A 
ATOM      6  C   UNL     1       9.418   8.744  39.829  1.00  0.00     0.134 A 
ATOM      7  C   UNL     1      10.033   7.633  39.234  1.00  0.00     0.093 A 
ATOM      8  C   UNL     1      10.548   7.712  37.935  1.00  0.00     0.123 A 
ATOM      9  C   UNL     1      10.453   8.908  37.223  1.00  0.00     0.094 A 
ATOM     10  C   UNL     1       9.846  10.028  37.797  1.00  0.00     0.146 A 
ATOM     11  O   UNL     1       9.774  11.155  37.098  1.00  0.00    -0.452 OA
ENDROOT
BRANCH   1  12
ATOM     12  C   UNL     1       9.212  13.464  36.689  1.00  0.00     0.029 A 
ATOM     13  C   UNL     1       8.152  13.654  35.790  1.00  0.00     0.062 A 
ATOM     14  C   UNL     1       8.129  14.762  34.936  1.00  0.00     0.162 A 
ATOM     15  C   UNL     1      10.274  14.384  36.697  1.00  0.00     0.062 A 
ATOM     16  C   UNL     1       9.183  15.691  34.963  1.00  0.00     0.200 A 
ATOM     17  C   UNL     1      10.260  15.496  35.844  1.00  0.00     0.162 A 
BRANCH  14  18
ATOM     18  O   UNL     1       7.050  14.922  34.067  1.00  0.00    -0.504 OA
ATOM     19  H   UNL     1       6.130  14.555  34.277  1.00  0.00     0.293 HD
ENDBRANCH  14  18
BRANCH  16  20
ATOM     20  O   UNL     1       9.151  16.795  34.111  1.00  0.00    -0.502 OA
ATOM     21  H   UNL     1       8.845  17.709  34.421  1.00  0.00     0.293 HD
ENDBRANCH  16  20
BRANCH  17  22
ATOM     22  O   UNL     1      11.316  16.406  35.866  1.00  0.00    -0.504 OA
ATOM     23  H   UNL     1      12.030  16.410  35.147  1.00  0.00     0.293 HD
ENDBRANCH  17  22
ENDBRANCH   1  12
BRANCH   2  24
ATOM     24  O   UNL     1       8.004  13.428  39.327  1.00  0.00    -0.502 OA
ATOM     25  H   UNL     1       8.415  14.351  39.252  1.00  0.00     0.293 HD
ENDBRANCH   2  24
BRANCH   6  26
ATOM     26  O   UNL     1       8.912   8.634  41.125  1.00  0.00    -0.507 OA
ATOM     27  H   UNL     1       8.229   9.288  41.488  1.00  0.00     0.293 HD
ENDBRANCH   6  26
BRANCH   8  28
ATOM     28  O   UNL     1      11.158   6.608  37.346  1.00  0.00    -0.508 OA
ATOM     29  H   UNL     1      11.326   5.754  37.866  1.00  0.00     0.293 HD
ENDBRANCH   8  28
TORSDOF 7
ENDMDL
