MODEL 1
REMARK VINA RESULT:    -7.918      0.000      0.000
REMARK INTER + INTRA:         -11.614
REMARK INTER:                 -10.465
REMARK INTRA:                  -1.150
REMARK UNBOUND:                -1.150
REMARK SMILES CC[C@@H](C=C[C@H](C)[C@@H]1CC[C@@H]2[C@H]3CC=C4C[C@H](O)CC[C@]4(C)[C@H]3CC[C@]21C)C(C)C
REMARK SMILES IDX 6 1 7 2 5 3 4 4 3 5 2 6 1 7 28 8 29 9 30 10 8 11 9 12 26 13
REMARK SMILES IDX 10 14 11 15 25 16 27 17 12 18 24 19 23 20 13 21 21 22 14 23
REMARK SMILES IDX 15 24 20 25 22 26 16 27 19 28 17 29 18 30
REMARK H PARENT 18 31
REMARK Flexibility Score: inf
ROOT
ATOM      1  C   UNL     1      16.507  24.095  46.377  1.00  0.00     0.012 C 
ATOM      2  C   UNL     1      17.011  22.733  46.875  1.00  0.00     0.012 C 
ENDROOT
BRANCH   1   3
ATOM      3  C   UNL     1      16.092  24.912  47.581  1.00  0.00    -0.028 C 
ATOM      4  C   UNL     1      14.908  25.543  47.634  1.00  0.00    -0.027 C 
BRANCH   4   5
ATOM      5  C   UNL     1      14.497  26.364  48.841  1.00  0.00     0.014 C 
BRANCH   5   6
ATOM      6  C   UNL     1      14.405  27.856  48.436  1.00  0.00     0.004 C 
ATOM      7  C   UNL     1      12.965  28.375  48.406  1.00  0.00     0.004 C 
ENDBRANCH   5   6
BRANCH   5   8
ATOM      8  C   UNL     1      15.504  26.132  50.010  1.00  0.00    -0.011 C 
ATOM      9  C   UNL     1      14.883  25.264  51.121  1.00  0.00     0.008 C 
ATOM     10  C   UNL     1      15.992  27.455  50.627  1.00  0.00     0.008 C 
ENDBRANCH   5   8
ENDBRANCH   4   5
ENDBRANCH   1   3
BRANCH   1  11
ATOM     11  C   UNL     1      17.592  24.811  45.487  1.00  0.00     0.002 C 
ATOM     12  C   UNL     1      17.847  26.318  45.759  1.00  0.00     0.005 C 
ATOM     13  C   UNL     1      17.374  24.753  43.947  1.00  0.00    -0.026 C 
ATOM     14  C   UNL     1      18.379  26.916  44.444  1.00  0.00     0.005 C 
ATOM     15  C   UNL     1      18.478  25.728  43.491  1.00  0.00    -0.001 C 
ATOM     16  C   UNL     1      17.629  23.353  43.310  1.00  0.00     0.007 C 
ATOM     17  C   UNL     1      15.943  25.262  43.565  1.00  0.00     0.012 C 
ATOM     18  C   UNL     1      18.439  26.017  41.973  1.00  0.00     0.000 C 
ATOM     19  C   UNL     1      18.481  23.402  42.013  1.00  0.00     0.005 C 
ATOM     20  C   UNL     1      18.261  24.682  41.146  1.00  0.00     0.003 C 
ATOM     21  C   UNL     1      19.671  26.816  41.538  1.00  0.00     0.031 C 
ATOM     22  C   UNL     1      19.033  24.636  39.749  1.00  0.00    -0.008 C 
ATOM     23  C   UNL     1      19.626  27.043  40.060  1.00  0.00    -0.027 C 
ATOM     24  C   UNL     1      19.283  26.055  39.212  1.00  0.00    -0.065 C 
ATOM     25  C   UNL     1      18.159  23.826  38.736  1.00  0.00     0.014 C 
ATOM     26  C   UNL     1      20.419  23.943  39.871  1.00  0.00     0.016 C 
ATOM     27  C   UNL     1      19.485  26.298  37.727  1.00  0.00     0.063 C 
ATOM     28  C   UNL     1      18.593  23.987  37.275  1.00  0.00     0.033 C 
ATOM     29  C   UNL     1      18.547  25.460  36.855  1.00  0.00     0.118 C 
BRANCH  29  30
ATOM     30  O   UNL     1      17.240  25.966  36.950  1.00  0.00    -0.393 OA
ATOM     31  H   UNL     1      16.948  25.831  37.889  1.00  0.00     0.210 HD
ENDBRANCH  29  30
ENDBRANCH   1  11
TORSDOF 6
ENDMDL
MODEL 2
REMARK VINA RESULT:    -7.610      2.367      4.427
REMARK INTER + INTRA:         -11.207
REMARK INTER:                 -11.118
REMARK INTRA:                  -0.089
REMARK UNBOUND:                -1.150
REMARK SMILES CC[C@@H](C=C[C@H](C)[C@@H]1CC[C@@H]2[C@H]3CC=C4C[C@H](O)CC[C@]4(C)[C@H]3CC[C@]21C)C(C)C
REMARK SMILES IDX 6 1 7 2 5 3 4 4 3 5 2 6 1 7 28 8 29 9 30 10 8 11 9 12 26 13
REMARK SMILES IDX 10 14 11 15 25 16 27 17 12 18 24 19 23 20 13 21 21 22 14 23
REMARK SMILES IDX 15 24 20 25 22 26 16 27 19 28 17 29 18 30
REMARK H PARENT 18 31
REMARK Flexibility Score: inf
ROOT
ATOM      1  C   UNL     1      16.482  22.958  46.357  1.00  0.00     0.012 C 
ATOM      2  C   UNL     1      15.392  23.741  47.101  1.00  0.00     0.012 C 
ENDROOT
BRANCH   1   3
ATOM      3  C   UNL     1      15.805  21.993  45.409  1.00  0.00    -0.028 C 
ATOM      4  C   UNL     1      16.233  20.729  45.259  1.00  0.00    -0.027 C 
BRANCH   4   5
ATOM      5  C   UNL     1      15.554  19.767  44.305  1.00  0.00     0.014 C 
BRANCH   5   6
ATOM      6  C   UNL     1      14.020  19.956  44.395  1.00  0.00     0.004 C 
ATOM      7  C   UNL     1      13.406  20.456  43.084  1.00  0.00     0.004 C 
ENDBRANCH   5   6
BRANCH   5   8
ATOM      8  C   UNL     1      15.986  18.302  44.629  1.00  0.00    -0.011 C 
ATOM      9  C   UNL     1      15.156  17.715  45.786  1.00  0.00     0.008 C 
ATOM     10  C   UNL     1      17.480  18.203  44.988  1.00  0.00     0.008 C 
ENDBRANCH   5   8
ENDBRANCH   4   5
ENDBRANCH   1   3
BRANCH   1  11
ATOM     11  C   UNL     1      17.490  23.930  45.637  1.00  0.00     0.002 C 
ATOM     12  C   UNL     1      17.515  25.406  46.119  1.00  0.00     0.005 C 
ATOM     13  C   UNL     1      17.350  24.056  44.092  1.00  0.00    -0.026 C 
ATOM     14  C   UNL     1      18.011  26.246  44.929  1.00  0.00     0.005 C 
ATOM     15  C   UNL     1      18.320  25.226  43.837  1.00  0.00    -0.001 C 
ATOM     16  C   UNL     1      17.830  22.806  43.295  1.00  0.00     0.007 C 
ATOM     17  C   UNL     1      15.878  24.413  43.691  1.00  0.00     0.012 C 
ATOM     18  C   UNL     1      18.306  25.714  42.370  1.00  0.00     0.000 C 
ATOM     19  C   UNL     1      18.721  23.149  42.070  1.00  0.00     0.005 C 
ATOM     20  C   UNL     1      18.357  24.494  41.366  1.00  0.00     0.003 C 
ATOM     21  C   UNL     1      19.429  26.727  42.120  1.00  0.00     0.031 C 
ATOM     22  C   UNL     1      19.187  24.748  40.026  1.00  0.00    -0.008 C 
ATOM     23  C   UNL     1      19.414  27.147  40.685  1.00  0.00    -0.027 C 
ATOM     24  C   UNL     1      19.254  26.248  39.695  1.00  0.00    -0.065 C 
ATOM     25  C   UNL     1      18.483  23.974  38.864  1.00  0.00     0.014 C 
ATOM     26  C   UNL     1      20.651  24.240  40.142  1.00  0.00     0.016 C 
ATOM     27  C   UNL     1      19.482  26.719  38.270  1.00  0.00     0.063 C 
ATOM     28  C   UNL     1      18.952  24.393  37.465  1.00  0.00     0.033 C 
ATOM     29  C   UNL     1      18.713  25.890  37.239  1.00  0.00     0.118 C 
BRANCH  29  30
ATOM     30  O   UNL     1      17.344  26.194  37.318  1.00  0.00    -0.393 OA
ATOM     31  H   UNL     1      17.276  27.120  37.670  1.00  0.00     0.210 HD
ENDBRANCH  29  30
ENDBRANCH   1  11
TORSDOF 6
ENDMDL
MODEL 3
REMARK VINA RESULT:    -7.431      3.152      9.650
REMARK INTER + INTRA:         -10.971
REMARK INTER:                  -9.791
REMARK INTRA:                  -1.180
REMARK UNBOUND:                -1.150
REMARK SMILES CC[C@@H](C=C[C@H](C)[C@@H]1CC[C@@H]2[C@H]3CC=C4C[C@H](O)CC[C@]4(C)[C@H]3CC[C@]21C)C(C)C
REMARK SMILES IDX 6 1 7 2 5 3 4 4 3 5 2 6 1 7 28 8 29 9 30 10 8 11 9 12 26 13
REMARK SMILES IDX 10 14 11 15 25 16 27 17 12 18 24 19 23 20 13 21 21 22 14 23
REMARK SMILES IDX 15 24 20 25 22 26 16 27 19 28 17 29 18 30
REMARK H PARENT 18 31
REMARK Flexibility Score: inf
ROOT
ATOM      1  C   UNL     1      16.792  24.643  42.833  1.00  0.00     0.012 C 
ATOM      2  C   UNL     1      15.932  24.951  41.599  1.00  0.00     0.012 C 
ENDROOT
BRANCH   1   3
ATOM      3  C   UNL     1      18.234  24.538  42.387  1.00  0.00    -0.028 C 
ATOM      4  C   UNL     1      18.628  24.929  41.165  1.00  0.00    -0.027 C 
BRANCH   4   5
ATOM      5  C   UNL     1      20.073  24.818  40.721  1.00  0.00     0.014 C 
BRANCH   5   6
ATOM      6  C   UNL     1      20.579  26.212  40.275  1.00  0.00     0.004 C 
ATOM      7  C   UNL     1      20.831  27.157  41.454  1.00  0.00     0.004 C 
ENDBRANCH   5   6
BRANCH   5   8
ATOM      8  C   UNL     1      20.200  23.755  39.585  1.00  0.00    -0.011 C 
ATOM      9  C   UNL     1      18.889  23.627  38.786  1.00  0.00     0.008 C 
ATOM     10  C   UNL     1      20.589  22.368  40.128  1.00  0.00     0.008 C 
ENDBRANCH   5   8
ENDBRANCH   4   5
ENDBRANCH   1   3
BRANCH   1  11
ATOM     11  C   UNL     1      16.569  25.717  43.963  1.00  0.00     0.002 C 
ATOM     12  C   UNL     1      17.755  26.669  44.277  1.00  0.00     0.005 C 
ATOM     13  C   UNL     1      16.158  25.177  45.363  1.00  0.00    -0.026 C 
ATOM     14  C   UNL     1      17.578  27.120  45.738  1.00  0.00     0.005 C 
ATOM     15  C   UNL     1      16.270  26.474  46.187  1.00  0.00    -0.001 C 
ATOM     16  C   UNL     1      14.697  24.640  45.445  1.00  0.00     0.007 C 
ATOM     17  C   UNL     1      17.160  24.077  45.855  1.00  0.00     0.012 C 
ATOM     18  C   UNL     1      16.059  26.249  47.701  1.00  0.00     0.000 C 
ATOM     19  C   UNL     1      13.920  25.128  46.698  1.00  0.00     0.005 C 
ATOM     20  C   UNL     1      14.806  25.324  47.968  1.00  0.00     0.003 C 
ATOM     21  C   UNL     1      15.972  27.585  48.446  1.00  0.00     0.031 C 
ATOM     22  C   UNL     1      13.962  25.680  49.276  1.00  0.00    -0.008 C 
ATOM     23  C   UNL     1      15.727  27.334  49.900  1.00  0.00    -0.027 C 
ATOM     24  C   UNL     1      14.830  26.417  50.309  1.00  0.00    -0.065 C 
ATOM     25  C   UNL     1      13.421  24.345  49.885  1.00  0.00     0.014 C 
ATOM     26  C   UNL     1      12.752  26.602  48.956  1.00  0.00     0.016 C 
ATOM     27  C   UNL     1      14.474  26.386  51.785  1.00  0.00     0.063 C 
ATOM     28  C   UNL     1      12.891  24.485  51.317  1.00  0.00     0.033 C 
ATOM     29  C   UNL     1      13.986  25.013  52.251  1.00  0.00     0.118 C 
BRANCH  29  30
ATOM     30  O   UNL     1      15.071  24.122  52.303  1.00  0.00    -0.393 OA
ATOM     31  H   UNL     1      15.092  23.645  51.432  1.00  0.00     0.210 HD
ENDBRANCH  29  30
ENDBRANCH   1  11
TORSDOF 6
ENDMDL
MODEL 4
REMARK VINA RESULT:    -7.415      3.126      9.508
REMARK INTER + INTRA:         -10.949
REMARK INTER:                  -9.762
REMARK INTRA:                  -1.188
REMARK UNBOUND:                -1.150
REMARK SMILES CC[C@@H](C=C[C@H](C)[C@@H]1CC[C@@H]2[C@H]3CC=C4C[C@H](O)CC[C@]4(C)[C@H]3CC[C@]21C)C(C)C
REMARK SMILES IDX 6 1 7 2 5 3 4 4 3 5 2 6 1 7 28 8 29 9 30 10 8 11 9 12 26 13
REMARK SMILES IDX 10 14 11 15 25 16 27 17 12 18 24 19 23 20 13 21 21 22 14 23
REMARK SMILES IDX 15 24 20 25 22 26 16 27 19 28 17 29 18 30
REMARK H PARENT 18 31
REMARK Flexibility Score: inf
ROOT
ATOM      1  C   UNL     1      16.860  23.719  42.547  1.00  0.00     0.012 C 
ATOM      2  C   UNL     1      15.708  23.735  41.532  1.00  0.00     0.012 C 
ENDROOT
BRANCH   1   3
ATOM      3  C   UNL     1      18.162  23.643  41.781  1.00  0.00    -0.028 C 
ATOM      4  C   UNL     1      18.209  23.790  40.447  1.00  0.00    -0.027 C 
BRANCH   4   5
ATOM      5  C   UNL     1      19.515  23.708  39.683  1.00  0.00     0.014 C 
BRANCH   5   6
ATOM      6  C   UNL     1      20.542  22.899  40.512  1.00  0.00     0.004 C 
ATOM      7  C   UNL     1      20.934  21.577  39.845  1.00  0.00     0.004 C 
ENDBRANCH   5   6
BRANCH   5   8
ATOM      8  C   UNL     1      20.028  25.144  39.351  1.00  0.00    -0.011 C 
ATOM      9  C   UNL     1      20.723  25.787  40.567  1.00  0.00     0.008 C 
ATOM     10  C   UNL     1      18.894  26.072  38.879  1.00  0.00     0.008 C 
ENDBRANCH   5   8
ENDBRANCH   4   5
ENDBRANCH   1   3
BRANCH   1  11
ATOM     11  C   UNL     1      16.781  24.960  43.515  1.00  0.00     0.002 C 
ATOM     12  C   UNL     1      18.109  25.706  43.817  1.00  0.00     0.005 C 
ATOM     13  C   UNL     1      16.182  24.701  44.927  1.00  0.00    -0.026 C 
ATOM     14  C   UNL     1      17.931  26.376  45.191  1.00  0.00     0.005 C 
ATOM     15  C   UNL     1      16.495  26.055  45.595  1.00  0.00    -0.001 C 
ATOM     16  C   UNL     1      14.641  24.465  44.943  1.00  0.00     0.007 C 
ATOM     17  C   UNL     1      16.913  23.511  45.636  1.00  0.00     0.012 C 
ATOM     18  C   UNL     1      16.147  26.081  47.101  1.00  0.00     0.000 C 
ATOM     19  C   UNL     1      13.897  25.256  46.052  1.00  0.00     0.005 C 
ATOM     20  C   UNL     1      14.721  25.453  47.364  1.00  0.00     0.003 C 
ATOM     21  C   UNL     1      16.278  27.498  47.667  1.00  0.00     0.031 C 
ATOM     22  C   UNL     1      13.881  26.135  48.538  1.00  0.00    -0.008 C 
ATOM     23  C   UNL     1      15.895  27.498  49.113  1.00  0.00    -0.027 C 
ATOM     24  C   UNL     1      14.810  26.829  49.548  1.00  0.00    -0.065 C 
ATOM     25  C   UNL     1      13.050  25.021  49.254  1.00  0.00     0.014 C 
ATOM     26  C   UNL     1      12.901  27.216  48.002  1.00  0.00     0.016 C 
ATOM     27  C   UNL     1      14.361  27.067  50.979  1.00  0.00     0.063 C 
ATOM     28  C   UNL     1      12.467  25.451  50.605  1.00  0.00     0.033 C 
ATOM     29  C   UNL     1      13.582  25.886  51.562  1.00  0.00     0.118 C 
BRANCH  29  30
ATOM     30  O   UNL     1      14.463  24.823  51.818  1.00  0.00    -0.393 OA
ATOM     31  H   UNL     1      14.313  24.546  52.760  1.00  0.00     0.210 HD
ENDBRANCH  29  30
ENDBRANCH   1  11
TORSDOF 6
ENDMDL
MODEL 5
REMARK VINA RESULT:    -7.393      3.710      8.840
REMARK INTER + INTRA:         -10.919
REMARK INTER:                  -9.816
REMARK INTRA:                  -1.104
REMARK UNBOUND:                -1.150
REMARK SMILES CC[C@@H](C=C[C@H](C)[C@@H]1CC[C@@H]2[C@H]3CC=C4C[C@H](O)CC[C@]4(C)[C@H]3CC[C@]21C)C(C)C
REMARK SMILES IDX 6 1 7 2 5 3 4 4 3 5 2 6 1 7 28 8 29 9 30 10 8 11 9 12 26 13
REMARK SMILES IDX 10 14 11 15 25 16 27 17 12 18 24 19 23 20 13 21 21 22 14 23
REMARK SMILES IDX 15 24 20 25 22 26 16 27 19 28 17 29 18 30
REMARK H PARENT 18 31
REMARK Flexibility Score: inf
ROOT
ATOM      1  C   UNL     1      17.904  25.795  43.791  1.00  0.00     0.012 C 
ATOM      2  C   UNL     1      18.899  26.542  44.690  1.00  0.00     0.012 C 
ENDROOT
BRANCH   1   3
ATOM      3  C   UNL     1      18.037  26.341  42.387  1.00  0.00    -0.028 C 
ATOM      4  C   UNL     1      19.234  26.587  41.832  1.00  0.00    -0.027 C 
BRANCH   4   5
ATOM      5  C   UNL     1      19.362  27.139  40.426  1.00  0.00     0.014 C 
BRANCH   5   6
ATOM      6  C   UNL     1      18.952  26.046  39.409  1.00  0.00     0.004 C 
ATOM      7  C   UNL     1      19.920  24.859  39.391  1.00  0.00     0.004 C 
ENDBRANCH   5   6
BRANCH   5   8
ATOM      8  C   UNL     1      20.817  27.650  40.186  1.00  0.00    -0.011 C 
ATOM      9  C   UNL     1      21.585  27.805  41.512  1.00  0.00     0.008 C 
ATOM     10  C   UNL     1      20.844  28.995  39.436  1.00  0.00     0.008 C 
ENDBRANCH   5   8
ENDBRANCH   4   5
ENDBRANCH   1   3
BRANCH   1  11
ATOM     11  C   UNL     1      18.123  24.237  43.873  1.00  0.00     0.002 C 
ATOM     12  C   UNL     1      18.502  23.506  42.557  1.00  0.00     0.005 C 
ATOM     13  C   UNL     1      16.934  23.397  44.424  1.00  0.00    -0.026 C 
ATOM     14  C   UNL     1      18.025  22.051  42.712  1.00  0.00     0.005 C 
ATOM     15  C   UNL     1      17.458  21.978  44.127  1.00  0.00    -0.001 C 
ATOM     16  C   UNL     1      16.693  23.546  45.957  1.00  0.00     0.007 C 
ATOM     17  C   UNL     1      15.615  23.715  43.642  1.00  0.00     0.012 C 
ATOM     18  C   UNL     1      16.419  20.875  44.431  1.00  0.00     0.000 C 
ATOM     19  C   UNL     1      16.464  22.196  46.689  1.00  0.00     0.005 C 
ATOM     20  C   UNL     1      15.728  21.117  45.832  1.00  0.00     0.003 C 
ATOM     21  C   UNL     1      17.051  19.484  44.321  1.00  0.00     0.031 C 
ATOM     22  C   UNL     1      15.372  19.795  46.654  1.00  0.00    -0.008 C 
ATOM     23  C   UNL     1      16.033  18.442  44.661  1.00  0.00    -0.027 C 
ATOM     24  C   UNL     1      15.208  18.589  45.715  1.00  0.00    -0.065 C 
ATOM     25  C   UNL     1      14.042  20.051  47.435  1.00  0.00     0.014 C 
ATOM     26  C   UNL     1      16.483  19.429  47.678  1.00  0.00     0.016 C 
ATOM     27  C   UNL     1      14.370  17.392  46.128  1.00  0.00     0.063 C 
ATOM     28  C   UNL     1      13.392  18.778  47.989  1.00  0.00     0.033 C 
ATOM     29  C   UNL     1      13.085  17.790  46.858  1.00  0.00     0.118 C 
BRANCH  29  30
ATOM     30  O   UNL     1      12.177  18.346  45.942  1.00  0.00    -0.393 OA
ATOM     31  H   UNL     1      11.292  17.939  46.134  1.00  0.00     0.210 HD
ENDBRANCH  29  30
ENDBRANCH   1  11
TORSDOF 6
ENDMDL
MODEL 6
REMARK VINA RESULT:    -7.321      2.569      9.448
REMARK INTER + INTRA:         -10.824
REMARK INTER:                  -9.693
REMARK INTRA:                  -1.131
REMARK UNBOUND:                -1.150
REMARK SMILES CC[C@@H](C=C[C@H](C)[C@@H]1CC[C@@H]2[C@H]3CC=C4C[C@H](O)CC[C@]4(C)[C@H]3CC[C@]21C)C(C)C
REMARK SMILES IDX 6 1 7 2 5 3 4 4 3 5 2 6 1 7 28 8 29 9 30 10 8 11 9 12 26 13
REMARK SMILES IDX 10 14 11 15 25 16 27 17 12 18 24 19 23 20 13 21 21 22 14 23
REMARK SMILES IDX 15 24 20 25 22 26 16 27 19 28 17 29 18 30
REMARK H PARENT 18 31
REMARK Flexibility Score: inf
ROOT
ATOM      1  C   UNL     1      19.240  25.390  40.660  1.00  0.00     0.012 C 
ATOM      2  C   UNL     1      20.476  24.488  40.535  1.00  0.00     0.012 C 
ENDROOT
BRANCH   1   3
ATOM      3  C   UNL     1      18.767  25.737  39.266  1.00  0.00    -0.028 C 
ATOM      4  C   UNL     1      19.369  25.244  38.171  1.00  0.00    -0.027 C 
BRANCH   4   5
ATOM      5  C   UNL     1      18.894  25.597  36.775  1.00  0.00     0.014 C 
BRANCH   5   6
ATOM      6  C   UNL     1      17.370  25.869  36.808  1.00  0.00     0.004 C 
ATOM      7  C   UNL     1      16.970  27.106  35.998  1.00  0.00     0.004 C 
ENDBRANCH   5   6
BRANCH   5   8
ATOM      8  C   UNL     1      19.266  24.453  35.781  1.00  0.00    -0.011 C 
ATOM      9  C   UNL     1      19.491  23.120  36.519  1.00  0.00     0.008 C 
ATOM     10  C   UNL     1      20.525  24.785  34.959  1.00  0.00     0.008 C 
ENDBRANCH   5   8
ENDBRANCH   4   5
ENDBRANCH   1   3
BRANCH   1  11
ATOM     11  C   UNL     1      18.127  24.710  41.542  1.00  0.00     0.002 C 
ATOM     12  C   UNL     1      16.855  24.203  40.808  1.00  0.00     0.005 C 
ATOM     13  C   UNL     1      17.554  25.558  42.714  1.00  0.00    -0.026 C 
ATOM     14  C   UNL     1      15.719  24.212  41.846  1.00  0.00     0.005 C 
ATOM     15  C   UNL     1      16.386  24.651  43.146  1.00  0.00    -0.001 C 
ATOM     16  C   UNL     1      18.531  25.747  43.914  1.00  0.00     0.007 C 
ATOM     17  C   UNL     1      17.059  26.954  42.204  1.00  0.00     0.012 C 
ATOM     18  C   UNL     1      15.493  25.292  44.234  1.00  0.00     0.000 C 
ATOM     19  C   UNL     1      17.871  25.518  45.301  1.00  0.00     0.005 C 
ATOM     20  C   UNL     1      16.370  25.943  45.376  1.00  0.00     0.003 C 
ATOM     21  C   UNL     1      14.481  24.278  44.777  1.00  0.00     0.031 C 
ATOM     22  C   UNL     1      15.760  25.839  46.848  1.00  0.00    -0.008 C 
ATOM     23  C   UNL     1      13.661  24.916  45.854  1.00  0.00    -0.027 C 
ATOM     24  C   UNL     1      14.230  25.686  46.800  1.00  0.00    -0.065 C 
ATOM     25  C   UNL     1      16.144  27.138  47.628  1.00  0.00     0.014 C 
ATOM     26  C   UNL     1      16.316  24.613  47.625  1.00  0.00     0.016 C 
ATOM     27  C   UNL     1      13.372  26.102  47.982  1.00  0.00     0.063 C 
ATOM     28  C   UNL     1      15.350  27.344  48.923  1.00  0.00     0.033 C 
ATOM     29  C   UNL     1      13.846  27.403  48.632  1.00  0.00     0.118 C 
BRANCH  29  30
ATOM     30  O   UNL     1      13.542  28.487  47.792  1.00  0.00    -0.393 OA
ATOM     31  H   UNL     1      13.439  28.119  46.876  1.00  0.00     0.210 HD
ENDBRANCH  29  30
ENDBRANCH   1  11
TORSDOF 6
ENDMDL
MODEL 7
REMARK VINA RESULT:    -7.108      3.599      8.720
REMARK INTER + INTRA:         -10.544
REMARK INTER:                  -9.438
REMARK INTRA:                  -1.106
REMARK UNBOUND:                -1.150
REMARK SMILES CC[C@@H](C=C[C@H](C)[C@@H]1CC[C@@H]2[C@H]3CC=C4C[C@H](O)CC[C@]4(C)[C@H]3CC[C@]21C)C(C)C
REMARK SMILES IDX 6 1 7 2 5 3 4 4 3 5 2 6 1 7 28 8 29 9 30 10 8 11 9 12 26 13
REMARK SMILES IDX 10 14 11 15 25 16 27 17 12 18 24 19 23 20 13 21 21 22 14 23
REMARK SMILES IDX 15 24 20 25 22 26 16 27 19 28 17 29 18 30
REMARK H PARENT 18 31
REMARK Flexibility Score: inf
ROOT
ATOM      1  C   UNL     1      15.933  24.922  40.993  1.00  0.00     0.012 C 
ATOM      2  C   UNL     1      14.709  25.611  40.372  1.00  0.00     0.012 C 
ENDROOT
BRANCH   1   3
ATOM      3  C   UNL     1      17.174  25.626  40.491  1.00  0.00    -0.028 C 
ATOM      4  C   UNL     1      18.349  24.987  40.366  1.00  0.00    -0.027 C 
BRANCH   4   5
ATOM      5  C   UNL     1      19.591  25.697  39.867  1.00  0.00     0.014 C 
BRANCH   5   6
ATOM      6  C   UNL     1      20.829  24.803  40.125  1.00  0.00     0.004 C 
ATOM      7  C   UNL     1      20.491  23.310  40.137  1.00  0.00     0.004 C 
ENDBRANCH   5   6
BRANCH   5   8
ATOM      8  C   UNL     1      19.720  27.092  40.554  1.00  0.00    -0.011 C 
ATOM      9  C   UNL     1      20.501  28.084  39.672  1.00  0.00     0.008 C 
ATOM     10  C   UNL     1      20.408  27.001  41.929  1.00  0.00     0.008 C 
ENDBRANCH   5   8
ENDBRANCH   4   5
ENDBRANCH   1   3
BRANCH   1  11
ATOM     11  C   UNL     1      15.830  24.890  42.564  1.00  0.00     0.002 C 
ATOM     12  C   UNL     1      16.673  25.933  43.349  1.00  0.00     0.005 C 
ATOM     13  C   UNL     1      16.185  23.543  43.256  1.00  0.00    -0.026 C 
ATOM     14  C   UNL     1      16.937  25.324  44.738  1.00  0.00     0.005 C 
ATOM     15  C   UNL     1      16.183  23.997  44.729  1.00  0.00    -0.001 C 
ATOM     16  C   UNL     1      15.124  22.417  43.064  1.00  0.00     0.007 C 
ATOM     17  C   UNL     1      17.594  23.033  42.798  1.00  0.00     0.012 C 
ATOM     18  C   UNL     1      16.656  22.893  45.703  1.00  0.00     0.000 C 
ATOM     19  C   UNL     1      14.777  21.654  44.370  1.00  0.00     0.005 C 
ATOM     20  C   UNL     1      15.970  21.510  45.367  1.00  0.00     0.003 C 
ATOM     21  C   UNL     1      16.438  23.319  47.158  1.00  0.00     0.031 C 
ATOM     22  C   UNL     1      15.628  20.594  46.630  1.00  0.00    -0.008 C 
ATOM     23  C   UNL     1      16.866  22.216  48.073  1.00  0.00    -0.027 C 
ATOM     24  C   UNL     1      16.541  20.934  47.820  1.00  0.00    -0.065 C 
ATOM     25  C   UNL     1      15.822  19.099  46.215  1.00  0.00     0.014 C 
ATOM     26  C   UNL     1      14.162  20.787  47.110  1.00  0.00     0.016 C 
ATOM     27  C   UNL     1      16.810  19.909  48.908  1.00  0.00     0.063 C 
ATOM     28  C   UNL     1      15.869  18.127  47.399  1.00  0.00     0.033 C 
ATOM     29  C   UNL     1      17.007  18.495  48.358  1.00  0.00     0.118 C 
BRANCH  29  30
ATOM     30  O   UNL     1      18.251  18.411  47.712  1.00  0.00    -0.393 OA
ATOM     31  H   UNL     1      18.235  19.071  46.971  1.00  0.00     0.210 HD
ENDBRANCH  29  30
ENDBRANCH   1  11
TORSDOF 6
ENDMDL
MODEL 8
REMARK VINA RESULT:    -7.065      3.816      8.649
REMARK INTER + INTRA:         -10.487
REMARK INTER:                 -10.561
REMARK INTRA:                   0.074
REMARK UNBOUND:                -1.150
REMARK SMILES CC[C@@H](C=C[C@H](C)[C@@H]1CC[C@@H]2[C@H]3CC=C4C[C@H](O)CC[C@]4(C)[C@H]3CC[C@]21C)C(C)C
REMARK SMILES IDX 6 1 7 2 5 3 4 4 3 5 2 6 1 7 28 8 29 9 30 10 8 11 9 12 26 13
REMARK SMILES IDX 10 14 11 15 25 16 27 17 12 18 24 19 23 20 13 21 21 22 14 23
REMARK SMILES IDX 15 24 20 25 22 26 16 27 19 28 17 29 18 30
REMARK H PARENT 18 31
REMARK Flexibility Score: inf
ROOT
ATOM      1  C   UNL     1      16.933  26.403  42.733  1.00  0.00     0.012 C 
ATOM      2  C   UNL     1      17.131  26.659  44.234  1.00  0.00     0.012 C 
ENDROOT
BRANCH   1   3
ATOM      3  C   UNL     1      18.265  26.590  42.043  1.00  0.00    -0.028 C 
ATOM      4  C   UNL     1      18.989  25.547  41.606  1.00  0.00    -0.027 C 
BRANCH   4   5
ATOM      5  C   UNL     1      20.327  25.739  40.918  1.00  0.00     0.014 C 
BRANCH   5   6
ATOM      6  C   UNL     1      20.470  27.218  40.483  1.00  0.00     0.004 C 
ATOM      7  C   UNL     1      21.595  27.948  41.223  1.00  0.00     0.004 C 
ENDBRANCH   5   6
BRANCH   5   8
ATOM      8  C   UNL     1      20.451  24.756  39.712  1.00  0.00    -0.011 C 
ATOM      9  C   UNL     1      19.428  25.090  38.609  1.00  0.00     0.008 C 
ATOM     10  C   UNL     1      20.263  23.288  40.136  1.00  0.00     0.008 C 
ENDBRANCH   5   8
ENDBRANCH   4   5
ENDBRANCH   1   3
BRANCH   1  11
ATOM     11  C   UNL     1      16.296  24.985  42.479  1.00  0.00     0.002 C 
ATOM     12  C   UNL     1      14.860  24.951  41.889  1.00  0.00     0.005 C 
ATOM     13  C   UNL     1      16.206  24.033  43.706  1.00  0.00    -0.026 C 
ATOM     14  C   UNL     1      14.235  23.617  42.336  1.00  0.00     0.005 C 
ATOM     15  C   UNL     1      15.348  22.905  43.100  1.00  0.00    -0.001 C 
ATOM     16  C   UNL     1      17.572  23.447  44.172  1.00  0.00     0.007 C 
ATOM     17  C   UNL     1      15.488  24.737  44.908  1.00  0.00     0.012 C 
ATOM     18  C   UNL     1      14.940  21.833  44.136  1.00  0.00     0.000 C 
ATOM     19  C   UNL     1      17.534  21.922  44.461  1.00  0.00     0.005 C 
ATOM     20  C   UNL     1      16.172  21.409  45.029  1.00  0.00     0.003 C 
ATOM     21  C   UNL     1      14.274  20.636  43.449  1.00  0.00     0.031 C 
ATOM     22  C   UNL     1      16.208  19.872  45.458  1.00  0.00    -0.008 C 
ATOM     23  C   UNL     1      13.929  19.600  44.471  1.00  0.00    -0.027 C 
ATOM     24  C   UNL     1      14.796  19.263  45.445  1.00  0.00    -0.065 C 
ATOM     25  C   UNL     1      16.817  19.780  46.895  1.00  0.00     0.014 C 
ATOM     26  C   UNL     1      17.081  19.018  44.496  1.00  0.00     0.016 C 
ATOM     27  C   UNL     1      14.466  18.049  46.295  1.00  0.00     0.063 C 
ATOM     28  C   UNL     1      16.601  18.424  47.576  1.00  0.00     0.033 C 
ATOM     29  C   UNL     1      15.105  18.104  47.684  1.00  0.00     0.118 C 
BRANCH  29  30
ATOM     30  O   UNL     1      14.445  19.064  48.467  1.00  0.00    -0.393 OA
ATOM     31  H   UNL     1      14.574  19.940  48.018  1.00  0.00     0.210 HD
ENDBRANCH  29  30
ENDBRANCH   1  11
TORSDOF 6
ENDMDL
MODEL 9
REMARK VINA RESULT:    -6.918      2.196      3.908
REMARK INTER + INTRA:         -10.292
REMARK INTER:                  -9.870
REMARK INTRA:                  -0.422
REMARK UNBOUND:                -1.150
REMARK SMILES CC[C@@H](C=C[C@H](C)[C@@H]1CC[C@@H]2[C@H]3CC=C4C[C@H](O)CC[C@]4(C)[C@H]3CC[C@]21C)C(C)C
REMARK SMILES IDX 6 1 7 2 5 3 4 4 3 5 2 6 1 7 28 8 29 9 30 10 8 11 9 12 26 13
REMARK SMILES IDX 10 14 11 15 25 16 27 17 12 18 24 19 23 20 13 21 21 22 14 23
REMARK SMILES IDX 15 24 20 25 22 26 16 27 19 28 17 29 18 30
REMARK H PARENT 18 31
REMARK Flexibility Score: inf
ROOT
ATOM      1  C   UNL     1      17.714  25.298  45.912  1.00  0.00     0.012 C 
ATOM      2  C   UNL     1      16.799  26.491  46.223  1.00  0.00     0.012 C 
ENDROOT
BRANCH   1   3
ATOM      3  C   UNL     1      16.842  24.088  45.666  1.00  0.00    -0.028 C 
ATOM      4  C   UNL     1      17.131  22.887  46.193  1.00  0.00    -0.027 C 
BRANCH   4   5
ATOM      5  C   UNL     1      16.256  21.675  45.940  1.00  0.00     0.014 C 
BRANCH   5   6
ATOM      6  C   UNL     1      16.360  20.710  47.146  1.00  0.00     0.004 C 
ATOM      7  C   UNL     1      17.144  21.306  48.318  1.00  0.00     0.004 C 
ENDBRANCH   5   6
BRANCH   5   8
ATOM      8  C   UNL     1      16.671  20.989  44.601  1.00  0.00    -0.011 C 
ATOM      9  C   UNL     1      15.573  21.137  43.530  1.00  0.00     0.008 C 
ATOM     10  C   UNL     1      16.986  19.493  44.787  1.00  0.00     0.008 C 
ENDBRANCH   5   8
ENDBRANCH   4   5
ENDBRANCH   1   3
BRANCH   1  11
ATOM     11  C   UNL     1      18.680  25.621  44.711  1.00  0.00     0.002 C 
ATOM     12  C   UNL     1      19.345  27.025  44.696  1.00  0.00     0.005 C 
ATOM     13  C   UNL     1      18.079  25.490  43.282  1.00  0.00    -0.026 C 
ATOM     14  C   UNL     1      19.658  27.345  43.224  1.00  0.00     0.005 C 
ATOM     15  C   UNL     1      19.232  26.095  42.457  1.00  0.00    -0.001 C 
ATOM     16  C   UNL     1      17.828  24.024  42.817  1.00  0.00     0.007 C 
ATOM     17  C   UNL     1      16.760  26.326  43.151  1.00  0.00     0.012 C 
ATOM     18  C   UNL     1      18.887  26.252  40.959  1.00  0.00     0.000 C 
ATOM     19  C   UNL     1      18.317  23.733  41.372  1.00  0.00     0.005 C 
ATOM     20  C   UNL     1      18.197  24.946  40.396  1.00  0.00     0.003 C 
ATOM     21  C   UNL     1      20.125  26.656  40.152  1.00  0.00     0.031 C 
ATOM     22  C   UNL     1      18.564  24.577  38.886  1.00  0.00    -0.008 C 
ATOM     23  C   UNL     1      19.768  26.759  38.703  1.00  0.00    -0.027 C 
ATOM     24  C   UNL     1      19.001  25.827  38.105  1.00  0.00    -0.065 C 
ATOM     25  C   UNL     1      17.300  23.944  38.219  1.00  0.00     0.014 C 
ATOM     26  C   UNL     1      19.732  23.555  38.803  1.00  0.00     0.016 C 
ATOM     27  C   UNL     1      18.878  25.879  36.592  1.00  0.00     0.063 C 
ATOM     28  C   UNL     1      17.381  23.857  36.690  1.00  0.00     0.033 C 
ATOM     29  C   UNL     1      17.583  25.248  36.079  1.00  0.00     0.118 C 
BRANCH  29  30
ATOM     30  O   UNL     1      16.499  26.088  36.382  1.00  0.00    -0.393 OA
ATOM     31  H   UNL     1      15.798  25.910  35.702  1.00  0.00     0.210 HD
ENDBRANCH  29  30
ENDBRANCH   1  11
TORSDOF 6
ENDMDL
