MODEL 1
REMARK VINA RESULT:    -3.361      0.000      0.000
REMARK INTER + INTRA:          -5.619
REMARK INTER:                  -5.130
REMARK INTRA:                  -0.490
REMARK UNBOUND:                -0.490
REMARK SMILES CC1=CCC[C@H](C)C(=O)C[C@@H](C(C)C)C(=O)C1
REMARK SMILES IDX 8 1 9 2 6 3 7 4 5 5 4 6 3 7 2 8 1 9 10 11 11 12 15 13 16 14
REMARK SMILES IDX 17 15 12 17 13 18 14 19
REMARK H PARENT
REMARK Flexibility Score: 70.00
ROOT
ATOM      1  C   UNL     1      16.145  12.075  25.349  1.00  0.00     0.136 C 
ATOM      2  O   UNL     1      16.685  11.921  24.265  1.00  0.00    -0.299 OA
ENDROOT
BRANCH   1   3
ATOM      3  C   UNL     1      15.580  13.447  25.686  1.00  0.00     0.053 C 
ATOM      4  C   UNL     1      16.702  14.474  25.880  1.00  0.00     0.016 C 
BRANCH   3   5
ATOM      5  C   UNL     1      14.564  13.923  24.629  1.00  0.00     0.015 C 
BRANCH   5   6
ATOM      6  C   UNL     1      13.325  13.011  24.595  1.00  0.00     0.028 C 
BRANCH   6   7
ATOM      7  C   UNL     1      12.533  13.007  25.879  1.00  0.00    -0.028 C 
ATOM      8  C   UNL     1      12.248  11.923  26.645  1.00  0.00    -0.070 CG0
ATOM      9  C   UNL     1      11.580  12.184  27.975  1.00  0.00     0.039 C 
ATOM     10  G   UNL     1      12.446  10.472  26.216  1.00  0.00     0.000 G0
ENDBRANCH   6   7
ENDBRANCH   5   6
ENDBRANCH   3   5
ENDBRANCH   1   3
BRANCH   1  11
ATOM     11  C   UNL     1      16.005  10.891  26.288  1.00  0.00     0.087 C 
BRANCH  11  12
ATOM     12  C   UNL     1      14.967   9.803  25.875  1.00  0.00     0.066 C 
BRANCH  12  13
ATOM     13  C   UNL     1      13.716   9.794  26.742  1.00  0.00     0.140 C 
ATOM     14  O   UNL     1      13.687   9.157  27.786  1.00  0.00    -0.299 OA
BRANCH  13  15
ATOM     15  C   UNL     1      12.457  10.454  26.231  1.00  0.00     0.106 CG0
ATOM     16  G   UNL     1      12.249  11.906  26.653  1.00  0.00     0.000 G0
ENDBRANCH  13  15
ENDBRANCH  12  13
BRANCH  12  17
ATOM     17  C   UNL     1      15.544   8.370  25.613  1.00  0.00    -0.006 C 
ATOM     18  C   UNL     1      17.046   8.335  25.300  1.00  0.00     0.008 C 
ATOM     19  C   UNL     1      14.766   7.635  24.508  1.00  0.00     0.008 C 
ENDBRANCH  12  17
ENDBRANCH  11  12
ENDBRANCH   1  11
TORSDOF 1
ENDMDL
MODEL 2
REMARK VINA RESULT:    -3.196      2.379      3.731
REMARK INTER + INTRA:          -5.367
REMARK INTER:                  -4.821
REMARK INTRA:                  -0.545
REMARK UNBOUND:                -0.490
REMARK SMILES CC1=CCC[C@H](C)C(=O)C[C@@H](C(C)C)C(=O)C1
REMARK SMILES IDX 8 1 9 2 6 3 7 4 5 5 4 6 3 7 2 8 1 9 10 11 11 12 15 13 16 14
REMARK SMILES IDX 17 15 12 17 13 18 14 19
REMARK H PARENT
REMARK Flexibility Score: 70.00
ROOT
ATOM      1  C   UNL     1      15.349  12.736  27.685  1.00  0.00     0.136 C 
ATOM      2  O   UNL     1      15.645  11.885  28.509  1.00  0.00    -0.299 OA
ENDROOT
BRANCH   1   3
ATOM      3  C   UNL     1      16.430  13.701  27.225  1.00  0.00     0.053 C 
ATOM      4  C   UNL     1      17.176  13.154  26.002  1.00  0.00     0.016 C 
BRANCH   3   5
ATOM      5  C   UNL     1      15.862  15.107  26.949  1.00  0.00     0.015 C 
BRANCH   5   6
ATOM      6  C   UNL     1      15.826  15.410  25.440  1.00  0.00     0.028 C 
BRANCH   6   7
ATOM      7  C   UNL     1      14.510  15.968  24.960  1.00  0.00    -0.028 C 
ATOM      8  C   UNL     1      13.494  15.266  24.397  1.00  0.00    -0.070 CG0
ATOM      9  C   UNL     1      12.205  16.011  24.145  1.00  0.00     0.039 C 
ATOM     10  G   UNL     1      13.597  13.825  23.902  1.00  0.00     0.000 G0
ENDBRANCH   6   7
ENDBRANCH   5   6
ENDBRANCH   3   5
ENDBRANCH   1   3
BRANCH   1  11
ATOM     11  C   UNL     1      13.945  12.762  27.111  1.00  0.00     0.087 C 
BRANCH  11  12
ATOM     12  C   UNL     1      13.736  12.005  25.763  1.00  0.00     0.066 C 
BRANCH  12  13
ATOM     13  C   UNL     1      12.906  12.781  24.751  1.00  0.00     0.140 C 
ATOM     14  O   UNL     1      11.737  12.484  24.545  1.00  0.00    -0.299 OA
BRANCH  13  15
ATOM     15  C   UNL     1      13.577  13.826  23.891  1.00  0.00     0.106 CG0
ATOM     16  G   UNL     1      13.503  15.261  24.408  1.00  0.00     0.000 G0
ENDBRANCH  13  15
ENDBRANCH  12  13
BRANCH  12  17
ATOM     17  C   UNL     1      13.314  10.501  25.880  1.00  0.00    -0.006 C 
ATOM     18  C   UNL     1      12.355  10.196  27.039  1.00  0.00     0.008 C 
ATOM     19  C   UNL     1      14.536   9.570  25.959  1.00  0.00     0.008 C 
ENDBRANCH  12  17
ENDBRANCH  11  12
ENDBRANCH   1  11
TORSDOF 1
ENDMDL
MODEL 3
REMARK VINA RESULT:    -3.072      8.042     10.921
REMARK INTER + INTRA:          -5.178
REMARK INTER:                  -4.793
REMARK INTRA:                  -0.385
REMARK UNBOUND:                -0.490
REMARK SMILES CC1=CCC[C@H](C)C(=O)C[C@@H](C(C)C)C(=O)C1
REMARK SMILES IDX 8 1 9 2 6 3 7 4 5 5 4 6 3 7 2 8 1 9 10 11 11 12 15 13 16 14
REMARK SMILES IDX 17 15 12 17 13 18 14 19
REMARK H PARENT
REMARK Flexibility Score: 70.00
ROOT
ATOM      1  C   UNL     1      13.626   6.090  18.043  1.00  0.00     0.136 C 
ATOM      2  O   UNL     1      13.476   7.255  18.378  1.00  0.00    -0.299 OA
ENDROOT
BRANCH   1   3
ATOM      3  C   UNL     1      14.783   5.750  17.115  1.00  0.00     0.053 C 
ATOM      4  C   UNL     1      16.115   5.738  17.874  1.00  0.00     0.016 C 
BRANCH   3   5
ATOM      5  C   UNL     1      14.550   4.418  16.375  1.00  0.00     0.015 C 
BRANCH   5   6
ATOM      6  C   UNL     1      15.659   3.400  16.694  1.00  0.00     0.028 C 
BRANCH   6   7
ATOM      7  C   UNL     1      15.144   2.043  17.106  1.00  0.00    -0.028 C 
ATOM      8  C   UNL     1      14.626   1.712  18.315  1.00  0.00    -0.070 CG0
ATOM      9  C   UNL     1      14.021   0.334  18.445  1.00  0.00     0.039 C 
ATOM     10  G   UNL     1      14.713   2.577  19.570  1.00  0.00     0.000 G0
ENDBRANCH   6   7
ENDBRANCH   5   6
ENDBRANCH   3   5
ENDBRANCH   1   3
BRANCH   1  11
ATOM     11  C   UNL     1      12.702   5.027  18.605  1.00  0.00     0.087 C 
BRANCH  11  12
ATOM     12  C   UNL     1      13.011   4.539  20.054  1.00  0.00     0.066 C 
BRANCH  12  13
ATOM     13  C   UNL     1      13.382   3.065  20.134  1.00  0.00     0.140 C 
ATOM     14  O   UNL     1      12.685   2.281  20.764  1.00  0.00    -0.299 OA
BRANCH  13  15
ATOM     15  C   UNL     1      14.698   2.601  19.557  1.00  0.00     0.106 CG0
ATOM     16  G   UNL     1      14.606   1.709  18.322  1.00  0.00     0.000 G0
ENDBRANCH  13  15
ENDBRANCH  12  13
BRANCH  12  17
ATOM     17  C   UNL     1      11.989   4.977  21.157  1.00  0.00    -0.006 C 
ATOM     18  C   UNL     1      10.541   5.109  20.668  1.00  0.00     0.008 C 
ATOM     19  C   UNL     1      12.423   6.280  21.852  1.00  0.00     0.008 C 
ENDBRANCH  12  17
ENDBRANCH  11  12
ENDBRANCH   1  11
TORSDOF 1
ENDMDL
MODEL 4
REMARK VINA RESULT:    -3.038      1.753      4.214
REMARK INTER + INTRA:          -5.127
REMARK INTER:                  -4.947
REMARK INTRA:                  -0.179
REMARK UNBOUND:                -0.490
REMARK SMILES CC1=CCC[C@H](C)C(=O)C[C@@H](C(C)C)C(=O)C1
REMARK SMILES IDX 8 1 9 2 6 3 7 4 5 5 4 6 3 7 2 8 1 9 10 11 11 12 15 13 16 14
REMARK SMILES IDX 17 15 12 17 13 18 14 19
REMARK H PARENT
REMARK Flexibility Score: 70.00
ROOT
ATOM      1  C   UNL     1      16.604   9.315  25.379  1.00  0.00     0.136 C 
ATOM      2  O   UNL     1      17.632   9.500  26.011  1.00  0.00    -0.299 OA
ENDROOT
BRANCH   1   3
ATOM      3  C   UNL     1      16.258   7.892  24.967  1.00  0.00     0.053 C 
ATOM      4  C   UNL     1      16.509   6.907  26.115  1.00  0.00     0.016 C 
BRANCH   3   5
ATOM      5  C   UNL     1      14.812   7.783  24.444  1.00  0.00     0.015 C 
BRANCH   5   6
ATOM      6  C   UNL     1      13.848   7.333  25.556  1.00  0.00     0.028 C 
BRANCH   6   7
ATOM      7  C   UNL     1      12.626   8.207  25.697  1.00  0.00    -0.028 C 
ATOM      8  C   UNL     1      12.559   9.397  26.346  1.00  0.00    -0.070 CG0
ATOM      9  C   UNL     1      11.270  10.174  26.216  1.00  0.00     0.039 C 
ATOM     10  G   UNL     1      13.634   9.946  27.280  1.00  0.00     0.000 G0
ENDBRANCH   6   7
ENDBRANCH   5   6
ENDBRANCH   3   5
ENDBRANCH   1   3
BRANCH   1  11
ATOM     11  C   UNL     1      15.688  10.487  25.081  1.00  0.00     0.087 C 
BRANCH  11  12
ATOM     12  C   UNL     1      15.475  11.508  26.241  1.00  0.00     0.066 C 
BRANCH  12  13
ATOM     13  C   UNL     1      14.140  11.346  26.957  1.00  0.00     0.140 C 
ATOM     14  O   UNL     1      13.534  12.324  27.371  1.00  0.00    -0.299 OA
BRANCH  13  15
ATOM     15  C   UNL     1      13.642   9.959  27.286  1.00  0.00     0.106 CG0
ATOM     16  G   UNL     1      12.575   9.395  26.350  1.00  0.00     0.000 G0
ENDBRANCH  13  15
ENDBRANCH  12  13
BRANCH  12  17
ATOM     17  C   UNL     1      15.819  13.000  25.913  1.00  0.00    -0.006 C 
ATOM     18  C   UNL     1      15.086  13.570  24.691  1.00  0.00     0.008 C 
ATOM     19  C   UNL     1      17.334  13.215  25.756  1.00  0.00     0.008 C 
ENDBRANCH  12  17
ENDBRANCH  11  12
ENDBRANCH   1  11
TORSDOF 1
ENDMDL
MODEL 5
REMARK VINA RESULT:    -2.987     10.748     11.805
REMARK INTER + INTRA:          -5.048
REMARK INTER:                  -4.523
REMARK INTRA:                  -0.525
REMARK UNBOUND:                -0.490
REMARK SMILES CC1=CCC[C@H](C)C(=O)C[C@@H](C(C)C)C(=O)C1
REMARK SMILES IDX 8 1 9 2 6 3 7 4 5 5 4 6 3 7 2 8 1 9 10 11 11 12 15 13 16 14
REMARK SMILES IDX 17 15 12 17 13 18 14 19
REMARK H PARENT
REMARK Flexibility Score: 70.00
ROOT
ATOM      1  C   UNL     1      15.962   4.200  18.058  1.00  0.00     0.136 C 
ATOM      2  O   UNL     1      17.104   4.629  18.030  1.00  0.00    -0.299 OA
ENDROOT
BRANCH   1   3
ATOM      3  C   UNL     1      14.945   4.790  17.092  1.00  0.00     0.053 C 
ATOM      4  C   UNL     1      14.833   3.940  15.821  1.00  0.00     0.016 C 
BRANCH   3   5
ATOM      5  C   UNL     1      13.569   4.984  17.758  1.00  0.00     0.015 C 
BRANCH   5   6
ATOM      6  C   UNL     1      12.539   3.976  17.217  1.00  0.00     0.028 C 
BRANCH   6   7
ATOM      7  C   UNL     1      11.870   3.151  18.287  1.00  0.00    -0.028 C 
ATOM      8  C   UNL     1      12.241   1.912  18.698  1.00  0.00    -0.070 CG0
ATOM      9  C   UNL     1      11.522   1.347  19.901  1.00  0.00     0.039 C 
ATOM     10  G   UNL     1      13.239   1.013  17.972  1.00  0.00     0.000 G0
ENDBRANCH   6   7
ENDBRANCH   5   6
ENDBRANCH   3   5
ENDBRANCH   1   3
BRANCH   1  11
ATOM     11  C   UNL     1      15.614   3.064  19.002  1.00  0.00     0.087 C 
BRANCH  11  12
ATOM     12  C   UNL     1      15.740   1.621  18.423  1.00  0.00     0.066 C 
BRANCH  12  13
ATOM     13  C   UNL     1      14.534   0.740  18.715  1.00  0.00     0.140 C 
ATOM     14  O   UNL     1      14.640  -0.242  19.436  1.00  0.00    -0.299 OA
BRANCH  13  15
ATOM     15  C   UNL     1      13.236   0.999  17.987  1.00  0.00     0.106 CG0
ATOM     16  G   UNL     1      12.246   1.918  18.699  1.00  0.00     0.000 G0
ENDBRANCH  13  15
ENDBRANCH  12  13
BRANCH  12  17
ATOM     17  C   UNL     1      17.106   0.898  18.677  1.00  0.00    -0.006 C 
ATOM     18  C   UNL     1      17.750   1.210  20.035  1.00  0.00     0.008 C 
ATOM     19  C   UNL     1      18.116   1.172  17.549  1.00  0.00     0.008 C 
ENDBRANCH  12  17
ENDBRANCH  11  12
ENDBRANCH   1  11
TORSDOF 1
ENDMDL
MODEL 6
REMARK VINA RESULT:    -2.920      9.558     11.198
REMARK INTER + INTRA:          -4.946
REMARK INTER:                  -4.495
REMARK INTRA:                  -0.451
REMARK UNBOUND:                -0.490
REMARK SMILES CC1=CCC[C@H](C)C(=O)C[C@@H](C(C)C)C(=O)C1
REMARK SMILES IDX 8 1 9 2 6 3 7 4 5 5 4 6 3 7 2 8 1 9 10 11 11 12 15 13 16 14
REMARK SMILES IDX 17 15 12 17 13 18 14 19
REMARK H PARENT
REMARK Flexibility Score: 70.00
ROOT
ATOM      1  C   UNL     1      16.192   2.857  18.153  1.00  0.00     0.136 C 
ATOM      2  O   UNL     1      16.926   2.393  17.294  1.00  0.00    -0.299 OA
ENDROOT
BRANCH   1   3
ATOM      3  C   UNL     1      15.630   4.255  17.944  1.00  0.00     0.053 C 
ATOM      4  C   UNL     1      16.753   5.298  17.880  1.00  0.00     0.016 C 
BRANCH   3   5
ATOM      5  C   UNL     1      14.728   4.329  16.697  1.00  0.00     0.015 C 
BRANCH   5   6
ATOM      6  C   UNL     1      13.299   3.852  17.012  1.00  0.00     0.028 C 
BRANCH   6   7
ATOM      7  C   UNL     1      12.706   4.474  18.252  1.00  0.00    -0.028 C 
ATOM      8  C   UNL     1      12.339   3.820  19.383  1.00  0.00    -0.070 CG0
ATOM      9  C   UNL     1      11.922   4.672  20.560  1.00  0.00     0.039 C 
ATOM     10  G   UNL     1      12.207   2.305  19.514  1.00  0.00     0.000 G0
ENDBRANCH   6   7
ENDBRANCH   5   6
ENDBRANCH   3   5
ENDBRANCH   1   3
BRANCH   1  11
ATOM     11  C   UNL     1      15.822   2.009  19.356  1.00  0.00     0.087 C 
BRANCH  11  12
ATOM     12  C   UNL     1      14.536   1.137  19.216  1.00  0.00     0.066 C 
BRANCH  12  13
ATOM     13  C   UNL     1      13.398   1.581  20.124  1.00  0.00     0.140 C 
ATOM     14  O   UNL     1      13.384   1.263  21.305  1.00  0.00    -0.299 OA
BRANCH  13  15
ATOM     15  C   UNL     1      12.207   2.290  19.523  1.00  0.00     0.106 CG0
ATOM     16  G   UNL     1      12.337   3.804  19.380  1.00  0.00     0.000 G0
ENDBRANCH  13  15
ENDBRANCH  12  13
BRANCH  12  17
ATOM     17  C   UNL     1      14.756  -0.414  19.220  1.00  0.00    -0.006 C 
ATOM     18  C   UNL     1      15.970  -0.884  20.033  1.00  0.00     0.008 C 
ATOM     19  C   UNL     1      14.836  -0.982  17.792  1.00  0.00     0.008 C 
ENDBRANCH  12  17
ENDBRANCH  11  12
ENDBRANCH   1  11
TORSDOF 1
ENDMDL
MODEL 7
REMARK VINA RESULT:    -2.906      2.170      4.796
REMARK INTER + INTRA:          -4.924
REMARK INTER:                  -4.571
REMARK INTRA:                  -0.354
REMARK UNBOUND:                -0.490
REMARK SMILES CC1=CCC[C@H](C)C(=O)C[C@@H](C(C)C)C(=O)C1
REMARK SMILES IDX 8 1 9 2 6 3 7 4 5 5 4 6 3 7 2 8 1 9 10 11 11 12 15 13 16 14
REMARK SMILES IDX 17 15 12 17 13 18 14 19
REMARK H PARENT
REMARK Flexibility Score: 70.00
ROOT
ATOM      1  C   UNL     1      13.510   9.412  25.661  1.00  0.00     0.136 C 
ATOM      2  O   UNL     1      12.811   8.663  24.997  1.00  0.00    -0.299 OA
ENDROOT
BRANCH   1   3
ATOM      3  C   UNL     1      14.947   9.000  25.941  1.00  0.00     0.053 C 
ATOM      4  C   UNL     1      15.589   8.360  24.704  1.00  0.00     0.016 C 
BRANCH   3   5
ATOM      5  C   UNL     1      15.790  10.182  26.459  1.00  0.00     0.015 C 
BRANCH   5   6
ATOM      6  C   UNL     1      16.468  10.936  25.301  1.00  0.00     0.028 C 
BRANCH   6   7
ATOM      7  C   UNL     1      16.740  12.390  25.595  1.00  0.00    -0.028 C 
ATOM      8  C   UNL     1      15.904  13.432  25.349  1.00  0.00    -0.070 CG0
ATOM      9  C   UNL     1      16.323  14.783  25.879  1.00  0.00     0.039 C 
ATOM     10  G   UNL     1      14.646  13.358  24.488  1.00  0.00     0.000 G0
ENDBRANCH   6   7
ENDBRANCH   5   6
ENDBRANCH   3   5
ENDBRANCH   1   3
BRANCH   1  11
ATOM     11  C   UNL     1      12.945  10.741  26.127  1.00  0.00     0.087 C 
BRANCH  11  12
ATOM     12  C   UNL     1      12.620  11.782  25.013  1.00  0.00     0.066 C 
BRANCH  12  13
ATOM     13  C   UNL     1      13.339  13.112  25.194  1.00  0.00     0.140 C 
ATOM     14  O   UNL     1      12.813  14.024  25.817  1.00  0.00    -0.299 OA
BRANCH  13  15
ATOM     15  C   UNL     1      14.642  13.352  24.469  1.00  0.00     0.106 CG0
ATOM     16  G   UNL     1      15.889  13.420  25.347  1.00  0.00     0.000 G0
ENDBRANCH  13  15
ENDBRANCH  12  13
BRANCH  12  17
ATOM     17  C   UNL     1      11.105  11.947  24.649  1.00  0.00    -0.006 C 
ATOM     18  C   UNL     1      10.172  10.942  25.338  1.00  0.00     0.008 C 
ATOM     19  C   UNL     1      10.876  11.909  23.128  1.00  0.00     0.008 C 
ENDBRANCH  12  17
ENDBRANCH  11  12
ENDBRANCH   1  11
TORSDOF 1
ENDMDL
MODEL 8
REMARK VINA RESULT:    -2.871     10.838     12.534
REMARK INTER + INTRA:          -4.871
REMARK INTER:                  -4.461
REMARK INTRA:                  -0.410
REMARK UNBOUND:                -0.490
REMARK SMILES CC1=CCC[C@H](C)C(=O)C[C@@H](C(C)C)C(=O)C1
REMARK SMILES IDX 8 1 9 2 6 3 7 4 5 5 4 6 3 7 2 8 1 9 10 11 11 12 15 13 16 14
REMARK SMILES IDX 17 15 12 17 13 18 14 19
REMARK H PARENT
REMARK Flexibility Score: 70.00
ROOT
ATOM      1  C   UNL     1      14.114   0.213  20.842  1.00  0.00     0.136 C 
ATOM      2  O   UNL     1      13.492  -0.814  21.062  1.00  0.00    -0.299 OA
ENDROOT
BRANCH   1   3
ATOM      3  C   UNL     1      15.595   0.104  20.512  1.00  0.00     0.053 C 
ATOM      4  C   UNL     1      16.371  -0.548  21.663  1.00  0.00     0.016 C 
BRANCH   3   5
ATOM      5  C   UNL     1      15.832  -0.644  19.185  1.00  0.00     0.015 C 
BRANCH   5   6
ATOM      6  C   UNL     1      15.577   0.271  17.974  1.00  0.00     0.028 C 
BRANCH   6   7
ATOM      7  C   UNL     1      16.430   1.515  17.958  1.00  0.00    -0.028 C 
ATOM      8  C   UNL     1      15.984   2.797  17.983  1.00  0.00    -0.070 CG0
ATOM      9  C   UNL     1      17.027   3.880  18.127  1.00  0.00     0.039 C 
ATOM     10  G   UNL     1      14.535   3.223  17.762  1.00  0.00     0.000 G0
ENDBRANCH   6   7
ENDBRANCH   5   6
ENDBRANCH   3   5
ENDBRANCH   1   3
BRANCH   1  11
ATOM     11  C   UNL     1      13.384   1.544  20.846  1.00  0.00     0.087 C 
BRANCH  11  12
ATOM     12  C   UNL     1      12.915   2.078  19.457  1.00  0.00     0.066 C 
BRANCH  12  13
ATOM     13  C   UNL     1      13.674   3.313  18.992  1.00  0.00     0.140 C 
ATOM     14  O   UNL     1      13.498   4.393  19.539  1.00  0.00    -0.299 OA
BRANCH  13  15
ATOM     15  C   UNL     1      14.533   3.230  17.753  1.00  0.00     0.106 CG0
ATOM     16  G   UNL     1      15.985   2.815  17.977  1.00  0.00     0.000 G0
ENDBRANCH  13  15
ENDBRANCH  12  13
BRANCH  12  17
ATOM     17  C   UNL     1      11.366   2.195  19.255  1.00  0.00    -0.006 C 
ATOM     18  C   UNL     1      10.532   1.322  20.202  1.00  0.00     0.008 C 
ATOM     19  C   UNL     1      10.958   1.918  17.798  1.00  0.00     0.008 C 
ENDBRANCH  12  17
ENDBRANCH  11  12
ENDBRANCH   1  11
TORSDOF 1
ENDMDL
MODEL 9
REMARK VINA RESULT:    -2.798      2.005      3.943
REMARK INTER + INTRA:          -4.760
REMARK INTER:                  -4.824
REMARK INTRA:                   0.064
REMARK UNBOUND:                -0.490
REMARK SMILES CC1=CCC[C@H](C)C(=O)C[C@@H](C(C)C)C(=O)C1
REMARK SMILES IDX 8 1 9 2 6 3 7 4 5 5 4 6 3 7 2 8 1 9 10 11 11 12 15 13 16 14
REMARK SMILES IDX 17 15 12 17 13 18 14 19
REMARK H PARENT
REMARK Flexibility Score: 70.00
ROOT
ATOM      1  C   UNL     1      15.040   8.728  25.219  1.00  0.00     0.136 C 
ATOM      2  O   UNL     1      15.057   7.990  24.246  1.00  0.00    -0.299 OA
ENDROOT
BRANCH   1   3
ATOM      3  C   UNL     1      16.323   9.453  25.597  1.00  0.00     0.053 C 
ATOM      4  C   UNL     1      17.489   8.470  25.751  1.00  0.00     0.016 C 
BRANCH   3   5
ATOM      5  C   UNL     1      16.665  10.572  24.594  1.00  0.00     0.015 C 
BRANCH   5   6
ATOM      6  C   UNL     1      15.957  11.889  24.962  1.00  0.00     0.028 C 
BRANCH   6   7
ATOM      7  C   UNL     1      16.476  12.530  26.224  1.00  0.00    -0.028 C 
ATOM      8  C   UNL     1      15.803  12.665  27.395  1.00  0.00    -0.070 CG0
ATOM      9  C   UNL     1      16.583  13.193  28.575  1.00  0.00     0.039 C 
ATOM     10  G   UNL     1      14.304  12.433  27.572  1.00  0.00     0.000 G0
ENDBRANCH   6   7
ENDBRANCH   5   6
ENDBRANCH   3   5
ENDBRANCH   1   3
BRANCH   1  11
ATOM     11  C   UNL     1      13.740   8.941  25.971  1.00  0.00     0.087 C 
BRANCH  11  12
ATOM     12  C   UNL     1      13.318  10.423  26.213  1.00  0.00     0.066 C 
BRANCH  12  13
ATOM     13  C   UNL     1      13.835  10.997  27.525  1.00  0.00     0.140 C 
ATOM     14  O   UNL     1      13.766  10.348  28.559  1.00  0.00    -0.299 OA
BRANCH  13  15
ATOM     15  C   UNL     1      14.297  12.435  27.571  1.00  0.00     0.106 CG0
ATOM     16  G   UNL     1      15.796  12.658  27.387  1.00  0.00     0.000 G0
ENDBRANCH  13  15
ENDBRANCH  12  13
BRANCH  12  17
ATOM     17  C   UNL     1      11.811  10.758  25.948  1.00  0.00    -0.006 C 
ATOM     18  C   UNL     1      10.846  10.263  27.034  1.00  0.00     0.008 C 
ATOM     19  C   UNL     1      11.347  10.250  24.572  1.00  0.00     0.008 C 
ENDBRANCH  12  17
ENDBRANCH  11  12
ENDBRANCH   1  11
TORSDOF 1
ENDMDL
