MODEL 1
REMARK VINA RESULT:    -7.167      0.000      0.000
REMARK INTER + INTRA:          -9.160
REMARK INTER:                  -8.843
REMARK INTRA:                  -0.317
REMARK UNBOUND:                -0.317
REMARK SMILES O=c1c(O)c(-c2cc(O)c(O)c(O)c2)oc2cc(O)cc(O)c12
REMARK SMILES IDX 5 1 3 2 2 3 1 4 23 5 21 6 20 7 18 8 17 9 16 10 15 11 6 12
REMARK SMILES IDX 7 13 8 14 14 15 10 16 12 17 9 18 11 20 13 22 4 24 22 26
REMARK SMILES IDX 19 28
REMARK H PARENT 9 19 11 21 13 23 4 25 22 27 19 29
REMARK Flexibility Score: inf
ROOT
ATOM      1  C   UNL     1     167.892 149.016 148.456  1.00  0.00     0.180 A 
ATOM      2  C   UNL     1     168.352 148.461 147.249  1.00  0.00     0.208 A 
ATOM      3  C   UNL     1     168.094 147.107 146.982  1.00  0.00     0.238 A 
ATOM      4  O   UNL     1     168.459 146.629 145.875  1.00  0.00    -0.285 OA
ATOM      5  C   UNL     1     167.395 146.322 147.929  1.00  0.00     0.111 A 
ATOM      6  C   UNL     1     167.114 144.931 147.780  1.00  0.00     0.134 A 
ATOM      7  C   UNL     1     166.302 144.285 148.721  1.00  0.00     0.093 A 
ATOM      8  C   UNL     1     165.815 144.965 149.840  1.00  0.00     0.123 A 
ATOM      9  C   UNL     1     166.134 146.308 150.025  1.00  0.00     0.094 A 
ATOM     10  C   UNL     1     166.912 146.989 149.085  1.00  0.00     0.146 A 
ATOM     11  O   UNL     1     167.183 148.271 149.295  1.00  0.00    -0.452 OA
ENDROOT
BRANCH   1  12
ATOM     12  C   UNL     1     168.147 150.429 148.820  1.00  0.00     0.029 A 
ATOM     13  C   UNL     1     167.091 151.353 148.781  1.00  0.00     0.062 A 
ATOM     14  C   UNL     1     167.298 152.689 149.140  1.00  0.00     0.162 A 
ATOM     15  C   UNL     1     169.411 150.855 149.260  1.00  0.00     0.062 A 
ATOM     16  C   UNL     1     168.569 153.114 149.558  1.00  0.00     0.200 A 
ATOM     17  C   UNL     1     169.627 152.191 149.623  1.00  0.00     0.162 A 
BRANCH  14  18
ATOM     18  O   UNL     1     166.226 153.579 149.073  1.00  0.00    -0.504 OA
ATOM     19  H   UNL     1     165.274 153.291 149.264  1.00  0.00     0.293 HD
ENDBRANCH  14  18
BRANCH  16  20
ATOM     20  O   UNL     1     168.768 154.450 149.912  1.00  0.00    -0.502 OA
ATOM     21  H   UNL     1     168.282 155.209 149.449  1.00  0.00     0.293 HD
ENDBRANCH  16  20
BRANCH  17  22
ATOM     22  O   UNL     1     170.888 152.603 150.052  1.00  0.00    -0.504 OA
ATOM     23  H   UNL     1     171.287 152.273 150.923  1.00  0.00     0.293 HD
ENDBRANCH  17  22
ENDBRANCH   1  12
BRANCH   2  24
ATOM     24  O   UNL     1     169.020 149.259 146.318  1.00  0.00    -0.502 OA
ATOM     25  H   UNL     1     169.282 148.921 145.399  1.00  0.00     0.293 HD
ENDBRANCH   2  24
BRANCH   6  26
ATOM     26  O   UNL     1     167.626 144.137 146.749  1.00  0.00    -0.507 OA
ATOM     27  H   UNL     1     167.366 143.178 146.579  1.00  0.00     0.293 HD
ENDBRANCH   6  26
BRANCH   8  28
ATOM     28  O   UNL     1     165.021 144.311 150.779  1.00  0.00    -0.508 OA
ATOM     29  H   UNL     1     164.543 144.818 151.515  1.00  0.00     0.293 HD
ENDBRANCH   8  28
TORSDOF 7
ENDMDL
MODEL 2
REMARK VINA RESULT:    -7.102      1.820      3.260
REMARK INTER + INTRA:          -9.079
REMARK INTER:                  -8.785
REMARK INTRA:                  -0.295
REMARK UNBOUND:                -0.317
REMARK SMILES O=c1c(O)c(-c2cc(O)c(O)c(O)c2)oc2cc(O)cc(O)c12
REMARK SMILES IDX 5 1 3 2 2 3 1 4 23 5 21 6 20 7 18 8 17 9 16 10 15 11 6 12
REMARK SMILES IDX 7 13 8 14 14 15 10 16 12 17 9 18 11 20 13 22 4 24 22 26
REMARK SMILES IDX 19 28
REMARK H PARENT 9 19 11 21 13 23 4 25 22 27 19 29
REMARK Flexibility Score: inf
ROOT
ATOM      1  C   UNL     1     166.451 146.955 148.912  1.00  0.00     0.180 A 
ATOM      2  C   UNL     1     166.730 146.043 147.879  1.00  0.00     0.208 A 
ATOM      3  C   UNL     1     166.304 144.712 148.013  1.00  0.00     0.238 A 
ATOM      4  O   UNL     1     166.508 143.913 147.062  1.00  0.00    -0.285 OA
ATOM      5  C   UNL     1     165.618 144.306 149.184  1.00  0.00     0.111 A 
ATOM      6  C   UNL     1     165.176 142.974 149.443  1.00  0.00     0.134 A 
ATOM      7  C   UNL     1     164.394 142.714 150.575  1.00  0.00     0.093 A 
ATOM      8  C   UNL     1     164.093 143.726 151.490  1.00  0.00     0.123 A 
ATOM      9  C   UNL     1     164.571 145.016 151.276  1.00  0.00     0.094 A 
ATOM     10  C   UNL     1     165.323 145.314 150.137  1.00  0.00     0.146 A 
ATOM     11  O   UNL     1     165.749 146.560 149.967  1.00  0.00    -0.452 OA
ENDROOT
BRANCH   1  12
ATOM     12  C   UNL     1     166.889 148.369 148.853  1.00  0.00     0.029 A 
ATOM     13  C   UNL     1     168.243 148.680 149.052  1.00  0.00     0.062 A 
ATOM     14  C   UNL     1     168.689 150.004 148.982  1.00  0.00     0.162 A 
ATOM     15  C   UNL     1     165.989 149.402 148.543  1.00  0.00     0.062 A 
ATOM     16  C   UNL     1     167.780 151.036 148.694  1.00  0.00     0.200 A 
ATOM     17  C   UNL     1     166.427 150.731 148.469  1.00  0.00     0.162 A 
BRANCH  14  18
ATOM     18  O   UNL     1     170.039 150.274 149.201  1.00  0.00    -0.504 OA
ATOM     19  H   UNL     1     170.754 150.033 148.525  1.00  0.00     0.293 HD
ENDBRANCH  14  18
BRANCH  16  20
ATOM     20  O   UNL     1     168.233 152.355 148.627  1.00  0.00    -0.502 OA
ATOM     21  H   UNL     1     168.674 152.815 149.415  1.00  0.00     0.293 HD
ENDBRANCH  16  20
BRANCH  17  22
ATOM     22  O   UNL     1     165.523 151.748 148.168  1.00  0.00    -0.504 OA
ATOM     23  H   UNL     1     165.674 152.702 148.475  1.00  0.00     0.293 HD
ENDBRANCH  17  22
ENDBRANCH   1  12
BRANCH   2  24
ATOM     24  O   UNL     1     167.388 146.470 146.723  1.00  0.00    -0.502 OA
ATOM     25  H   UNL     1     167.572 147.448 146.531  1.00  0.00     0.293 HD
ENDBRANCH   2  24
BRANCH   6  26
ATOM     26  O   UNL     1     165.499 141.875 148.641  1.00  0.00    -0.507 OA
ATOM     27  H   UNL     1     165.510 141.883 147.633  1.00  0.00     0.293 HD
ENDBRANCH   6  26
BRANCH   8  28
ATOM     28  O   UNL     1     163.327 143.455 152.622  1.00  0.00    -0.508 OA
ATOM     29  H   UNL     1     163.707 142.944 153.410  1.00  0.00     0.293 HD
ENDBRANCH   8  28
TORSDOF 7
ENDMDL
MODEL 3
REMARK VINA RESULT:    -7.092      1.604      2.307
REMARK INTER + INTRA:          -9.067
REMARK INTER:                  -8.698
REMARK INTRA:                  -0.369
REMARK UNBOUND:                -0.317
REMARK SMILES O=c1c(O)c(-c2cc(O)c(O)c(O)c2)oc2cc(O)cc(O)c12
REMARK SMILES IDX 5 1 3 2 2 3 1 4 23 5 21 6 20 7 18 8 17 9 16 10 15 11 6 12
REMARK SMILES IDX 7 13 8 14 14 15 10 16 12 17 9 18 11 20 13 22 4 24 22 26
REMARK SMILES IDX 19 28
REMARK H PARENT 9 19 11 21 13 23 4 25 22 27 19 29
REMARK Flexibility Score: inf
ROOT
ATOM      1  C   UNL     1     166.606 147.408 148.603  1.00  0.00     0.180 A 
ATOM      2  C   UNL     1     166.728 146.548 147.498  1.00  0.00     0.208 A 
ATOM      3  C   UNL     1     166.237 145.236 147.599  1.00  0.00     0.238 A 
ATOM      4  O   UNL     1     166.299 144.487 146.589  1.00  0.00    -0.285 OA
ATOM      5  C   UNL     1     165.643 144.797 148.808  1.00  0.00     0.111 A 
ATOM      6  C   UNL     1     165.148 143.478 149.035  1.00  0.00     0.134 A 
ATOM      7  C   UNL     1     164.464 143.192 150.223  1.00  0.00     0.093 A 
ATOM      8  C   UNL     1     164.315 144.160 151.218  1.00  0.00     0.123 A 
ATOM      9  C   UNL     1     164.848 145.433 151.031  1.00  0.00     0.094 A 
ATOM     10  C   UNL     1     165.504 145.759 149.841  1.00  0.00     0.146 A 
ATOM     11  O   UNL     1     165.987 146.987 149.699  1.00  0.00    -0.452 OA
ENDROOT
BRANCH   1  12
ATOM     12  C   UNL     1     167.123 148.796 148.581  1.00  0.00     0.029 A 
ATOM     13  C   UNL     1     166.260 149.848 148.235  1.00  0.00     0.062 A 
ATOM     14  C   UNL     1     166.715 151.170 148.226  1.00  0.00     0.162 A 
ATOM     15  C   UNL     1     168.444 149.090 148.956  1.00  0.00     0.062 A 
ATOM     16  C   UNL     1     168.044 151.458 148.581  1.00  0.00     0.200 A 
ATOM     17  C   UNL     1     168.908 150.413 148.952  1.00  0.00     0.162 A 
BRANCH  14  18
ATOM     18  O   UNL     1     165.831 152.185 147.862  1.00  0.00    -0.504 OA
ATOM     19  H   UNL     1     166.053 153.165 147.991  1.00  0.00     0.293 HD
ENDBRANCH  14  18
BRANCH  16  20
ATOM     20  O   UNL     1     168.491 152.780 148.567  1.00  0.00    -0.502 OA
ATOM     21  H   UNL     1     168.882 153.226 149.389  1.00  0.00     0.293 HD
ENDBRANCH  16  20
BRANCH  17  22
ATOM     22  O   UNL     1     170.224 150.692 149.320  1.00  0.00    -0.504 OA
ATOM     23  H   UNL     1     170.698 150.163 150.042  1.00  0.00     0.293 HD
ENDBRANCH  17  22
ENDBRANCH   1  12
BRANCH   2  24
ATOM     24  O   UNL     1     167.297 147.008 146.308  1.00  0.00    -0.502 OA
ATOM     25  H   UNL     1     166.859 146.866 145.405  1.00  0.00     0.293 HD
ENDBRANCH   2  24
BRANCH   6  26
ATOM     26  O   UNL     1     165.324 142.414 148.144  1.00  0.00    -0.507 OA
ATOM     27  H   UNL     1     164.925 141.495 148.261  1.00  0.00     0.293 HD
ENDBRANCH   6  26
BRANCH   8  28
ATOM     28  O   UNL     1     163.646 143.862 152.404  1.00  0.00    -0.508 OA
ATOM     29  H   UNL     1     163.690 144.479 153.207  1.00  0.00     0.293 HD
ENDBRANCH   8  28
TORSDOF 7
ENDMDL
MODEL 4
REMARK VINA RESULT:    -7.078      0.108      1.757
REMARK INTER + INTRA:          -9.050
REMARK INTER:                  -8.753
REMARK INTRA:                  -0.297
REMARK UNBOUND:                -0.317
REMARK SMILES O=c1c(O)c(-c2cc(O)c(O)c(O)c2)oc2cc(O)cc(O)c12
REMARK SMILES IDX 5 1 3 2 2 3 1 4 23 5 21 6 20 7 18 8 17 9 16 10 15 11 6 12
REMARK SMILES IDX 7 13 8 14 14 15 10 16 12 17 9 18 11 20 13 22 4 24 22 26
REMARK SMILES IDX 19 28
REMARK H PARENT 9 19 11 21 13 23 4 25 22 27 19 29
REMARK Flexibility Score: inf
ROOT
ATOM      1  C   UNL     1     167.796 149.014 148.520  1.00  0.00     0.180 A 
ATOM      2  C   UNL     1     168.225 148.473 147.296  1.00  0.00     0.208 A 
ATOM      3  C   UNL     1     167.971 147.119 147.024  1.00  0.00     0.238 A 
ATOM      4  O   UNL     1     168.307 146.653 145.904  1.00  0.00    -0.285 OA
ATOM      5  C   UNL     1     167.306 146.319 147.985  1.00  0.00     0.111 A 
ATOM      6  C   UNL     1     167.033 144.928 147.833  1.00  0.00     0.134 A 
ATOM      7  C   UNL     1     166.255 144.267 148.791  1.00  0.00     0.093 A 
ATOM      8  C   UNL     1     165.795 144.934 149.930  1.00  0.00     0.123 A 
ATOM      9  C   UNL     1     166.108 146.278 150.117  1.00  0.00     0.094 A 
ATOM     10  C   UNL     1     166.852 146.973 149.160  1.00  0.00     0.146 A 
ATOM     11  O   UNL     1     167.118 148.256 149.373  1.00  0.00    -0.452 OA
ENDROOT
BRANCH   1  12
ATOM     12  C   UNL     1     168.049 150.426 148.888  1.00  0.00     0.029 A 
ATOM     13  C   UNL     1     169.343 150.821 149.263  1.00  0.00     0.062 A 
ATOM     14  C   UNL     1     169.615 152.152 149.595  1.00  0.00     0.162 A 
ATOM     15  C   UNL     1     167.034 151.395 148.812  1.00  0.00     0.062 A 
ATOM     16  C   UNL     1     168.591 153.112 149.539  1.00  0.00     0.200 A 
ATOM     17  C   UNL     1     167.299 152.731 149.141  1.00  0.00     0.162 A 
BRANCH  14  18
ATOM     18  O   UNL     1     170.910 152.500 149.978  1.00  0.00    -0.504 OA
ATOM     19  H   UNL     1     171.590 152.857 149.318  1.00  0.00     0.293 HD
ENDBRANCH  14  18
BRANCH  16  20
ATOM     20  O   UNL     1     168.871 154.438 149.874  1.00  0.00    -0.502 OA
ATOM     21  H   UNL     1     168.149 155.148 149.919  1.00  0.00     0.293 HD
ENDBRANCH  16  20
BRANCH  17  22
ATOM     22  O   UNL     1     166.282 153.682 149.068  1.00  0.00    -0.504 OA
ATOM     23  H   UNL     1     165.503 153.679 149.717  1.00  0.00     0.293 HD
ENDBRANCH  17  22
ENDBRANCH   1  12
BRANCH   2  24
ATOM     24  O   UNL     1     168.858 149.285 146.352  1.00  0.00    -0.502 OA
ATOM     25  H   UNL     1     168.397 150.074 145.914  1.00  0.00     0.293 HD
ENDBRANCH   2  24
BRANCH   6  26
ATOM     26  O   UNL     1     167.521 144.147 146.780  1.00  0.00    -0.507 OA
ATOM     27  H   UNL     1     168.431 143.712 146.762  1.00  0.00     0.293 HD
ENDBRANCH   6  26
BRANCH   8  28
ATOM     28  O   UNL     1     165.035 144.265 150.886  1.00  0.00    -0.508 OA
ATOM     29  H   UNL     1     164.229 144.698 151.321  1.00  0.00     0.293 HD
ENDBRANCH   8  28
TORSDOF 7
ENDMDL
MODEL 5
REMARK VINA RESULT:    -6.860      2.027      2.170
REMARK INTER + INTRA:          -8.781
REMARK INTER:                  -8.577
REMARK INTRA:                  -0.204
REMARK UNBOUND:                -0.317
REMARK SMILES O=c1c(O)c(-c2cc(O)c(O)c(O)c2)oc2cc(O)cc(O)c12
REMARK SMILES IDX 5 1 3 2 2 3 1 4 23 5 21 6 20 7 18 8 17 9 16 10 15 11 6 12
REMARK SMILES IDX 7 13 8 14 14 15 10 16 12 17 9 18 11 20 13 22 4 24 22 26
REMARK SMILES IDX 19 28
REMARK H PARENT 9 19 11 21 13 23 4 25 22 27 19 29
REMARK Flexibility Score: inf
ROOT
ATOM      1  C   UNL     1     168.247 149.122 148.038  1.00  0.00     0.180 A 
ATOM      2  C   UNL     1     167.481 148.559 147.002  1.00  0.00     0.208 A 
ATOM      3  C   UNL     1     167.564 147.178 146.767  1.00  0.00     0.238 A 
ATOM      4  O   UNL     1     166.834 146.671 145.875  1.00  0.00    -0.285 OA
ATOM      5  C   UNL     1     168.424 146.378 147.559  1.00  0.00     0.111 A 
ATOM      6  C   UNL     1     168.617 144.976 147.383  1.00  0.00     0.134 A 
ATOM      7  C   UNL     1     169.391 144.263 148.307  1.00  0.00     0.093 A 
ATOM      8  C   UNL     1     170.032 144.915 149.363  1.00  0.00     0.123 A 
ATOM      9  C   UNL     1     169.898 146.294 149.508  1.00  0.00     0.094 A 
ATOM     10  C   UNL     1     169.102 147.026 148.624  1.00  0.00     0.146 A 
ATOM     11  O   UNL     1     168.993 148.336 148.805  1.00  0.00    -0.452 OA
ENDROOT
BRANCH   1  12
ATOM     12  C   UNL     1     168.231 150.573 148.330  1.00  0.00     0.029 A 
ATOM     13  C   UNL     1     167.064 151.162 148.841  1.00  0.00     0.062 A 
ATOM     14  C   UNL     1     167.027 152.526 149.146  1.00  0.00     0.162 A 
ATOM     15  C   UNL     1     169.379 151.366 148.162  1.00  0.00     0.062 A 
ATOM     16  C   UNL     1     168.171 153.319 148.955  1.00  0.00     0.200 A 
ATOM     17  C   UNL     1     169.351 152.734 148.466  1.00  0.00     0.162 A 
BRANCH  14  18
ATOM     18  O   UNL     1     165.843 153.076 149.637  1.00  0.00    -0.504 OA
ATOM     19  H   UNL     1     165.499 152.871 150.568  1.00  0.00     0.293 HD
ENDBRANCH  14  18
BRANCH  16  20
ATOM     20  O   UNL     1     168.124 154.681 149.259  1.00  0.00    -0.502 OA
ATOM     21  H   UNL     1     168.622 155.373 148.713  1.00  0.00     0.293 HD
ENDBRANCH  16  20
BRANCH  17  22
ATOM     22  O   UNL     1     170.495 153.512 148.289  1.00  0.00    -0.504 OA
ATOM     23  H   UNL     1     171.163 153.314 147.553  1.00  0.00     0.293 HD
ENDBRANCH  17  22
ENDBRANCH   1  12
BRANCH   2  24
ATOM     24  O   UNL     1     166.622 149.362 146.247  1.00  0.00    -0.502 OA
ATOM     25  H   UNL     1     166.287 149.090 145.330  1.00  0.00     0.293 HD
ENDBRANCH   2  24
BRANCH   6  26
ATOM     26  O   UNL     1     168.096 144.245 146.310  1.00  0.00    -0.507 OA
ATOM     27  H   UNL     1     168.043 143.238 146.273  1.00  0.00     0.293 HD
ENDBRANCH   6  26
BRANCH   8  28
ATOM     28  O   UNL     1     170.814 144.201 150.269  1.00  0.00    -0.508 OA
ATOM     29  H   UNL     1     171.387 144.670 150.960  1.00  0.00     0.293 HD
ENDBRANCH   8  28
TORSDOF 7
ENDMDL
MODEL 6
REMARK VINA RESULT:    -6.733      9.446     11.610
REMARK INTER + INTRA:          -8.625
REMARK INTER:                  -8.510
REMARK INTRA:                  -0.115
REMARK UNBOUND:                -0.317
REMARK SMILES O=c1c(O)c(-c2cc(O)c(O)c(O)c2)oc2cc(O)cc(O)c12
REMARK SMILES IDX 5 1 3 2 2 3 1 4 23 5 21 6 20 7 18 8 17 9 16 10 15 11 6 12
REMARK SMILES IDX 7 13 8 14 14 15 10 16 12 17 9 18 11 20 13 22 4 24 22 26
REMARK SMILES IDX 19 28
REMARK H PARENT 9 19 11 21 13 23 4 25 22 27 19 29
REMARK Flexibility Score: inf
ROOT
ATOM      1  C   UNL     1     173.682 145.052 155.428  1.00  0.00     0.180 A 
ATOM      2  C   UNL     1     174.794 145.893 155.602  1.00  0.00     0.208 A 
ATOM      3  C   UNL     1     174.720 146.935 156.539  1.00  0.00     0.238 A 
ATOM      4  O   UNL     1     175.738 147.651 156.730  1.00  0.00    -0.285 OA
ATOM      5  C   UNL     1     173.530 147.134 157.280  1.00  0.00     0.111 A 
ATOM      6  C   UNL     1     173.329 148.182 158.226  1.00  0.00     0.134 A 
ATOM      7  C   UNL     1     172.159 148.205 158.995  1.00  0.00     0.093 A 
ATOM      8  C   UNL     1     171.154 147.253 158.805  1.00  0.00     0.123 A 
ATOM      9  C   UNL     1     171.315 146.261 157.841  1.00  0.00     0.094 A 
ATOM     10  C   UNL     1     172.487 146.191 157.084  1.00  0.00     0.146 A 
ATOM     11  O   UNL     1     172.604 145.222 156.184  1.00  0.00    -0.452 OA
ENDROOT
BRANCH   1  12
ATOM     12  C   UNL     1     173.676 143.947 154.441  1.00  0.00     0.029 A 
ATOM     13  C   UNL     1     172.735 143.957 153.400  1.00  0.00     0.062 A 
ATOM     14  C   UNL     1     172.721 142.937 152.442  1.00  0.00     0.162 A 
ATOM     15  C   UNL     1     174.632 142.919 154.490  1.00  0.00     0.062 A 
ATOM     16  C   UNL     1     173.665 141.899 152.508  1.00  0.00     0.200 A 
ATOM     17  C   UNL     1     174.626 141.895 153.533  1.00  0.00     0.162 A 
BRANCH  14  18
ATOM     18  O   UNL     1     171.760 142.975 151.432  1.00  0.00    -0.504 OA
ATOM     19  H   UNL     1     171.583 142.182 150.827  1.00  0.00     0.293 HD
ENDBRANCH  14  18
BRANCH  16  20
ATOM     20  O   UNL     1     173.642 140.885 151.549  1.00  0.00    -0.502 OA
ATOM     21  H   UNL     1     172.794 140.624 151.059  1.00  0.00     0.293 HD
ENDBRANCH  16  20
BRANCH  17  22
ATOM     22  O   UNL     1     175.575 140.875 153.596  1.00  0.00    -0.504 OA
ATOM     23  H   UNL     1     176.368 140.925 154.225  1.00  0.00     0.293 HD
ENDBRANCH  17  22
ENDBRANCH   1  12
BRANCH   2  24
ATOM     24  O   UNL     1     175.967 145.665 154.877  1.00  0.00    -0.502 OA
ATOM     25  H   UNL     1     176.711 146.351 154.816  1.00  0.00     0.293 HD
ENDBRANCH   2  24
BRANCH   6  26
ATOM     26  O   UNL     1     174.229 149.233 158.429  1.00  0.00    -0.507 OA
ATOM     27  H   UNL     1     174.684 149.750 157.691  1.00  0.00     0.293 HD
ENDBRANCH   6  26
BRANCH   8  28
ATOM     28  O   UNL     1     169.986 147.292 159.564  1.00  0.00    -0.508 OA
ATOM     29  H   UNL     1     169.136 147.713 159.207  1.00  0.00     0.293 HD
ENDBRANCH   8  28
TORSDOF 7
ENDMDL
MODEL 7
REMARK VINA RESULT:    -6.674      9.302     10.092
REMARK INTER + INTRA:          -8.552
REMARK INTER:                  -8.636
REMARK INTRA:                   0.084
REMARK UNBOUND:                -0.317
REMARK SMILES O=c1c(O)c(-c2cc(O)c(O)c(O)c2)oc2cc(O)cc(O)c12
REMARK SMILES IDX 5 1 3 2 2 3 1 4 23 5 21 6 20 7 18 8 17 9 16 10 15 11 6 12
REMARK SMILES IDX 7 13 8 14 14 15 10 16 12 17 9 18 11 20 13 22 4 24 22 26
REMARK SMILES IDX 19 28
REMARK H PARENT 9 19 11 21 13 23 4 25 22 27 19 29
REMARK Flexibility Score: inf
ROOT
ATOM      1  C   UNL     1     173.526 144.523 155.213  1.00  0.00     0.180 A 
ATOM      2  C   UNL     1     174.849 144.059 155.105  1.00  0.00     0.208 A 
ATOM      3  C   UNL     1     175.161 143.120 154.108  1.00  0.00     0.238 A 
ATOM      4  O   UNL     1     176.358 142.750 153.980  1.00  0.00    -0.285 OA
ATOM      5  C   UNL     1     174.145 142.645 153.244  1.00  0.00     0.111 A 
ATOM      6  C   UNL     1     174.340 141.665 152.226  1.00  0.00     0.134 A 
ATOM      7  C   UNL     1     173.294 141.366 151.344  1.00  0.00     0.093 A 
ATOM      8  C   UNL     1     172.040 141.965 151.486  1.00  0.00     0.123 A 
ATOM      9  C   UNL     1     171.823 142.879 152.515  1.00  0.00     0.094 A 
ATOM     10  C   UNL     1     172.858 143.225 153.387  1.00  0.00     0.146 A 
ATOM     11  O   UNL     1     172.610 144.109 154.346  1.00  0.00    -0.452 OA
ENDROOT
BRANCH   1  12
ATOM     12  C   UNL     1     173.116 145.494 156.253  1.00  0.00     0.029 A 
ATOM     13  C   UNL     1     171.941 145.264 156.987  1.00  0.00     0.062 A 
ATOM     14  C   UNL     1     171.541 146.153 157.990  1.00  0.00     0.162 A 
ATOM     15  C   UNL     1     173.908 146.611 156.565  1.00  0.00     0.062 A 
ATOM     16  C   UNL     1     172.325 147.281 158.282  1.00  0.00     0.200 A 
ATOM     17  C   UNL     1     173.515 147.506 157.569  1.00  0.00     0.162 A 
BRANCH  14  18
ATOM     18  O   UNL     1     170.359 145.897 158.685  1.00  0.00    -0.504 OA
ATOM     19  H   UNL     1     170.173 146.298 159.597  1.00  0.00     0.293 HD
ENDBRANCH  14  18
BRANCH  16  20
ATOM     20  O   UNL     1     171.917 148.164 159.283  1.00  0.00    -0.502 OA
ATOM     21  H   UNL     1     171.849 149.163 159.126  1.00  0.00     0.293 HD
ENDBRANCH  16  20
BRANCH  17  22
ATOM     22  O   UNL     1     174.307 148.616 157.864  1.00  0.00    -0.504 OA
ATOM     23  H   UNL     1     174.137 149.518 157.436  1.00  0.00     0.293 HD
ENDBRANCH  17  22
ENDBRANCH   1  12
BRANCH   2  24
ATOM     24  O   UNL     1     175.840 144.558 155.953  1.00  0.00    -0.502 OA
ATOM     25  H   UNL     1     176.498 145.272 155.662  1.00  0.00     0.293 HD
ENDBRANCH   2  24
BRANCH   6  26
ATOM     26  O   UNL     1     175.525 140.941 152.056  1.00  0.00    -0.507 OA
ATOM     27  H   UNL     1     175.631 140.148 151.442  1.00  0.00     0.293 HD
ENDBRANCH   6  26
BRANCH   8  28
ATOM     28  O   UNL     1     170.999 141.650 150.615  1.00  0.00    -0.508 OA
ATOM     29  H   UNL     1     170.945 142.052 149.686  1.00  0.00     0.293 HD
ENDBRANCH   8  28
TORSDOF 7
ENDMDL
MODEL 8
REMARK VINA RESULT:    -6.671      1.738      7.167
REMARK INTER + INTRA:          -8.548
REMARK INTER:                  -8.351
REMARK INTRA:                  -0.197
REMARK UNBOUND:                -0.317
REMARK SMILES O=c1c(O)c(-c2cc(O)c(O)c(O)c2)oc2cc(O)cc(O)c12
REMARK SMILES IDX 5 1 3 2 2 3 1 4 23 5 21 6 20 7 18 8 17 9 16 10 15 11 6 12
REMARK SMILES IDX 7 13 8 14 14 15 10 16 12 17 9 18 11 20 13 22 4 24 22 26
REMARK SMILES IDX 19 28
REMARK H PARENT 9 19 11 21 13 23 4 25 22 27 19 29
REMARK Flexibility Score: inf
ROOT
ATOM      1  C   UNL     1     166.849 148.223 148.631  1.00  0.00     0.180 A 
ATOM      2  C   UNL     1     166.038 149.370 148.691  1.00  0.00     0.208 A 
ATOM      3  C   UNL     1     166.628 150.631 148.506  1.00  0.00     0.238 A 
ATOM      4  O   UNL     1     165.889 151.650 148.506  1.00  0.00    -0.285 OA
ATOM      5  C   UNL     1     168.022 150.731 148.280  1.00  0.00     0.111 A 
ATOM      6  C   UNL     1     168.731 151.958 148.120  1.00  0.00     0.134 A 
ATOM      7  C   UNL     1     170.088 151.933 147.772  1.00  0.00     0.093 A 
ATOM      8  C   UNL     1     170.774 150.723 147.642  1.00  0.00     0.123 A 
ATOM      9  C   UNL     1     170.104 149.521 147.855  1.00  0.00     0.094 A 
ATOM     10  C   UNL     1     168.743 149.513 148.168  1.00  0.00     0.146 A 
ATOM     11  O   UNL     1     168.141 148.345 148.352  1.00  0.00    -0.452 OA
ENDROOT
BRANCH   1  12
ATOM     12  C   UNL     1     166.303 146.862 148.840  1.00  0.00     0.029 A 
ATOM     13  C   UNL     1     165.759 146.521 150.088  1.00  0.00     0.062 A 
ATOM     14  C   UNL     1     165.218 145.250 150.307  1.00  0.00     0.162 A 
ATOM     15  C   UNL     1     166.265 145.922 147.797  1.00  0.00     0.062 A 
ATOM     16  C   UNL     1     165.202 144.305 149.267  1.00  0.00     0.200 A 
ATOM     17  C   UNL     1     165.723 144.647 148.007  1.00  0.00     0.162 A 
BRANCH  14  18
ATOM     18  O   UNL     1     164.701 144.945 151.565  1.00  0.00    -0.504 OA
ATOM     19  H   UNL     1     164.987 144.121 152.081  1.00  0.00     0.293 HD
ENDBRANCH  14  18
BRANCH  16  20
ATOM     20  O   UNL     1     164.662 143.038 149.495  1.00  0.00    -0.502 OA
ATOM     21  H   UNL     1     164.069 142.574 148.817  1.00  0.00     0.293 HD
ENDBRANCH  16  20
BRANCH  17  22
ATOM     22  O   UNL     1     165.696 143.719 146.966  1.00  0.00    -0.504 OA
ATOM     23  H   UNL     1     166.163 143.896 146.085  1.00  0.00     0.293 HD
ENDBRANCH  17  22
ENDBRANCH   1  12
BRANCH   2  24
ATOM     24  O   UNL     1     164.661 149.248 148.892  1.00  0.00    -0.502 OA
ATOM     25  H   UNL     1     164.175 148.362 148.809  1.00  0.00     0.293 HD
ENDBRANCH   2  24
BRANCH   6  26
ATOM     26  O   UNL     1     168.162 153.220 148.317  1.00  0.00    -0.507 OA
ATOM     27  H   UNL     1     167.615 153.484 149.123  1.00  0.00     0.293 HD
ENDBRANCH   6  26
BRANCH   8  28
ATOM     28  O   UNL     1     172.128 150.707 147.310  1.00  0.00    -0.508 OA
ATOM     29  H   UNL     1     172.848 150.734 148.022  1.00  0.00     0.293 HD
ENDBRANCH   8  28
TORSDOF 7
ENDMDL
MODEL 9
REMARK VINA RESULT:    -6.653      1.742      7.191
REMARK INTER + INTRA:          -8.526
REMARK INTER:                  -8.289
REMARK INTRA:                  -0.237
REMARK UNBOUND:                -0.317
REMARK SMILES O=c1c(O)c(-c2cc(O)c(O)c(O)c2)oc2cc(O)cc(O)c12
REMARK SMILES IDX 5 1 3 2 2 3 1 4 23 5 21 6 20 7 18 8 17 9 16 10 15 11 6 12
REMARK SMILES IDX 7 13 8 14 14 15 10 16 12 17 9 18 11 20 13 22 4 24 22 26
REMARK SMILES IDX 19 28
REMARK H PARENT 9 19 11 21 13 23 4 25 22 27 19 29
REMARK Flexibility Score: inf
ROOT
ATOM      1  C   UNL     1     166.733 148.226 148.643  1.00  0.00     0.180 A 
ATOM      2  C   UNL     1     165.930 149.379 148.681  1.00  0.00     0.208 A 
ATOM      3  C   UNL     1     166.533 150.635 148.503  1.00  0.00     0.238 A 
ATOM      4  O   UNL     1     165.802 151.660 148.482  1.00  0.00    -0.285 OA
ATOM      5  C   UNL     1     167.932 150.723 148.305  1.00  0.00     0.111 A 
ATOM      6  C   UNL     1     168.654 151.945 148.154  1.00  0.00     0.134 A 
ATOM      7  C   UNL     1     170.017 151.907 147.835  1.00  0.00     0.093 A 
ATOM      8  C   UNL     1     170.697 150.692 147.724  1.00  0.00     0.123 A 
ATOM      9  C   UNL     1     170.013 149.496 147.929  1.00  0.00     0.094 A 
ATOM     10  C   UNL     1     168.646 149.500 148.214  1.00  0.00     0.146 A 
ATOM     11  O   UNL     1     168.031 148.337 148.391  1.00  0.00    -0.452 OA
ENDROOT
BRANCH   1  12
ATOM     12  C   UNL     1     166.173 146.871 148.847  1.00  0.00     0.029 A 
ATOM     13  C   UNL     1     166.240 145.932 147.805  1.00  0.00     0.062 A 
ATOM     14  C   UNL     1     165.738 144.638 147.977  1.00  0.00     0.162 A 
ATOM     15  C   UNL     1     165.629 146.482 150.083  1.00  0.00     0.062 A 
ATOM     16  C   UNL     1     165.175 144.261 149.208  1.00  0.00     0.200 A 
ATOM     17  C   UNL     1     165.126 145.187 150.264  1.00  0.00     0.162 A 
BRANCH  14  18
ATOM     18  O   UNL     1     165.809 143.741 146.912  1.00  0.00    -0.504 OA
ATOM     19  H   UNL     1     165.548 144.002 145.969  1.00  0.00     0.293 HD
ENDBRANCH  14  18
BRANCH  16  20
ATOM     20  O   UNL     1     164.674 142.969 149.370  1.00  0.00    -0.502 OA
ATOM     21  H   UNL     1     165.000 142.189 148.810  1.00  0.00     0.293 HD
ENDBRANCH  16  20
BRANCH  17  22
ATOM     22  O   UNL     1     164.582 144.815 151.493  1.00  0.00    -0.504 OA
ATOM     23  H   UNL     1     165.152 144.747 152.328  1.00  0.00     0.293 HD
ENDBRANCH  17  22
ENDBRANCH   1  12
BRANCH   2  24
ATOM     24  O   UNL     1     164.548 149.268 148.854  1.00  0.00    -0.502 OA
ATOM     25  H   UNL     1     163.905 150.007 148.593  1.00  0.00     0.293 HD
ENDBRANCH   2  24
BRANCH   6  26
ATOM     26  O   UNL     1     168.090 153.212 148.334  1.00  0.00    -0.507 OA
ATOM     27  H   UNL     1     168.037 153.923 147.621  1.00  0.00     0.293 HD
ENDBRANCH   6  26
BRANCH   8  28
ATOM     28  O   UNL     1     172.057 150.664 147.421  1.00  0.00    -0.508 OA
ATOM     29  H   UNL     1     172.397 150.289 146.544  1.00  0.00     0.293 HD
ENDBRANCH   8  28
TORSDOF 7
ENDMDL
