MODEL 1
REMARK VINA RESULT:    -6.576      0.000      0.000
REMARK INTER + INTRA:          -7.182
REMARK INTER:                  -7.153
REMARK INTRA:                  -0.029
REMARK UNBOUND:                -0.029
REMARK SMILES CC1(C)[C@H]2CC=C(CO)[C@@H]1C2
REMARK SMILES IDX 8 1 7 2 1 3 2 4 4 5 3 6 10 7 5 8 11 9 6 10 9 11
REMARK H PARENT 9 12
REMARK Flexibility Score: inf
ROOT
ATOM      1  C   UNL     1      22.722   4.785  19.926  1.00  0.00     0.187 C 
ENDROOT
BRANCH   1   2
ATOM      2  C   UNL     1      21.970   5.606  18.918  1.00  0.00    -0.045 C 
ATOM      3  C   UNL     1      19.282   8.397  19.361  1.00  0.00     0.012 C 
ATOM      4  C   UNL     1      20.528   7.667  18.800  1.00  0.00    -0.026 C 
ATOM      5  C   UNL     1      20.298   7.134  17.358  1.00  0.00    -0.000 C 
ATOM      6  C   UNL     1      21.777   8.551  19.076  1.00  0.00     0.012 C 
ATOM      7  C   UNL     1      20.575   6.173  19.219  1.00  0.00     0.023 C 
ATOM      8  C   UNL     1      21.662   6.729  16.701  1.00  0.00     0.031 C 
ATOM      9  C   UNL     1      19.729   5.840  17.975  1.00  0.00     0.013 C 
ATOM     10  C   UNL     1      22.481   5.860  17.677  1.00  0.00    -0.025 C 
ENDBRANCH   1   2
BRANCH   1  11
ATOM     11  O   UNL     1      22.688   3.437  19.550  1.00  0.00    -0.392 OA
ATOM     12  H   UNL     1      23.635   3.148  19.478  1.00  0.00     0.211 HD
ENDBRANCH   1  11
TORSDOF 2
ENDMDL
MODEL 2
REMARK VINA RESULT:    -6.513     13.592     15.229
REMARK INTER + INTRA:          -7.114
REMARK INTER:                  -7.082
REMARK INTRA:                  -0.031
REMARK UNBOUND:                -0.029
REMARK SMILES CC1(C)[C@H]2CC=C(CO)[C@@H]1C2
REMARK SMILES IDX 8 1 7 2 1 3 2 4 4 5 3 6 10 7 5 8 11 9 6 10 9 11
REMARK H PARENT 9 12
REMARK Flexibility Score: inf
ROOT
ATOM      1  C   UNL     1      19.032   2.172   3.540  1.00  0.00     0.187 C 
ENDROOT
BRANCH   1   2
ATOM      2  C   UNL     1      20.065   1.680   4.513  1.00  0.00    -0.045 C 
ATOM      3  C   UNL     1      22.124  -1.630   4.628  1.00  0.00     0.012 C 
ATOM      4  C   UNL     1      21.820  -0.113   4.719  1.00  0.00    -0.026 C 
ATOM      5  C   UNL     1      21.836   0.402   6.185  1.00  0.00    -0.000 C 
ATOM      6  C   UNL     1      22.690   0.623   3.662  1.00  0.00     0.012 C 
ATOM      7  C   UNL     1      20.297   0.181   4.754  1.00  0.00     0.023 C 
ATOM      8  C   UNL     1      21.881   1.969   6.212  1.00  0.00     0.031 C 
ATOM      9  C   UNL     1      20.344   0.024   6.287  1.00  0.00     0.013 C 
ATOM     10  C   UNL     1      20.824   2.544   5.248  1.00  0.00    -0.025 C 
ENDBRANCH   1   2
BRANCH   1  11
ATOM     11  O   UNL     1      17.873   2.539   4.233  1.00  0.00    -0.392 OA
ATOM     12  H   UNL     1      18.019   2.264   5.176  1.00  0.00     0.211 HD
ENDBRANCH   1  11
TORSDOF 2
ENDMDL
MODEL 3
REMARK VINA RESULT:    -6.512     13.916     15.089
REMARK INTER + INTRA:          -7.112
REMARK INTER:                  -7.069
REMARK INTRA:                  -0.043
REMARK UNBOUND:                -0.029
REMARK SMILES CC1(C)[C@H]2CC=C(CO)[C@@H]1C2
REMARK SMILES IDX 8 1 7 2 1 3 2 4 4 5 3 6 10 7 5 8 11 9 6 10 9 11
REMARK H PARENT 9 12
REMARK Flexibility Score: inf
ROOT
ATOM      1  C   UNL     1      22.006   2.311   5.307  1.00  0.00     0.187 C 
ENDROOT
BRANCH   1   2
ATOM      2  C   UNL     1      22.161   0.827   5.136  1.00  0.00    -0.045 C 
ATOM      3  C   UNL     1      20.555  -2.167   7.051  1.00  0.00     0.012 C 
ATOM      4  C   UNL     1      21.063  -1.321   5.856  1.00  0.00    -0.026 C 
ATOM      5  C   UNL     1      22.353  -1.916   5.222  1.00  0.00    -0.000 C 
ATOM      6  C   UNL     1      19.855  -1.009   4.930  1.00  0.00     0.012 C 
ATOM      7  C   UNL     1      21.968  -0.145   6.309  1.00  0.00     0.023 C 
ATOM      8  C   UNL     1      22.629  -1.256   3.828  1.00  0.00     0.031 C 
ATOM      9  C   UNL     1      23.175  -1.101   6.241  1.00  0.00     0.013 C 
ATOM     10  C   UNL     1      22.510   0.277   3.935  1.00  0.00    -0.025 C 
ENDBRANCH   1   2
BRANCH   1  11
ATOM     11  O   UNL     1      22.724   2.729   6.433  1.00  0.00    -0.392 OA
ATOM     12  H   UNL     1      22.054   2.851   7.155  1.00  0.00     0.211 HD
ENDBRANCH   1  11
TORSDOF 2
ENDMDL
MODEL 4
REMARK VINA RESULT:    -6.490      1.981      3.162
REMARK INTER + INTRA:          -7.089
REMARK INTER:                  -7.043
REMARK INTRA:                  -0.046
REMARK UNBOUND:                -0.029
REMARK SMILES CC1(C)[C@H]2CC=C(CO)[C@@H]1C2
REMARK SMILES IDX 8 1 7 2 1 3 2 4 4 5 3 6 10 7 5 8 11 9 6 10 9 11
REMARK H PARENT 9 12
REMARK Flexibility Score: inf
ROOT
ATOM      1  C   UNL     1      22.116   6.270  16.767  1.00  0.00     0.187 C 
ENDROOT
BRANCH   1   2
ATOM      2  C   UNL     1      21.187   6.602  17.899  1.00  0.00    -0.045 C 
ATOM      3  C   UNL     1      17.795   8.525  17.966  1.00  0.00     0.012 C 
ATOM      4  C   UNL     1      18.840   7.428  18.287  1.00  0.00    -0.026 C 
ATOM      5  C   UNL     1      19.371   7.531  19.744  1.00  0.00    -0.000 C 
ATOM      6  C   UNL     1      18.283   6.063  17.793  1.00  0.00     0.012 C 
ATOM      7  C   UNL     1      20.275   7.836  17.859  1.00  0.00     0.023 C 
ATOM      8  C   UNL     1      20.137   6.222  20.140  1.00  0.00     0.031 C 
ATOM      9  C   UNL     1      20.449   8.509  19.234  1.00  0.00     0.013 C 
ATOM     10  C   UNL     1      21.132   5.835  19.028  1.00  0.00    -0.025 C 
ENDBRANCH   1   2
BRANCH   1  11
ATOM     11  O   UNL     1      22.310   7.407  15.973  1.00  0.00    -0.392 OA
ATOM     12  H   UNL     1      22.131   8.186  16.561  1.00  0.00     0.211 HD
ENDBRANCH   1  11
TORSDOF 2
ENDMDL
MODEL 5
REMARK VINA RESULT:    -6.425      2.609      4.010
REMARK INTER + INTRA:          -7.018
REMARK INTER:                  -6.995
REMARK INTRA:                  -0.023
REMARK UNBOUND:                -0.029
REMARK SMILES CC1(C)[C@H]2CC=C(CO)[C@@H]1C2
REMARK SMILES IDX 8 1 7 2 1 3 2 4 4 5 3 6 10 7 5 8 11 9 6 10 9 11
REMARK H PARENT 9 12
REMARK Flexibility Score: inf
ROOT
ATOM      1  C   UNL     1      17.856   6.002  16.248  1.00  0.00     0.187 C 
ENDROOT
BRANCH   1   2
ATOM      2  C   UNL     1      18.836   6.605  17.213  1.00  0.00    -0.045 C 
ATOM      3  C   UNL     1      22.346   5.399  18.409  1.00  0.00     0.012 C 
ATOM      4  C   UNL     1      21.241   6.368  17.919  1.00  0.00    -0.026 C 
ATOM      5  C   UNL     1      20.758   7.326  19.043  1.00  0.00    -0.000 C 
ATOM      6  C   UNL     1      21.695   6.979  16.564  1.00  0.00     0.012 C 
ATOM      7  C   UNL     1      19.825   5.739  18.006  1.00  0.00     0.023 C 
ATOM      8  C   UNL     1      19.921   8.503  18.435  1.00  0.00     0.031 C 
ATOM      9  C   UNL     1      19.733   6.251  19.457  1.00  0.00     0.013 C 
ATOM     10  C   UNL     1      18.872   7.950  17.448  1.00  0.00    -0.025 C 
ENDBRANCH   1   2
BRANCH   1  11
ATOM     11  O   UNL     1      17.143   7.021  15.606  1.00  0.00    -0.392 OA
ATOM     12  H   UNL     1      16.742   6.609  14.798  1.00  0.00     0.211 HD
ENDBRANCH   1  11
TORSDOF 2
ENDMDL
MODEL 6
REMARK VINA RESULT:    -6.414     13.397     14.957
REMARK INTER + INTRA:          -7.005
REMARK INTER:                  -6.970
REMARK INTRA:                  -0.035
REMARK UNBOUND:                -0.029
REMARK SMILES CC1(C)[C@H]2CC=C(CO)[C@@H]1C2
REMARK SMILES IDX 8 1 7 2 1 3 2 4 4 5 3 6 10 7 5 8 11 9 6 10 9 11
REMARK H PARENT 9 12
REMARK Flexibility Score: inf
ROOT
ATOM      1  C   UNL     1      21.946   2.152   6.613  1.00  0.00     0.187 C 
ENDROOT
BRANCH   1   2
ATOM      2  C   UNL     1      21.508   0.923   5.868  1.00  0.00    -0.045 C 
ATOM      3  C   UNL     1      22.574  -2.813   6.214  1.00  0.00     0.012 C 
ATOM      4  C   UNL     1      21.644  -1.585   6.040  1.00  0.00    -0.026 C 
ATOM      5  C   UNL     1      21.078  -1.477   4.596  1.00  0.00    -0.000 C 
ATOM      6  C   UNL     1      20.649  -1.553   7.233  1.00  0.00     0.012 C 
ATOM      7  C   UNL     1      22.433  -0.292   5.703  1.00  0.00     0.023 C 
ATOM      8  C   UNL     1      19.888  -0.459   4.551  1.00  0.00     0.031 C 
ATOM      9  C   UNL     1      22.335  -0.670   4.212  1.00  0.00     0.013 C 
ATOM     10  C   UNL     1      20.278   0.843   5.280  1.00  0.00    -0.025 C 
ENDBRANCH   1   2
BRANCH   1  11
ATOM     11  O   UNL     1      22.634   3.006   5.743  1.00  0.00    -0.392 OA
ATOM     12  H   UNL     1      22.014   3.756   5.547  1.00  0.00     0.211 HD
ENDBRANCH   1  11
TORSDOF 2
ENDMDL
MODEL 7
REMARK VINA RESULT:    -6.336     12.784     13.999
REMARK INTER + INTRA:          -6.921
REMARK INTER:                  -6.897
REMARK INTRA:                  -0.023
REMARK UNBOUND:                -0.029
REMARK SMILES CC1(C)[C@H]2CC=C(CO)[C@@H]1C2
REMARK SMILES IDX 8 1 7 2 1 3 2 4 4 5 3 6 10 7 5 8 11 9 6 10 9 11
REMARK H PARENT 9 12
REMARK Flexibility Score: inf
ROOT
ATOM      1  C   UNL     1      21.170  -1.342   8.590  1.00  0.00     0.187 C 
ENDROOT
BRANCH   1   2
ATOM      2  C   UNL     1      21.378  -0.925   7.162  1.00  0.00    -0.045 C 
ATOM      3  C   UNL     1      20.007   2.115   5.141  1.00  0.00     0.012 C 
ATOM      4  C   UNL     1      21.021   1.066   5.663  1.00  0.00    -0.026 C 
ATOM      5  C   UNL     1      21.392   0.017   4.578  1.00  0.00    -0.000 C 
ATOM      6  C   UNL     1      22.167   1.818   6.395  1.00  0.00     0.012 C 
ATOM      7  C   UNL     1      20.325  -0.111   6.397  1.00  0.00     0.023 C 
ATOM      8  C   UNL     1      22.660  -0.794   5.015  1.00  0.00     0.031 C 
ATOM      9  C   UNL     1      20.181  -0.820   5.036  1.00  0.00     0.013 C 
ATOM     10  C   UNL     1      22.503  -1.276   6.471  1.00  0.00    -0.025 C 
ENDBRANCH   1   2
BRANCH   1  11
ATOM     11  O   UNL     1      22.324  -1.976   9.064  1.00  0.00    -0.392 OA
ATOM     12  H   UNL     1      22.395  -2.829   8.562  1.00  0.00     0.211 HD
ENDBRANCH   1  11
TORSDOF 2
ENDMDL
MODEL 8
REMARK VINA RESULT:    -6.290      2.070      3.092
REMARK INTER + INTRA:          -6.871
REMARK INTER:                  -6.826
REMARK INTRA:                  -0.045
REMARK UNBOUND:                -0.029
REMARK SMILES CC1(C)[C@H]2CC=C(CO)[C@@H]1C2
REMARK SMILES IDX 8 1 7 2 1 3 2 4 4 5 3 6 10 7 5 8 11 9 6 10 9 11
REMARK H PARENT 9 12
REMARK Flexibility Score: inf
ROOT
ATOM      1  C   UNL     1      21.972   7.059  16.479  1.00  0.00     0.187 C 
ENDROOT
BRANCH   1   2
ATOM      2  C   UNL     1      21.228   7.128  17.781  1.00  0.00    -0.045 C 
ATOM      3  C   UNL     1      20.397  10.139  20.116  1.00  0.00     0.012 C 
ATOM      4  C   UNL     1      20.185   8.828  19.318  1.00  0.00    -0.026 C 
ATOM      5  C   UNL     1      20.096   7.584  20.246  1.00  0.00    -0.000 C 
ATOM      6  C   UNL     1      19.053   9.066  18.280  1.00  0.00     0.012 C 
ATOM      7  C   UNL     1      21.523   8.217  18.823  1.00  0.00     0.023 C 
ATOM      8  C   UNL     1      19.534   6.353  19.455  1.00  0.00     0.031 C 
ATOM      9  C   UNL     1      21.631   7.469  20.166  1.00  0.00     0.013 C 
ATOM     10  C   UNL     1      20.274   6.207  18.110  1.00  0.00    -0.025 C 
ENDBRANCH   1   2
BRANCH   1  11
ATOM     11  O   UNL     1      23.248   7.611  16.640  1.00  0.00    -0.392 OA
ATOM     12  H   UNL     1      23.836   6.866  16.930  1.00  0.00     0.211 HD
ENDBRANCH   1  11
TORSDOF 2
ENDMDL
MODEL 9
REMARK VINA RESULT:    -6.249     14.193     15.810
REMARK INTER + INTRA:          -6.826
REMARK INTER:                  -6.766
REMARK INTRA:                  -0.060
REMARK UNBOUND:                -0.029
REMARK SMILES CC1(C)[C@H]2CC=C(CO)[C@@H]1C2
REMARK SMILES IDX 8 1 7 2 1 3 2 4 4 5 3 6 10 7 5 8 11 9 6 10 9 11
REMARK H PARENT 9 12
REMARK Flexibility Score: inf
ROOT
ATOM      1  C   UNL     1      18.960   2.393   3.004  1.00  0.00     0.187 C 
ENDROOT
BRANCH   1   2
ATOM      2  C   UNL     1      20.171   1.581   3.364  1.00  0.00    -0.045 C 
ATOM      3  C   UNL     1      21.291  -0.012   6.743  1.00  0.00     0.012 C 
ATOM      4  C   UNL     1      21.023   0.110   5.222  1.00  0.00    -0.026 C 
ATOM      5  C   UNL     1      22.337   0.242   4.402  1.00  0.00    -0.000 C 
ATOM      6  C   UNL     1      20.000  -0.987   4.817  1.00  0.00     0.012 C 
ATOM      7  C   UNL     1      20.744   1.574   4.788  1.00  0.00     0.023 C 
ATOM      8  C   UNL     1      22.056   0.006   2.878  1.00  0.00     0.031 C 
ATOM      9  C   UNL     1      22.262   1.768   4.611  1.00  0.00     0.013 C 
ATOM     10  C   UNL     1      20.834   0.833   2.433  1.00  0.00    -0.025 C 
ENDBRANCH   1   2
BRANCH   1  11
ATOM     11  O   UNL     1      18.079   2.425   4.090  1.00  0.00    -0.392 OA
ATOM     12  H   UNL     1      17.228   2.031   3.765  1.00  0.00     0.211 HD
ENDBRANCH   1  11
TORSDOF 2
ENDMDL
