MODEL 1
REMARK VINA RESULT:    -3.664      0.000      0.000
REMARK INTER + INTRA:         -13.174
REMARK INTER:                  -9.663
REMARK INTRA:                  -3.511
REMARK UNBOUND:                -3.511
REMARK SMILES CCCCCCCCCCCCCCCCCCCCCCCCCCCCCC(=O)[O-]
REMARK SMILES IDX 16 1 17 2 18 3 19 4 20 5 21 6 22 7 23 8 24 9 25 10 26 11
REMARK SMILES IDX 27 12 28 13 29 14 30 15 31 16 32 17 15 18 14 19 13 20 12 21
REMARK SMILES IDX 11 22 10 23 9 24 8 25 7 26 6 27 5 28 4 29 3 30 2 31 1 32
REMARK H PARENT
REMARK Flexibility Score: inf
ROOT
ATOM      1  C   UNL     1       2.585   7.229  18.690  1.00  0.00     0.000 C 
ENDROOT
BRANCH   1   2
ATOM      2  C   UNL     1       2.102   8.617  18.220  1.00  0.00     0.000 C 
BRANCH   2   3
ATOM      3  C   UNL     1       2.892   9.129  17.002  1.00  0.00     0.000 C 
BRANCH   3   4
ATOM      4  C   UNL     1       2.117   8.946  15.678  1.00  0.00     0.000 C 
BRANCH   4   5
ATOM      5  C   UNL     1       3.025   8.893  14.437  1.00  0.00     0.000 C 
BRANCH   5   6
ATOM      6  C   UNL     1       2.418   8.158  13.227  1.00  0.00     0.000 C 
BRANCH   6   7
ATOM      7  C   UNL     1       3.241   8.253  11.925  1.00  0.00     0.000 C 
BRANCH   7   8
ATOM      8  C   UNL     1       3.437   6.923  11.176  1.00  0.00     0.000 C 
BRANCH   8   9
ATOM      9  C   UNL     1       4.650   6.939  10.233  1.00  0.00     0.000 C 
BRANCH   9  10
ATOM     10  C   UNL     1       4.950   8.363   9.744  1.00  0.00     0.000 C 
BRANCH  10  11
ATOM     11  C   UNL     1       6.404   8.791  10.013  1.00  0.00     0.000 C 
BRANCH  11  12
ATOM     12  C   UNL     1       7.038   8.186  11.280  1.00  0.00     0.000 C 
BRANCH  12  13
ATOM     13  C   UNL     1       8.554   7.921  11.189  1.00  0.00     0.006 C 
BRANCH  13  14
ATOM     14  C   UNL     1       8.948   6.439  11.296  1.00  0.00     0.053 C 
BRANCH  14  15
ATOM     15  C   UNL     1       8.996   5.776   9.953  1.00  0.00     0.041 C 
ATOM     16  O   UNL     1      10.097   5.618   9.363  1.00  0.00    -0.550 OA
ATOM     17  O   UNL     1       7.819   5.374   9.333  1.00  0.00    -0.550 OA
ENDBRANCH  14  15
ENDBRANCH  13  14
ENDBRANCH  12  13
ENDBRANCH  11  12
ENDBRANCH  10  11
ENDBRANCH   9  10
ENDBRANCH   8   9
ENDBRANCH   7   8
ENDBRANCH   6   7
ENDBRANCH   5   6
ENDBRANCH   4   5
ENDBRANCH   3   4
ENDBRANCH   2   3
ENDBRANCH   1   2
BRANCH   1  18
ATOM     18  C   UNL     1       2.041   6.064  17.843  1.00  0.00     0.000 C 
BRANCH  18  19
ATOM     19  C   UNL     1       3.155   5.221  17.198  1.00  0.00     0.000 C 
BRANCH  19  20
ATOM     20  C   UNL     1       4.552   5.556  17.763  1.00  0.00     0.000 C 
BRANCH  20  21
ATOM     21  C   UNL     1       5.493   6.220  16.743  1.00  0.00     0.000 C 
BRANCH  21  22
ATOM     22  C   UNL     1       4.846   6.391  15.359  1.00  0.00     0.000 C 
BRANCH  22  23
ATOM     23  C   UNL     1       5.767   5.944  14.212  1.00  0.00     0.000 C 
BRANCH  23  24
ATOM     24  C   UNL     1       7.223   6.398  14.413  1.00  0.00    -0.000 C 
BRANCH  24  25
ATOM     25  C   UNL     1       8.201   5.217  14.558  1.00  0.00    -0.000 C 
BRANCH  25  26
ATOM     26  C   UNL     1       9.532   5.554  15.256  1.00  0.00    -0.000 C 
BRANCH  26  27
ATOM     27  C   UNL     1      10.379   4.310  15.566  1.00  0.00    -0.000 C 
BRANCH  27  28
ATOM     28  C   UNL     1      11.628   4.682  16.374  1.00  0.00    -0.000 C 
BRANCH  28  29
ATOM     29  C   UNL     1      12.649   3.534  16.364  1.00  0.00    -0.000 C 
BRANCH  29  30
ATOM     30  C   UNL     1      12.034   2.189  16.784  1.00  0.00    -0.000 C 
BRANCH  30  31
ATOM     31  C   UNL     1      12.849   0.986  16.290  1.00  0.00    -0.003 C 
ATOM     32  C   UNL     1      14.121   1.439  15.581  1.00  0.00     0.004 C 
ENDBRANCH  30  31
ENDBRANCH  29  30
ENDBRANCH  28  29
ENDBRANCH  27  28
ENDBRANCH  26  27
ENDBRANCH  25  26
ENDBRANCH  24  25
ENDBRANCH  23  24
ENDBRANCH  22  23
ENDBRANCH  21  22
ENDBRANCH  20  21
ENDBRANCH  19  20
ENDBRANCH  18  19
ENDBRANCH   1  18
TORSDOF 28
ENDMDL
MODEL 2
REMARK VINA RESULT:    -3.601      2.368      6.075
REMARK INTER + INTRA:         -13.007
REMARK INTER:                  -8.831
REMARK INTRA:                  -4.177
REMARK UNBOUND:                -3.511
REMARK SMILES CCCCCCCCCCCCCCCCCCCCCCCCCCCCCC(=O)[O-]
REMARK SMILES IDX 16 1 17 2 18 3 19 4 20 5 21 6 22 7 23 8 24 9 25 10 26 11
REMARK SMILES IDX 27 12 28 13 29 14 30 15 31 16 32 17 15 18 14 19 13 20 12 21
REMARK SMILES IDX 11 22 10 23 9 24 8 25 7 26 6 27 5 28 4 29 3 30 2 31 1 32
REMARK H PARENT
REMARK Flexibility Score: inf
ROOT
ATOM      1  C   UNL     1       3.623   9.566  15.645  1.00  0.00     0.000 C 
ENDROOT
BRANCH   1   2
ATOM      2  C   UNL     1       3.803   9.268  17.148  1.00  0.00     0.000 C 
BRANCH   2   3
ATOM      3  C   UNL     1       2.462   9.261  17.905  1.00  0.00     0.000 C 
BRANCH   3   4
ATOM      4  C   UNL     1       2.236   7.950  18.691  1.00  0.00     0.000 C 
BRANCH   4   5
ATOM      5  C   UNL     1       2.113   6.707  17.791  1.00  0.00     0.000 C 
BRANCH   5   6
ATOM      6  C   UNL     1       2.994   5.517  18.215  1.00  0.00     0.000 C 
BRANCH   6   7
ATOM      7  C   UNL     1       3.961   5.001  17.129  1.00  0.00     0.000 C 
BRANCH   7   8
ATOM      8  C   UNL     1       5.039   6.005  16.683  1.00  0.00     0.000 C 
BRANCH   8   9
ATOM      9  C   UNL     1       5.232   6.040  15.160  1.00  0.00     0.000 C 
BRANCH   9  10
ATOM     10  C   UNL     1       6.546   6.741  14.787  1.00  0.00     0.000 C 
BRANCH  10  11
ATOM     11  C   UNL     1       7.784   6.043  15.380  1.00  0.00     0.000 C 
BRANCH  11  12
ATOM     12  C   UNL     1       8.366   4.906  14.518  1.00  0.00     0.000 C 
BRANCH  12  13
ATOM     13  C   UNL     1       9.886   4.691  14.662  1.00  0.00     0.006 C 
BRANCH  13  14
ATOM     14  C   UNL     1      10.431   4.935  16.078  1.00  0.00     0.053 C 
BRANCH  14  15
ATOM     15  C   UNL     1      11.817   4.389  16.244  1.00  0.00     0.041 C 
ATOM     16  O   UNL     1      12.812   5.159  16.192  1.00  0.00    -0.550 OA
ATOM     17  O   UNL     1      12.011   3.023  16.411  1.00  0.00    -0.550 OA
ENDBRANCH  14  15
ENDBRANCH  13  14
ENDBRANCH  12  13
ENDBRANCH  11  12
ENDBRANCH  10  11
ENDBRANCH   9  10
ENDBRANCH   8   9
ENDBRANCH   7   8
ENDBRANCH   6   7
ENDBRANCH   5   6
ENDBRANCH   4   5
ENDBRANCH   3   4
ENDBRANCH   2   3
ENDBRANCH   1   2
BRANCH   1  18
ATOM     18  C   UNL     1       2.188   9.347  15.136  1.00  0.00     0.000 C 
BRANCH  18  19
ATOM     19  C   UNL     1       2.039   8.065  14.298  1.00  0.00     0.000 C 
BRANCH  19  20
ATOM     20  C   UNL     1       2.514   8.251  12.842  1.00  0.00     0.000 C 
BRANCH  20  21
ATOM     21  C   UNL     1       3.942   7.741  12.582  1.00  0.00     0.000 C 
BRANCH  21  22
ATOM     22  C   UNL     1       4.027   6.803  11.368  1.00  0.00     0.000 C 
BRANCH  22  23
ATOM     23  C   UNL     1       3.110   7.238  10.213  1.00  0.00     0.000 C 
BRANCH  23  24
ATOM     24  C   UNL     1       3.780   8.261   9.279  1.00  0.00    -0.000 C 
BRANCH  24  25
ATOM     25  C   UNL     1       5.311   8.103   9.223  1.00  0.00    -0.000 C 
BRANCH  25  26
ATOM     26  C   UNL     1       6.110   9.377   9.556  1.00  0.00    -0.000 C 
BRANCH  26  27
ATOM     27  C   UNL     1       7.592   9.096   9.849  1.00  0.00    -0.000 C 
BRANCH  27  28
ATOM     28  C   UNL     1       7.968   9.544  11.267  1.00  0.00    -0.000 C 
BRANCH  28  29
ATOM     29  C   UNL     1       8.436   8.350  12.113  1.00  0.00    -0.000 C 
BRANCH  29  30
ATOM     30  C   UNL     1       8.024   6.997  11.508  1.00  0.00    -0.000 C 
BRANCH  30  31
ATOM     31  C   UNL     1       9.200   6.259  10.853  1.00  0.00    -0.003 C 
ATOM     32  C   UNL     1       8.722   5.375   9.707  1.00  0.00     0.004 C 
ENDBRANCH  30  31
ENDBRANCH  29  30
ENDBRANCH  28  29
ENDBRANCH  27  28
ENDBRANCH  26  27
ENDBRANCH  25  26
ENDBRANCH  24  25
ENDBRANCH  23  24
ENDBRANCH  22  23
ENDBRANCH  21  22
ENDBRANCH  20  21
ENDBRANCH  19  20
ENDBRANCH  18  19
ENDBRANCH   1  18
TORSDOF 28
ENDMDL
MODEL 3
REMARK VINA RESULT:    -3.587      2.442      6.548
REMARK INTER + INTRA:         -12.969
REMARK INTER:                  -9.682
REMARK INTRA:                  -3.287
REMARK UNBOUND:                -3.511
REMARK SMILES CCCCCCCCCCCCCCCCCCCCCCCCCCCCCC(=O)[O-]
REMARK SMILES IDX 16 1 17 2 18 3 19 4 20 5 21 6 22 7 23 8 24 9 25 10 26 11
REMARK SMILES IDX 27 12 28 13 29 14 30 15 31 16 32 17 15 18 14 19 13 20 12 21
REMARK SMILES IDX 11 22 10 23 9 24 8 25 7 26 6 27 5 28 4 29 3 30 2 31 1 32
REMARK H PARENT
REMARK Flexibility Score: inf
ROOT
ATOM      1  C   UNL     1       3.373   9.708  16.493  1.00  0.00     0.000 C 
ENDROOT
BRANCH   1   2
ATOM      2  C   UNL     1       2.421   8.661  17.110  1.00  0.00     0.000 C 
BRANCH   2   3
ATOM      3  C   UNL     1       2.476   7.314  16.366  1.00  0.00     0.000 C 
BRANCH   3   4
ATOM      4  C   UNL     1       2.777   6.131  17.312  1.00  0.00     0.000 C 
BRANCH   4   5
ATOM      5  C   UNL     1       4.022   5.321  16.908  1.00  0.00     0.000 C 
BRANCH   5   6
ATOM      6  C   UNL     1       5.189   6.165  16.363  1.00  0.00     0.000 C 
BRANCH   6   7
ATOM      7  C   UNL     1       5.837   5.626  15.070  1.00  0.00     0.000 C 
BRANCH   7   8
ATOM      8  C   UNL     1       7.179   6.278  14.690  1.00  0.00     0.000 C 
BRANCH   8   9
ATOM      9  C   UNL     1       8.302   5.255  14.472  1.00  0.00     0.000 C 
BRANCH   9  10
ATOM     10  C   UNL     1       9.319   5.298  15.622  1.00  0.00     0.000 C 
BRANCH  10  11
ATOM     11  C   UNL     1      10.591   4.483  15.324  1.00  0.00     0.000 C 
BRANCH  11  12
ATOM     12  C   UNL     1      11.797   4.806  16.228  1.00  0.00     0.000 C 
BRANCH  12  13
ATOM     13  C   UNL     1      12.585   3.578  16.728  1.00  0.00     0.006 C 
BRANCH  13  14
ATOM     14  C   UNL     1      11.942   2.226  16.381  1.00  0.00     0.053 C 
BRANCH  14  15
ATOM     15  C   UNL     1      12.969   1.156  16.172  1.00  0.00     0.041 C 
ATOM     16  O   UNL     1      12.727  -0.032  16.513  1.00  0.00    -0.550 OA
ATOM     17  O   UNL     1      14.213   1.480  15.644  1.00  0.00    -0.550 OA
ENDBRANCH  14  15
ENDBRANCH  13  14
ENDBRANCH  12  13
ENDBRANCH  11  12
ENDBRANCH  10  11
ENDBRANCH   9  10
ENDBRANCH   8   9
ENDBRANCH   7   8
ENDBRANCH   6   7
ENDBRANCH   5   6
ENDBRANCH   4   5
ENDBRANCH   3   4
ENDBRANCH   2   3
ENDBRANCH   1   2
BRANCH   1  18
ATOM     18  C   UNL     1       3.794   9.389  15.048  1.00  0.00     0.000 C 
BRANCH  18  19
ATOM     19  C   UNL     1       2.695   9.707  14.019  1.00  0.00     0.000 C 
BRANCH  19  20
ATOM     20  C   UNL     1       2.607   8.647  12.901  1.00  0.00     0.000 C 
BRANCH  20  21
ATOM     21  C   UNL     1       3.922   7.885  12.661  1.00  0.00     0.000 C 
BRANCH  21  22
ATOM     22  C   UNL     1       3.824   6.881  11.501  1.00  0.00     0.000 C 
BRANCH  22  23
ATOM     23  C   UNL     1       4.546   7.364  10.233  1.00  0.00     0.000 C 
BRANCH  23  24
ATOM     24  C   UNL     1       4.238   8.835   9.903  1.00  0.00    -0.000 C 
BRANCH  24  25
ATOM     25  C   UNL     1       5.477   9.743  10.013  1.00  0.00    -0.000 C 
BRANCH  25  26
ATOM     26  C   UNL     1       6.807   9.084   9.605  1.00  0.00    -0.000 C 
BRANCH  26  27
ATOM     27  C   UNL     1       7.960   9.413  10.566  1.00  0.00    -0.000 C 
BRANCH  27  28
ATOM     28  C   UNL     1       8.014   8.408  11.724  1.00  0.00    -0.000 C 
BRANCH  28  29
ATOM     29  C   UNL     1       7.772   6.977  11.221  1.00  0.00    -0.000 C 
BRANCH  29  30
ATOM     30  C   UNL     1       9.021   6.088  11.341  1.00  0.00    -0.000 C 
BRANCH  30  31
ATOM     31  C   UNL     1       9.237   5.202  10.105  1.00  0.00    -0.003 C 
ATOM     32  C   UNL     1      10.054   5.932   9.044  1.00  0.00     0.004 C 
ENDBRANCH  30  31
ENDBRANCH  29  30
ENDBRANCH  28  29
ENDBRANCH  27  28
ENDBRANCH  26  27
ENDBRANCH  25  26
ENDBRANCH  24  25
ENDBRANCH  23  24
ENDBRANCH  22  23
ENDBRANCH  21  22
ENDBRANCH  20  21
ENDBRANCH  19  20
ENDBRANCH  18  19
ENDBRANCH   1  18
TORSDOF 28
ENDMDL
MODEL 4
REMARK VINA RESULT:    -3.214      3.921      9.593
REMARK INTER + INTRA:         -11.985
REMARK INTER:                  -9.195
REMARK INTRA:                  -2.790
REMARK UNBOUND:                -3.511
REMARK SMILES CCCCCCCCCCCCCCCCCCCCCCCCCCCCCC(=O)[O-]
REMARK SMILES IDX 16 1 17 2 18 3 19 4 20 5 21 6 22 7 23 8 24 9 25 10 26 11
REMARK SMILES IDX 27 12 28 13 29 14 30 15 31 16 32 17 15 18 14 19 13 20 12 21
REMARK SMILES IDX 11 22 10 23 9 24 8 25 7 26 6 27 5 28 4 29 3 30 2 31 1 32
REMARK H PARENT
REMARK Flexibility Score: inf
ROOT
ATOM      1  C   UNL     1       6.064   6.441  14.152  1.00  0.00     0.000 C 
ENDROOT
BRANCH   1   2
ATOM      2  C   UNL     1       7.596   6.601  14.043  1.00  0.00     0.000 C 
BRANCH   2   3
ATOM      3  C   UNL     1       8.337   5.267  14.243  1.00  0.00     0.000 C 
BRANCH   3   4
ATOM      4  C   UNL     1       9.233   5.274  15.501  1.00  0.00     0.000 C 
BRANCH   4   5
ATOM      5  C   UNL     1      10.557   4.510  15.318  1.00  0.00     0.000 C 
BRANCH   5   6
ATOM      6  C   UNL     1      11.660   4.882  16.327  1.00  0.00     0.000 C 
BRANCH   6   7
ATOM      7  C   UNL     1      12.668   3.756  16.637  1.00  0.00     0.000 C 
BRANCH   7   8
ATOM      8  C   UNL     1      12.041   2.393  16.981  1.00  0.00     0.000 C 
BRANCH   8   9
ATOM      9  C   UNL     1      12.669   1.230  16.199  1.00  0.00     0.000 C 
BRANCH   9  10
ATOM     10  C   UNL     1      14.020   1.637  15.595  1.00  0.00     0.000 C 
BRANCH  10  11
ATOM     11  C   UNL     1      15.065   0.508  15.657  1.00  0.00     0.000 C 
BRANCH  11  12
ATOM     12  C   UNL     1      16.527   0.980  15.781  1.00  0.00     0.000 C 
BRANCH  12  13
ATOM     13  C   UNL     1      17.567  -0.148  15.937  1.00  0.00     0.006 C 
BRANCH  13  14
ATOM     14  C   UNL     1      18.427  -0.049  17.207  1.00  0.00     0.053 C 
BRANCH  14  15
ATOM     15  C   UNL     1      19.891  -0.105  16.895  1.00  0.00     0.041 C 
ATOM     16  O   UNL     1      20.738  -0.086  17.826  1.00  0.00    -0.550 OA
ATOM     17  O   UNL     1      20.320  -0.132  15.574  1.00  0.00    -0.550 OA
ENDBRANCH  14  15
ENDBRANCH  13  14
ENDBRANCH  12  13
ENDBRANCH  11  12
ENDBRANCH  10  11
ENDBRANCH   9  10
ENDBRANCH   8   9
ENDBRANCH   7   8
ENDBRANCH   6   7
ENDBRANCH   5   6
ENDBRANCH   4   5
ENDBRANCH   3   4
ENDBRANCH   2   3
ENDBRANCH   1   2
BRANCH   1  18
ATOM     18  C   UNL     1       5.614   5.581  15.347  1.00  0.00     0.000 C 
BRANCH  18  19
ATOM     19  C   UNL     1       4.481   6.231  16.159  1.00  0.00     0.000 C 
BRANCH  19  20
ATOM     20  C   UNL     1       4.398   7.757  15.943  1.00  0.00     0.000 C 
BRANCH  20  21
ATOM     21  C   UNL     1       3.002   8.348  16.201  1.00  0.00     0.000 C 
BRANCH  21  22
ATOM     22  C   UNL     1       2.086   8.273  14.969  1.00  0.00     0.000 C 
BRANCH  22  23
ATOM     23  C   UNL     1       2.828   8.570  13.657  1.00  0.00     0.000 C 
BRANCH  23  24
ATOM     24  C   UNL     1       2.326   7.707  12.486  1.00  0.00    -0.000 C 
BRANCH  24  25
ATOM     25  C   UNL     1       3.474   7.113  11.648  1.00  0.00    -0.000 C 
BRANCH  25  26
ATOM     26  C   UNL     1       3.485   7.533  10.167  1.00  0.00    -0.000 C 
BRANCH  26  27
ATOM     27  C   UNL     1       4.900   7.780   9.623  1.00  0.00    -0.000 C 
BRANCH  27  28
ATOM     28  C   UNL     1       5.761   8.528  10.649  1.00  0.00    -0.000 C 
BRANCH  28  29
ATOM     29  C   UNL     1       7.174   8.778  10.101  1.00  0.00    -0.000 C 
BRANCH  29  30
ATOM     30  C   UNL     1       8.237   7.899  10.779  1.00  0.00    -0.000 C 
BRANCH  30  31
ATOM     31  C   UNL     1       8.155   6.429  10.344  1.00  0.00    -0.003 C 
ATOM     32  C   UNL     1       9.416   5.668  10.741  1.00  0.00     0.004 C 
ENDBRANCH  30  31
ENDBRANCH  29  30
ENDBRANCH  28  29
ENDBRANCH  27  28
ENDBRANCH  26  27
ENDBRANCH  25  26
ENDBRANCH  24  25
ENDBRANCH  23  24
ENDBRANCH  22  23
ENDBRANCH  21  22
ENDBRANCH  20  21
ENDBRANCH  19  20
ENDBRANCH  18  19
ENDBRANCH   1  18
TORSDOF 28
ENDMDL
MODEL 5
REMARK VINA RESULT:    -2.737      3.156      6.686
REMARK INTER + INTRA:         -10.729
REMARK INTER:                  -8.274
REMARK INTRA:                  -2.455
REMARK UNBOUND:                -3.511
REMARK SMILES CCCCCCCCCCCCCCCCCCCCCCCCCCCCCC(=O)[O-]
REMARK SMILES IDX 16 1 17 2 18 3 19 4 20 5 21 6 22 7 23 8 24 9 25 10 26 11
REMARK SMILES IDX 27 12 28 13 29 14 30 15 31 16 32 17 15 18 14 19 13 20 12 21
REMARK SMILES IDX 11 22 10 23 9 24 8 25 7 26 6 27 5 28 4 29 3 30 2 31 1 32
REMARK H PARENT
REMARK Flexibility Score: inf
ROOT
ATOM      1  C   UNL     1       4.030   7.962  14.223  1.00  0.00     0.000 C 
ENDROOT
BRANCH   1   2
ATOM      2  C   UNL     1       3.284   8.194  15.555  1.00  0.00     0.000 C 
BRANCH   2   3
ATOM      3  C   UNL     1       2.335   9.403  15.488  1.00  0.00     0.000 C 
BRANCH   3   4
ATOM      4  C   UNL     1       2.175  10.103  16.856  1.00  0.00     0.000 C 
BRANCH   4   5
ATOM      5  C   UNL     1       2.804   9.321  18.023  1.00  0.00     0.000 C 
BRANCH   5   6
ATOM      6  C   UNL     1       1.875   9.116  19.235  1.00  0.00     0.000 C 
BRANCH   6   7
ATOM      7  C   UNL     1       2.122   7.819  20.034  1.00  0.00     0.000 C 
BRANCH   7   8
ATOM      8  C   UNL     1       2.627   6.625  19.204  1.00  0.00     0.000 C 
BRANCH   8   9
ATOM      9  C   UNL     1       4.149   6.437  19.288  1.00  0.00     0.000 C 
BRANCH   9  10
ATOM     10  C   UNL     1       4.717   5.934  17.954  1.00  0.00     0.000 C 
BRANCH  10  11
ATOM     11  C   UNL     1       4.068   4.617  17.487  1.00  0.00     0.000 C 
BRANCH  11  12
ATOM     12  C   UNL     1       4.185   4.333  15.977  1.00  0.00     0.000 C 
BRANCH  12  13
ATOM     13  C   UNL     1       5.628   4.260  15.437  1.00  0.00     0.006 C 
BRANCH  13  14
ATOM     14  C   UNL     1       6.042   5.457  14.566  1.00  0.00     0.053 C 
BRANCH  14  15
ATOM     15  C   UNL     1       7.330   6.065  15.028  1.00  0.00     0.041 C 
ATOM     16  O   UNL     1       7.549   6.230  16.257  1.00  0.00    -0.550 OA
ATOM     17  O   UNL     1       8.271   6.492  14.098  1.00  0.00    -0.550 OA
ENDBRANCH  14  15
ENDBRANCH  13  14
ENDBRANCH  12  13
ENDBRANCH  11  12
ENDBRANCH  10  11
ENDBRANCH   9  10
ENDBRANCH   8   9
ENDBRANCH   7   8
ENDBRANCH   6   7
ENDBRANCH   5   6
ENDBRANCH   4   5
ENDBRANCH   3   4
ENDBRANCH   2   3
ENDBRANCH   1   2
BRANCH   1  18
ATOM     18  C   UNL     1       4.122   9.217  13.337  1.00  0.00     0.000 C 
BRANCH  18  19
ATOM     19  C   UNL     1       3.172   9.168  12.128  1.00  0.00     0.000 C 
BRANCH  19  20
ATOM     20  C   UNL     1       2.185   7.983  12.200  1.00  0.00     0.000 C 
BRANCH  20  21
ATOM     21  C   UNL     1       2.484   6.862  11.189  1.00  0.00     0.000 C 
BRANCH  21  22
ATOM     22  C   UNL     1       2.998   7.396   9.842  1.00  0.00     0.000 C 
BRANCH  22  23
ATOM     23  C   UNL     1       4.453   7.886   9.912  1.00  0.00     0.000 C 
BRANCH  23  24
ATOM     24  C   UNL     1       4.824   8.806   8.735  1.00  0.00    -0.000 C 
BRANCH  24  25
ATOM     25  C   UNL     1       5.486  10.119   9.191  1.00  0.00    -0.000 C 
BRANCH  25  26
ATOM     26  C   UNL     1       6.253  10.034  10.523  1.00  0.00    -0.000 C 
BRANCH  26  27
ATOM     27  C   UNL     1       7.771   9.889  10.334  1.00  0.00    -0.000 C 
BRANCH  27  28
ATOM     28  C   UNL     1       8.354   8.872  11.323  1.00  0.00    -0.000 C 
BRANCH  28  29
ATOM     29  C   UNL     1       8.050   7.434  10.875  1.00  0.00    -0.000 C 
BRANCH  29  30
ATOM     30  C   UNL     1       9.220   6.472  11.139  1.00  0.00    -0.000 C 
BRANCH  30  31
ATOM     31  C   UNL     1       9.232   5.277  10.175  1.00  0.00    -0.003 C 
ATOM     32  C   UNL     1      10.108   5.563   8.960  1.00  0.00     0.004 C 
ENDBRANCH  30  31
ENDBRANCH  29  30
ENDBRANCH  28  29
ENDBRANCH  27  28
ENDBRANCH  26  27
ENDBRANCH  25  26
ENDBRANCH  24  25
ENDBRANCH  23  24
ENDBRANCH  22  23
ENDBRANCH  21  22
ENDBRANCH  20  21
ENDBRANCH  19  20
ENDBRANCH  18  19
ENDBRANCH   1  18
TORSDOF 28
ENDMDL
MODEL 6
REMARK VINA RESULT:    -2.728      2.697      5.813
REMARK INTER + INTRA:         -10.704
REMARK INTER:                  -7.170
REMARK INTRA:                  -3.533
REMARK UNBOUND:                -3.511
REMARK SMILES CCCCCCCCCCCCCCCCCCCCCCCCCCCCCC(=O)[O-]
REMARK SMILES IDX 16 1 17 2 18 3 19 4 20 5 21 6 22 7 23 8 24 9 25 10 26 11
REMARK SMILES IDX 27 12 28 13 29 14 30 15 31 16 32 17 15 18 14 19 13 20 12 21
REMARK SMILES IDX 11 22 10 23 9 24 8 25 7 26 6 27 5 28 4 29 3 30 2 31 1 32
REMARK H PARENT
REMARK Flexibility Score: inf
ROOT
ATOM      1  C   UNL     1       4.787   6.640  11.833  1.00  0.00     0.000 C 
ENDROOT
BRANCH   1   2
ATOM      2  C   UNL     1       3.665   6.443  10.792  1.00  0.00     0.000 C 
BRANCH   2   3
ATOM      3  C   UNL     1       3.476   7.681   9.896  1.00  0.00     0.000 C 
BRANCH   3   4
ATOM      4  C   UNL     1       4.790   8.118   9.212  1.00  0.00     0.000 C 
BRANCH   4   5
ATOM      5  C   UNL     1       5.211   9.559   9.551  1.00  0.00     0.000 C 
BRANCH   5   6
ATOM      6  C   UNL     1       6.388  10.098   8.716  1.00  0.00     0.000 C 
BRANCH   6   7
ATOM      7  C   UNL     1       7.747  10.125   9.447  1.00  0.00     0.000 C 
BRANCH   7   8
ATOM      8  C   UNL     1       7.669   9.994  10.979  1.00  0.00     0.000 C 
BRANCH   8   9
ATOM      9  C   UNL     1       8.040   8.591  11.481  1.00  0.00     0.000 C 
BRANCH   9  10
ATOM     10  C   UNL     1       8.480   7.688  10.320  1.00  0.00     0.000 C 
BRANCH  10  11
ATOM     11  C   UNL     1       8.346   6.189  10.645  1.00  0.00     0.000 C 
BRANCH  11  12
ATOM     12  C   UNL     1       9.164   5.250   9.737  1.00  0.00     0.000 C 
BRANCH  12  13
ATOM     13  C   UNL     1      10.695   5.406   9.849  1.00  0.00     0.006 C 
BRANCH  13  14
ATOM     14  C   UNL     1      11.458   5.133   8.543  1.00  0.00     0.053 C 
BRANCH  14  15
ATOM     15  C   UNL     1      12.692   4.316   8.777  1.00  0.00     0.041 C 
ATOM     16  O   UNL     1      13.700   4.833   9.326  1.00  0.00    -0.550 OA
ATOM     17  O   UNL     1      12.743   2.996   8.348  1.00  0.00    -0.550 OA
ENDBRANCH  14  15
ENDBRANCH  13  14
ENDBRANCH  12  13
ENDBRANCH  11  12
ENDBRANCH  10  11
ENDBRANCH   9  10
ENDBRANCH   8   9
ENDBRANCH   7   8
ENDBRANCH   6   7
ENDBRANCH   5   6
ENDBRANCH   4   5
ENDBRANCH   3   4
ENDBRANCH   2   3
ENDBRANCH   1   2
BRANCH   1  18
ATOM     18  C   UNL     1       4.702   7.976  12.591  1.00  0.00     0.000 C 
BRANCH  18  19
ATOM     19  C   UNL     1       3.342   8.189  13.279  1.00  0.00     0.000 C 
BRANCH  19  20
ATOM     20  C   UNL     1       3.483   8.489  14.786  1.00  0.00     0.000 C 
BRANCH  20  21
ATOM     21  C   UNL     1       2.291   9.256  15.383  1.00  0.00     0.000 C 
BRANCH  21  22
ATOM     22  C   UNL     1       2.429   9.489  16.896  1.00  0.00     0.000 C 
BRANCH  22  23
ATOM     23  C   UNL     1       1.936   8.295  17.730  1.00  0.00     0.000 C 
BRANCH  23  24
ATOM     24  C   UNL     1       3.082   7.564  18.450  1.00  0.00    -0.000 C 
BRANCH  24  25
ATOM     25  C   UNL     1       2.834   6.051  18.584  1.00  0.00    -0.000 C 
BRANCH  25  26
ATOM     26  C   UNL     1       2.770   5.280  17.251  1.00  0.00    -0.000 C 
BRANCH  26  27
ATOM     27  C   UNL     1       4.098   4.599  16.888  1.00  0.00    -0.000 C 
BRANCH  27  28
ATOM     28  C   UNL     1       4.815   5.356  15.763  1.00  0.00    -0.000 C 
BRANCH  28  29
ATOM     29  C   UNL     1       5.935   6.245  16.327  1.00  0.00    -0.000 C 
BRANCH  29  30
ATOM     30  C   UNL     1       6.584   7.133  15.253  1.00  0.00    -0.000 C 
BRANCH  30  31
ATOM     31  C   UNL     1       7.482   6.339  14.293  1.00  0.00    -0.003 C 
ATOM     32  C   UNL     1       8.089   5.125  14.988  1.00  0.00     0.004 C 
ENDBRANCH  30  31
ENDBRANCH  29  30
ENDBRANCH  28  29
ENDBRANCH  27  28
ENDBRANCH  26  27
ENDBRANCH  25  26
ENDBRANCH  24  25
ENDBRANCH  23  24
ENDBRANCH  22  23
ENDBRANCH  21  22
ENDBRANCH  20  21
ENDBRANCH  19  20
ENDBRANCH  18  19
ENDBRANCH   1  18
TORSDOF 28
ENDMDL
MODEL 7
REMARK VINA RESULT:    -2.675      1.156      2.812
REMARK INTER + INTRA:         -10.565
REMARK INTER:                  -7.947
REMARK INTRA:                  -2.618
REMARK UNBOUND:                -3.511
REMARK SMILES CCCCCCCCCCCCCCCCCCCCCCCCCCCCCC(=O)[O-]
REMARK SMILES IDX 16 1 17 2 18 3 19 4 20 5 21 6 22 7 23 8 24 9 25 10 26 11
REMARK SMILES IDX 27 12 28 13 29 14 30 15 31 16 32 17 15 18 14 19 13 20 12 21
REMARK SMILES IDX 11 22 10 23 9 24 8 25 7 26 6 27 5 28 4 29 3 30 2 31 1 32
REMARK H PARENT
REMARK Flexibility Score: inf
ROOT
ATOM      1  C   UNL     1       4.122   5.516  17.686  1.00  0.00     0.000 C 
ENDROOT
BRANCH   1   2
ATOM      2  C   UNL     1       2.633   5.323  17.330  1.00  0.00     0.000 C 
BRANCH   2   3
ATOM      3  C   UNL     1       1.876   6.660  17.243  1.00  0.00     0.000 C 
BRANCH   3   4
ATOM      4  C   UNL     1       2.213   7.445  15.956  1.00  0.00     0.000 C 
BRANCH   4   5
ATOM      5  C   UNL     1       3.163   8.633  16.191  1.00  0.00     0.000 C 
BRANCH   5   6
ATOM      6  C   UNL     1       3.398   9.523  14.956  1.00  0.00     0.000 C 
BRANCH   6   7
ATOM      7  C   UNL     1       3.871   8.774  13.692  1.00  0.00     0.000 C 
BRANCH   7   8
ATOM      8  C   UNL     1       2.852   8.727  12.539  1.00  0.00     0.000 C 
BRANCH   8   9
ATOM      9  C   UNL     1       3.161   7.630  11.510  1.00  0.00     0.000 C 
BRANCH   9  10
ATOM     10  C   UNL     1       3.900   8.207  10.294  1.00  0.00     0.000 C 
BRANCH  10  11
ATOM     11  C   UNL     1       5.293   7.584  10.091  1.00  0.00     0.000 C 
BRANCH  11  12
ATOM     12  C   UNL     1       6.371   8.061  11.084  1.00  0.00     0.000 C 
BRANCH  12  13
ATOM     13  C   UNL     1       7.799   8.146  10.507  1.00  0.00     0.006 C 
BRANCH  13  14
ATOM     14  C   UNL     1       8.757   7.058  11.016  1.00  0.00     0.053 C 
BRANCH  14  15
ATOM     15  C   UNL     1       8.983   5.989   9.991  1.00  0.00     0.041 C 
ATOM     16  O   UNL     1      10.144   5.758   9.562  1.00  0.00    -0.550 OA
ATOM     17  O   UNL     1       7.905   5.280   9.476  1.00  0.00    -0.550 OA
ENDBRANCH  14  15
ENDBRANCH  13  14
ENDBRANCH  12  13
ENDBRANCH  11  12
ENDBRANCH  10  11
ENDBRANCH   9  10
ENDBRANCH   8   9
ENDBRANCH   7   8
ENDBRANCH   6   7
ENDBRANCH   5   6
ENDBRANCH   4   5
ENDBRANCH   3   4
ENDBRANCH   2   3
ENDBRANCH   1   2
BRANCH   1  18
ATOM     18  C   UNL     1       5.090   4.965  16.623  1.00  0.00     0.000 C 
BRANCH  18  19
ATOM     19  C   UNL     1       5.223   5.887  15.398  1.00  0.00     0.000 C 
BRANCH  19  20
ATOM     20  C   UNL     1       6.619   6.534  15.295  1.00  0.00     0.000 C 
BRANCH  20  21
ATOM     21  C   UNL     1       7.424   6.086  14.062  1.00  0.00     0.000 C 
BRANCH  21  22
ATOM     22  C   UNL     1       8.414   4.953  14.377  1.00  0.00     0.000 C 
BRANCH  22  23
ATOM     23  C   UNL     1       9.437   5.340  15.457  1.00  0.00     0.000 C 
BRANCH  23  24
ATOM     24  C   UNL     1      10.787   4.623  15.275  1.00  0.00    -0.000 C 
BRANCH  24  25
ATOM     25  C   UNL     1      11.714   4.778  16.495  1.00  0.00    -0.000 C 
BRANCH  25  26
ATOM     26  C   UNL     1      12.352   3.471  17.000  1.00  0.00    -0.000 C 
BRANCH  26  27
ATOM     27  C   UNL     1      11.884   2.234  16.218  1.00  0.00    -0.000 C 
BRANCH  27  28
ATOM     28  C   UNL     1      12.914   1.101  16.314  1.00  0.00    -0.000 C 
BRANCH  28  29
ATOM     29  C   UNL     1      14.225   1.491  15.615  1.00  0.00    -0.000 C 
BRANCH  29  30
ATOM     30  C   UNL     1      15.316   0.416  15.758  1.00  0.00    -0.000 C 
BRANCH  30  31
ATOM     31  C   UNL     1      16.734   0.995  15.655  1.00  0.00    -0.003 C 
ATOM     32  C   UNL     1      17.765   0.023  16.219  1.00  0.00     0.004 C 
ENDBRANCH  30  31
ENDBRANCH  29  30
ENDBRANCH  28  29
ENDBRANCH  27  28
ENDBRANCH  26  27
ENDBRANCH  25  26
ENDBRANCH  24  25
ENDBRANCH  23  24
ENDBRANCH  22  23
ENDBRANCH  21  22
ENDBRANCH  20  21
ENDBRANCH  19  20
ENDBRANCH  18  19
ENDBRANCH   1  18
TORSDOF 28
ENDMDL
MODEL 8
REMARK VINA RESULT:    -2.666      2.911      8.845
REMARK INTER + INTRA:         -10.540
REMARK INTER:                  -7.327
REMARK INTRA:                  -3.213
REMARK UNBOUND:                -3.511
REMARK SMILES CCCCCCCCCCCCCCCCCCCCCCCCCCCCCC(=O)[O-]
REMARK SMILES IDX 16 1 17 2 18 3 19 4 20 5 21 6 22 7 23 8 24 9 25 10 26 11
REMARK SMILES IDX 27 12 28 13 29 14 30 15 31 16 32 17 15 18 14 19 13 20 12 21
REMARK SMILES IDX 11 22 10 23 9 24 8 25 7 26 6 27 5 28 4 29 3 30 2 31 1 32
REMARK H PARENT
REMARK Flexibility Score: inf
ROOT
ATOM      1  C   UNL     1       7.620   6.763  11.333  1.00  0.00     0.000 C 
ENDROOT
BRANCH   1   2
ATOM      2  C   UNL     1       7.473   7.785  12.481  1.00  0.00     0.000 C 
BRANCH   2   3
ATOM      3  C   UNL     1       6.317   7.430  13.433  1.00  0.00     0.000 C 
BRANCH   3   4
ATOM      4  C   UNL     1       6.811   6.767  14.738  1.00  0.00     0.000 C 
BRANCH   4   5
ATOM      5  C   UNL     1       7.051   5.252  14.606  1.00  0.00     0.000 C 
BRANCH   5   6
ATOM      6  C   UNL     1       8.505   4.858  14.283  1.00  0.00     0.000 C 
BRANCH   6   7
ATOM      7  C   UNL     1       9.533   5.202  15.381  1.00  0.00     0.000 C 
BRANCH   7   8
ATOM      8  C   UNL     1      10.746   4.257  15.460  1.00  0.00     0.000 C 
BRANCH   8   9
ATOM      9  C   UNL     1      11.868   4.795  16.361  1.00  0.00     0.000 C 
BRANCH   9  10
ATOM     10  C   UNL     1      12.723   3.649  16.920  1.00  0.00     0.000 C 
BRANCH  10  11
ATOM     11  C   UNL     1      12.012   2.285  16.850  1.00  0.00     0.000 C 
BRANCH  11  12
ATOM     12  C   UNL     1      12.751   1.206  16.036  1.00  0.00     0.000 C 
BRANCH  12  13
ATOM     13  C   UNL     1      14.210   1.549  15.672  1.00  0.00     0.006 C 
BRANCH  13  14
ATOM     14  C   UNL     1      15.169   0.347  15.689  1.00  0.00     0.053 C 
BRANCH  14  15
ATOM     15  C   UNL     1      16.596   0.774  15.853  1.00  0.00     0.041 C 
ATOM     16  O   UNL     1      16.876   1.984  16.056  1.00  0.00    -0.550 OA
ATOM     17  O   UNL     1      17.618  -0.160  15.735  1.00  0.00    -0.550 OA
ENDBRANCH  14  15
ENDBRANCH  13  14
ENDBRANCH  12  13
ENDBRANCH  11  12
ENDBRANCH  10  11
ENDBRANCH   9  10
ENDBRANCH   8   9
ENDBRANCH   7   8
ENDBRANCH   6   7
ENDBRANCH   5   6
ENDBRANCH   4   5
ENDBRANCH   3   4
ENDBRANCH   2   3
ENDBRANCH   1   2
BRANCH   1  18
ATOM     18  C   UNL     1       6.910   7.182  10.034  1.00  0.00     0.000 C 
BRANCH  18  19
ATOM     19  C   UNL     1       6.551   8.678  10.004  1.00  0.00     0.000 C 
BRANCH  19  20
ATOM     20  C   UNL     1       5.027   8.920  10.000  1.00  0.00     0.000 C 
BRANCH  20  21
ATOM     21  C   UNL     1       4.194   7.639   9.819  1.00  0.00     0.000 C 
BRANCH  21  22
ATOM     22  C   UNL     1       3.605   7.121  11.142  1.00  0.00     0.000 C 
BRANCH  22  23
ATOM     23  C   UNL     1       3.140   8.254  12.071  1.00  0.00     0.000 C 
BRANCH  23  24
ATOM     24  C   UNL     1       1.891   7.874  12.886  1.00  0.00    -0.000 C 
BRANCH  24  25
ATOM     25  C   UNL     1       2.109   7.999  14.405  1.00  0.00    -0.000 C 
BRANCH  25  26
ATOM     26  C   UNL     1       3.279   8.910  14.823  1.00  0.00    -0.000 C 
BRANCH  26  27
ATOM     27  C   UNL     1       3.528   8.909  16.339  1.00  0.00    -0.000 C 
BRANCH  27  28
ATOM     28  C   UNL     1       2.289   8.424  17.100  1.00  0.00    -0.000 C 
BRANCH  28  29
ATOM     29  C   UNL     1       2.665   7.356  18.139  1.00  0.00    -0.000 C 
BRANCH  29  30
ATOM     30  C   UNL     1       2.359   5.928  17.658  1.00  0.00    -0.000 C 
BRANCH  30  31
ATOM     31  C   UNL     1       3.551   5.277  16.942  1.00  0.00    -0.003 C 
ATOM     32  C   UNL     1       4.786   5.261  17.836  1.00  0.00     0.004 C 
ENDBRANCH  30  31
ENDBRANCH  29  30
ENDBRANCH  28  29
ENDBRANCH  27  28
ENDBRANCH  26  27
ENDBRANCH  25  26
ENDBRANCH  24  25
ENDBRANCH  23  24
ENDBRANCH  22  23
ENDBRANCH  21  22
ENDBRANCH  20  21
ENDBRANCH  19  20
ENDBRANCH  18  19
ENDBRANCH   1  18
TORSDOF 28
ENDMDL
MODEL 9
REMARK VINA RESULT:    -2.650      2.022      5.307
REMARK INTER + INTRA:         -10.498
REMARK INTER:                  -8.092
REMARK INTRA:                  -2.406
REMARK UNBOUND:                -3.511
REMARK SMILES CCCCCCCCCCCCCCCCCCCCCCCCCCCCCC(=O)[O-]
REMARK SMILES IDX 16 1 17 2 18 3 19 4 20 5 21 6 22 7 23 8 24 9 25 10 26 11
REMARK SMILES IDX 27 12 28 13 29 14 30 15 31 16 32 17 15 18 14 19 13 20 12 21
REMARK SMILES IDX 11 22 10 23 9 24 8 25 7 26 6 27 5 28 4 29 3 30 2 31 1 32
REMARK H PARENT
REMARK Flexibility Score: inf
ROOT
ATOM      1  C   UNL     1       5.259   5.615  15.239  1.00  0.00     0.000 C 
ENDROOT
BRANCH   1   2
ATOM      2  C   UNL     1       5.585   6.364  16.549  1.00  0.00     0.000 C 
BRANCH   2   3
ATOM      3  C   UNL     1       4.966   5.679  17.781  1.00  0.00     0.000 C 
BRANCH   3   4
ATOM      4  C   UNL     1       3.686   4.887  17.434  1.00  0.00     0.000 C 
BRANCH   4   5
ATOM      5  C   UNL     1       2.395   5.712  17.577  1.00  0.00     0.000 C 
BRANCH   5   6
ATOM      6  C   UNL     1       2.523   6.957  18.476  1.00  0.00     0.000 C 
BRANCH   6   7
ATOM      7  C   UNL     1       2.201   8.298  17.784  1.00  0.00     0.000 C 
BRANCH   7   8
ATOM      8  C   UNL     1       3.403   8.999  17.126  1.00  0.00     0.000 C 
BRANCH   8   9
ATOM      9  C   UNL     1       2.988  10.087  16.124  1.00  0.00     0.000 C 
BRANCH   9  10
ATOM     10  C   UNL     1       3.621   9.839  14.748  1.00  0.00     0.000 C 
BRANCH  10  11
ATOM     11  C   UNL     1       2.896   8.741  13.947  1.00  0.00     0.000 C 
BRANCH  11  12
ATOM     12  C   UNL     1       3.762   8.027  12.890  1.00  0.00     0.000 C 
BRANCH  12  13
ATOM     13  C   UNL     1       4.124   8.881  11.658  1.00  0.00     0.006 C 
BRANCH  13  14
ATOM     14  C   UNL     1       4.670   8.077  10.467  1.00  0.00     0.053 C 
BRANCH  14  15
ATOM     15  C   UNL     1       5.931   8.674   9.922  1.00  0.00     0.041 C 
ATOM     16  O   UNL     1       7.050   8.312  10.371  1.00  0.00    -0.550 OA
ATOM     17  O   UNL     1       5.868   9.665   8.949  1.00  0.00    -0.550 OA
ENDBRANCH  14  15
ENDBRANCH  13  14
ENDBRANCH  12  13
ENDBRANCH  11  12
ENDBRANCH  10  11
ENDBRANCH   9  10
ENDBRANCH   8   9
ENDBRANCH   7   8
ENDBRANCH   6   7
ENDBRANCH   5   6
ENDBRANCH   4   5
ENDBRANCH   3   4
ENDBRANCH   2   3
ENDBRANCH   1   2
BRANCH   1  18
ATOM     18  C   UNL     1       6.191   5.977  14.069  1.00  0.00     0.000 C 
BRANCH  18  19
ATOM     19  C   UNL     1       7.602   6.383  14.531  1.00  0.00     0.000 C 
BRANCH  19  20
ATOM     20  C   UNL     1       8.613   5.222  14.435  1.00  0.00     0.000 C 
BRANCH  20  21
ATOM     21  C   UNL     1       9.588   5.145  15.622  1.00  0.00     0.000 C 
BRANCH  21  22
ATOM     22  C   UNL     1      10.946   4.535  15.238  1.00  0.00     0.000 C 
BRANCH  22  23
ATOM     23  C   UNL     1      12.023   4.756  16.312  1.00  0.00     0.000 C 
BRANCH  23  24
ATOM     24  C   UNL     1      12.395   3.458  17.051  1.00  0.00    -0.000 C 
BRANCH  24  25
ATOM     25  C   UNL     1      11.829   2.200  16.369  1.00  0.00    -0.000 C 
BRANCH  25  26
ATOM     26  C   UNL     1      12.833   1.045  16.195  1.00  0.00    -0.000 C 
BRANCH  26  27
ATOM     27  C   UNL     1      14.174   1.500  15.600  1.00  0.00    -0.000 C 
BRANCH  27  28
ATOM     28  C   UNL     1      15.264   0.445  15.828  1.00  0.00    -0.000 C 
BRANCH  28  29
ATOM     29  C   UNL     1      16.662   1.078  15.768  1.00  0.00    -0.000 C 
BRANCH  29  30
ATOM     30  C   UNL     1      17.789   0.037  15.862  1.00  0.00    -0.000 C 
BRANCH  30  31
ATOM     31  C   UNL     1      18.410  -0.039  17.264  1.00  0.00    -0.003 C 
ATOM     32  C   UNL     1      19.932  -0.100  17.187  1.00  0.00     0.004 C 
ENDBRANCH  30  31
ENDBRANCH  29  30
ENDBRANCH  28  29
ENDBRANCH  27  28
ENDBRANCH  26  27
ENDBRANCH  25  26
ENDBRANCH  24  25
ENDBRANCH  23  24
ENDBRANCH  22  23
ENDBRANCH  21  22
ENDBRANCH  20  21
ENDBRANCH  19  20
ENDBRANCH  18  19
ENDBRANCH   1  18
TORSDOF 28
ENDMDL
