MODEL 1
REMARK VINA RESULT:    -3.230      0.000      0.000
REMARK INTER + INTRA:          -7.500
REMARK INTER:                  -6.062
REMARK INTRA:                  -1.438
REMARK UNBOUND:                -1.438
REMARK SMILES O=C([O-])CCCCCCCCCCCCCCC(=O)[O-]
REMARK SMILES IDX 10 1 9 2 8 3 7 4 6 5 5 6 4 7 2 8 1 9 3 10 11 11 12 12 13 13
REMARK SMILES IDX 14 14 15 15 16 16 17 17 18 18 19 19 20 20
REMARK H PARENT
REMARK Flexibility Score: inf
ROOT
ATOM      1  C   UNL     1      -5.612   7.274  -0.736  1.00  0.00     0.000 C 
ENDROOT
BRANCH   1   2
ATOM      2  C   UNL     1      -4.202   6.733  -0.437  1.00  0.00     0.000 C 
BRANCH   2   3
ATOM      3  C   UNL     1      -3.566   7.401   0.793  1.00  0.00     0.000 C 
BRANCH   3   4
ATOM      4  C   UNL     1      -3.825   6.614   2.090  1.00  0.00     0.000 C 
BRANCH   4   5
ATOM      5  C   UNL     1      -3.920   5.095   1.860  1.00  0.00     0.000 C 
BRANCH   5   6
ATOM      6  C   UNL     1      -3.248   4.225   2.943  1.00  0.00     0.006 C 
BRANCH   6   7
ATOM      7  C   UNL     1      -3.602   2.732   2.871  1.00  0.00     0.053 C 
BRANCH   7   8
ATOM      8  C   UNL     1      -3.352   2.034   4.173  1.00  0.00     0.041 C 
ATOM      9  O   UNL     1      -3.959   2.399   5.214  1.00  0.00    -0.550 OA
ATOM     10  O   UNL     1      -2.425   1.003   4.242  1.00  0.00    -0.550 OA
ENDBRANCH   7   8
ENDBRANCH   6   7
ENDBRANCH   5   6
ENDBRANCH   4   5
ENDBRANCH   3   4
ENDBRANCH   2   3
ENDBRANCH   1   2
BRANCH   1  11
ATOM     11  C   UNL     1      -6.657   6.158  -0.916  1.00  0.00     0.000 C 
BRANCH  11  12
ATOM     12  C   UNL     1      -7.415   6.180  -2.257  1.00  0.00     0.000 C 
BRANCH  12  13
ATOM     13  C   UNL     1      -7.782   4.773  -2.759  1.00  0.00     0.000 C 
BRANCH  13  14
ATOM     14  C   UNL     1      -6.684   4.161  -3.645  1.00  0.00     0.000 C 
BRANCH  14  15
ATOM     15  C   UNL     1      -6.082   5.182  -4.627  1.00  0.00     0.000 C 
BRANCH  15  16
ATOM     16  C   UNL     1      -4.550   5.270  -4.522  1.00  0.00     0.006 C 
BRANCH  16  17
ATOM     17  C   UNL     1      -4.001   4.575  -3.271  1.00  0.00     0.053 C 
BRANCH  17  18
ATOM     18  C   UNL     1      -3.038   3.496  -3.655  1.00  0.00     0.041 C 
ATOM     19  O   UNL     1      -3.345   2.659  -4.545  1.00  0.00    -0.550 OA
ATOM     20  O   UNL     1      -1.821   3.384  -2.995  1.00  0.00    -0.550 OA
ENDBRANCH  17  18
ENDBRANCH  16  17
ENDBRANCH  15  16
ENDBRANCH  14  15
ENDBRANCH  13  14
ENDBRANCH  12  13
ENDBRANCH  11  12
ENDBRANCH   1  11
TORSDOF 15
ENDMDL
MODEL 2
REMARK VINA RESULT:    -3.138      3.283      5.116
REMARK INTER + INTRA:          -7.328
REMARK INTER:                  -5.459
REMARK INTRA:                  -1.869
REMARK UNBOUND:                -1.438
REMARK SMILES O=C([O-])CCCCCCCCCCCCCCC(=O)[O-]
REMARK SMILES IDX 10 1 9 2 8 3 7 4 6 5 5 6 4 7 2 8 1 9 3 10 11 11 12 12 13 13
REMARK SMILES IDX 14 14 15 15 16 16 17 17 18 18 19 19 20 20
REMARK H PARENT
REMARK Flexibility Score: inf
ROOT
ATOM      1  C   UNL     1      -5.292   7.752  -0.812  1.00  0.00     0.000 C 
ENDROOT
BRANCH   1   2
ATOM      2  C   UNL     1      -4.157   6.837  -0.320  1.00  0.00     0.000 C 
BRANCH   2   3
ATOM      3  C   UNL     1      -3.550   7.317   1.009  1.00  0.00     0.000 C 
BRANCH   3   4
ATOM      4  C   UNL     1      -3.986   6.449   2.202  1.00  0.00     0.000 C 
BRANCH   4   5
ATOM      5  C   UNL     1      -4.012   4.946   1.871  1.00  0.00     0.000 C 
BRANCH   5   6
ATOM      6  C   UNL     1      -3.197   4.050   2.827  1.00  0.00     0.006 C 
BRANCH   6   7
ATOM      7  C   UNL     1      -3.700   2.601   2.927  1.00  0.00     0.053 C 
BRANCH   7   8
ATOM      8  C   UNL     1      -3.349   1.976   4.242  1.00  0.00     0.041 C 
ATOM      9  O   UNL     1      -3.911   2.366   5.299  1.00  0.00    -0.550 OA
ATOM     10  O   UNL     1      -2.377   0.986   4.303  1.00  0.00    -0.550 OA
ENDBRANCH   7   8
ENDBRANCH   6   7
ENDBRANCH   5   6
ENDBRANCH   4   5
ENDBRANCH   3   4
ENDBRANCH   2   3
ENDBRANCH   1   2
BRANCH   1  11
ATOM     11  C   UNL     1      -6.456   6.974  -1.453  1.00  0.00     0.000 C 
BRANCH  11  12
ATOM     12  C   UNL     1      -6.426   5.450  -1.229  1.00  0.00     0.000 C 
BRANCH  12  13
ATOM     13  C   UNL     1      -7.817   4.803  -1.339  1.00  0.00     0.000 C 
BRANCH  13  14
ATOM     14  C   UNL     1      -8.584   4.828  -0.005  1.00  0.00     0.000 C 
BRANCH  14  15
ATOM     15  C   UNL     1      -7.645   4.914   1.211  1.00  0.00     0.000 C 
BRANCH  15  16
ATOM     16  C   UNL     1      -7.852   6.203   2.025  1.00  0.00     0.006 C 
BRANCH  16  17
ATOM     17  C   UNL     1      -8.924   7.119   1.423  1.00  0.00     0.053 C 
BRANCH  17  18
ATOM     18  C   UNL     1     -10.083   7.251   2.359  1.00  0.00     0.041 C 
ATOM     19  O   UNL     1     -10.555   6.234   2.931  1.00  0.00    -0.550 OA
ATOM     20  O   UNL     1     -10.673   8.492   2.563  1.00  0.00    -0.550 OA
ENDBRANCH  17  18
ENDBRANCH  16  17
ENDBRANCH  15  16
ENDBRANCH  14  15
ENDBRANCH  13  14
ENDBRANCH  12  13
ENDBRANCH  11  12
ENDBRANCH   1  11
TORSDOF 15
ENDMDL
MODEL 3
REMARK VINA RESULT:    -3.083      2.239      3.654
REMARK INTER + INTRA:          -7.225
REMARK INTER:                  -5.478
REMARK INTRA:                  -1.746
REMARK UNBOUND:                -1.438
REMARK SMILES O=C([O-])CCCCCCCCCCCCCCC(=O)[O-]
REMARK SMILES IDX 10 1 9 2 8 3 7 4 6 5 5 6 4 7 2 8 1 9 3 10 11 11 12 12 13 13
REMARK SMILES IDX 14 14 15 15 16 16 17 17 18 18 19 19 20 20
REMARK H PARENT
REMARK Flexibility Score: inf
ROOT
ATOM      1  C   UNL     1      -4.797   9.072   1.708  1.00  0.00     0.000 C 
ENDROOT
BRANCH   1   2
ATOM      2  C   UNL     1      -3.311   8.860   2.046  1.00  0.00     0.000 C 
BRANCH   2   3
ATOM      3  C   UNL     1      -2.802   7.475   1.614  1.00  0.00     0.000 C 
BRANCH   3   4
ATOM      4  C   UNL     1      -3.491   6.331   2.378  1.00  0.00     0.000 C 
BRANCH   4   5
ATOM      5  C   UNL     1      -3.910   5.167   1.462  1.00  0.00     0.000 C 
BRANCH   5   6
ATOM      6  C   UNL     1      -3.657   3.757   2.037  1.00  0.00     0.006 C 
BRANCH   6   7
ATOM      7  C   UNL     1      -3.254   3.736   3.519  1.00  0.00     0.053 C 
BRANCH   7   8
ATOM      8  C   UNL     1      -3.439   2.381   4.131  1.00  0.00     0.041 C 
ATOM      9  O   UNL     1      -4.139   2.245   5.167  1.00  0.00    -0.550 OA
ATOM     10  O   UNL     1      -2.810   1.275   3.573  1.00  0.00    -0.550 OA
ENDBRANCH   7   8
ENDBRANCH   6   7
ENDBRANCH   5   6
ENDBRANCH   4   5
ENDBRANCH   3   4
ENDBRANCH   2   3
ENDBRANCH   1   2
BRANCH   1  11
ATOM     11  C   UNL     1      -5.682   9.217   2.960  1.00  0.00     0.000 C 
BRANCH  11  12
ATOM     12  C   UNL     1      -7.199   9.196   2.697  1.00  0.00     0.000 C 
BRANCH  12  13
ATOM     13  C   UNL     1      -7.580   8.367   1.458  1.00  0.00     0.000 C 
BRANCH  13  14
ATOM     14  C   UNL     1      -7.888   6.901   1.805  1.00  0.00     0.000 C 
BRANCH  14  15
ATOM     15  C   UNL     1      -7.346   5.920   0.751  1.00  0.00     0.000 C 
BRANCH  15  16
ATOM     16  C   UNL     1      -6.590   6.631  -0.384  1.00  0.00     0.006 C 
BRANCH  16  17
ATOM     17  C   UNL     1      -6.099   5.664  -1.467  1.00  0.00     0.053 C 
BRANCH  17  18
ATOM     18  C   UNL     1      -4.761   6.091  -1.980  1.00  0.00     0.041 C 
ATOM     19  O   UNL     1      -4.489   7.315  -2.103  1.00  0.00    -0.550 OA
ATOM     20  O   UNL     1      -3.829   5.137  -2.369  1.00  0.00    -0.550 OA
ENDBRANCH  17  18
ENDBRANCH  16  17
ENDBRANCH  15  16
ENDBRANCH  14  15
ENDBRANCH  13  14
ENDBRANCH  12  13
ENDBRANCH  11  12
ENDBRANCH   1  11
TORSDOF 15
ENDMDL
MODEL 4
REMARK VINA RESULT:    -3.058      3.874      5.953
REMARK INTER + INTRA:          -7.177
REMARK INTER:                  -5.193
REMARK INTRA:                  -1.984
REMARK UNBOUND:                -1.438
REMARK SMILES O=C([O-])CCCCCCCCCCCCCCC(=O)[O-]
REMARK SMILES IDX 10 1 9 2 8 3 7 4 6 5 5 6 4 7 2 8 1 9 3 10 11 11 12 12 13 13
REMARK SMILES IDX 14 14 15 15 16 16 17 17 18 18 19 19 20 20
REMARK H PARENT
REMARK Flexibility Score: inf
ROOT
ATOM      1  C   UNL     1      -5.382   9.275  -0.086  1.00  0.00     0.000 C 
ENDROOT
BRANCH   1   2
ATOM      2  C   UNL     1      -4.930   7.845   0.259  1.00  0.00     0.000 C 
BRANCH   2   3
ATOM      3  C   UNL     1      -6.086   6.972   0.775  1.00  0.00     0.000 C 
BRANCH   3   4
ATOM      4  C   UNL     1      -5.622   5.564   1.185  1.00  0.00     0.000 C 
BRANCH   4   5
ATOM      5  C   UNL     1      -4.091   5.439   1.272  1.00  0.00     0.000 C 
BRANCH   5   6
ATOM      6  C   UNL     1      -3.564   4.681   2.508  1.00  0.00     0.006 C 
BRANCH   6   7
ATOM      7  C   UNL     1      -3.492   3.156   2.337  1.00  0.00     0.053 C 
BRANCH   7   8
ATOM      8  C   UNL     1      -3.424   2.447   3.655  1.00  0.00     0.041 C 
ATOM      9  O   UNL     1      -3.948   2.960   4.678  1.00  0.00    -0.550 OA
ATOM     10  O   UNL     1      -2.753   1.236   3.760  1.00  0.00    -0.550 OA
ENDBRANCH   7   8
ENDBRANCH   6   7
ENDBRANCH   5   6
ENDBRANCH   4   5
ENDBRANCH   3   4
ENDBRANCH   2   3
ENDBRANCH   1   2
BRANCH   1  11
ATOM     11  C   UNL     1      -4.779  10.337   0.852  1.00  0.00     0.000 C 
BRANCH  11  12
ATOM     12  C   UNL     1      -5.778  10.999   1.820  1.00  0.00     0.000 C 
BRANCH  12  13
ATOM     13  C   UNL     1      -5.419  10.770   3.298  1.00  0.00     0.000 C 
BRANCH  13  14
ATOM     14  C   UNL     1      -5.750   9.344   3.769  1.00  0.00     0.000 C 
BRANCH  14  15
ATOM     15  C   UNL     1      -4.596   8.703   4.559  1.00  0.00     0.000 C 
BRANCH  15  16
ATOM     16  C   UNL     1      -3.442   8.245   3.651  1.00  0.00     0.006 C 
BRANCH  16  17
ATOM     17  C   UNL     1      -2.286   9.251   3.608  1.00  0.00     0.053 C 
BRANCH  17  18
ATOM     18  C   UNL     1      -1.568   9.165   2.299  1.00  0.00     0.041 C 
ATOM     19  O   UNL     1      -1.620   8.109   1.615  1.00  0.00    -0.550 OA
ATOM     20  O   UNL     1      -0.799  10.235   1.857  1.00  0.00    -0.550 OA
ENDBRANCH  17  18
ENDBRANCH  16  17
ENDBRANCH  15  16
ENDBRANCH  14  15
ENDBRANCH  13  14
ENDBRANCH  12  13
ENDBRANCH  11  12
ENDBRANCH   1  11
TORSDOF 15
ENDMDL
MODEL 5
REMARK VINA RESULT:    -2.847      4.481      6.954
REMARK INTER + INTRA:          -6.781
REMARK INTER:                  -5.407
REMARK INTRA:                  -1.374
REMARK UNBOUND:                -1.438
REMARK SMILES O=C([O-])CCCCCCCCCCCCCCC(=O)[O-]
REMARK SMILES IDX 10 1 9 2 8 3 7 4 6 5 5 6 4 7 2 8 1 9 3 10 11 11 12 12 13 13
REMARK SMILES IDX 14 14 15 15 16 16 17 17 18 18 19 19 20 20
REMARK H PARENT
REMARK Flexibility Score: inf
ROOT
ATOM      1  C   UNL     1      -4.069   9.900   4.669  1.00  0.00     0.000 C 
ENDROOT
BRANCH   1   2
ATOM      2  C   UNL     1      -4.744  10.078   6.041  1.00  0.00     0.000 C 
BRANCH   2   3
ATOM      3  C   UNL     1      -3.910  10.944   6.999  1.00  0.00     0.000 C 
BRANCH   3   4
ATOM      4  C   UNL     1      -3.232  10.114   8.103  1.00  0.00     0.000 C 
BRANCH   4   5
ATOM      5  C   UNL     1      -1.913   9.469   7.643  1.00  0.00     0.000 C 
BRANCH   5   6
ATOM      6  C   UNL     1      -1.894   7.926   7.667  1.00  0.00     0.006 C 
BRANCH   6   7
ATOM      7  C   UNL     1      -3.259   7.276   7.942  1.00  0.00     0.053 C 
BRANCH   7   8
ATOM      8  C   UNL     1      -3.228   6.400   9.156  1.00  0.00     0.041 C 
ATOM      9  O   UNL     1      -2.977   6.894  10.287  1.00  0.00    -0.550 OA
ATOM     10  O   UNL     1      -3.442   5.034   9.034  1.00  0.00    -0.550 OA
ENDBRANCH   7   8
ENDBRANCH   6   7
ENDBRANCH   5   6
ENDBRANCH   4   5
ENDBRANCH   3   4
ENDBRANCH   2   3
ENDBRANCH   1   2
BRANCH   1  11
ATOM     11  C   UNL     1      -4.023   8.432   4.209  1.00  0.00     0.000 C 
BRANCH  11  12
ATOM     12  C   UNL     1      -4.705   8.148   2.857  1.00  0.00     0.000 C 
BRANCH  12  13
ATOM     13  C   UNL     1      -3.712   8.105   1.683  1.00  0.00     0.000 C 
BRANCH  13  14
ATOM     14  C   UNL     1      -2.898   6.800   1.649  1.00  0.00     0.000 C 
BRANCH  14  15
ATOM     15  C   UNL     1      -3.793   5.548   1.661  1.00  0.00     0.000 C 
BRANCH  15  16
ATOM     16  C   UNL     1      -3.518   4.638   2.870  1.00  0.00     0.006 C 
BRANCH  16  17
ATOM     17  C   UNL     1      -3.543   3.148   2.507  1.00  0.00     0.053 C 
BRANCH  17  18
ATOM     18  C   UNL     1      -3.405   2.310   3.739  1.00  0.00     0.041 C 
ATOM     19  O   UNL     1      -2.815   1.198   3.687  1.00  0.00    -0.550 OA
ATOM     20  O   UNL     1      -3.970   2.735   4.935  1.00  0.00    -0.550 OA
ENDBRANCH  17  18
ENDBRANCH  16  17
ENDBRANCH  15  16
ENDBRANCH  14  15
ENDBRANCH  13  14
ENDBRANCH  12  13
ENDBRANCH  11  12
ENDBRANCH   1  11
TORSDOF 15
ENDMDL
MODEL 6
REMARK VINA RESULT:    -2.825      9.350     12.348
REMARK INTER + INTRA:          -6.741
REMARK INTER:                  -5.191
REMARK INTRA:                  -1.550
REMARK UNBOUND:                -1.438
REMARK SMILES O=C([O-])CCCCCCCCCCCCCCC(=O)[O-]
REMARK SMILES IDX 10 1 9 2 8 3 7 4 6 5 5 6 4 7 2 8 1 9 3 10 11 11 12 12 13 13
REMARK SMILES IDX 14 14 15 15 16 16 17 17 18 18 19 19 20 20
REMARK H PARENT
REMARK Flexibility Score: inf
ROOT
ATOM      1  C   UNL     1      -0.974   1.468  12.182  1.00  0.00     0.000 C 
ENDROOT
BRANCH   1   2
ATOM      2  C   UNL     1       0.487   0.987  12.137  1.00  0.00     0.000 C 
BRANCH   2   3
ATOM      3  C   UNL     1       0.863   0.373  10.778  1.00  0.00     0.000 C 
BRANCH   3   4
ATOM      4  C   UNL     1       1.137   1.442   9.706  1.00  0.00     0.000 C 
BRANCH   4   5
ATOM      5  C   UNL     1       2.066   2.564  10.203  1.00  0.00     0.000 C 
BRANCH   5   6
ATOM      6  C   UNL     1       2.799   3.347   9.094  1.00  0.00     0.006 C 
BRANCH   6   7
ATOM      7  C   UNL     1       4.115   2.707   8.626  1.00  0.00     0.053 C 
BRANCH   7   8
ATOM      8  C   UNL     1       4.385   2.977   7.177  1.00  0.00     0.041 C 
ATOM      9  O   UNL     1       4.231   2.064   6.324  1.00  0.00    -0.550 OA
ATOM     10  O   UNL     1       4.837   4.226   6.775  1.00  0.00    -0.550 OA
ENDBRANCH   7   8
ENDBRANCH   6   7
ENDBRANCH   5   6
ENDBRANCH   4   5
ENDBRANCH   3   4
ENDBRANCH   2   3
ENDBRANCH   1   2
BRANCH   1  11
ATOM     11  C   UNL     1      -1.105   2.999  12.082  1.00  0.00     0.000 C 
BRANCH  11  12
ATOM     12  C   UNL     1      -2.508   3.514  11.715  1.00  0.00     0.000 C 
BRANCH  12  13
ATOM     13  C   UNL     1      -2.518   4.356  10.427  1.00  0.00     0.000 C 
BRANCH  13  14
ATOM     14  C   UNL     1      -1.236   4.173   9.596  1.00  0.00     0.000 C 
BRANCH  14  15
ATOM     15  C   UNL     1      -0.532   5.509   9.300  1.00  0.00     0.000 C 
BRANCH  15  16
ATOM     16  C   UNL     1      -1.488   6.711   9.381  1.00  0.00     0.006 C 
BRANCH  16  17
ATOM     17  C   UNL     1      -1.826   7.293   8.004  1.00  0.00     0.053 C 
BRANCH  17  18
ATOM     18  C   UNL     1      -3.271   7.069   7.684  1.00  0.00     0.041 C 
ATOM     19  O   UNL     1      -4.110   6.920   8.611  1.00  0.00    -0.550 OA
ATOM     20  O   UNL     1      -3.683   6.976   6.360  1.00  0.00    -0.550 OA
ENDBRANCH  17  18
ENDBRANCH  16  17
ENDBRANCH  15  16
ENDBRANCH  14  15
ENDBRANCH  13  14
ENDBRANCH  12  13
ENDBRANCH  11  12
ENDBRANCH   1  11
TORSDOF 15
ENDMDL
MODEL 7
REMARK VINA RESULT:    -2.810      8.571     11.394
REMARK INTER + INTRA:          -6.712
REMARK INTER:                  -4.743
REMARK INTRA:                  -1.969
REMARK UNBOUND:                -1.438
REMARK SMILES O=C([O-])CCCCCCCCCCCCCCC(=O)[O-]
REMARK SMILES IDX 10 1 9 2 8 3 7 4 6 5 5 6 4 7 2 8 1 9 3 10 11 11 12 12 13 13
REMARK SMILES IDX 14 14 15 15 16 16 17 17 18 18 19 19 20 20
REMARK H PARENT
REMARK Flexibility Score: inf
ROOT
ATOM      1  C   UNL     1      -1.964   4.065  12.417  1.00  0.00     0.000 C 
ENDROOT
BRANCH   1   2
ATOM      2  C   UNL     1      -2.103   5.590  12.255  1.00  0.00     0.000 C 
BRANCH   2   3
ATOM      3  C   UNL     1      -3.559   6.065  12.396  1.00  0.00     0.000 C 
BRANCH   3   4
ATOM      4  C   UNL     1      -4.157   6.532  11.057  1.00  0.00     0.000 C 
BRANCH   4   5
ATOM      5  C   UNL     1      -4.644   5.366  10.179  1.00  0.00     0.000 C 
BRANCH   5   6
ATOM      6  C   UNL     1      -5.356   4.227  10.938  1.00  0.00     0.006 C 
BRANCH   6   7
ATOM      7  C   UNL     1      -6.853   4.088  10.623  1.00  0.00     0.053 C 
BRANCH   7   8
ATOM      8  C   UNL     1      -7.153   2.825   9.875  1.00  0.00     0.041 C 
ATOM      9  O   UNL     1      -7.241   2.838   8.620  1.00  0.00    -0.550 OA
ATOM     10  O   UNL     1      -7.368   1.641  10.569  1.00  0.00    -0.550 OA
ENDBRANCH   7   8
ENDBRANCH   6   7
ENDBRANCH   5   6
ENDBRANCH   4   5
ENDBRANCH   3   4
ENDBRANCH   2   3
ENDBRANCH   1   2
BRANCH   1  11
ATOM     11  C   UNL     1      -1.125   3.418  11.300  1.00  0.00     0.000 C 
BRANCH  11  12
ATOM     12  C   UNL     1      -1.160   4.151   9.946  1.00  0.00     0.000 C 
BRANCH  12  13
ATOM     13  C   UNL     1       0.129   4.941   9.660  1.00  0.00     0.000 C 
BRANCH  13  14
ATOM     14  C   UNL     1      -0.155   6.345   9.100  1.00  0.00     0.000 C 
BRANCH  14  15
ATOM     15  C   UNL     1      -1.554   6.456   8.469  1.00  0.00     0.000 C 
BRANCH  15  16
ATOM     16  C   UNL     1      -1.844   7.863   7.921  1.00  0.00     0.006 C 
BRANCH  16  17
ATOM     17  C   UNL     1      -3.345   8.153   7.796  1.00  0.00     0.053 C 
BRANCH  17  18
ATOM     18  C   UNL     1      -3.742   8.231   6.356  1.00  0.00     0.041 C 
ATOM     19  O   UNL     1      -3.951   7.178   5.697  1.00  0.00    -0.550 OA
ATOM     20  O   UNL     1      -3.835   9.467   5.727  1.00  0.00    -0.550 OA
ENDBRANCH  17  18
ENDBRANCH  16  17
ENDBRANCH  15  16
ENDBRANCH  14  15
ENDBRANCH  13  14
ENDBRANCH  12  13
ENDBRANCH  11  12
ENDBRANCH   1  11
TORSDOF 15
ENDMDL
MODEL 8
REMARK VINA RESULT:    -2.781     10.514     13.002
REMARK INTER + INTRA:          -6.657
REMARK INTER:                  -4.405
REMARK INTRA:                  -2.253
REMARK UNBOUND:                -1.438
REMARK SMILES O=C([O-])CCCCCCCCCCCCCCC(=O)[O-]
REMARK SMILES IDX 10 1 9 2 8 3 7 4 6 5 5 6 4 7 2 8 1 9 3 10 11 11 12 12 13 13
REMARK SMILES IDX 14 14 15 15 16 16 17 17 18 18 19 19 20 20
REMARK H PARENT
REMARK Flexibility Score: inf
ROOT
ATOM      1  C   UNL     1       0.393   4.448  12.050  1.00  0.00     0.000 C 
ENDROOT
BRANCH   1   2
ATOM      2  C   UNL     1       0.749   2.950  12.061  1.00  0.00     0.000 C 
BRANCH   2   3
ATOM      3  C   UNL     1      -0.011   2.158  10.984  1.00  0.00     0.000 C 
BRANCH   3   4
ATOM      4  C   UNL     1       0.914   1.652   9.864  1.00  0.00     0.000 C 
BRANCH   4   5
ATOM      5  C   UNL     1       2.281   1.175  10.386  1.00  0.00     0.000 C 
BRANCH   5   6
ATOM      6  C   UNL     1       3.501   1.927   9.814  1.00  0.00     0.006 C 
BRANCH   6   7
ATOM      7  C   UNL     1       3.237   2.654   8.487  1.00  0.00     0.053 C 
BRANCH   7   8
ATOM      8  C   UNL     1       4.240   2.285   7.437  1.00  0.00     0.041 C 
ATOM      9  O   UNL     1       5.225   1.557   7.731  1.00  0.00    -0.550 OA
ATOM     10  O   UNL     1       4.105   2.772   6.144  1.00  0.00    -0.550 OA
ENDBRANCH   7   8
ENDBRANCH   6   7
ENDBRANCH   5   6
ENDBRANCH   4   5
ENDBRANCH   3   4
ENDBRANCH   2   3
ENDBRANCH   1   2
BRANCH   1  11
ATOM     11  C   UNL     1       1.283   5.268  11.098  1.00  0.00     0.000 C 
BRANCH  11  12
ATOM     12  C   UNL     1       0.783   5.355   9.644  1.00  0.00     0.000 C 
BRANCH  12  13
ATOM     13  C   UNL     1      -0.145   6.558   9.402  1.00  0.00     0.000 C 
BRANCH  13  14
ATOM     14  C   UNL     1      -1.441   6.163   8.675  1.00  0.00     0.000 C 
BRANCH  14  15
ATOM     15  C   UNL     1      -1.848   4.704   8.948  1.00  0.00     0.000 C 
BRANCH  15  16
ATOM     16  C   UNL     1      -3.199   4.594   9.674  1.00  0.00     0.006 C 
BRANCH  16  17
ATOM     17  C   UNL     1      -3.046   4.453  11.193  1.00  0.00     0.053 C 
BRANCH  17  18
ATOM     18  C   UNL     1      -3.379   5.744  11.872  1.00  0.00     0.041 C 
ATOM     19  O   UNL     1      -2.464   6.546  12.194  1.00  0.00    -0.550 OA
ATOM     20  O   UNL     1      -4.698   6.038  12.195  1.00  0.00    -0.550 OA
ENDBRANCH  17  18
ENDBRANCH  16  17
ENDBRANCH  15  16
ENDBRANCH  14  15
ENDBRANCH  13  14
ENDBRANCH  12  13
ENDBRANCH  11  12
ENDBRANCH   1  11
TORSDOF 15
ENDMDL
MODEL 9
REMARK VINA RESULT:    -2.777     10.251     12.332
REMARK INTER + INTRA:          -6.651
REMARK INTER:                  -4.203
REMARK INTRA:                  -2.448
REMARK UNBOUND:                -1.438
REMARK SMILES O=C([O-])CCCCCCCCCCCCCCC(=O)[O-]
REMARK SMILES IDX 10 1 9 2 8 3 7 4 6 5 5 6 4 7 2 8 1 9 3 10 11 11 12 12 13 13
REMARK SMILES IDX 14 14 15 15 16 16 17 17 18 18 19 19 20 20
REMARK H PARENT
REMARK Flexibility Score: inf
ROOT
ATOM      1  C   UNL     1      -2.746   4.016  11.358  1.00  0.00     0.000 C 
ENDROOT
BRANCH   1   2
ATOM      2  C   UNL     1      -2.101   5.076  12.267  1.00  0.00     0.000 C 
BRANCH   2   3
ATOM      3  C   UNL     1      -0.727   4.635  12.800  1.00  0.00     0.000 C 
BRANCH   3   4
ATOM      4  C   UNL     1      -0.375   3.193  12.396  1.00  0.00     0.000 C 
BRANCH   4   5
ATOM      5  C   UNL     1       0.808   3.118  11.416  1.00  0.00     0.000 C 
BRANCH   5   6
ATOM      6  C   UNL     1       0.479   2.511  10.035  1.00  0.00     0.006 C 
BRANCH   6   7
ATOM      7  C   UNL     1       1.378   1.335   9.625  1.00  0.00     0.053 C 
BRANCH   7   8
ATOM      8  C   UNL     1       1.480   0.304  10.707  1.00  0.00     0.041 C 
ATOM      9  O   UNL     1       2.599   0.025  11.211  1.00  0.00    -0.550 OA
ATOM     10  O   UNL     1       0.344  -0.371  11.133  1.00  0.00    -0.550 OA
ENDBRANCH   7   8
ENDBRANCH   6   7
ENDBRANCH   5   6
ENDBRANCH   4   5
ENDBRANCH   3   4
ENDBRANCH   2   3
ENDBRANCH   1   2
BRANCH   1  11
ATOM     11  C   UNL     1      -3.330   4.611  10.064  1.00  0.00     0.000 C 
BRANCH  11  12
ATOM     12  C   UNL     1      -2.365   4.647   8.865  1.00  0.00     0.000 C 
BRANCH  12  13
ATOM     13  C   UNL     1      -2.364   6.002   8.137  1.00  0.00     0.000 C 
BRANCH  13  14
ATOM     14  C   UNL     1      -1.179   6.891   8.552  1.00  0.00     0.000 C 
BRANCH  14  15
ATOM     15  C   UNL     1      -0.060   6.093   9.244  1.00  0.00     0.000 C 
BRANCH  15  16
ATOM     16  C   UNL     1       0.927   6.998  10.002  1.00  0.00     0.006 C 
BRANCH  16  17
ATOM     17  C   UNL     1       2.144   6.232  10.534  1.00  0.00     0.053 C 
BRANCH  17  18
ATOM     18  C   UNL     1       3.020   5.795   9.402  1.00  0.00     0.041 C 
ATOM     19  O   UNL     1       3.326   4.581   9.269  1.00  0.00    -0.550 OA
ATOM     20  O   UNL     1       3.539   6.738   8.523  1.00  0.00    -0.550 OA
ENDBRANCH  17  18
ENDBRANCH  16  17
ENDBRANCH  15  16
ENDBRANCH  14  15
ENDBRANCH  13  14
ENDBRANCH  12  13
ENDBRANCH  11  12
ENDBRANCH   1  11
TORSDOF 15
ENDMDL
