MODEL 1
REMARK VINA RESULT:    -5.441      0.000      0.000
REMARK INTER + INTRA:         -10.528
REMARK INTER:                  -9.259
REMARK INTRA:                  -1.270
REMARK UNBOUND:                -1.270
REMARK SMILES CCCCCCCCCCCCCC(=O)[O-]
REMARK SMILES IDX 8 1 9 2 10 3 11 4 12 5 13 6 14 7 15 8 16 9 7 10 6 11 5 12
REMARK SMILES IDX 4 13 3 14 2 15 1 16
REMARK H PARENT
REMARK Flexibility Score: inf
ROOT
ATOM      1  C   UNL     1      61.839 151.805   3.535  1.00  0.00     0.000 C 
ENDROOT
BRANCH   1   2
ATOM      2  C   UNL     1      60.979 151.762   2.266  1.00  0.00     0.000 C 
BRANCH   2   3
ATOM      3  C   UNL     1      61.225 153.003   1.394  1.00  0.00     0.000 C 
BRANCH   3   4
ATOM      4  C   UNL     1      59.924 153.732   1.019  1.00  0.00     0.000 C 
BRANCH   4   5
ATOM      5  C   UNL     1      58.777 153.440   2.002  1.00  0.00     0.006 C 
BRANCH   5   6
ATOM      6  C   UNL     1      58.596 154.565   3.030  1.00  0.00     0.053 C 
BRANCH   6   7
ATOM      7  C   UNL     1      58.906 154.106   4.422  1.00  0.00     0.041 C 
ATOM      8  O   UNL     1      59.364 154.918   5.268  1.00  0.00    -0.550 OA
ATOM      9  O   UNL     1      58.663 152.790   4.792  1.00  0.00    -0.550 OA
ENDBRANCH   6   7
ENDBRANCH   5   6
ENDBRANCH   4   5
ENDBRANCH   3   4
ENDBRANCH   2   3
ENDBRANCH   1   2
BRANCH   1  10
ATOM     10  C   UNL     1      63.308 151.508   3.215  1.00  0.00     0.000 C 
BRANCH  10  11
ATOM     11  C   UNL     1      64.244 152.306   4.130  1.00  0.00    -0.000 C 
BRANCH  11  12
ATOM     12  C   UNL     1      65.270 151.387   4.806  1.00  0.00    -0.000 C 
BRANCH  12  13
ATOM     13  C   UNL     1      64.995 149.916   4.474  1.00  0.00    -0.000 C 
BRANCH  13  14
ATOM     14  C   UNL     1      64.710 149.109   5.750  1.00  0.00    -0.000 C 
BRANCH  14  15
ATOM     15  C   UNL     1      63.224 149.125   6.138  1.00  0.00    -0.003 C 
ATOM     16  C   UNL     1      62.417 148.034   5.433  1.00  0.00     0.004 C 
ENDBRANCH  14  15
ENDBRANCH  13  14
ENDBRANCH  12  13
ENDBRANCH  11  12
ENDBRANCH  10  11
ENDBRANCH   1  10
TORSDOF 12
ENDMDL
MODEL 2
REMARK VINA RESULT:    -5.269      2.199      6.159
REMARK INTER + INTRA:         -10.236
REMARK INTER:                  -9.037
REMARK INTRA:                  -1.199
REMARK UNBOUND:                -1.270
REMARK SMILES CCCCCCCCCCCCCC(=O)[O-]
REMARK SMILES IDX 8 1 9 2 10 3 11 4 12 5 13 6 14 7 15 8 16 9 7 10 6 11 5 12
REMARK SMILES IDX 4 13 3 14 2 15 1 16
REMARK H PARENT
REMARK Flexibility Score: inf
ROOT
ATOM      1  C   UNL     1      63.162 151.496   3.131  1.00  0.00     0.000 C 
ENDROOT
BRANCH   1   2
ATOM      2  C   UNL     1      64.053 152.332   4.057  1.00  0.00     0.000 C 
BRANCH   2   3
ATOM      3  C   UNL     1      65.063 151.443   4.798  1.00  0.00     0.000 C 
BRANCH   3   4
ATOM      4  C   UNL     1      65.034 149.983   4.318  1.00  0.00     0.000 C 
BRANCH   4   5
ATOM      5  C   UNL     1      64.775 148.988   5.462  1.00  0.00     0.006 C 
BRANCH   5   6
ATOM      6  C   UNL     1      63.480 149.305   6.222  1.00  0.00     0.053 C 
BRANCH   6   7
ATOM      7  C   UNL     1      62.313 148.534   5.683  1.00  0.00     0.041 C 
ATOM      8  O   UNL     1      61.186 149.085   5.577  1.00  0.00    -0.550 OA
ATOM      9  O   UNL     1      62.478 147.219   5.271  1.00  0.00    -0.550 OA
ENDBRANCH   6   7
ENDBRANCH   5   6
ENDBRANCH   4   5
ENDBRANCH   3   4
ENDBRANCH   2   3
ENDBRANCH   1   2
BRANCH   1  10
ATOM     10  C   UNL     1      61.685 151.865   3.307  1.00  0.00     0.000 C 
BRANCH  10  11
ATOM     11  C   UNL     1      61.073 152.334   1.982  1.00  0.00    -0.000 C 
BRANCH  11  12
ATOM     12  C   UNL     1      59.694 152.967   2.205  1.00  0.00    -0.000 C 
BRANCH  12  13
ATOM     13  C   UNL     1      59.349 153.023   3.698  1.00  0.00    -0.000 C 
BRANCH  13  14
ATOM     14  C   UNL     1      58.766 154.393   4.077  1.00  0.00    -0.000 C 
BRANCH  14  15
ATOM     15  C   UNL     1      59.256 154.884   5.447  1.00  0.00    -0.003 C 
ATOM     16  C   UNL     1      60.268 153.933   6.089  1.00  0.00     0.004 C 
ENDBRANCH  14  15
ENDBRANCH  13  14
ENDBRANCH  12  13
ENDBRANCH  11  12
ENDBRANCH  10  11
ENDBRANCH   1  10
TORSDOF 12
ENDMDL
MODEL 3
REMARK VINA RESULT:    -5.263      1.312      2.722
REMARK INTER + INTRA:         -10.226
REMARK INTER:                  -9.199
REMARK INTRA:                  -1.027
REMARK UNBOUND:                -1.270
REMARK SMILES CCCCCCCCCCCCCC(=O)[O-]
REMARK SMILES IDX 8 1 9 2 10 3 11 4 12 5 13 6 14 7 15 8 16 9 7 10 6 11 5 12
REMARK SMILES IDX 4 13 3 14 2 15 1 16
REMARK H PARENT
REMARK Flexibility Score: inf
ROOT
ATOM      1  C   UNL     1      61.015 153.390   0.947  1.00  0.00     0.000 C 
ENDROOT
BRANCH   1   2
ATOM      2  C   UNL     1      59.716 154.120   0.586  1.00  0.00     0.000 C 
BRANCH   2   3
ATOM      3  C   UNL     1      58.657 153.932   1.683  1.00  0.00     0.000 C 
BRANCH   3   4
ATOM      4  C   UNL     1      58.026 155.259   2.133  1.00  0.00     0.000 C 
BRANCH   4   5
ATOM      5  C   UNL     1      58.141 155.485   3.650  1.00  0.00     0.006 C 
BRANCH   5   6
ATOM      6  C   UNL     1      58.780 154.289   4.367  1.00  0.00     0.053 C 
BRANCH   6   7
ATOM      7  C   UNL     1      59.607 154.717   5.541  1.00  0.00     0.041 C 
ATOM      8  O   UNL     1      60.273 153.868   6.189  1.00  0.00    -0.550 OA
ATOM      9  O   UNL     1      59.666 156.057   5.899  1.00  0.00    -0.550 OA
ENDBRANCH   6   7
ENDBRANCH   5   6
ENDBRANCH   4   5
ENDBRANCH   3   4
ENDBRANCH   2   3
ENDBRANCH   1   2
BRANCH   1  10
ATOM     10  C   UNL     1      60.769 152.326   2.022  1.00  0.00     0.000 C 
BRANCH  10  11
ATOM     11  C   UNL     1      62.087 151.868   2.656  1.00  0.00    -0.000 C 
BRANCH  11  12
ATOM     12  C   UNL     1      61.863 151.350   4.082  1.00  0.00    -0.000 C 
BRANCH  12  13
ATOM     13  C   UNL     1      63.176 151.325   4.873  1.00  0.00    -0.000 C 
BRANCH  13  14
ATOM     14  C   UNL     1      64.381 151.179   3.932  1.00  0.00    -0.000 C 
BRANCH  14  15
ATOM     15  C   UNL     1      65.061 149.807   4.053  1.00  0.00    -0.003 C 
ATOM     16  C   UNL     1      64.967 149.223   5.463  1.00  0.00     0.004 C 
ENDBRANCH  14  15
ENDBRANCH  13  14
ENDBRANCH  12  13
ENDBRANCH  11  12
ENDBRANCH  10  11
ENDBRANCH   1  10
TORSDOF 12
ENDMDL
MODEL 4
REMARK VINA RESULT:    -5.235      2.116      3.895
REMARK INTER + INTRA:         -10.176
REMARK INTER:                  -8.619
REMARK INTRA:                  -1.558
REMARK UNBOUND:                -1.270
REMARK SMILES CCCCCCCCCCCCCC(=O)[O-]
REMARK SMILES IDX 8 1 9 2 10 3 11 4 12 5 13 6 14 7 15 8 16 9 7 10 6 11 5 12
REMARK SMILES IDX 4 13 3 14 2 15 1 16
REMARK H PARENT
REMARK Flexibility Score: inf
ROOT
ATOM      1  C   UNL     1      64.997 150.073   4.065  1.00  0.00     0.000 C 
ENDROOT
BRANCH   1   2
ATOM      2  C   UNL     1      64.822 151.546   4.453  1.00  0.00     0.000 C 
BRANCH   2   3
ATOM      3  C   UNL     1      63.845 152.253   3.502  1.00  0.00     0.000 C 
BRANCH   3   4
ATOM      4  C   UNL     1      62.511 151.504   3.357  1.00  0.00     0.000 C 
BRANCH   4   5
ATOM      5  C   UNL     1      61.756 151.881   2.071  1.00  0.00     0.006 C 
BRANCH   5   6
ATOM      6  C   UNL     1      60.436 152.606   2.366  1.00  0.00     0.053 C 
BRANCH   6   7
ATOM      7  C   UNL     1      60.097 153.606   1.302  1.00  0.00     0.041 C 
ATOM      8  O   UNL     1      60.928 153.869   0.394  1.00  0.00    -0.550 OA
ATOM      9  O   UNL     1      58.854 154.223   1.297  1.00  0.00    -0.550 OA
ENDBRANCH   6   7
ENDBRANCH   5   6
ENDBRANCH   4   5
ENDBRANCH   3   4
ENDBRANCH   2   3
ENDBRANCH   1   2
BRANCH   1  10
ATOM     10  C   UNL     1      65.088 149.182   5.309  1.00  0.00     0.000 C 
BRANCH  10  11
ATOM     11  C   UNL     1      63.793 149.245   6.127  1.00  0.00    -0.000 C 
BRANCH  11  12
ATOM     12  C   UNL     1      62.740 148.280   5.567  1.00  0.00    -0.000 C 
BRANCH  12  13
ATOM     13  C   UNL     1      61.326 148.846   5.742  1.00  0.00    -0.000 C 
BRANCH  13  14
ATOM     14  C   UNL     1      61.331 150.052   6.693  1.00  0.00    -0.000 C 
BRANCH  14  15
ATOM     15  C   UNL     1      60.505 151.231   6.155  1.00  0.00    -0.003 C 
ATOM     16  C   UNL     1      60.939 152.574   6.744  1.00  0.00     0.004 C 
ENDBRANCH  14  15
ENDBRANCH  13  14
ENDBRANCH  12  13
ENDBRANCH  11  12
ENDBRANCH  10  11
ENDBRANCH   1  10
TORSDOF 12
ENDMDL
MODEL 5
REMARK VINA RESULT:    -5.201      2.049      3.596
REMARK INTER + INTRA:         -10.119
REMARK INTER:                  -8.681
REMARK INTRA:                  -1.438
REMARK UNBOUND:                -1.270
REMARK SMILES CCCCCCCCCCCCCC(=O)[O-]
REMARK SMILES IDX 8 1 9 2 10 3 11 4 12 5 13 6 14 7 15 8 16 9 7 10 6 11 5 12
REMARK SMILES IDX 4 13 3 14 2 15 1 16
REMARK H PARENT
REMARK Flexibility Score: inf
ROOT
ATOM      1  C   UNL     1      61.719 151.376   6.938  1.00  0.00     0.000 C 
ENDROOT
BRANCH   1   2
ATOM      2  C   UNL     1      60.926 151.501   5.631  1.00  0.00     0.000 C 
BRANCH   2   3
ATOM      3  C   UNL     1      60.261 152.881   5.522  1.00  0.00     0.000 C 
BRANCH   3   4
ATOM      4  C   UNL     1      59.006 152.867   4.635  1.00  0.00     0.000 C 
BRANCH   4   5
ATOM      5  C   UNL     1      59.094 153.864   3.467  1.00  0.00     0.006 C 
BRANCH   5   6
ATOM      6  C   UNL     1      59.153 153.158   2.106  1.00  0.00     0.053 C 
BRANCH   6   7
ATOM      7  C   UNL     1      60.557 153.050   1.593  1.00  0.00     0.041 C 
ATOM      8  O   UNL     1      61.333 152.171   2.053  1.00  0.00    -0.550 OA
ATOM      9  O   UNL     1      60.999 153.900   0.588  1.00  0.00    -0.550 OA
ENDBRANCH   6   7
ENDBRANCH   5   6
ENDBRANCH   4   5
ENDBRANCH   3   4
ENDBRANCH   2   3
ENDBRANCH   1   2
BRANCH   1  10
ATOM     10  C   UNL     1      62.440 150.026   7.018  1.00  0.00     0.000 C 
BRANCH  10  11
ATOM     11  C   UNL     1      62.765 149.491   5.618  1.00  0.00    -0.000 C 
BRANCH  11  12
ATOM     12  C   UNL     1      64.198 148.948   5.555  1.00  0.00    -0.000 C 
BRANCH  12  13
ATOM     13  C   UNL     1      65.092 149.848   4.694  1.00  0.00    -0.000 C 
BRANCH  13  14
ATOM     14  C   UNL     1      64.250 150.855   3.895  1.00  0.00    -0.000 C 
BRANCH  14  15
ATOM     15  C   UNL     1      64.536 152.311   4.294  1.00  0.00    -0.003 C 
ATOM     16  C   UNL     1      65.403 152.420   5.549  1.00  0.00     0.004 C 
ENDBRANCH  14  15
ENDBRANCH  13  14
ENDBRANCH  12  13
ENDBRANCH  11  12
ENDBRANCH  10  11
ENDBRANCH   1  10
TORSDOF 12
ENDMDL
MODEL 6
REMARK VINA RESULT:    -5.112      1.939      5.485
REMARK INTER + INTRA:          -9.968
REMARK INTER:                  -8.689
REMARK INTRA:                  -1.279
REMARK UNBOUND:                -1.270
REMARK SMILES CCCCCCCCCCCCCC(=O)[O-]
REMARK SMILES IDX 8 1 9 2 10 3 11 4 12 5 13 6 14 7 15 8 16 9 7 10 6 11 5 12
REMARK SMILES IDX 4 13 3 14 2 15 1 16
REMARK H PARENT
REMARK Flexibility Score: inf
ROOT
ATOM      1  C   UNL     1      65.076 150.114   4.195  1.00  0.00     0.000 C 
ENDROOT
BRANCH   1   2
ATOM      2  C   UNL     1      65.111 149.216   5.438  1.00  0.00     0.000 C 
BRANCH   2   3
ATOM      3  C   UNL     1      63.734 149.163   6.117  1.00  0.00     0.000 C 
BRANCH   3   4
ATOM      4  C   UNL     1      62.745 148.243   5.383  1.00  0.00     0.000 C 
BRANCH   4   5
ATOM      5  C   UNL     1      61.307 148.374   5.916  1.00  0.00     0.006 C 
BRANCH   5   6
ATOM      6  C   UNL     1      61.016 149.782   6.453  1.00  0.00     0.053 C 
BRANCH   6   7
ATOM      7  C   UNL     1      59.722 149.835   7.207  1.00  0.00     0.041 C 
ATOM      8  O   UNL     1      58.851 148.943   7.033  1.00  0.00    -0.550 OA
ATOM      9  O   UNL     1      59.491 150.853   8.123  1.00  0.00    -0.550 OA
ENDBRANCH   6   7
ENDBRANCH   5   6
ENDBRANCH   4   5
ENDBRANCH   3   4
ENDBRANCH   2   3
ENDBRANCH   1   2
BRANCH   1  10
ATOM     10  C   UNL     1      65.249 151.588   4.577  1.00  0.00     0.000 C 
BRANCH  10  11
ATOM     11  C   UNL     1      64.059 152.425   4.093  1.00  0.00    -0.000 C 
BRANCH  11  12
ATOM     12  C   UNL     1      63.174 151.622   3.131  1.00  0.00    -0.000 C 
BRANCH  12  13
ATOM     13  C   UNL     1      61.694 151.748   3.509  1.00  0.00    -0.000 C 
BRANCH  13  14
ATOM     14  C   UNL     1      60.808 151.787   2.255  1.00  0.00    -0.000 C 
BRANCH  14  15
ATOM     15  C   UNL     1      61.004 153.070   1.433  1.00  0.00    -0.003 C 
ATOM     16  C   UNL     1      59.685 153.779   1.121  1.00  0.00     0.004 C 
ENDBRANCH  14  15
ENDBRANCH  13  14
ENDBRANCH  12  13
ENDBRANCH  11  12
ENDBRANCH  10  11
ENDBRANCH   1  10
TORSDOF 12
ENDMDL
MODEL 7
REMARK VINA RESULT:    -5.111      1.830      3.317
REMARK INTER + INTRA:          -9.966
REMARK INTER:                  -8.843
REMARK INTRA:                  -1.123
REMARK UNBOUND:                -1.270
REMARK SMILES CCCCCCCCCCCCCC(=O)[O-]
REMARK SMILES IDX 8 1 9 2 10 3 11 4 12 5 13 6 14 7 15 8 16 9 7 10 6 11 5 12
REMARK SMILES IDX 4 13 3 14 2 15 1 16
REMARK H PARENT
REMARK Flexibility Score: inf
ROOT
ATOM      1  C   UNL     1      65.026 151.264   5.024  1.00  0.00     0.000 C 
ENDROOT
BRANCH   1   2
ATOM      2  C   UNL     1      64.189 152.308   4.274  1.00  0.00     0.000 C 
BRANCH   2   3
ATOM      3  C   UNL     1      63.346 151.648   3.173  1.00  0.00     0.000 C 
BRANCH   3   4
ATOM      4  C   UNL     1      61.843 151.650   3.494  1.00  0.00     0.000 C 
BRANCH   4   5
ATOM      5  C   UNL     1      60.977 152.026   2.279  1.00  0.00     0.006 C 
BRANCH   5   6
ATOM      6  C   UNL     1      59.705 152.782   2.686  1.00  0.00     0.053 C 
BRANCH   6   7
ATOM      7  C   UNL     1      59.276 153.760   1.636  1.00  0.00     0.041 C 
ATOM      8  O   UNL     1      59.823 153.751   0.501  1.00  0.00    -0.550 OA
ATOM      9  O   UNL     1      58.254 154.662   1.899  1.00  0.00    -0.550 OA
ENDBRANCH   6   7
ENDBRANCH   5   6
ENDBRANCH   4   5
ENDBRANCH   3   4
ENDBRANCH   2   3
ENDBRANCH   1   2
BRANCH   1  10
ATOM     10  C   UNL     1      65.000 149.914   4.299  1.00  0.00     0.000 C 
BRANCH  10  11
ATOM     11  C   UNL     1      64.246 148.862   5.121  1.00  0.00    -0.000 C 
BRANCH  11  12
ATOM     12  C   UNL     1      63.855 149.414   6.497  1.00  0.00    -0.000 C 
BRANCH  12  13
ATOM     13  C   UNL     1      62.334 149.567   6.618  1.00  0.00    -0.000 C 
BRANCH  13  14
ATOM     14  C   UNL     1      61.607 148.566   5.707  1.00  0.00    -0.000 C 
BRANCH  14  15
ATOM     15  C   UNL     1      60.828 147.505   6.499  1.00  0.00    -0.003 C 
ATOM     16  C   UNL     1      59.846 148.118   7.500  1.00  0.00     0.004 C 
ENDBRANCH  14  15
ENDBRANCH  13  14
ENDBRANCH  12  13
ENDBRANCH  11  12
ENDBRANCH  10  11
ENDBRANCH   1  10
TORSDOF 12
ENDMDL
MODEL 8
REMARK VINA RESULT:    -5.080      1.955      6.197
REMARK INTER + INTRA:          -9.914
REMARK INTER:                  -8.806
REMARK INTRA:                  -1.108
REMARK UNBOUND:                -1.270
REMARK SMILES CCCCCCCCCCCCCC(=O)[O-]
REMARK SMILES IDX 8 1 9 2 10 3 11 4 12 5 13 6 14 7 15 8 16 9 7 10 6 11 5 12
REMARK SMILES IDX 4 13 3 14 2 15 1 16
REMARK H PARENT
REMARK Flexibility Score: inf
ROOT
ATOM      1  C   UNL     1      63.877 151.656   3.476  1.00  0.00     0.000 C 
ENDROOT
BRANCH   1   2
ATOM      2  C   UNL     1      65.007 151.099   4.350  1.00  0.00     0.000 C 
BRANCH   2   3
ATOM      3  C   UNL     1      65.029 149.563   4.305  1.00  0.00     0.000 C 
BRANCH   3   4
ATOM      4  C   UNL     1      64.697 148.925   5.663  1.00  0.00     0.000 C 
BRANCH   4   5
ATOM      5  C   UNL     1      63.198 148.619   5.824  1.00  0.00     0.006 C 
BRANCH   5   6
ATOM      6  C   UNL     1      62.555 149.450   6.942  1.00  0.00     0.053 C 
BRANCH   6   7
ATOM      7  C   UNL     1      61.071 149.248   7.005  1.00  0.00     0.041 C 
ATOM      8  O   UNL     1      60.536 148.293   6.384  1.00  0.00    -0.550 OA
ATOM      9  O   UNL     1      60.284 150.096   7.774  1.00  0.00    -0.550 OA
ENDBRANCH   6   7
ENDBRANCH   5   6
ENDBRANCH   4   5
ENDBRANCH   3   4
ENDBRANCH   2   3
ENDBRANCH   1   2
BRANCH   1  10
ATOM     10  C   UNL     1      62.608 151.896   4.303  1.00  0.00     0.000 C 
BRANCH  10  11
ATOM     11  C   UNL     1      61.351 151.573   3.488  1.00  0.00    -0.000 C 
BRANCH  11  12
ATOM     12  C   UNL     1      61.551 151.915   2.006  1.00  0.00    -0.000 C 
BRANCH  12  13
ATOM     13  C   UNL     1      60.657 153.088   1.586  1.00  0.00    -0.000 C 
BRANCH  13  14
ATOM     14  C   UNL     1      59.543 153.326   2.615  1.00  0.00    -0.000 C 
BRANCH  14  15
ATOM     15  C   UNL     1      58.331 154.056   2.015  1.00  0.00    -0.003 C 
ATOM     16  C   UNL     1      58.686 154.859   0.763  1.00  0.00     0.004 C 
ENDBRANCH  14  15
ENDBRANCH  13  14
ENDBRANCH  12  13
ENDBRANCH  11  12
ENDBRANCH  10  11
ENDBRANCH   1  10
TORSDOF 12
ENDMDL
MODEL 9
REMARK VINA RESULT:    -5.056      2.591      6.006
REMARK INTER + INTRA:          -9.872
REMARK INTER:                  -8.575
REMARK INTRA:                  -1.297
REMARK UNBOUND:                -1.270
REMARK SMILES CCCCCCCCCCCCCC(=O)[O-]
REMARK SMILES IDX 8 1 9 2 10 3 11 4 12 5 13 6 14 7 15 8 16 9 7 10 6 11 5 12
REMARK SMILES IDX 4 13 3 14 2 15 1 16
REMARK H PARENT
REMARK Flexibility Score: inf
ROOT
ATOM      1  C   UNL     1      61.252 151.487   2.367  1.00  0.00     0.000 C 
ENDROOT
BRANCH   1   2
ATOM      2  C   UNL     1      62.101 151.555   3.642  1.00  0.00     0.000 C 
BRANCH   2   3
ATOM      3  C   UNL     1      63.529 152.025   3.327  1.00  0.00     0.000 C 
BRANCH   3   4
ATOM      4  C   UNL     1      64.551 151.564   4.379  1.00  0.00     0.000 C 
BRANCH   4   5
ATOM      5  C   UNL     1      65.032 150.121   4.145  1.00  0.00     0.006 C 
BRANCH   5   6
ATOM      6  C   UNL     1      65.028 149.293   5.437  1.00  0.00     0.053 C 
BRANCH   6   7
ATOM      7  C   UNL     1      63.637 148.952   5.877  1.00  0.00     0.041 C 
ATOM      8  O   UNL     1      63.028 147.982   5.355  1.00  0.00    -0.550 OA
ATOM      9  O   UNL     1      63.025 149.686   6.885  1.00  0.00    -0.550 OA
ENDBRANCH   6   7
ENDBRANCH   5   6
ENDBRANCH   4   5
ENDBRANCH   3   4
ENDBRANCH   2   3
ENDBRANCH   1   2
BRANCH   1  10
ATOM     10  C   UNL     1      60.673 152.862   2.016  1.00  0.00     0.000 C 
BRANCH  10  11
ATOM     11  C   UNL     1      59.183 152.939   2.372  1.00  0.00    -0.000 C 
BRANCH  11  12
ATOM     12  C   UNL     1      58.928 154.000   3.450  1.00  0.00    -0.000 C 
BRANCH  12  13
ATOM     13  C   UNL     1      59.018 153.391   4.855  1.00  0.00    -0.000 C 
BRANCH  13  14
ATOM     14  C   UNL     1      59.912 154.244   5.768  1.00  0.00    -0.000 C 
BRANCH  14  15
ATOM     15  C   UNL     1      60.949 153.404   6.529  1.00  0.00    -0.003 C 
ATOM     16  C   UNL     1      62.203 154.201   6.891  1.00  0.00     0.004 C 
ENDBRANCH  14  15
ENDBRANCH  13  14
ENDBRANCH  12  13
ENDBRANCH  11  12
ENDBRANCH  10  11
ENDBRANCH   1  10
TORSDOF 12
ENDMDL
