MODEL 1
REMARK VINA RESULT:    -3.780      0.000      0.000
REMARK INTER + INTRA:          -8.321
REMARK INTER:                  -6.431
REMARK INTRA:                  -1.890
REMARK UNBOUND:                -1.890
REMARK SMILES CCCCCCCCCCCCCC(=O)[O-]
REMARK SMILES IDX 8 1 9 2 10 3 11 4 12 5 13 6 14 7 15 8 16 9 7 10 6 11 5 12
REMARK SMILES IDX 4 13 3 14 2 15 1 16
REMARK H PARENT
REMARK Flexibility Score: inf
ROOT
ATOM      1  C   UNL     1      -2.960  27.725  59.394  1.00  0.00     0.000 C 
ENDROOT
BRANCH   1   2
ATOM      2  C   UNL     1      -3.388  26.293  59.028  1.00  0.00     0.000 C 
BRANCH   2   3
ATOM      3  C   UNL     1      -2.718  25.788  57.740  1.00  0.00     0.000 C 
BRANCH   3   4
ATOM      4  C   UNL     1      -3.688  25.008  56.835  1.00  0.00     0.000 C 
BRANCH   4   5
ATOM      5  C   UNL     1      -5.079  24.839  57.468  1.00  0.00     0.006 C 
BRANCH   5   6
ATOM      6  C   UNL     1      -6.213  25.271  56.530  1.00  0.00     0.053 C 
BRANCH   6   7
ATOM      7  C   UNL     1      -7.534  24.822  57.070  1.00  0.00     0.041 C 
ATOM      8  O   UNL     1      -8.095  23.796  56.602  1.00  0.00    -0.550 OA
ATOM      9  O   UNL     1      -8.170  25.565  58.057  1.00  0.00    -0.550 OA
ENDBRANCH   6   7
ENDBRANCH   5   6
ENDBRANCH   4   5
ENDBRANCH   3   4
ENDBRANCH   2   3
ENDBRANCH   1   2
BRANCH   1  10
ATOM     10  C   UNL     1      -1.660  28.151  58.691  1.00  0.00     0.000 C 
BRANCH  10  11
ATOM     11  C   UNL     1      -1.631  29.650  58.354  1.00  0.00    -0.000 C 
BRANCH  11  12
ATOM     12  C   UNL     1      -3.027  30.269  58.489  1.00  0.00    -0.000 C 
BRANCH  12  13
ATOM     13  C   UNL     1      -3.651  30.525  57.109  1.00  0.00    -0.000 C 
BRANCH  13  14
ATOM     14  C   UNL     1      -4.858  29.614  56.818  1.00  0.00    -0.000 C 
BRANCH  14  15
ATOM     15  C   UNL     1      -4.568  28.444  55.860  1.00  0.00    -0.003 C 
ATOM     16  C   UNL     1      -3.234  28.585  55.129  1.00  0.00     0.004 C 
ENDBRANCH  14  15
ENDBRANCH  13  14
ENDBRANCH  12  13
ENDBRANCH  11  12
ENDBRANCH  10  11
ENDBRANCH   1  10
TORSDOF 12
ENDMDL
MODEL 2
REMARK VINA RESULT:    -3.657      1.248      2.815
REMARK INTER + INTRA:          -8.113
REMARK INTER:                  -6.020
REMARK INTRA:                  -2.093
REMARK UNBOUND:                -1.890
REMARK SMILES CCCCCCCCCCCCCC(=O)[O-]
REMARK SMILES IDX 8 1 9 2 10 3 11 4 12 5 13 6 14 7 15 8 16 9 7 10 6 11 5 12
REMARK SMILES IDX 4 13 3 14 2 15 1 16
REMARK H PARENT
REMARK Flexibility Score: inf
ROOT
ATOM      1  C   UNL     1      -1.831  27.089  55.735  1.00  0.00     0.000 C 
ENDROOT
BRANCH   1   2
ATOM      2  C   UNL     1      -1.519  26.391  57.071  1.00  0.00     0.000 C 
BRANCH   2   3
ATOM      3  C   UNL     1      -2.725  25.615  57.626  1.00  0.00     0.000 C 
BRANCH   3   4
ATOM      4  C   UNL     1      -3.212  26.168  58.977  1.00  0.00     0.000 C 
BRANCH   4   5
ATOM      5  C   UNL     1      -4.743  26.134  59.111  1.00  0.00     0.006 C 
BRANCH   5   6
ATOM      6  C   UNL     1      -5.419  25.333  57.991  1.00  0.00     0.053 C 
BRANCH   6   7
ATOM      7  C   UNL     1      -6.576  26.097  57.428  1.00  0.00     0.041 C 
ATOM      8  O   UNL     1      -7.012  25.830  56.278  1.00  0.00    -0.550 OA
ATOM      9  O   UNL     1      -7.141  27.137  58.156  1.00  0.00    -0.550 OA
ENDBRANCH   6   7
ENDBRANCH   5   6
ENDBRANCH   4   5
ENDBRANCH   3   4
ENDBRANCH   2   3
ENDBRANCH   1   2
BRANCH   1  10
ATOM     10  C   UNL     1      -3.341  27.230  55.480  1.00  0.00     0.000 C 
BRANCH  10  11
ATOM     11  C   UNL     1      -3.703  28.544  54.771  1.00  0.00    -0.000 C 
BRANCH  11  12
ATOM     12  C   UNL     1      -4.710  29.353  55.597  1.00  0.00    -0.000 C 
BRANCH  12  13
ATOM     13  C   UNL     1      -4.407  29.241  57.099  1.00  0.00    -0.000 C 
BRANCH  13  14
ATOM     14  C   UNL     1      -3.427  30.320  57.595  1.00  0.00    -0.000 C 
BRANCH  14  15
ATOM     15  C   UNL     1      -2.172  29.777  58.301  1.00  0.00    -0.003 C 
ATOM     16  C   UNL     1      -0.880  30.427  57.808  1.00  0.00     0.004 C 
ENDBRANCH  14  15
ENDBRANCH  13  14
ENDBRANCH  12  13
ENDBRANCH  11  12
ENDBRANCH  10  11
ENDBRANCH   1  10
TORSDOF 12
ENDMDL
MODEL 3
REMARK VINA RESULT:    -3.645      3.016      5.283
REMARK INTER + INTRA:          -8.093
REMARK INTER:                  -6.681
REMARK INTRA:                  -1.412
REMARK UNBOUND:                -1.890
REMARK SMILES CCCCCCCCCCCCCC(=O)[O-]
REMARK SMILES IDX 8 1 9 2 10 3 11 4 12 5 13 6 14 7 15 8 16 9 7 10 6 11 5 12
REMARK SMILES IDX 4 13 3 14 2 15 1 16
REMARK H PARENT
REMARK Flexibility Score: inf
ROOT
ATOM      1  C   UNL     1      -2.538  27.588  55.848  1.00  0.00     0.000 C 
ENDROOT
BRANCH   1   2
ATOM      2  C   UNL     1      -3.942  27.089  55.464  1.00  0.00     0.000 C 
BRANCH   2   3
ATOM      3  C   UNL     1      -5.058  28.011  55.981  1.00  0.00     0.000 C 
BRANCH   3   4
ATOM      4  C   UNL     1      -4.556  29.435  56.282  1.00  0.00     0.000 C 
BRANCH   4   5
ATOM      5  C   UNL     1      -5.675  30.486  56.195  1.00  0.00     0.006 C 
BRANCH   5   6
ATOM      6  C   UNL     1      -6.144  30.734  54.756  1.00  0.00     0.053 C 
BRANCH   6   7
ATOM      7  C   UNL     1      -7.351  31.618  54.747  1.00  0.00     0.041 C 
ATOM      8  O   UNL     1      -8.226  31.506  55.645  1.00  0.00    -0.550 OA
ATOM      9  O   UNL     1      -7.534  32.534  53.718  1.00  0.00    -0.550 OA
ENDBRANCH   6   7
ENDBRANCH   5   6
ENDBRANCH   4   5
ENDBRANCH   3   4
ENDBRANCH   2   3
ENDBRANCH   1   2
BRANCH   1  10
ATOM     10  C   UNL     1      -1.802  26.616  56.786  1.00  0.00     0.000 C 
BRANCH  10  11
ATOM     11  C   UNL     1      -2.762  25.713  57.576  1.00  0.00    -0.000 C 
BRANCH  11  12
ATOM     12  C   UNL     1      -3.007  26.271  58.984  1.00  0.00    -0.000 C 
BRANCH  12  13
ATOM     13  C   UNL     1      -4.501  26.239  59.337  1.00  0.00    -0.000 C 
BRANCH  13  14
ATOM     14  C   UNL     1      -5.311  25.294  58.430  1.00  0.00    -0.000 C 
BRANCH  14  15
ATOM     15  C   UNL     1      -6.800  25.655  58.285  1.00  0.00    -0.003 C 
ATOM     16  C   UNL     1      -7.487  24.915  57.140  1.00  0.00     0.004 C 
ENDBRANCH  14  15
ENDBRANCH  13  14
ENDBRANCH  12  13
ENDBRANCH  11  12
ENDBRANCH  10  11
ENDBRANCH   1  10
TORSDOF 12
ENDMDL
MODEL 4
REMARK VINA RESULT:    -3.588      3.082      5.654
REMARK INTER + INTRA:          -7.996
REMARK INTER:                  -7.159
REMARK INTRA:                  -0.837
REMARK UNBOUND:                -1.890
REMARK SMILES CCCCCCCCCCCCCC(=O)[O-]
REMARK SMILES IDX 8 1 9 2 10 3 11 4 12 5 13 6 14 7 15 8 16 9 7 10 6 11 5 12
REMARK SMILES IDX 4 13 3 14 2 15 1 16
REMARK H PARENT
REMARK Flexibility Score: inf
ROOT
ATOM      1  C   UNL     1      -2.892  27.177  57.355  1.00  0.00     0.000 C 
ENDROOT
BRANCH   1   2
ATOM      2  C   UNL     1      -2.920  28.697  57.114  1.00  0.00     0.000 C 
BRANCH   2   3
ATOM      3  C   UNL     1      -4.347  29.238  56.926  1.00  0.00     0.000 C 
BRANCH   3   4
ATOM      4  C   UNL     1      -4.407  30.775  56.973  1.00  0.00     0.000 C 
BRANCH   4   5
ATOM      5  C   UNL     1      -4.796  31.392  55.620  1.00  0.00     0.006 C 
BRANCH   5   6
ATOM      6  C   UNL     1      -6.005  30.701  54.978  1.00  0.00     0.053 C 
BRANCH   6   7
ATOM      7  C   UNL     1      -7.213  31.580  55.059  1.00  0.00     0.041 C 
ATOM      8  O   UNL     1      -7.558  32.276  54.068  1.00  0.00    -0.550 OA
ATOM      9  O   UNL     1      -7.929  31.668  56.247  1.00  0.00    -0.550 OA
ENDBRANCH   6   7
ENDBRANCH   5   6
ENDBRANCH   4   5
ENDBRANCH   3   4
ENDBRANCH   2   3
ENDBRANCH   1   2
BRANCH   1  10
ATOM     10  C   UNL     1      -2.983  26.814  58.846  1.00  0.00     0.000 C 
BRANCH  10  11
ATOM     11  C   UNL     1      -4.174  25.895  59.162  1.00  0.00    -0.000 C 
BRANCH  11  12
ATOM     12  C   UNL     1      -4.757  25.292  57.878  1.00  0.00    -0.000 C 
BRANCH  12  13
ATOM     13  C   UNL     1      -5.935  24.359  58.194  1.00  0.00    -0.000 C 
BRANCH  13  14
ATOM     14  C   UNL     1      -7.305  25.010  57.926  1.00  0.00    -0.000 C 
BRANCH  14  15
ATOM     15  C   UNL     1      -7.565  26.311  58.707  1.00  0.00    -0.003 C 
ATOM     16  C   UNL     1      -7.899  26.070  60.178  1.00  0.00     0.004 C 
ENDBRANCH  14  15
ENDBRANCH  13  14
ENDBRANCH  12  13
ENDBRANCH  11  12
ENDBRANCH  10  11
ENDBRANCH   1  10
TORSDOF 12
ENDMDL
MODEL 5
REMARK VINA RESULT:    -3.578      2.845      4.876
REMARK INTER + INTRA:          -7.978
REMARK INTER:                  -6.064
REMARK INTRA:                  -1.914
REMARK UNBOUND:                -1.890
REMARK SMILES CCCCCCCCCCCCCC(=O)[O-]
REMARK SMILES IDX 8 1 9 2 10 3 11 4 12 5 13 6 14 7 15 8 16 9 7 10 6 11 5 12
REMARK SMILES IDX 4 13 3 14 2 15 1 16
REMARK H PARENT
REMARK Flexibility Score: inf
ROOT
ATOM      1  C   UNL     1      -1.830  27.499  55.991  1.00  0.00     0.000 C 
ENDROOT
BRANCH   1   2
ATOM      2  C   UNL     1      -2.674  28.780  55.865  1.00  0.00     0.000 C 
BRANCH   2   3
ATOM      3  C   UNL     1      -3.964  28.559  55.058  1.00  0.00     0.000 C 
BRANCH   3   4
ATOM      4  C   UNL     1      -5.231  28.890  55.866  1.00  0.00     0.000 C 
BRANCH   4   5
ATOM      5  C   UNL     1      -5.094  30.192  56.672  1.00  0.00     0.006 C 
BRANCH   5   6
ATOM      6  C   UNL     1      -5.562  31.425  55.890  1.00  0.00     0.053 C 
BRANCH   6   7
ATOM      7  C   UNL     1      -7.054  31.442  55.787  1.00  0.00     0.041 C 
ATOM      8  O   UNL     1      -7.761  31.556  56.823  1.00  0.00    -0.550 OA
ATOM      9  O   UNL     1      -7.667  31.282  54.549  1.00  0.00    -0.550 OA
ENDBRANCH   6   7
ENDBRANCH   5   6
ENDBRANCH   4   5
ENDBRANCH   3   4
ENDBRANCH   2   3
ENDBRANCH   1   2
BRANCH   1  10
ATOM     10  C   UNL     1      -1.475  27.167  57.450  1.00  0.00     0.000 C 
BRANCH  10  11
ATOM     11  C   UNL     1      -2.548  27.639  58.444  1.00  0.00    -0.000 C 
BRANCH  11  12
ATOM     12  C   UNL     1      -3.255  26.445  59.096  1.00  0.00    -0.000 C 
BRANCH  12  13
ATOM     13  C   UNL     1      -4.714  26.346  58.627  1.00  0.00    -0.000 C 
BRANCH  13  14
ATOM     14  C   UNL     1      -5.031  25.009  57.931  1.00  0.00    -0.000 C 
BRANCH  14  15
ATOM     15  C   UNL     1      -4.185  24.716  56.679  1.00  0.00    -0.003 C 
ATOM     16  C   UNL     1      -4.942  24.960  55.375  1.00  0.00     0.004 C 
ENDBRANCH  14  15
ENDBRANCH  13  14
ENDBRANCH  12  13
ENDBRANCH  11  12
ENDBRANCH  10  11
ENDBRANCH   1  10
TORSDOF 12
ENDMDL
MODEL 6
REMARK VINA RESULT:    -3.562      3.354      6.197
REMARK INTER + INTRA:          -7.950
REMARK INTER:                  -6.817
REMARK INTRA:                  -1.133
REMARK UNBOUND:                -1.890
REMARK SMILES CCCCCCCCCCCCCC(=O)[O-]
REMARK SMILES IDX 8 1 9 2 10 3 11 4 12 5 13 6 14 7 15 8 16 9 7 10 6 11 5 12
REMARK SMILES IDX 4 13 3 14 2 15 1 16
REMARK H PARENT
REMARK Flexibility Score: inf
ROOT
ATOM      1  C   UNL     1      -5.061  26.777  55.343  1.00  0.00     0.000 C 
ENDROOT
BRANCH   1   2
ATOM      2  C   UNL     1      -4.277  27.992  55.872  1.00  0.00     0.000 C 
BRANCH   2   3
ATOM      3  C   UNL     1      -5.191  29.057  56.498  1.00  0.00     0.000 C 
BRANCH   3   4
ATOM      4  C   UNL     1      -4.491  30.418  56.657  1.00  0.00     0.000 C 
BRANCH   4   5
ATOM      5  C   UNL     1      -5.165  31.527  55.833  1.00  0.00     0.006 C 
BRANCH   5   6
ATOM      6  C   UNL     1      -6.120  30.978  54.766  1.00  0.00     0.053 C 
BRANCH   6   7
ATOM      7  C   UNL     1      -7.396  31.758  54.757  1.00  0.00     0.041 C 
ATOM      8  O   UNL     1      -8.251  31.587  55.665  1.00  0.00    -0.550 OA
ATOM      9  O   UNL     1      -7.663  32.642  53.718  1.00  0.00    -0.550 OA
ENDBRANCH   6   7
ENDBRANCH   5   6
ENDBRANCH   4   5
ENDBRANCH   3   4
ENDBRANCH   2   3
ENDBRANCH   1   2
BRANCH   1  10
ATOM     10  C   UNL     1      -4.213  25.495  55.313  1.00  0.00     0.000 C 
BRANCH  10  11
ATOM     11  C   UNL     1      -5.066  24.218  55.382  1.00  0.00    -0.000 C 
BRANCH  11  12
ATOM     12  C   UNL     1      -4.869  23.499  56.722  1.00  0.00    -0.000 C 
BRANCH  12  13
ATOM     13  C   UNL     1      -5.722  24.146  57.824  1.00  0.00    -0.000 C 
BRANCH  13  14
ATOM     14  C   UNL     1      -7.179  24.390  57.389  1.00  0.00    -0.000 C 
BRANCH  14  15
ATOM     15  C   UNL     1      -7.953  25.397  58.260  1.00  0.00    -0.003 C 
ATOM     16  C   UNL     1      -7.155  26.663  58.563  1.00  0.00     0.004 C 
ENDBRANCH  14  15
ENDBRANCH  13  14
ENDBRANCH  12  13
ENDBRANCH  11  12
ENDBRANCH  10  11
ENDBRANCH   1  10
TORSDOF 12
ENDMDL
MODEL 7
REMARK VINA RESULT:    -3.529      3.126      5.360
REMARK INTER + INTRA:          -7.895
REMARK INTER:                  -6.233
REMARK INTRA:                  -1.662
REMARK UNBOUND:                -1.890
REMARK SMILES CCCCCCCCCCCCCC(=O)[O-]
REMARK SMILES IDX 8 1 9 2 10 3 11 4 12 5 13 6 14 7 15 8 16 9 7 10 6 11 5 12
REMARK SMILES IDX 4 13 3 14 2 15 1 16
REMARK H PARENT
REMARK Flexibility Score: inf
ROOT
ATOM      1  C   UNL     1      -3.010  26.831  54.555  1.00  0.00     0.000 C 
ENDROOT
BRANCH   1   2
ATOM      2  C   UNL     1      -4.302  27.631  54.800  1.00  0.00     0.000 C 
BRANCH   2   3
ATOM      3  C   UNL     1      -4.031  29.019  55.403  1.00  0.00     0.000 C 
BRANCH   3   4
ATOM      4  C   UNL     1      -5.189  29.517  56.286  1.00  0.00     0.000 C 
BRANCH   4   5
ATOM      5  C   UNL     1      -5.185  31.044  56.459  1.00  0.00     0.006 C 
BRANCH   5   6
ATOM      6  C   UNL     1      -5.610  31.786  55.185  1.00  0.00     0.053 C 
BRANCH   6   7
ATOM      7  C   UNL     1      -7.101  31.869  55.102  1.00  0.00     0.041 C 
ATOM      8  O   UNL     1      -7.660  32.170  54.015  1.00  0.00    -0.550 OA
ATOM      9  O   UNL     1      -7.873  31.661  56.239  1.00  0.00    -0.550 OA
ENDBRANCH   6   7
ENDBRANCH   5   6
ENDBRANCH   4   5
ENDBRANCH   3   4
ENDBRANCH   2   3
ENDBRANCH   1   2
BRANCH   1  10
ATOM     10  C   UNL     1      -2.926  25.566  55.426  1.00  0.00     0.000 C 
BRANCH  10  11
ATOM     11  C   UNL     1      -2.007  25.744  56.644  1.00  0.00    -0.000 C 
BRANCH  11  12
ATOM     12  C   UNL     1      -2.826  25.887  57.933  1.00  0.00    -0.000 C 
BRANCH  12  13
ATOM     13  C   UNL     1      -2.704  27.306  58.508  1.00  0.00    -0.000 C 
BRANCH  13  14
ATOM     14  C   UNL     1      -1.467  28.060  57.987  1.00  0.00    -0.000 C 
BRANCH  14  15
ATOM     15  C   UNL     1      -1.540  29.592  58.122  1.00  0.00    -0.003 C 
ATOM     16  C   UNL     1      -2.646  30.058  59.066  1.00  0.00     0.004 C 
ENDBRANCH  14  15
ENDBRANCH  13  14
ENDBRANCH  12  13
ENDBRANCH  11  12
ENDBRANCH  10  11
ENDBRANCH   1  10
TORSDOF 12
ENDMDL
MODEL 8
REMARK VINA RESULT:    -3.491      2.184      3.987
REMARK INTER + INTRA:          -7.830
REMARK INTER:                  -6.026
REMARK INTRA:                  -1.804
REMARK UNBOUND:                -1.890
REMARK SMILES CCCCCCCCCCCCCC(=O)[O-]
REMARK SMILES IDX 8 1 9 2 10 3 11 4 12 5 13 6 14 7 15 8 16 9 7 10 6 11 5 12
REMARK SMILES IDX 4 13 3 14 2 15 1 16
REMARK H PARENT
REMARK Flexibility Score: inf
ROOT
ATOM      1  C   UNL     1      -2.586  23.500  54.579  1.00  0.00     0.000 C 
ENDROOT
BRANCH   1   2
ATOM      2  C   UNL     1      -3.271  22.791  55.762  1.00  0.00     0.000 C 
BRANCH   2   3
ATOM      3  C   UNL     1      -4.402  23.630  56.377  1.00  0.00     0.000 C 
BRANCH   3   4
ATOM      4  C   UNL     1      -5.227  24.381  55.316  1.00  0.00     0.000 C 
BRANCH   4   5
ATOM      5  C   UNL     1      -6.377  25.195  55.930  1.00  0.00     0.006 C 
BRANCH   5   6
ATOM      6  C   UNL     1      -6.590  24.893  57.418  1.00  0.00     0.053 C 
BRANCH   6   7
ATOM      7  C   UNL     1      -7.515  25.898  58.027  1.00  0.00     0.041 C 
ATOM      8  O   UNL     1      -8.658  25.549  58.424  1.00  0.00    -0.550 OA
ATOM      9  O   UNL     1      -7.133  27.232  58.113  1.00  0.00    -0.550 OA
ENDBRANCH   6   7
ENDBRANCH   5   6
ENDBRANCH   4   5
ENDBRANCH   3   4
ENDBRANCH   2   3
ENDBRANCH   1   2
BRANCH   1  10
ATOM     10  C   UNL     1      -1.075  23.683  54.796  1.00  0.00     0.000 C 
BRANCH  10  11
ATOM     11  C   UNL     1      -0.751  24.524  56.041  1.00  0.00    -0.000 C 
BRANCH  11  12
ATOM     12  C   UNL     1      -0.978  26.016  55.768  1.00  0.00    -0.000 C 
BRANCH  12  13
ATOM     13  C   UNL     1      -1.524  26.727  57.016  1.00  0.00    -0.000 C 
BRANCH  13  14
ATOM     14  C   UNL     1      -3.028  27.042  56.916  1.00  0.00    -0.000 C 
BRANCH  14  15
ATOM     15  C   UNL     1      -3.752  27.177  58.268  1.00  0.00    -0.003 C 
ATOM     16  C   UNL     1      -3.533  25.976  59.186  1.00  0.00     0.004 C 
ENDBRANCH  14  15
ENDBRANCH  13  14
ENDBRANCH  12  13
ENDBRANCH  11  12
ENDBRANCH  10  11
ENDBRANCH   1  10
TORSDOF 12
ENDMDL
MODEL 9
REMARK VINA RESULT:    -3.475      1.282      2.767
REMARK INTER + INTRA:          -7.802
REMARK INTER:                  -5.730
REMARK INTRA:                  -2.072
REMARK UNBOUND:                -1.890
REMARK SMILES CCCCCCCCCCCCCC(=O)[O-]
REMARK SMILES IDX 8 1 9 2 10 3 11 4 12 5 13 6 14 7 15 8 16 9 7 10 6 11 5 12
REMARK SMILES IDX 4 13 3 14 2 15 1 16
REMARK H PARENT
REMARK Flexibility Score: inf
ROOT
ATOM      1  C   UNL     1      -2.331  28.850  57.879  1.00  0.00     0.000 C 
ENDROOT
BRANCH   1   2
ATOM      2  C   UNL     1      -2.507  28.004  59.153  1.00  0.00     0.000 C 
BRANCH   2   3
ATOM      3  C   UNL     1      -2.963  26.568  58.849  1.00  0.00     0.000 C 
BRANCH   3   4
ATOM      4  C   UNL     1      -4.385  26.278  59.362  1.00  0.00     0.000 C 
BRANCH   4   5
ATOM      5  C   UNL     1      -5.457  26.492  58.281  1.00  0.00     0.006 C 
BRANCH   5   6
ATOM      6  C   UNL     1      -5.744  25.222  57.470  1.00  0.00     0.053 C 
BRANCH   6   7
ATOM      7  C   UNL     1      -7.206  24.910  57.489  1.00  0.00     0.041 C 
ATOM      8  O   UNL     1      -7.640  23.869  56.930  1.00  0.00    -0.550 OA
ATOM      9  O   UNL     1      -8.098  25.795  58.084  1.00  0.00    -0.550 OA
ENDBRANCH   6   7
ENDBRANCH   5   6
ENDBRANCH   4   5
ENDBRANCH   3   4
ENDBRANCH   2   3
ENDBRANCH   1   2
BRANCH   1  10
ATOM     10  C   UNL     1      -3.547  29.748  57.595  1.00  0.00     0.000 C 
BRANCH  10  11
ATOM     11  C   UNL     1      -4.224  29.422  56.255  1.00  0.00    -0.000 C 
BRANCH  11  12
ATOM     12  C   UNL     1      -3.407  28.395  55.462  1.00  0.00    -0.000 C 
BRANCH  12  13
ATOM     13  C   UNL     1      -4.322  27.346  54.812  1.00  0.00    -0.000 C 
BRANCH  13  14
ATOM     14  C   UNL     1      -3.573  26.060  54.416  1.00  0.00    -0.000 C 
BRANCH  14  15
ATOM     15  C   UNL     1      -2.366  25.715  55.307  1.00  0.00    -0.003 C 
ATOM     16  C   UNL     1      -2.471  24.332  55.948  1.00  0.00     0.004 C 
ENDBRANCH  14  15
ENDBRANCH  13  14
ENDBRANCH  12  13
ENDBRANCH  11  12
ENDBRANCH  10  11
ENDBRANCH   1  10
TORSDOF 12
ENDMDL
