MODEL 1
REMARK VINA RESULT:    -4.539      0.000      0.000
REMARK INTER + INTRA:          -4.804
REMARK INTER:                  -4.804
REMARK INTRA:                   0.000
REMARK UNBOUND:                 0.000
REMARK SMILES O=c1ccc2cc(O)c(O)cc2o1
REMARK SMILES IDX 4 1 3 2 2 3 1 4 13 5 12 6 11 7 9 8 7 9 6 10 5 11 8 12 10 14
REMARK H PARENT 8 13 10 15
REMARK Flexibility Score: inf
ROOT
ATOM      1  C   UNL     1      22.876  51.962  53.772  1.00  0.00     0.019 A 
ATOM      2  C   UNL     1      23.662  51.000  54.404  1.00  0.00     0.094 A 
ATOM      3  C   UNL     1      23.157  50.348  55.535  1.00  0.00     0.336 A 
ATOM      4  O   UNL     1      23.850  49.475  56.120  1.00  0.00    -0.246 OA
ATOM      5  O   UNL     1      21.946  50.645  55.998  1.00  0.00    -0.423 OA
ATOM      6  C   UNL     1      21.164  51.557  55.425  1.00  0.00     0.142 A 
ATOM      7  C   UNL     1      19.899  51.827  55.956  1.00  0.00     0.098 A 
ATOM      8  C   UNL     1      19.070  52.787  55.357  1.00  0.00     0.161 A 
ATOM      9  C   UNL     1      19.513  53.482  54.216  1.00  0.00     0.158 A 
ATOM     10  C   UNL     1      20.779  53.213  53.682  1.00  0.00     0.062 A 
ATOM     11  C   UNL     1      21.607  52.254  54.280  1.00  0.00     0.022 A 
ENDROOT
BRANCH   9  12
ATOM     12  O   UNL     1      18.709  54.441  53.601  1.00  0.00    -0.504 OA
ATOM     13  H   UNL     1      17.701  54.438  53.694  1.00  0.00     0.293 HD
ENDBRANCH   9  12
BRANCH   8  14
ATOM     14  O   UNL     1      17.810  53.053  55.891  1.00  0.00    -0.504 OA
ATOM     15  H   UNL     1      17.070  53.458  55.329  1.00  0.00     0.293 HD
ENDBRANCH   8  14
TORSDOF 2
ENDMDL
MODEL 2
REMARK VINA RESULT:    -4.489      2.888      4.991
REMARK INTER + INTRA:          -4.752
REMARK INTER:                  -4.752
REMARK INTRA:                   0.000
REMARK UNBOUND:                 0.000
REMARK SMILES O=c1ccc2cc(O)c(O)cc2o1
REMARK SMILES IDX 4 1 3 2 2 3 1 4 13 5 12 6 11 7 9 8 7 9 6 10 5 11 8 12 10 14
REMARK H PARENT 8 13 10 15
REMARK Flexibility Score: inf
ROOT
ATOM      1  C   UNL     1      23.856  51.227  50.683  1.00  0.00     0.019 A 
ATOM      2  C   UNL     1      23.104  51.773  49.644  1.00  0.00     0.094 A 
ATOM      3  C   UNL     1      21.790  52.183  49.899  1.00  0.00     0.336 A 
ATOM      4  O   UNL     1      21.095  52.679  48.975  1.00  0.00    -0.246 OA
ATOM      5  O   UNL     1      21.269  52.051  51.116  1.00  0.00    -0.423 OA
ATOM      6  C   UNL     1      21.952  51.534  52.135  1.00  0.00     0.142 A 
ATOM      7  C   UNL     1      21.352  51.421  53.393  1.00  0.00     0.098 A 
ATOM      8  C   UNL     1      22.066  50.876  54.471  1.00  0.00     0.161 A 
ATOM      9  C   UNL     1      23.392  50.444  54.287  1.00  0.00     0.158 A 
ATOM     10  C   UNL     1      23.996  50.556  53.028  1.00  0.00     0.062 A 
ATOM     11  C   UNL     1      23.283  51.100  51.951  1.00  0.00     0.022 A 
ENDROOT
BRANCH   9  12
ATOM     12  O   UNL     1      24.125  49.899  55.341  1.00  0.00    -0.504 OA
ATOM     13  H   UNL     1      23.723  49.228  55.985  1.00  0.00     0.293 HD
ENDBRANCH   9  12
BRANCH   8  14
ATOM     14  O   UNL     1      21.464  50.765  55.723  1.00  0.00    -0.504 OA
ATOM     15  H   UNL     1      20.473  50.573  55.821  1.00  0.00     0.293 HD
ENDBRANCH   8  14
TORSDOF 2
ENDMDL
MODEL 3
REMARK VINA RESULT:    -4.405      3.069      4.221
REMARK INTER + INTRA:          -4.662
REMARK INTER:                  -4.662
REMARK INTRA:                   0.000
REMARK UNBOUND:                 0.000
REMARK SMILES O=c1ccc2cc(O)c(O)cc2o1
REMARK SMILES IDX 4 1 3 2 2 3 1 4 13 5 12 6 11 7 9 8 7 9 6 10 5 11 8 12 10 14
REMARK H PARENT 8 13 10 15
REMARK Flexibility Score: inf
ROOT
ATOM      1  C   UNL     1      21.306  51.474  54.331  1.00  0.00     0.019 A 
ATOM      2  C   UNL     1      22.112  50.990  55.361  1.00  0.00     0.094 A 
ATOM      3  C   UNL     1      23.381  50.489  55.051  1.00  0.00     0.336 A 
ATOM      4  O   UNL     1      24.125  50.050  55.966  1.00  0.00    -0.246 OA
ATOM      5  O   UNL     1      23.810  50.476  53.791  1.00  0.00    -0.423 OA
ATOM      6  C   UNL     1      23.072  50.927  52.779  1.00  0.00     0.142 A 
ATOM      7  C   UNL     1      23.576  50.888  51.475  1.00  0.00     0.098 A 
ATOM      8  C   UNL     1      22.803  51.362  50.404  1.00  0.00     0.161 A 
ATOM      9  C   UNL     1      21.517  51.879  50.642  1.00  0.00     0.158 A 
ATOM     10  C   UNL     1      21.010  51.920  51.947  1.00  0.00     0.062 A 
ATOM     11  C   UNL     1      21.781  51.447  53.017  1.00  0.00     0.022 A 
ENDROOT
BRANCH   9  12
ATOM     12  O   UNL     1      20.728  52.356  49.596  1.00  0.00    -0.504 OA
ATOM     13  H   UNL     1      20.058  53.105  49.725  1.00  0.00     0.293 HD
ENDBRANCH   9  12
BRANCH   8  14
ATOM     14  O   UNL     1      23.309  51.320  49.106  1.00  0.00    -0.504 OA
ATOM     15  H   UNL     1      23.652  52.154  48.642  1.00  0.00     0.293 HD
ENDBRANCH   8  14
TORSDOF 2
ENDMDL
MODEL 4
REMARK VINA RESULT:    -4.268      3.395      3.948
REMARK INTER + INTRA:          -4.517
REMARK INTER:                  -4.517
REMARK INTRA:                   0.000
REMARK UNBOUND:                 0.000
REMARK SMILES O=c1ccc2cc(O)c(O)cc2o1
REMARK SMILES IDX 4 1 3 2 2 3 1 4 13 5 12 6 11 7 9 8 7 9 6 10 5 11 8 12 10 14
REMARK H PARENT 8 13 10 15
REMARK Flexibility Score: inf
ROOT
ATOM      1  C   UNL     1      22.266  53.491  49.935  1.00  0.00     0.019 A 
ATOM      2  C   UNL     1      22.819  52.379  49.301  1.00  0.00     0.094 A 
ATOM      3  C   UNL     1      22.777  51.139  49.948  1.00  0.00     0.336 A 
ATOM      4  O   UNL     1      23.269  50.122  49.392  1.00  0.00    -0.246 OA
ATOM      5  O   UNL     1      22.219  51.025  51.150  1.00  0.00    -0.423 OA
ATOM      6  C   UNL     1      21.681  52.061  51.790  1.00  0.00     0.142 A 
ATOM      7  C   UNL     1      21.108  51.882  53.053  1.00  0.00     0.098 A 
ATOM      8  C   UNL     1      20.540  52.970  53.733  1.00  0.00     0.161 A 
ATOM      9  C   UNL     1      20.546  54.246  53.142  1.00  0.00     0.158 A 
ATOM     10  C   UNL     1      21.119  54.429  51.878  1.00  0.00     0.062 A 
ATOM     11  C   UNL     1      21.686  53.343  51.198  1.00  0.00     0.022 A 
ENDROOT
BRANCH   9  12
ATOM     12  O   UNL     1      19.988  55.345  53.796  1.00  0.00    -0.504 OA
ATOM     13  H   UNL     1      19.315  55.953  53.346  1.00  0.00     0.293 HD
ENDBRANCH   9  12
BRANCH   8  14
ATOM     14  O   UNL     1      19.970  52.786  54.992  1.00  0.00    -0.504 OA
ATOM     15  H   UNL     1      18.965  52.753  55.120  1.00  0.00     0.293 HD
ENDBRANCH   8  14
TORSDOF 2
ENDMDL
MODEL 5
REMARK VINA RESULT:    -4.170     14.864     16.241
REMARK INTER + INTRA:          -4.414
REMARK INTER:                  -4.414
REMARK INTRA:                   0.000
REMARK UNBOUND:                 0.000
REMARK SMILES O=c1ccc2cc(O)c(O)cc2o1
REMARK SMILES IDX 4 1 3 2 2 3 1 4 13 5 12 6 11 7 9 8 7 9 6 10 5 11 8 12 10 14
REMARK H PARENT 8 13 10 15
REMARK Flexibility Score: inf
ROOT
ATOM      1  C   UNL     1      18.953  53.701  37.231  1.00  0.00     0.019 A 
ATOM      2  C   UNL     1      19.519  52.845  36.287  1.00  0.00     0.094 A 
ATOM      3  C   UNL     1      20.416  51.861  36.716  1.00  0.00     0.336 A 
ATOM      4  O   UNL     1      20.937  51.077  35.881  1.00  0.00    -0.246 OA
ATOM      5  O   UNL     1      20.724  51.747  38.006  1.00  0.00    -0.423 OA
ATOM      6  C   UNL     1      20.207  52.544  38.938  1.00  0.00     0.142 A 
ATOM      7  C   UNL     1      20.567  52.377  40.279  1.00  0.00     0.098 A 
ATOM      8  C   UNL     1      20.027  53.214  41.266  1.00  0.00     0.161 A 
ATOM      9  C   UNL     1      19.117  54.225  40.907  1.00  0.00     0.158 A 
ATOM     10  C   UNL     1      18.754  54.395  39.566  1.00  0.00     0.062 A 
ATOM     11  C   UNL     1      19.294  53.559  38.579  1.00  0.00     0.022 A 
ENDROOT
BRANCH   9  12
ATOM     12  O   UNL     1      18.564  55.071  41.869  1.00  0.00    -0.504 OA
ATOM     13  H   UNL     1      18.481  54.799  42.841  1.00  0.00     0.293 HD
ENDBRANCH   9  12
BRANCH   8  14
ATOM     14  O   UNL     1      20.389  53.044  42.602  1.00  0.00    -0.504 OA
ATOM     15  H   UNL     1      20.784  53.803  43.146  1.00  0.00     0.293 HD
ENDBRANCH   8  14
TORSDOF 2
ENDMDL
MODEL 6
REMARK VINA RESULT:    -4.148      3.438      5.498
REMARK INTER + INTRA:          -4.390
REMARK INTER:                  -4.390
REMARK INTRA:                   0.000
REMARK UNBOUND:                 0.000
REMARK SMILES O=c1ccc2cc(O)c(O)cc2o1
REMARK SMILES IDX 4 1 3 2 2 3 1 4 13 5 12 6 11 7 9 8 7 9 6 10 5 11 8 12 10 14
REMARK H PARENT 8 13 10 15
REMARK Flexibility Score: inf
ROOT
ATOM      1  C   UNL     1      21.507  52.264  53.804  1.00  0.00     0.019 A 
ATOM      2  C   UNL     1      20.993  53.402  54.425  1.00  0.00     0.094 A 
ATOM      3  C   UNL     1      20.661  54.512  53.641  1.00  0.00     0.336 A 
ATOM      4  O   UNL     1      20.195  55.548  54.183  1.00  0.00    -0.246 OA
ATOM      5  O   UNL     1      20.834  54.480  52.322  1.00  0.00    -0.423 OA
ATOM      6  C   UNL     1      21.321  53.415  51.690  1.00  0.00     0.142 A 
ATOM      7  C   UNL     1      21.481  53.439  50.301  1.00  0.00     0.098 A 
ATOM      8  C   UNL     1      21.995  52.320  49.629  1.00  0.00     0.161 A 
ATOM      9  C   UNL     1      22.350  51.168  50.354  1.00  0.00     0.158 A 
ATOM     10  C   UNL     1      22.191  51.141  51.745  1.00  0.00     0.062 A 
ATOM     11  C   UNL     1      21.678  52.259  52.417  1.00  0.00     0.022 A 
ENDROOT
BRANCH   9  12
ATOM     12  O   UNL     1      22.863  50.042  49.710  1.00  0.00    -0.504 OA
ATOM     13  H   UNL     1      23.125  50.054  48.732  1.00  0.00     0.293 HD
ENDBRANCH   9  12
BRANCH   8  14
ATOM     14  O   UNL     1      22.152  52.349  48.244  1.00  0.00    -0.504 OA
ATOM     15  H   UNL     1      21.756  53.092  47.679  1.00  0.00     0.293 HD
ENDBRANCH   8  14
TORSDOF 2
ENDMDL
MODEL 7
REMARK VINA RESULT:    -4.044     14.854     16.462
REMARK INTER + INTRA:          -4.280
REMARK INTER:                  -4.280
REMARK INTRA:                   0.000
REMARK UNBOUND:                 0.000
REMARK SMILES O=c1ccc2cc(O)c(O)cc2o1
REMARK SMILES IDX 4 1 3 2 2 3 1 4 13 5 12 6 11 7 9 8 7 9 6 10 5 11 8 12 10 14
REMARK H PARENT 8 13 10 15
REMARK Flexibility Score: inf
ROOT
ATOM      1  C   UNL     1      21.601  53.232  41.045  1.00  0.00     0.019 A 
ATOM      2  C   UNL     1      20.465  53.891  41.513  1.00  0.00     0.094 A 
ATOM      3  C   UNL     1      19.331  53.951  40.695  1.00  0.00     0.336 A 
ATOM      4  O   UNL     1      18.295  54.540  41.099  1.00  0.00    -0.246 OA
ATOM      5  O   UNL     1      19.340  53.387  39.490  1.00  0.00    -0.423 OA
ATOM      6  C   UNL     1      20.403  52.749  39.006  1.00  0.00     0.142 A 
ATOM      7  C   UNL     1      20.354  52.175  37.732  1.00  0.00     0.098 A 
ATOM      8  C   UNL     1      21.471  51.502  37.216  1.00  0.00     0.161 A 
ATOM      9  C   UNL     1      22.646  51.402  37.982  1.00  0.00     0.158 A 
ATOM     10  C   UNL     1      22.698  51.976  39.259  1.00  0.00     0.062 A 
ATOM     11  C   UNL     1      21.583  52.648  39.775  1.00  0.00     0.022 A 
ENDROOT
BRANCH   9  12
ATOM     12  O   UNL     1      23.771  50.738  37.493  1.00  0.00    -0.504 OA
ATOM     13  H   UNL     1      24.342  50.144  38.081  1.00  0.00     0.293 HD
ENDBRANCH   9  12
BRANCH   8  14
ATOM     14  O   UNL     1      21.417  50.932  35.944  1.00  0.00    -0.504 OA
ATOM     15  H   UNL     1      20.585  50.460  35.609  1.00  0.00     0.293 HD
ENDBRANCH   8  14
TORSDOF 2
ENDMDL
MODEL 8
REMARK VINA RESULT:    -4.016      3.458      4.763
REMARK INTER + INTRA:          -4.251
REMARK INTER:                  -4.251
REMARK INTRA:                   0.000
REMARK UNBOUND:                 0.000
REMARK SMILES O=c1ccc2cc(O)c(O)cc2o1
REMARK SMILES IDX 4 1 3 2 2 3 1 4 13 5 12 6 11 7 9 8 7 9 6 10 5 11 8 12 10 14
REMARK H PARENT 8 13 10 15
REMARK Flexibility Score: inf
ROOT
ATOM      1  C   UNL     1      21.127  54.809  52.611  1.00  0.00     0.019 A 
ATOM      2  C   UNL     1      21.040  54.726  54.001  1.00  0.00     0.094 A 
ATOM      3  C   UNL     1      21.241  53.487  54.620  1.00  0.00     0.336 A 
ATOM      4  O   UNL     1      21.169  53.391  55.872  1.00  0.00    -0.246 OA
ATOM      5  O   UNL     1      21.510  52.406  53.891  1.00  0.00    -0.423 OA
ATOM      6  C   UNL     1      21.600  52.442  52.564  1.00  0.00     0.142 A 
ATOM      7  C   UNL     1      21.886  51.274  51.850  1.00  0.00     0.098 A 
ATOM      8  C   UNL     1      21.982  51.305  50.451  1.00  0.00     0.161 A 
ATOM      9  C   UNL     1      21.792  52.517  49.762  1.00  0.00     0.158 A 
ATOM     10  C   UNL     1      21.507  53.689  50.473  1.00  0.00     0.062 A 
ATOM     11  C   UNL     1      21.410  53.658  51.871  1.00  0.00     0.022 A 
ENDROOT
BRANCH   9  12
ATOM     12  O   UNL     1      21.882  52.576  48.371  1.00  0.00    -0.504 OA
ATOM     13  H   UNL     1      21.902  51.741  47.798  1.00  0.00     0.293 HD
ENDBRANCH   9  12
BRANCH   8  14
ATOM     14  O   UNL     1      22.266  50.138  49.744  1.00  0.00    -0.504 OA
ATOM     15  H   UNL     1      22.956  49.472  50.073  1.00  0.00     0.293 HD
ENDBRANCH   8  14
TORSDOF 2
ENDMDL
