MODEL 1
REMARK VINA RESULT:    -1.818      0.000      0.000
REMARK INTER + INTRA:          -1.818
REMARK INTER:                  -1.818
REMARK INTRA:                   0.000
REMARK UNBOUND:                 0.000
REMARK SMILES CC(=O)[O-]
REMARK SMILES IDX 1 1 2 2 3 3 4 4
REMARK H PARENT
REMARK Flexibility Score: inf
ROOT
ATOM      1  C   UNL     1      14.327   3.048  30.274  1.00  0.00     0.063 C 
ATOM      2  C   UNL     1      13.132   2.159  30.212  1.00  0.00     0.038 C 
ATOM      3  O   UNL     1      12.020   2.563  30.644  1.00  0.00    -0.550 OA
ATOM      4  O   UNL     1      13.227   0.904  29.626  1.00  0.00    -0.550 OA
ENDROOT
TORSDOF 0
ENDMDL
MODEL 2
REMARK VINA RESULT:    -1.696      0.142      1.622
REMARK INTER + INTRA:          -1.696
REMARK INTER:                  -1.696
REMARK INTRA:                   0.000
REMARK UNBOUND:                 0.000
REMARK SMILES CC(=O)[O-]
REMARK SMILES IDX 1 1 2 2 3 3 4 4
REMARK H PARENT
REMARK Flexibility Score: inf
ROOT
ATOM      1  C   UNL     1      14.352   3.144  30.232  1.00  0.00     0.063 C 
ATOM      2  C   UNL     1      13.206   2.191  30.212  1.00  0.00     0.038 C 
ATOM      3  O   UNL     1      13.361   1.024  29.764  1.00  0.00    -0.550 OA
ATOM      4  O   UNL     1      11.978   2.569  30.739  1.00  0.00    -0.550 OA
ENDROOT
TORSDOF 0
ENDMDL
MODEL 3
REMARK VINA RESULT:    -1.615      1.705      2.314
REMARK INTER + INTRA:          -1.615
REMARK INTER:                  -1.615
REMARK INTRA:                   0.000
REMARK UNBOUND:                 0.000
REMARK SMILES CC(=O)[O-]
REMARK SMILES IDX 1 1 2 2 3 3 4 4
REMARK H PARENT
REMARK Flexibility Score: inf
ROOT
ATOM      1  C   UNL     1      12.396   2.551  30.293  1.00  0.00     0.063 C 
ATOM      2  C   UNL     1      13.880   2.409  30.297  1.00  0.00     0.038 C 
ATOM      3  O   UNL     1      14.406   1.266  30.356  1.00  0.00    -0.550 OA
ATOM      4  O   UNL     1      14.688   3.533  30.181  1.00  0.00    -0.550 OA
ENDROOT
TORSDOF 0
ENDMDL
MODEL 4
REMARK VINA RESULT:    -1.604      9.169      9.781
REMARK INTER + INTRA:          -1.604
REMARK INTER:                  -1.604
REMARK INTRA:                   0.000
REMARK UNBOUND:                 0.000
REMARK SMILES CC(=O)[O-]
REMARK SMILES IDX 1 1 2 2 3 3 4 4
REMARK H PARENT
REMARK Flexibility Score: inf
ROOT
ATOM      1  C   UNL     1      12.158  11.432  29.988  1.00  0.00     0.063 C 
ATOM      2  C   UNL     1      10.801  11.628  30.571  1.00  0.00     0.038 C 
ATOM      3  O   UNL     1      10.185  12.712  30.391  1.00  0.00    -0.550 OA
ATOM      4  O   UNL     1      10.187  10.596  31.268  1.00  0.00    -0.550 OA
ENDROOT
TORSDOF 0
ENDMDL
MODEL 5
REMARK VINA RESULT:    -1.480     20.117     20.328
REMARK INTER + INTRA:          -1.480
REMARK INTER:                  -1.480
REMARK INTRA:                   0.000
REMARK UNBOUND:                 0.000
REMARK SMILES CC(=O)[O-]
REMARK SMILES IDX 1 1 2 2 3 3 4 4
REMARK H PARENT
REMARK Flexibility Score: inf
ROOT
ATOM      1  C   UNL     1      -4.075  -2.362  41.439  1.00  0.00     0.063 C 
ATOM      2  C   UNL     1      -4.068  -2.016  39.990  1.00  0.00     0.038 C 
ATOM      3  O   UNL     1      -4.124  -0.811  39.627  1.00  0.00    -0.550 OA
ATOM      4  O   UNL     1      -3.944  -3.017  39.035  1.00  0.00    -0.550 OA
ENDROOT
TORSDOF 0
ENDMDL
MODEL 6
REMARK VINA RESULT:    -1.381      9.430      9.856
REMARK INTER + INTRA:          -1.381
REMARK INTER:                  -1.381
REMARK INTRA:                   0.000
REMARK UNBOUND:                 0.000
REMARK SMILES CC(=O)[O-]
REMARK SMILES IDX 1 1 2 2 3 3 4 4
REMARK H PARENT
REMARK Flexibility Score: inf
ROOT
ATOM      1  C   UNL     1      10.526  11.086  31.017  1.00  0.00     0.063 C 
ATOM      2  C   UNL     1      11.377  11.723  29.972  1.00  0.00     0.038 C 
ATOM      3  O   UNL     1      10.895  12.608  29.217  1.00  0.00    -0.550 OA
ATOM      4  O   UNL     1      12.719  11.382  29.863  1.00  0.00    -0.550 OA
ENDROOT
TORSDOF 0
ENDMDL
MODEL 7
REMARK VINA RESULT:    -0.352     14.528     15.066
REMARK INTER + INTRA:          -0.352
REMARK INTER:                  -0.352
REMARK INTRA:                   0.000
REMARK UNBOUND:                 0.000
REMARK SMILES CC(=O)[O-]
REMARK SMILES IDX 1 1 2 2 3 3 4 4
REMARK H PARENT
REMARK Flexibility Score: inf
ROOT
ATOM      1  C   UNL     1       3.513  12.275  25.768  1.00  0.00     0.063 C 
ATOM      2  C   UNL     1       2.374  11.903  26.655  1.00  0.00     0.038 C 
ATOM      3  O   UNL     1       2.556  11.114  27.620  1.00  0.00    -0.550 OA
ATOM      4  O   UNL     1       1.122  12.468  26.455  1.00  0.00    -0.550 OA
ENDROOT
TORSDOF 0
ENDMDL
MODEL 8
REMARK VINA RESULT:    -0.255     14.695     15.003
REMARK INTER + INTRA:          -0.255
REMARK INTER:                  -0.255
REMARK INTRA:                   0.000
REMARK UNBOUND:                 0.000
REMARK SMILES CC(=O)[O-]
REMARK SMILES IDX 1 1 2 2 3 3 4 4
REMARK H PARENT
REMARK Flexibility Score: inf
ROOT
ATOM      1  C   UNL     1       2.304  11.751  27.404  1.00  0.00     0.063 C 
ATOM      2  C   UNL     1       2.814  12.039  26.033  1.00  0.00     0.038 C 
ATOM      3  O   UNL     1       2.066  11.878  25.033  1.00  0.00    -0.550 OA
ATOM      4  O   UNL     1       4.098  12.540  25.859  1.00  0.00    -0.550 OA
ENDROOT
TORSDOF 0
ENDMDL
MODEL 9
REMARK VINA RESULT:     0.367     14.181     14.442
REMARK INTER + INTRA:           0.367
REMARK INTER:                   0.367
REMARK INTRA:                   0.000
REMARK UNBOUND:                 0.000
REMARK SMILES CC(=O)[O-]
REMARK SMILES IDX 1 1 2 2 3 3 4 4
REMARK H PARENT
REMARK Flexibility Score: inf
ROOT
ATOM      1  C   UNL     1       9.646  14.127  38.892  1.00  0.00     0.063 C 
ATOM      2  C   UNL     1       9.460  12.698  39.276  1.00  0.00     0.038 C 
ATOM      3  O   UNL     1       8.317  12.172  39.220  1.00  0.00    -0.550 OA
ATOM      4  O   UNL     1      10.555  11.928  39.643  1.00  0.00    -0.550 OA
ENDROOT
TORSDOF 0
ENDMDL
