MODEL 1
REMARK VINA RESULT:    -3.493      0.000      0.000
REMARK INTER + INTRA:          -6.563
REMARK INTER:                  -5.535
REMARK INTRA:                  -1.028
REMARK UNBOUND:                -1.028
REMARK SMILES CCCCCCCCCCCC(=O)[O-]
REMARK SMILES IDX 7 1 8 2 9 3 10 4 11 5 12 6 13 7 14 8 6 9 5 10 4 11 3 12 2 13
REMARK SMILES IDX 1 14
REMARK H PARENT
REMARK Flexibility Score: inf
ROOT
ATOM      1  C   UNL     1      60.387  32.365  59.595  1.00  0.00     0.000 C 
ENDROOT
BRANCH   1   2
ATOM      2  C   UNL     1      60.713  30.953  60.103  1.00  0.00     0.000 C 
BRANCH   2   3
ATOM      3  C   UNL     1      61.349  30.957  61.502  1.00  0.00     0.000 C 
BRANCH   3   4
ATOM      4  C   UNL     1      62.563  30.022  61.604  1.00  0.00     0.006 C 
BRANCH   4   5
ATOM      5  C   UNL     1      63.866  30.786  61.351  1.00  0.00     0.053 C 
BRANCH   5   6
ATOM      6  C   UNL     1      64.522  30.303  60.097  1.00  0.00     0.041 C 
ATOM      7  O   UNL     1      65.594  29.644  60.156  1.00  0.00    -0.550 OA
ATOM      8  O   UNL     1      63.978  30.621  58.859  1.00  0.00    -0.550 OA
ENDBRANCH   5   6
ENDBRANCH   4   5
ENDBRANCH   3   4
ENDBRANCH   2   3
ENDBRANCH   1   2
BRANCH   1   9
ATOM      9  C   UNL     1      61.637  33.257  59.614  1.00  0.00     0.000 C 
BRANCH   9  10
ATOM     10  C   UNL     1      61.371  34.655  60.202  1.00  0.00    -0.000 C 
BRANCH  10  11
ATOM     11  C   UNL     1      62.571  35.303  60.918  1.00  0.00    -0.000 C 
BRANCH  11  12
ATOM     12  C   UNL     1      63.829  34.419  60.896  1.00  0.00    -0.000 C 
BRANCH  12  13
ATOM     13  C   UNL     1      65.028  35.084  61.592  1.00  0.00    -0.003 C 
ATOM     14  C   UNL     1      64.790  36.562  61.898  1.00  0.00     0.004 C 
ENDBRANCH  12  13
ENDBRANCH  11  12
ENDBRANCH  10  11
ENDBRANCH   9  10
ENDBRANCH   1   9
TORSDOF 10
ENDMDL
MODEL 2
REMARK VINA RESULT:    -3.465      2.064      3.166
REMARK INTER + INTRA:          -6.519
REMARK INTER:                  -5.250
REMARK INTRA:                  -1.269
REMARK UNBOUND:                -1.028
REMARK SMILES CCCCCCCCCCCC(=O)[O-]
REMARK SMILES IDX 7 1 8 2 9 3 10 4 11 5 12 6 13 7 14 8 6 9 5 10 4 11 3 12 2 13
REMARK SMILES IDX 1 14
REMARK H PARENT
REMARK Flexibility Score: inf
ROOT
ATOM      1  C   UNL     1      64.598  31.535  59.141  1.00  0.00     0.000 C 
ENDROOT
BRANCH   1   2
ATOM      2  C   UNL     1      64.226  30.285  59.952  1.00  0.00     0.000 C 
BRANCH   2   3
ATOM      3  C   UNL     1      63.680  30.623  61.348  1.00  0.00     0.000 C 
BRANCH   3   4
ATOM      4  C   UNL     1      62.383  29.867  61.676  1.00  0.00     0.006 C 
BRANCH   4   5
ATOM      5  C   UNL     1      61.197  30.831  61.771  1.00  0.00     0.053 C 
BRANCH   5   6
ATOM      6  C   UNL     1      60.197  30.539  60.698  1.00  0.00     0.041 C 
ATOM      7  O   UNL     1      60.163  31.242  59.653  1.00  0.00    -0.550 OA
ATOM      8  O   UNL     1      59.268  29.521  60.872  1.00  0.00    -0.550 OA
ENDBRANCH   5   6
ENDBRANCH   4   5
ENDBRANCH   3   4
ENDBRANCH   2   3
ENDBRANCH   1   2
BRANCH   1   9
ATOM      9  C   UNL     1      63.358  32.143  58.471  1.00  0.00     0.000 C 
BRANCH   9  10
ATOM     10  C   UNL     1      63.178  33.641  58.781  1.00  0.00    -0.000 C 
BRANCH  10  11
ATOM     11  C   UNL     1      62.430  33.952  60.091  1.00  0.00    -0.000 C 
BRANCH  11  12
ATOM     12  C   UNL     1      63.135  35.020  60.943  1.00  0.00    -0.000 C 
BRANCH  12  13
ATOM     13  C   UNL     1      64.545  34.588  61.379  1.00  0.00    -0.003 C 
ATOM     14  C   UNL     1      65.530  35.754  61.437  1.00  0.00     0.004 C 
ENDBRANCH  12  13
ENDBRANCH  11  12
ENDBRANCH  10  11
ENDBRANCH   9  10
ENDBRANCH   1   9
TORSDOF 10
ENDMDL
MODEL 3
REMARK VINA RESULT:    -3.457      1.912      3.054
REMARK INTER + INTRA:          -6.506
REMARK INTER:                  -5.154
REMARK INTRA:                  -1.352
REMARK UNBOUND:                -1.028
REMARK SMILES CCCCCCCCCCCC(=O)[O-]
REMARK SMILES IDX 7 1 8 2 9 3 10 4 11 5 12 6 13 7 14 8 6 9 5 10 4 11 3 12 2 13
REMARK SMILES IDX 1 14
REMARK H PARENT
REMARK Flexibility Score: inf
ROOT
ATOM      1  C   UNL     1      63.418  32.950  59.468  1.00  0.00     0.000 C 
ENDROOT
BRANCH   1   2
ATOM      2  C   UNL     1      62.091  32.178  59.511  1.00  0.00     0.000 C 
BRANCH   2   3
ATOM      3  C   UNL     1      61.399  32.263  60.880  1.00  0.00     0.000 C 
BRANCH   3   4
ATOM      4  C   UNL     1      60.953  30.889  61.404  1.00  0.00     0.006 C 
BRANCH   4   5
ATOM      5  C   UNL     1      62.163  30.010  61.735  1.00  0.00     0.053 C 
BRANCH   5   6
ATOM      6  C   UNL     1      62.055  28.687  61.046  1.00  0.00     0.041 C 
ATOM      7  O   UNL     1      61.844  28.634  59.806  1.00  0.00    -0.550 OA
ATOM      8  O   UNL     1      62.136  27.512  61.782  1.00  0.00    -0.550 OA
ENDBRANCH   5   6
ENDBRANCH   4   5
ENDBRANCH   3   4
ENDBRANCH   2   3
ENDBRANCH   1   2
BRANCH   1   9
ATOM      9  C   UNL     1      64.014  33.098  60.875  1.00  0.00     0.000 C 
BRANCH   9  10
ATOM     10  C   UNL     1      64.491  34.529  61.181  1.00  0.00    -0.000 C 
BRANCH  10  11
ATOM     11  C   UNL     1      63.782  35.639  60.384  1.00  0.00    -0.000 C 
BRANCH  11  12
ATOM     12  C   UNL     1      62.659  36.325  61.181  1.00  0.00    -0.000 C 
BRANCH  12  13
ATOM     13  C   UNL     1      61.259  35.909  60.702  1.00  0.00    -0.003 C 
ATOM     14  C   UNL     1      61.150  35.838  59.180  1.00  0.00     0.004 C 
ENDBRANCH  12  13
ENDBRANCH  11  12
ENDBRANCH  10  11
ENDBRANCH   9  10
ENDBRANCH   1   9
TORSDOF 10
ENDMDL
MODEL 4
REMARK VINA RESULT:    -3.452      2.450      4.686
REMARK INTER + INTRA:          -6.497
REMARK INTER:                  -5.032
REMARK INTRA:                  -1.465
REMARK UNBOUND:                -1.028
REMARK SMILES CCCCCCCCCCCC(=O)[O-]
REMARK SMILES IDX 7 1 8 2 9 3 10 4 11 5 12 6 13 7 14 8 6 9 5 10 4 11 3 12 2 13
REMARK SMILES IDX 1 14
REMARK H PARENT
REMARK Flexibility Score: inf
ROOT
ATOM      1  C   UNL     1      61.206  32.598  59.371  1.00  0.00     0.000 C 
ENDROOT
BRANCH   1   2
ATOM      2  C   UNL     1      60.984  33.804  60.297  1.00  0.00     0.000 C 
BRANCH   2   3
ATOM      3  C   UNL     1      62.246  34.666  60.461  1.00  0.00     0.000 C 
BRANCH   3   4
ATOM      4  C   UNL     1      63.531  33.913  60.082  1.00  0.00     0.006 C 
BRANCH   4   5
ATOM      5  C   UNL     1      64.570  34.007  61.203  1.00  0.00     0.053 C 
BRANCH   5   6
ATOM      6  C   UNL     1      65.163  35.380  61.255  1.00  0.00     0.041 C 
ATOM      7  O   UNL     1      65.775  35.844  60.258  1.00  0.00    -0.550 OA
ATOM      8  O   UNL     1      65.081  36.129  62.422  1.00  0.00    -0.550 OA
ENDBRANCH   5   6
ENDBRANCH   4   5
ENDBRANCH   3   4
ENDBRANCH   2   3
ENDBRANCH   1   2
BRANCH   1   9
ATOM      9  C   UNL     1      60.636  31.316  59.993  1.00  0.00     0.000 C 
BRANCH   9  10
ATOM     10  C   UNL     1      61.007  31.150  61.479  1.00  0.00    -0.000 C 
BRANCH  10  11
ATOM     11  C   UNL     1      62.013  30.024  61.780  1.00  0.00    -0.000 C 
BRANCH  11  12
ATOM     12  C   UNL     1      63.461  30.405  61.428  1.00  0.00    -0.000 C 
BRANCH  12  13
ATOM     13  C   UNL     1      64.009  29.600  60.238  1.00  0.00    -0.003 C 
ATOM     14  C   UNL     1      64.250  30.462  59.000  1.00  0.00     0.004 C 
ENDBRANCH  12  13
ENDBRANCH  11  12
ENDBRANCH  10  11
ENDBRANCH   9  10
ENDBRANCH   1   9
TORSDOF 10
ENDMDL
MODEL 5
REMARK VINA RESULT:    -3.438     12.122     13.666
REMARK INTER + INTRA:          -6.475
REMARK INTER:                  -5.936
REMARK INTRA:                  -0.539
REMARK UNBOUND:                -1.028
REMARK SMILES CCCCCCCCCCCC(=O)[O-]
REMARK SMILES IDX 7 1 8 2 9 3 10 4 11 5 12 6 13 7 14 8 6 9 5 10 4 11 3 12 2 13
REMARK SMILES IDX 1 14
REMARK H PARENT
REMARK Flexibility Score: inf
ROOT
ATOM      1  C   UNL     1      58.819  28.900  49.426  1.00  0.00     0.000 C 
ENDROOT
BRANCH   1   2
ATOM      2  C   UNL     1      59.945  28.073  50.063  1.00  0.00     0.000 C 
BRANCH   2   3
ATOM      3  C   UNL     1      59.884  26.588  49.672  1.00  0.00     0.000 C 
BRANCH   3   4
ATOM      4  C   UNL     1      60.370  25.659  50.796  1.00  0.00     0.006 C 
BRANCH   4   5
ATOM      5  C   UNL     1      59.831  24.239  50.603  1.00  0.00     0.053 C 
BRANCH   5   6
ATOM      6  C   UNL     1      60.936  23.306  50.222  1.00  0.00     0.041 C 
ATOM      7  O   UNL     1      62.137  23.665  50.336  1.00  0.00    -0.550 OA
ATOM      8  O   UNL     1      60.639  22.055  49.695  1.00  0.00    -0.550 OA
ENDBRANCH   5   6
ENDBRANCH   4   5
ENDBRANCH   3   4
ENDBRANCH   2   3
ENDBRANCH   1   2
BRANCH   1   9
ATOM      9  C   UNL     1      57.764  29.290  50.471  1.00  0.00     0.000 C 
BRANCH   9  10
ATOM     10  C   UNL     1      56.714  28.188  50.707  1.00  0.00    -0.000 C 
BRANCH  10  11
ATOM     11  C   UNL     1      55.251  28.668  50.705  1.00  0.00    -0.000 C 
BRANCH  11  12
ATOM     12  C   UNL     1      54.273  27.605  50.176  1.00  0.00    -0.000 C 
BRANCH  12  13
ATOM     13  C   UNL     1      54.933  26.225  50.019  1.00  0.00    -0.003 C 
ATOM     14  C   UNL     1      53.987  25.179  49.432  1.00  0.00     0.004 C 
ENDBRANCH  12  13
ENDBRANCH  11  12
ENDBRANCH  10  11
ENDBRANCH   9  10
ENDBRANCH   1   9
TORSDOF 10
ENDMDL
MODEL 6
REMARK VINA RESULT:    -3.412     11.539     13.386
REMARK INTER + INTRA:          -6.434
REMARK INTER:                  -5.067
REMARK INTRA:                  -1.367
REMARK UNBOUND:                -1.028
REMARK SMILES CCCCCCCCCCCC(=O)[O-]
REMARK SMILES IDX 7 1 8 2 9 3 10 4 11 5 12 6 13 7 14 8 6 9 5 10 4 11 3 12 2 13
REMARK SMILES IDX 1 14
REMARK H PARENT
REMARK Flexibility Score: inf
ROOT
ATOM      1  C   UNL     1      56.776  26.814  51.755  1.00  0.00     0.000 C 
ENDROOT
BRANCH   1   2
ATOM      2  C   UNL     1      57.083  28.292  52.044  1.00  0.00     0.000 C 
BRANCH   2   3
ATOM      3  C   UNL     1      57.214  29.132  50.764  1.00  0.00     0.000 C 
BRANCH   3   4
ATOM      4  C   UNL     1      58.676  29.434  50.402  1.00  0.00     0.006 C 
BRANCH   4   5
ATOM      5  C   UNL     1      59.101  28.661  49.150  1.00  0.00     0.053 C 
BRANCH   5   6
ATOM      6  C   UNL     1      60.023  27.540  49.514  1.00  0.00     0.041 C 
ATOM      7  O   UNL     1      59.579  26.368  49.634  1.00  0.00    -0.550 OA
ATOM      8  O   UNL     1      61.364  27.798  49.768  1.00  0.00    -0.550 OA
ENDBRANCH   5   6
ENDBRANCH   4   5
ENDBRANCH   3   4
ENDBRANCH   2   3
ENDBRANCH   1   2
BRANCH   1   9
ATOM      9  C   UNL     1      56.162  26.644  50.358  1.00  0.00     0.000 C 
BRANCH   9  10
ATOM     10  C   UNL     1      54.874  25.800  50.365  1.00  0.00    -0.000 C 
BRANCH  10  11
ATOM     11  C   UNL     1      53.602  26.544  49.920  1.00  0.00    -0.000 C 
BRANCH  11  12
ATOM     12  C   UNL     1      53.731  28.072  50.036  1.00  0.00    -0.000 C 
BRANCH  12  13
ATOM     13  C   UNL     1      53.192  28.608  51.373  1.00  0.00    -0.003 C 
ATOM     14  C   UNL     1      53.739  29.991  51.722  1.00  0.00     0.004 C 
ENDBRANCH  12  13
ENDBRANCH  11  12
ENDBRANCH  10  11
ENDBRANCH   9  10
ENDBRANCH   1   9
TORSDOF 10
ENDMDL
MODEL 7
REMARK VINA RESULT:    -3.395     11.129     13.418
REMARK INTER + INTRA:          -6.408
REMARK INTER:                  -5.280
REMARK INTRA:                  -1.128
REMARK UNBOUND:                -1.028
REMARK SMILES CCCCCCCCCCCC(=O)[O-]
REMARK SMILES IDX 7 1 8 2 9 3 10 4 11 5 12 6 13 7 14 8 6 9 5 10 4 11 3 12 2 13
REMARK SMILES IDX 1 14
REMARK H PARENT
REMARK Flexibility Score: inf
ROOT
ATOM      1  C   UNL     1      57.424  29.294  51.821  1.00  0.00     0.000 C 
ENDROOT
BRANCH   1   2
ATOM      2  C   UNL     1      58.849  29.230  51.251  1.00  0.00     0.000 C 
BRANCH   2   3
ATOM      3  C   UNL     1      58.871  29.042  49.726  1.00  0.00     0.000 C 
BRANCH   3   4
ATOM      4  C   UNL     1      59.717  27.836  49.290  1.00  0.00     0.006 C 
BRANCH   4   5
ATOM      5  C   UNL     1      59.109  26.527  49.803  1.00  0.00     0.053 C 
BRANCH   5   6
ATOM      6  C   UNL     1      60.186  25.583  50.235  1.00  0.00     0.041 C 
ATOM      7  O   UNL     1      59.933  24.358  50.383  1.00  0.00    -0.550 OA
ATOM      8  O   UNL     1      61.458  26.063  50.522  1.00  0.00    -0.550 OA
ENDBRANCH   5   6
ENDBRANCH   4   5
ENDBRANCH   3   4
ENDBRANCH   2   3
ENDBRANCH   1   2
BRANCH   1   9
ATOM      9  C   UNL     1      56.381  29.279  50.694  1.00  0.00     0.000 C 
BRANCH   9  10
ATOM     10  C   UNL     1      55.427  28.072  50.772  1.00  0.00    -0.000 C 
BRANCH  10  11
ATOM     11  C   UNL     1      55.904  26.919  51.675  1.00  0.00    -0.000 C 
BRANCH  11  12
ATOM     12  C   UNL     1      55.484  25.536  51.150  1.00  0.00    -0.000 C 
BRANCH  12  13
ATOM     13  C   UNL     1      54.998  25.582  49.692  1.00  0.00    -0.003 C 
ATOM     14  C   UNL     1      53.614  24.962  49.509  1.00  0.00     0.004 C 
ENDBRANCH  12  13
ENDBRANCH  11  12
ENDBRANCH  10  11
ENDBRANCH   9  10
ENDBRANCH   1   9
TORSDOF 10
ENDMDL
MODEL 8
REMARK VINA RESULT:    -3.345     11.981     13.719
REMARK INTER + INTRA:          -6.329
REMARK INTER:                  -5.229
REMARK INTRA:                  -1.100
REMARK UNBOUND:                -1.028
REMARK SMILES CCCCCCCCCCCC(=O)[O-]
REMARK SMILES IDX 7 1 8 2 9 3 10 4 11 5 12 6 13 7 14 8 6 9 5 10 4 11 3 12 2 13
REMARK SMILES IDX 1 14
REMARK H PARENT
REMARK Flexibility Score: inf
ROOT
ATOM      1  C   UNL     1      57.120  28.884  51.777  1.00  0.00     0.000 C 
ENDROOT
BRANCH   1   2
ATOM      2  C   UNL     1      55.610  28.681  51.972  1.00  0.00     0.000 C 
BRANCH   2   3
ATOM      3  C   UNL     1      54.813  28.874  50.673  1.00  0.00     0.000 C 
BRANCH   3   4
ATOM      4  C   UNL     1      53.934  27.661  50.332  1.00  0.00     0.006 C 
BRANCH   4   5
ATOM      5  C   UNL     1      54.788  26.485  49.847  1.00  0.00     0.053 C 
BRANCH   5   6
ATOM      6  C   UNL     1      54.387  25.224  50.544  1.00  0.00     0.041 C 
ATOM      7  O   UNL     1      53.717  24.348  49.935  1.00  0.00    -0.550 OA
ATOM      8  O   UNL     1      54.711  25.036  51.881  1.00  0.00    -0.550 OA
ENDBRANCH   5   6
ENDBRANCH   4   5
ENDBRANCH   3   4
ENDBRANCH   2   3
ENDBRANCH   1   2
BRANCH   1   9
ATOM      9  C   UNL     1      57.447  29.200  50.310  1.00  0.00     0.000 C 
BRANCH   9  10
ATOM     10  C   UNL     1      58.960  29.262  50.029  1.00  0.00    -0.000 C 
BRANCH  10  11
ATOM     11  C   UNL     1      59.527  28.070  49.235  1.00  0.00    -0.000 C 
BRANCH  11  12
ATOM     12  C   UNL     1      60.246  27.045  50.127  1.00  0.00    -0.000 C 
BRANCH  12  13
ATOM     13  C   UNL     1      59.685  25.623  49.959  1.00  0.00    -0.003 C 
ATOM     14  C   UNL     1      58.248  25.490  50.460  1.00  0.00     0.004 C 
ENDBRANCH  12  13
ENDBRANCH  11  12
ENDBRANCH  10  11
ENDBRANCH   9  10
ENDBRANCH   1   9
TORSDOF 10
ENDMDL
MODEL 9
REMARK VINA RESULT:    -3.324     11.628     12.887
REMARK INTER + INTRA:          -6.295
REMARK INTER:                  -4.810
REMARK INTRA:                  -1.484
REMARK UNBOUND:                -1.028
REMARK SMILES CCCCCCCCCCCC(=O)[O-]
REMARK SMILES IDX 7 1 8 2 9 3 10 4 11 5 12 6 13 7 14 8 6 9 5 10 4 11 3 12 2 13
REMARK SMILES IDX 1 14
REMARK H PARENT
REMARK Flexibility Score: inf
ROOT
ATOM      1  C   UNL     1      54.164  27.139  51.027  1.00  0.00     0.000 C 
ENDROOT
BRANCH   1   2
ATOM      2  C   UNL     1      54.599  26.089  49.994  1.00  0.00     0.000 C 
BRANCH   2   3
ATOM      3  C   UNL     1      56.108  25.806  50.034  1.00  0.00     0.000 C 
BRANCH   3   4
ATOM      4  C   UNL     1      56.603  25.429  51.439  1.00  0.00     0.006 C 
BRANCH   4   5
ATOM      5  C   UNL     1      58.026  25.946  51.675  1.00  0.00     0.053 C 
BRANCH   5   6
ATOM      6  C   UNL     1      59.014  25.129  50.905  1.00  0.00     0.041 C 
ATOM      7  O   UNL     1      59.555  25.598  49.869  1.00  0.00    -0.550 OA
ATOM      8  O   UNL     1      59.302  23.829  51.304  1.00  0.00    -0.550 OA
ENDBRANCH   5   6
ENDBRANCH   4   5
ENDBRANCH   3   4
ENDBRANCH   2   3
ENDBRANCH   1   2
BRANCH   1   9
ATOM      9  C   UNL     1      53.871  28.486  50.351  1.00  0.00     0.000 C 
BRANCH   9  10
ATOM     10  C   UNL     1      54.914  29.568  50.688  1.00  0.00    -0.000 C 
BRANCH  10  11
ATOM     11  C   UNL     1      55.920  29.187  51.789  1.00  0.00    -0.000 C 
BRANCH  11  12
ATOM     12  C   UNL     1      57.365  29.580  51.442  1.00  0.00    -0.000 C 
BRANCH  12  13
ATOM     13  C   UNL     1      57.756  29.177  50.010  1.00  0.00    -0.003 C 
ATOM     14  C   UNL     1      59.268  29.129  49.800  1.00  0.00     0.004 C 
ENDBRANCH  12  13
ENDBRANCH  11  12
ENDBRANCH  10  11
ENDBRANCH   9  10
ENDBRANCH   1   9
TORSDOF 10
ENDMDL
