MODEL 1
REMARK VINA RESULT:    -6.213      0.000      0.000
REMARK INTER + INTRA:          -7.565
REMARK INTER:                  -7.303
REMARK INTRA:                  -0.262
REMARK UNBOUND:                -0.262
REMARK SMILES O=c1cc(-c2ccc(O)c(O)c2)oc2cc(O)cc(O)c12
REMARK SMILES IDX 4 1 3 2 2 3 1 4 21 5 19 6 18 7 16 8 15 9 14 10 13 11 5 12
REMARK SMILES IDX 6 13 7 14 8 15 12 16 10 17 9 18 11 20 20 22 17 24
REMARK H PARENT 9 19 11 21 20 23 17 25
REMARK Flexibility Score: inf
ROOT
ATOM      1  C   UNL     1     -42.292 -39.726 -20.003  1.00  0.00     0.138 A 
ATOM      2  C   UNL     1     -40.944 -39.839 -20.371  1.00  0.00     0.100 A 
ATOM      3  C   UNL     1     -40.182 -38.686 -20.564  1.00  0.00     0.197 A 
ATOM      4  O   UNL     1     -38.960 -38.820 -20.833  1.00  0.00    -0.289 OA
ATOM      5  C   UNL     1     -40.783 -37.413 -20.420  1.00  0.00     0.107 A 
ATOM      6  C   UNL     1     -40.115 -36.171 -20.631  1.00  0.00     0.134 A 
ATOM      7  C   UNL     1     -40.779 -34.972 -20.345  1.00  0.00     0.093 A 
ATOM      8  C   UNL     1     -42.107 -34.970 -19.910  1.00  0.00     0.123 A 
ATOM      9  C   UNL     1     -42.785 -36.176 -19.752  1.00  0.00     0.094 A 
ATOM     10  C   UNL     1     -42.139 -37.389 -19.997  1.00  0.00     0.146 A 
ATOM     11  O   UNL     1     -42.817 -38.519 -19.819  1.00  0.00    -0.456 OA
ENDROOT
BRANCH   1  12
ATOM     12  C   UNL     1     -43.148 -40.918 -19.786  1.00  0.00     0.021 A 
ATOM     13  C   UNL     1     -44.018 -41.396 -20.784  1.00  0.00     0.016 A 
ATOM     14  C   UNL     1     -44.821 -42.516 -20.549  1.00  0.00     0.051 A 
ATOM     15  C   UNL     1     -44.775 -43.171 -19.311  1.00  0.00     0.157 A 
ATOM     16  C   UNL     1     -43.119 -41.575 -18.541  1.00  0.00     0.062 A 
ATOM     17  C   UNL     1     -43.922 -42.697 -18.304  1.00  0.00     0.158 A 
BRANCH  15  18
ATOM     18  O   UNL     1     -45.577 -44.288 -19.080  1.00  0.00    -0.504 OA
ATOM     19  H   UNL     1     -45.182 -45.218 -19.004  1.00  0.00     0.293 HD
ENDBRANCH  15  18
BRANCH  17  20
ATOM     20  O   UNL     1     -43.856 -43.324 -17.060  1.00  0.00    -0.504 OA
ATOM     21  H   UNL     1     -44.346 -42.964 -16.249  1.00  0.00     0.293 HD
ENDBRANCH  17  20
ENDBRANCH   1  12
BRANCH   6  22
ATOM     22  O   UNL     1     -38.818 -36.058 -21.143  1.00  0.00    -0.507 OA
ATOM     23  H   UNL     1     -38.521 -35.368 -21.815  1.00  0.00     0.293 HD
ENDBRANCH   6  22
BRANCH   8  24
ATOM     24  O   UNL     1     -42.765 -33.772 -19.641  1.00  0.00    -0.508 OA
ATOM     25  H   UNL     1     -42.427 -33.128 -18.934  1.00  0.00     0.293 HD
ENDBRANCH   8  24
TORSDOF 5
ENDMDL
MODEL 2
REMARK VINA RESULT:    -6.148      4.207      7.615
REMARK INTER + INTRA:          -7.489
REMARK INTER:                  -7.170
REMARK INTRA:                  -0.318
REMARK UNBOUND:                -0.262
REMARK SMILES O=c1cc(-c2ccc(O)c(O)c2)oc2cc(O)cc(O)c12
REMARK SMILES IDX 4 1 3 2 2 3 1 4 21 5 19 6 18 7 16 8 15 9 14 10 13 11 5 12
REMARK SMILES IDX 6 13 7 14 8 15 12 16 10 17 9 18 11 20 20 22 17 24
REMARK H PARENT 9 19 11 21 20 23 17 25
REMARK Flexibility Score: inf
ROOT
ATOM      1  C   UNL     1     -45.103 -37.515 -19.394  1.00  0.00     0.138 A 
ATOM      2  C   UNL     1     -45.172 -38.915 -19.373  1.00  0.00     0.100 A 
ATOM      3  C   UNL     1     -46.397 -39.543 -19.146  1.00  0.00     0.197 A 
ATOM      4  O   UNL     1     -46.439 -40.799 -19.194  1.00  0.00    -0.289 OA
ATOM      5  C   UNL     1     -47.553 -38.763 -18.906  1.00  0.00     0.107 A 
ATOM      6  C   UNL     1     -48.847 -39.293 -18.622  1.00  0.00     0.134 A 
ATOM      7  C   UNL     1     -49.941 -38.426 -18.518  1.00  0.00     0.093 A 
ATOM      8  C   UNL     1     -49.777 -37.043 -18.628  1.00  0.00     0.123 A 
ATOM      9  C   UNL     1     -48.510 -36.512 -18.851  1.00  0.00     0.094 A 
ATOM     10  C   UNL     1     -47.404 -37.353 -18.994  1.00  0.00     0.146 A 
ATOM     11  O   UNL     1     -46.214 -36.806 -19.222  1.00  0.00    -0.456 OA
ENDROOT
BRANCH   1  12
ATOM     12  C   UNL     1     -43.826 -36.796 -19.632  1.00  0.00     0.021 A 
ATOM     13  C   UNL     1     -42.620 -37.485 -19.856  1.00  0.00     0.016 A 
ATOM     14  C   UNL     1     -41.430 -36.783 -20.068  1.00  0.00     0.051 A 
ATOM     15  C   UNL     1     -41.423 -35.382 -20.049  1.00  0.00     0.157 A 
ATOM     16  C   UNL     1     -43.808 -35.389 -19.602  1.00  0.00     0.062 A 
ATOM     17  C   UNL     1     -42.617 -34.684 -19.813  1.00  0.00     0.158 A 
BRANCH  15  18
ATOM     18  O   UNL     1     -40.234 -34.685 -20.260  1.00  0.00    -0.504 OA
ATOM     19  H   UNL     1     -39.408 -35.144 -20.626  1.00  0.00     0.293 HD
ENDBRANCH  15  18
BRANCH  17  20
ATOM     20  O   UNL     1     -42.643 -33.289 -19.785  1.00  0.00    -0.504 OA
ATOM     21  H   UNL     1     -41.809 -32.733 -19.930  1.00  0.00     0.293 HD
ENDBRANCH  17  20
ENDBRANCH   1  12
BRANCH   6  22
ATOM     22  O   UNL     1     -49.104 -40.651 -18.410  1.00  0.00    -0.507 OA
ATOM     23  H   UNL     1     -48.492 -41.404 -18.682  1.00  0.00     0.293 HD
ENDBRANCH   6  22
BRANCH   8  24
ATOM     24  O   UNL     1     -50.869 -36.186 -18.508  1.00  0.00    -0.508 OA
ATOM     25  H   UNL     1     -50.750 -35.201 -18.297  1.00  0.00     0.293 HD
ENDBRANCH   8  24
TORSDOF 5
ENDMDL
MODEL 3
REMARK VINA RESULT:    -5.933      1.372      3.028
REMARK INTER + INTRA:          -7.235
REMARK INTER:                  -6.943
REMARK INTRA:                  -0.292
REMARK UNBOUND:                -0.262
REMARK SMILES O=c1cc(-c2ccc(O)c(O)c2)oc2cc(O)cc(O)c12
REMARK SMILES IDX 4 1 3 2 2 3 1 4 21 5 19 6 18 7 16 8 15 9 14 10 13 11 5 12
REMARK SMILES IDX 6 13 7 14 8 15 12 16 10 17 9 18 11 20 20 22 17 24
REMARK H PARENT 9 19 11 21 20 23 17 25
REMARK Flexibility Score: inf
ROOT
ATOM      1  C   UNL     1     -43.339 -38.814 -19.251  1.00  0.00     0.138 A 
ATOM      2  C   UNL     1     -44.257 -37.768 -19.087  1.00  0.00     0.100 A 
ATOM      3  C   UNL     1     -43.853 -36.452 -19.310  1.00  0.00     0.197 A 
ATOM      4  O   UNL     1     -44.715 -35.541 -19.215  1.00  0.00    -0.289 OA
ATOM      5  C   UNL     1     -42.511 -36.180 -19.668  1.00  0.00     0.107 A 
ATOM      6  C   UNL     1     -41.975 -34.875 -19.881  1.00  0.00     0.134 A 
ATOM      7  C   UNL     1     -40.662 -34.735 -20.347  1.00  0.00     0.093 A 
ATOM      8  C   UNL     1     -39.847 -35.852 -20.550  1.00  0.00     0.123 A 
ATOM      9  C   UNL     1     -40.343 -37.127 -20.294  1.00  0.00     0.094 A 
ATOM     10  C   UNL     1     -41.660 -37.301 -19.862  1.00  0.00     0.146 A 
ATOM     11  O   UNL     1     -42.100 -38.537 -19.643  1.00  0.00    -0.456 OA
ENDROOT
BRANCH   1  12
ATOM     12  C   UNL     1     -43.717 -40.232 -19.027  1.00  0.00     0.021 A 
ATOM     13  C   UNL     1     -42.747 -41.245 -18.907  1.00  0.00     0.016 A 
ATOM     14  C   UNL     1     -43.130 -42.574 -18.705  1.00  0.00     0.051 A 
ATOM     15  C   UNL     1     -44.487 -42.915 -18.629  1.00  0.00     0.157 A 
ATOM     16  C   UNL     1     -45.077 -40.585 -18.961  1.00  0.00     0.062 A 
ATOM     17  C   UNL     1     -45.463 -41.916 -18.759  1.00  0.00     0.158 A 
BRANCH  15  18
ATOM     18  O   UNL     1     -44.865 -44.242 -18.427  1.00  0.00    -0.504 OA
ATOM     19  H   UNL     1     -45.143 -44.837 -19.199  1.00  0.00     0.293 HD
ENDBRANCH  15  18
BRANCH  17  20
ATOM     20  O   UNL     1     -46.822 -42.222 -18.692  1.00  0.00    -0.504 OA
ATOM     21  H   UNL     1     -47.392 -41.967 -17.894  1.00  0.00     0.293 HD
ENDBRANCH  17  20
ENDBRANCH   1  12
BRANCH   6  22
ATOM     22  O   UNL     1     -42.676 -33.692 -19.627  1.00  0.00    -0.507 OA
ATOM     23  H   UNL     1     -43.090 -33.104 -20.334  1.00  0.00     0.293 HD
ENDBRANCH   6  22
BRANCH   8  24
ATOM     24  O   UNL     1     -38.537 -35.703 -21.000  1.00  0.00    -0.508 OA
ATOM     25  H   UNL     1     -37.974 -36.503 -21.270  1.00  0.00     0.293 HD
ENDBRANCH   8  24
TORSDOF 5
ENDMDL
MODEL 4
REMARK VINA RESULT:    -5.892      6.238      8.387
REMARK INTER + INTRA:          -7.187
REMARK INTER:                  -6.879
REMARK INTRA:                  -0.309
REMARK UNBOUND:                -0.262
REMARK SMILES O=c1cc(-c2ccc(O)c(O)c2)oc2cc(O)cc(O)c12
REMARK SMILES IDX 4 1 3 2 2 3 1 4 21 5 19 6 18 7 16 8 15 9 14 10 13 11 5 12
REMARK SMILES IDX 6 13 7 14 8 15 12 16 10 17 9 18 11 20 20 22 17 24
REMARK H PARENT 9 19 11 21 20 23 17 25
REMARK Flexibility Score: inf
ROOT
ATOM      1  C   UNL     1     -48.867 -38.199 -20.112  1.00  0.00     0.138 A 
ATOM      2  C   UNL     1     -49.269 -39.454 -19.638  1.00  0.00     0.100 A 
ATOM      3  C   UNL     1     -48.722 -39.955 -18.456  1.00  0.00     0.197 A 
ATOM      4  O   UNL     1     -49.149 -41.057 -18.024  1.00  0.00    -0.289 OA
ATOM      5  C   UNL     1     -47.742 -39.206 -17.763  1.00  0.00     0.107 A 
ATOM      6  C   UNL     1     -47.085 -39.634 -16.571  1.00  0.00     0.134 A 
ATOM      7  C   UNL     1     -46.217 -38.758 -15.908  1.00  0.00     0.093 A 
ATOM      8  C   UNL     1     -45.937 -37.491 -16.427  1.00  0.00     0.123 A 
ATOM      9  C   UNL     1     -46.531 -37.085 -17.619  1.00  0.00     0.094 A 
ATOM     10  C   UNL     1     -47.428 -37.922 -18.285  1.00  0.00     0.146 A 
ATOM     11  O   UNL     1     -47.986 -37.490 -19.411  1.00  0.00    -0.456 OA
ENDROOT
BRANCH   1  12
ATOM     12  C   UNL     1     -49.416 -37.619 -21.363  1.00  0.00     0.021 A 
ATOM     13  C   UNL     1     -50.678 -37.995 -21.861  1.00  0.00     0.016 A 
ATOM     14  C   UNL     1     -51.167 -37.441 -23.047  1.00  0.00     0.051 A 
ATOM     15  C   UNL     1     -50.402 -36.508 -23.760  1.00  0.00     0.157 A 
ATOM     16  C   UNL     1     -48.649 -36.691 -22.092  1.00  0.00     0.062 A 
ATOM     17  C   UNL     1     -49.137 -36.135 -23.280  1.00  0.00     0.158 A 
BRANCH  15  18
ATOM     18  O   UNL     1     -50.894 -35.957 -24.942  1.00  0.00    -0.504 OA
ATOM     19  H   UNL     1     -51.378 -35.067 -24.951  1.00  0.00     0.293 HD
ENDBRANCH  15  18
BRANCH  17  20
ATOM     20  O   UNL     1     -48.349 -35.212 -23.968  1.00  0.00    -0.504 OA
ATOM     21  H   UNL     1     -48.017 -35.385 -24.909  1.00  0.00     0.293 HD
ENDBRANCH  17  20
ENDBRANCH   1  12
BRANCH   6  22
ATOM     22  O   UNL     1     -47.229 -40.909 -16.014  1.00  0.00    -0.507 OA
ATOM     23  H   UNL     1     -47.738 -41.115 -15.168  1.00  0.00     0.293 HD
ENDBRANCH   6  22
BRANCH   8  24
ATOM     24  O   UNL     1     -45.061 -36.631 -15.769  1.00  0.00    -0.508 OA
ATOM     25  H   UNL     1     -44.081 -36.576 -16.023  1.00  0.00     0.293 HD
ENDBRANCH   8  24
TORSDOF 5
ENDMDL
MODEL 5
REMARK VINA RESULT:    -5.860      5.282      6.786
REMARK INTER + INTRA:          -7.149
REMARK INTER:                  -6.857
REMARK INTRA:                  -0.293
REMARK UNBOUND:                -0.262
REMARK SMILES O=c1cc(-c2ccc(O)c(O)c2)oc2cc(O)cc(O)c12
REMARK SMILES IDX 4 1 3 2 2 3 1 4 21 5 19 6 18 7 16 8 15 9 14 10 13 11 5 12
REMARK SMILES IDX 6 13 7 14 8 15 12 16 10 17 9 18 11 20 20 22 17 24
REMARK H PARENT 9 19 11 21 20 23 17 25
REMARK Flexibility Score: inf
ROOT
ATOM      1  C   UNL     1     -47.586 -40.087 -19.060  1.00  0.00     0.138 A 
ATOM      2  C   UNL     1     -46.838 -39.106 -18.397  1.00  0.00     0.100 A 
ATOM      3  C   UNL     1     -47.363 -37.822 -18.243  1.00  0.00     0.197 A 
ATOM      4  O   UNL     1     -46.695 -36.981 -17.589  1.00  0.00    -0.289 OA
ATOM      5  C   UNL     1     -48.632 -37.512 -18.787  1.00  0.00     0.107 A 
ATOM      6  C   UNL     1     -49.250 -36.228 -18.727  1.00  0.00     0.134 A 
ATOM      7  C   UNL     1     -50.560 -36.069 -19.197  1.00  0.00     0.093 A 
ATOM      8  C   UNL     1     -51.251 -37.135 -19.779  1.00  0.00     0.123 A 
ATOM      9  C   UNL     1     -50.636 -38.379 -19.891  1.00  0.00     0.094 A 
ATOM     10  C   UNL     1     -49.344 -38.578 -19.400  1.00  0.00     0.146 A 
ATOM     11  O   UNL     1     -48.800 -39.786 -19.512  1.00  0.00    -0.456 OA
ENDROOT
BRANCH   1  12
ATOM     12  C   UNL     1     -47.076 -41.468 -19.252  1.00  0.00     0.021 A 
ATOM     13  C   UNL     1     -47.925 -42.525 -19.629  1.00  0.00     0.016 A 
ATOM     14  C   UNL     1     -47.420 -43.817 -19.793  1.00  0.00     0.051 A 
ATOM     15  C   UNL     1     -46.061 -44.078 -19.575  1.00  0.00     0.157 A 
ATOM     16  C   UNL     1     -45.715 -41.741 -19.022  1.00  0.00     0.062 A 
ATOM     17  C   UNL     1     -45.206 -43.035 -19.186  1.00  0.00     0.158 A 
BRANCH  15  18
ATOM     18  O   UNL     1     -45.560 -45.369 -19.739  1.00  0.00    -0.504 OA
ATOM     19  H   UNL     1     -46.162 -46.182 -19.685  1.00  0.00     0.293 HD
ENDBRANCH  15  18
BRANCH  17  20
ATOM     20  O   UNL     1     -43.849 -43.262 -18.957  1.00  0.00    -0.504 OA
ATOM     21  H   UNL     1     -43.226 -43.576 -19.690  1.00  0.00     0.293 HD
ENDBRANCH  17  20
ENDBRANCH   1  12
BRANCH   6  22
ATOM     22  O   UNL     1     -48.617 -35.078 -18.244  1.00  0.00    -0.507 OA
ATOM     23  H   UNL     1     -47.759 -34.696 -18.609  1.00  0.00     0.293 HD
ENDBRANCH   6  22
BRANCH   8  24
ATOM     24  O   UNL     1     -52.548 -36.964 -20.258  1.00  0.00    -0.508 OA
ATOM     25  H   UNL     1     -52.785 -37.151 -21.226  1.00  0.00     0.293 HD
ENDBRANCH   8  24
TORSDOF 5
ENDMDL
MODEL 6
REMARK VINA RESULT:    -5.854      4.154      5.066
REMARK INTER + INTRA:          -7.143
REMARK INTER:                  -6.826
REMARK INTRA:                  -0.317
REMARK UNBOUND:                -0.262
REMARK SMILES O=c1cc(-c2ccc(O)c(O)c2)oc2cc(O)cc(O)c12
REMARK SMILES IDX 4 1 3 2 2 3 1 4 21 5 19 6 18 7 16 8 15 9 14 10 13 11 5 12
REMARK SMILES IDX 6 13 7 14 8 15 12 16 10 17 9 18 11 20 20 22 17 24
REMARK H PARENT 9 19 11 21 20 23 17 25
REMARK Flexibility Score: inf
ROOT
ATOM      1  C   UNL     1     -45.535 -37.462 -19.299  1.00  0.00     0.138 A 
ATOM      2  C   UNL     1     -44.776 -38.637 -19.376  1.00  0.00     0.100 A 
ATOM      3  C   UNL     1     -43.408 -38.561 -19.643  1.00  0.00     0.197 A 
ATOM      4  O   UNL     1     -42.742 -39.628 -19.644  1.00  0.00    -0.289 OA
ATOM      5  C   UNL     1     -42.806 -37.300 -19.868  1.00  0.00     0.107 A 
ATOM      6  C   UNL     1     -41.430 -37.103 -20.190  1.00  0.00     0.134 A 
ATOM      7  C   UNL     1     -40.920 -35.802 -20.275  1.00  0.00     0.093 A 
ATOM      8  C   UNL     1     -41.751 -34.690 -20.109  1.00  0.00     0.123 A 
ATOM      9  C   UNL     1     -43.106 -34.872 -19.849  1.00  0.00     0.094 A 
ATOM     10  C   UNL     1     -43.638 -36.157 -19.723  1.00  0.00     0.146 A 
ATOM     11  O   UNL     1     -44.934 -36.287 -19.458  1.00  0.00    -0.456 OA
ENDROOT
BRANCH   1  12
ATOM     12  C   UNL     1     -46.992 -37.486 -19.018  1.00  0.00     0.021 A 
ATOM     13  C   UNL     1     -47.724 -38.689 -19.009  1.00  0.00     0.016 A 
ATOM     14  C   UNL     1     -49.098 -38.682 -18.750  1.00  0.00     0.051 A 
ATOM     15  C   UNL     1     -49.765 -37.474 -18.505  1.00  0.00     0.157 A 
ATOM     16  C   UNL     1     -47.673 -36.277 -18.782  1.00  0.00     0.062 A 
ATOM     17  C   UNL     1     -49.048 -36.268 -18.523  1.00  0.00     0.158 A 
BRANCH  15  18
ATOM     18  O   UNL     1     -51.135 -37.471 -18.246  1.00  0.00    -0.504 OA
ATOM     19  H   UNL     1     -51.736 -38.222 -18.566  1.00  0.00     0.293 HD
ENDBRANCH  15  18
BRANCH  17  20
ATOM     20  O   UNL     1     -49.683 -35.049 -18.286  1.00  0.00    -0.504 OA
ATOM     21  H   UNL     1     -49.995 -34.449 -19.041  1.00  0.00     0.293 HD
ENDBRANCH  17  20
ENDBRANCH   1  12
BRANCH   6  22
ATOM     22  O   UNL     1     -40.534 -38.143 -20.458  1.00  0.00    -0.507 OA
ATOM     23  H   UNL     1     -40.786 -39.031 -20.864  1.00  0.00     0.293 HD
ENDBRANCH   6  22
BRANCH   8  24
ATOM     24  O   UNL     1     -41.238 -33.399 -20.210  1.00  0.00    -0.508 OA
ATOM     25  H   UNL     1     -40.311 -33.224 -20.581  1.00  0.00     0.293 HD
ENDBRANCH   8  24
TORSDOF 5
ENDMDL
MODEL 7
REMARK VINA RESULT:    -5.830      5.944      6.641
REMARK INTER + INTRA:          -7.115
REMARK INTER:                  -6.797
REMARK INTRA:                  -0.318
REMARK UNBOUND:                -0.262
REMARK SMILES O=c1cc(-c2ccc(O)c(O)c2)oc2cc(O)cc(O)c12
REMARK SMILES IDX 4 1 3 2 2 3 1 4 21 5 19 6 18 7 16 8 15 9 14 10 13 11 5 12
REMARK SMILES IDX 6 13 7 14 8 15 12 16 10 17 9 18 11 20 20 22 17 24
REMARK H PARENT 9 19 11 21 20 23 17 25
REMARK Flexibility Score: inf
ROOT
ATOM      1  C   UNL     1     -47.535 -40.311 -21.417  1.00  0.00     0.138 A 
ATOM      2  C   UNL     1     -47.181 -39.498 -22.502  1.00  0.00     0.100 A 
ATOM      3  C   UNL     1     -47.690 -38.202 -22.589  1.00  0.00     0.197 A 
ATOM      4  O   UNL     1     -47.306 -37.475 -23.542  1.00  0.00    -0.289 OA
ATOM      5  C   UNL     1     -48.585 -37.730 -21.600  1.00  0.00     0.107 A 
ATOM      6  C   UNL     1     -49.199 -36.442 -21.607  1.00  0.00     0.134 A 
ATOM      7  C   UNL     1     -49.976 -36.041 -20.513  1.00  0.00     0.093 A 
ATOM      8  C   UNL     1     -50.209 -36.906 -19.440  1.00  0.00     0.123 A 
ATOM      9  C   UNL     1     -49.659 -38.184 -19.449  1.00  0.00     0.094 A 
ATOM     10  C   UNL     1     -48.852 -38.601 -20.509  1.00  0.00     0.146 A 
ATOM     11  O   UNL     1     -48.332 -39.824 -20.471  1.00  0.00    -0.456 OA
ENDROOT
BRANCH   1  12
ATOM     12  C   UNL     1     -47.023 -41.697 -21.275  1.00  0.00     0.021 A 
ATOM     13  C   UNL     1     -46.074 -42.230 -22.168  1.00  0.00     0.016 A 
ATOM     14  C   UNL     1     -45.615 -43.541 -22.017  1.00  0.00     0.051 A 
ATOM     15  C   UNL     1     -46.102 -44.345 -20.978  1.00  0.00     0.157 A 
ATOM     16  C   UNL     1     -47.516 -42.516 -20.242  1.00  0.00     0.062 A 
ATOM     17  C   UNL     1     -47.058 -43.830 -20.089  1.00  0.00     0.158 A 
BRANCH  15  18
ATOM     18  O   UNL     1     -45.642 -45.653 -20.830  1.00  0.00    -0.504 OA
ATOM     19  H   UNL     1     -45.522 -46.266 -21.627  1.00  0.00     0.293 HD
ENDBRANCH  15  18
BRANCH  17  20
ATOM     20  O   UNL     1     -47.566 -44.605 -19.046  1.00  0.00    -0.504 OA
ATOM     21  H   UNL     1     -47.297 -44.452 -18.082  1.00  0.00     0.293 HD
ENDBRANCH  17  20
ENDBRANCH   1  12
BRANCH   6  22
ATOM     22  O   UNL     1     -49.099 -35.535 -22.667  1.00  0.00    -0.507 OA
ATOM     23  H   UNL     1     -48.233 -35.205 -23.064  1.00  0.00     0.293 HD
ENDBRANCH   6  22
BRANCH   8  24
ATOM     24  O   UNL     1     -50.996 -36.504 -18.363  1.00  0.00    -0.508 OA
ATOM     25  H   UNL     1     -51.220 -35.528 -18.204  1.00  0.00     0.293 HD
ENDBRANCH   8  24
TORSDOF 5
ENDMDL
MODEL 8
REMARK VINA RESULT:    -5.811      8.977     10.978
REMARK INTER + INTRA:          -7.092
REMARK INTER:                  -6.781
REMARK INTRA:                  -0.312
REMARK UNBOUND:                -0.262
REMARK SMILES O=c1cc(-c2ccc(O)c(O)c2)oc2cc(O)cc(O)c12
REMARK SMILES IDX 4 1 3 2 2 3 1 4 21 5 19 6 18 7 16 8 15 9 14 10 13 11 5 12
REMARK SMILES IDX 6 13 7 14 8 15 12 16 10 17 9 18 11 20 20 22 17 24
REMARK H PARENT 9 19 11 21 20 23 17 25
REMARK Flexibility Score: inf
ROOT
ATOM      1  C   UNL     1     -50.524 -36.685 -21.185  1.00  0.00     0.138 A 
ATOM      2  C   UNL     1     -50.126 -37.405 -22.319  1.00  0.00     0.100 A 
ATOM      3  C   UNL     1     -51.067 -37.730 -23.297  1.00  0.00     0.197 A 
ATOM      4  O   UNL     1     -50.667 -38.322 -24.332  1.00  0.00    -0.289 OA
ATOM      5  C   UNL     1     -52.421 -37.359 -23.120  1.00  0.00     0.107 A 
ATOM      6  C   UNL     1     -53.474 -37.672 -24.030  1.00  0.00     0.134 A 
ATOM      7  C   UNL     1     -54.755 -37.151 -23.808  1.00  0.00     0.093 A 
ATOM      8  C   UNL     1     -55.033 -36.378 -22.678  1.00  0.00     0.123 A 
ATOM      9  C   UNL     1     -54.025 -36.113 -21.756  1.00  0.00     0.094 A 
ATOM     10  C   UNL     1     -52.729 -36.589 -21.966  1.00  0.00     0.146 A 
ATOM     11  O   UNL     1     -51.791 -36.299 -21.070  1.00  0.00    -0.456 OA
ENDROOT
BRANCH   1  12
ATOM     12  C   UNL     1     -49.564 -36.313 -20.115  1.00  0.00     0.021 A 
ATOM     13  C   UNL     1     -48.368 -37.027 -19.913  1.00  0.00     0.016 A 
ATOM     14  C   UNL     1     -47.487 -36.661 -18.892  1.00  0.00     0.051 A 
ATOM     15  C   UNL     1     -47.789 -35.583 -18.050  1.00  0.00     0.157 A 
ATOM     16  C   UNL     1     -49.866 -35.239 -19.256  1.00  0.00     0.062 A 
ATOM     17  C   UNL     1     -48.985 -34.871 -18.233  1.00  0.00     0.158 A 
BRANCH  15  18
ATOM     18  O   UNL     1     -46.908 -35.221 -17.032  1.00  0.00    -0.504 OA
ATOM     19  H   UNL     1     -47.153 -34.521 -16.342  1.00  0.00     0.293 HD
ENDBRANCH  15  18
BRANCH  17  20
ATOM     20  O   UNL     1     -49.317 -33.796 -17.409  1.00  0.00    -0.504 OA
ATOM     21  H   UNL     1     -49.053 -32.844 -17.635  1.00  0.00     0.293 HD
ENDBRANCH  17  20
ENDBRANCH   1  12
BRANCH   6  22
ATOM     22  O   UNL     1     -53.323 -38.504 -25.143  1.00  0.00    -0.507 OA
ATOM     23  H   UNL     1     -52.562 -39.151 -25.281  1.00  0.00     0.293 HD
ENDBRANCH   6  22
BRANCH   8  24
ATOM     24  O   UNL     1     -56.314 -35.877 -22.457  1.00  0.00    -0.508 OA
ATOM     25  H   UNL     1     -56.768 -35.958 -21.554  1.00  0.00     0.293 HD
ENDBRANCH   8  24
TORSDOF 5
ENDMDL
MODEL 9
REMARK VINA RESULT:    -5.808      2.409      3.711
REMARK INTER + INTRA:          -7.089
REMARK INTER:                  -6.773
REMARK INTRA:                  -0.316
REMARK UNBOUND:                -0.262
REMARK SMILES O=c1cc(-c2ccc(O)c(O)c2)oc2cc(O)cc(O)c12
REMARK SMILES IDX 4 1 3 2 2 3 1 4 21 5 19 6 18 7 16 8 15 9 14 10 13 11 5 12
REMARK SMILES IDX 6 13 7 14 8 15 12 16 10 17 9 18 11 20 20 22 17 24
REMARK H PARENT 9 19 11 21 20 23 17 25
REMARK Flexibility Score: inf
ROOT
ATOM      1  C   UNL     1     -43.997 -37.625 -18.901  1.00  0.00     0.138 A 
ATOM      2  C   UNL     1     -44.250 -36.250 -19.007  1.00  0.00     0.100 A 
ATOM      3  C   UNL     1     -43.246 -35.396 -19.464  1.00  0.00     0.197 A 
ATOM      4  O   UNL     1     -43.522 -34.177 -19.607  1.00  0.00    -0.289 OA
ATOM      5  C   UNL     1     -41.971 -35.919 -19.786  1.00  0.00     0.107 A 
ATOM      6  C   UNL     1     -40.859 -35.139 -20.223  1.00  0.00     0.134 A 
ATOM      7  C   UNL     1     -39.681 -35.779 -20.625  1.00  0.00     0.093 A 
ATOM      8  C   UNL     1     -39.555 -37.169 -20.550  1.00  0.00     0.123 A 
ATOM      9  C   UNL     1     -40.615 -37.935 -20.074  1.00  0.00     0.094 A 
ATOM     10  C   UNL     1     -41.815 -37.329 -19.698  1.00  0.00     0.146 A 
ATOM     11  O   UNL     1     -42.809 -38.098 -19.264  1.00  0.00    -0.456 OA
ENDROOT
BRANCH   1  12
ATOM     12  C   UNL     1     -45.029 -38.577 -18.420  1.00  0.00     0.021 A 
ATOM     13  C   UNL     1     -46.215 -38.135 -17.805  1.00  0.00     0.016 A 
ATOM     14  C   UNL     1     -47.166 -39.054 -17.353  1.00  0.00     0.051 A 
ATOM     15  C   UNL     1     -46.944 -40.430 -17.499  1.00  0.00     0.157 A 
ATOM     16  C   UNL     1     -44.809 -39.961 -18.551  1.00  0.00     0.062 A 
ATOM     17  C   UNL     1     -45.760 -40.884 -18.099  1.00  0.00     0.158 A 
BRANCH  15  18
ATOM     18  O   UNL     1     -47.895 -41.344 -17.047  1.00  0.00    -0.504 OA
ATOM     19  H   UNL     1     -47.700 -41.976 -16.279  1.00  0.00     0.293 HD
ENDBRANCH  15  18
BRANCH  17  20
ATOM     20  O   UNL     1     -45.507 -42.247 -18.257  1.00  0.00    -0.504 OA
ATOM     21  H   UNL     1     -44.988 -42.609 -19.047  1.00  0.00     0.293 HD
ENDBRANCH  17  20
ENDBRANCH   1  12
BRANCH   6  22
ATOM     22  O   UNL     1     -40.851 -33.741 -20.255  1.00  0.00    -0.507 OA
ATOM     23  H   UNL     1     -40.788 -33.145 -19.444  1.00  0.00     0.293 HD
ENDBRANCH   6  22
BRANCH   8  24
ATOM     24  O   UNL     1     -38.374 -37.798 -20.939  1.00  0.00    -0.508 OA
ATOM     25  H   UNL     1     -37.982 -37.665 -21.865  1.00  0.00     0.293 HD
ENDBRANCH   8  24
TORSDOF 5
ENDMDL
