MODEL 1
REMARK VINA RESULT:    -4.064      0.000      0.000
REMARK INTER + INTRA:          -4.845
REMARK INTER:                  -4.777
REMARK INTRA:                  -0.068
REMARK UNBOUND:                -0.068
REMARK SMILES CCCCC(=O)[O-]
REMARK SMILES IDX 4 1 5 2 6 3 7 4 3 5 2 6 1 7
REMARK H PARENT
REMARK Flexibility Score: inf
ROOT
ATOM      1  C   UNL     1      18.884  -8.139  21.690  1.00  0.00     0.053 C 
ENDROOT
BRANCH   1   2
ATOM      2  C   UNL     1      18.320  -7.174  20.696  1.00  0.00     0.041 C 
ATOM      3  O   UNL     1      17.265  -7.454  20.071  1.00  0.00    -0.550 OA
ATOM      4  O   UNL     1      18.988  -5.987  20.423  1.00  0.00    -0.550 OA
ENDBRANCH   1   2
BRANCH   1   5
ATOM      5  C   UNL     1      18.223  -7.948  23.058  1.00  0.00     0.006 C 
BRANCH   5   6
ATOM      6  C   UNL     1      19.261  -7.577  24.123  1.00  0.00    -0.003 C 
ATOM      7  C   UNL     1      20.665  -7.994  23.693  1.00  0.00     0.004 C 
ENDBRANCH   5   6
ENDBRANCH   1   5
TORSDOF 3
ENDMDL
MODEL 2
REMARK VINA RESULT:    -4.017      2.441      3.599
REMARK INTER + INTRA:          -4.790
REMARK INTER:                  -4.706
REMARK INTRA:                  -0.083
REMARK UNBOUND:                -0.068
REMARK SMILES CCCCC(=O)[O-]
REMARK SMILES IDX 4 1 5 2 6 3 7 4 3 5 2 6 1 7
REMARK H PARENT
REMARK Flexibility Score: inf
ROOT
ATOM      1  C   UNL     1      19.679  -8.280  22.113  1.00  0.00     0.053 C 
ENDROOT
BRANCH   1   2
ATOM      2  C   UNL     1      20.326  -7.800  23.373  1.00  0.00     0.041 C 
ATOM      3  O   UNL     1      21.390  -8.333  23.781  1.00  0.00    -0.550 OA
ATOM      4  O   UNL     1      19.726  -6.797  24.125  1.00  0.00    -0.550 OA
ENDBRANCH   1   2
BRANCH   1   5
ATOM      5  C   UNL     1      18.196  -7.897  22.092  1.00  0.00     0.006 C 
BRANCH   5   6
ATOM      6  C   UNL     1      17.827  -7.205  20.775  1.00  0.00    -0.003 C 
ATOM      7  C   UNL     1      18.903  -6.208  20.356  1.00  0.00     0.004 C 
ENDBRANCH   5   6
ENDBRANCH   1   5
TORSDOF 3
ENDMDL
MODEL 3
REMARK VINA RESULT:    -3.369      1.255      1.752
REMARK INTER + INTRA:          -4.028
REMARK INTER:                  -4.115
REMARK INTRA:                   0.087
REMARK UNBOUND:                -0.068
REMARK SMILES CCCCC(=O)[O-]
REMARK SMILES IDX 4 1 5 2 6 3 7 4 3 5 2 6 1 7
REMARK H PARENT
REMARK Flexibility Score: inf
ROOT
ATOM      1  C   UNL     1      19.611  -7.392  21.513  1.00  0.00     0.053 C 
ENDROOT
BRANCH   1   2
ATOM      2  C   UNL     1      18.130  -7.565  21.395  1.00  0.00     0.041 C 
ATOM      3  O   UNL     1      17.456  -7.945  22.388  1.00  0.00    -0.550 OA
ATOM      4  O   UNL     1      17.500  -7.355  20.175  1.00  0.00    -0.550 OA
ENDBRANCH   1   2
BRANCH   1   5
ATOM      5  C   UNL     1      20.242  -8.614  22.186  1.00  0.00     0.006 C 
BRANCH   5   6
ATOM      6  C   UNL     1      20.809  -8.251  23.564  1.00  0.00    -0.003 C 
ATOM      7  C   UNL     1      20.136  -7.001  24.124  1.00  0.00     0.004 C 
ENDBRANCH   5   6
ENDBRANCH   1   5
TORSDOF 3
ENDMDL
MODEL 4
REMARK VINA RESULT:    -3.346      2.446      3.038
REMARK INTER + INTRA:          -4.001
REMARK INTER:                  -3.998
REMARK INTRA:                  -0.003
REMARK UNBOUND:                -0.068
REMARK SMILES CCCCC(=O)[O-]
REMARK SMILES IDX 4 1 5 2 6 3 7 4 3 5 2 6 1 7
REMARK H PARENT
REMARK Flexibility Score: inf
ROOT
ATOM      1  C   UNL     1      19.465  -6.721  21.452  1.00  0.00     0.053 C 
ENDROOT
BRANCH   1   2
ATOM      2  C   UNL     1      20.795  -6.795  22.132  1.00  0.00     0.041 C 
ATOM      3  O   UNL     1      21.762  -6.111  21.708  1.00  0.00    -0.550 OA
ATOM      4  O   UNL     1      20.980  -7.660  23.204  1.00  0.00    -0.550 OA
ENDBRANCH   1   2
BRANCH   1   5
ATOM      5  C   UNL     1      18.644  -7.982  21.737  1.00  0.00     0.006 C 
BRANCH   5   6
ATOM      6  C   UNL     1      17.547  -7.701  22.770  1.00  0.00    -0.003 C 
ATOM      7  C   UNL     1      17.892  -8.319  24.122  1.00  0.00     0.004 C 
ENDBRANCH   5   6
ENDBRANCH   1   5
TORSDOF 3
ENDMDL
MODEL 5
REMARK VINA RESULT:    -3.328      2.422      2.955
REMARK INTER + INTRA:          -3.981
REMARK INTER:                  -4.121
REMARK INTRA:                   0.141
REMARK UNBOUND:                -0.068
REMARK SMILES CCCCC(=O)[O-]
REMARK SMILES IDX 4 1 5 2 6 3 7 4 3 5 2 6 1 7
REMARK H PARENT
REMARK Flexibility Score: inf
ROOT
ATOM      1  C   UNL     1      19.021  -8.191  21.672  1.00  0.00     0.053 C 
ENDROOT
BRANCH   1   2
ATOM      2  C   UNL     1      18.594  -8.010  23.094  1.00  0.00     0.041 C 
ATOM      3  O   UNL     1      17.421  -7.638  23.360  1.00  0.00    -0.550 OA
ATOM      4  O   UNL     1      19.505  -8.205  24.124  1.00  0.00    -0.550 OA
ENDBRANCH   1   2
BRANCH   1   5
ATOM      5  C   UNL     1      18.728  -6.926  20.859  1.00  0.00     0.006 C 
BRANCH   5   6
ATOM      6  C   UNL     1      19.725  -5.812  21.199  1.00  0.00    -0.003 C 
ATOM      7  C   UNL     1      21.055  -6.388  21.675  1.00  0.00     0.004 C 
ENDBRANCH   5   6
ENDBRANCH   1   5
TORSDOF 3
ENDMDL
MODEL 6
REMARK VINA RESULT:    -2.531     14.306     15.294
REMARK INTER + INTRA:          -3.043
REMARK INTER:                  -3.023
REMARK INTRA:                  -0.020
REMARK UNBOUND:                -0.068
REMARK SMILES CCCCC(=O)[O-]
REMARK SMILES IDX 4 1 5 2 6 3 7 4 3 5 2 6 1 7
REMARK H PARENT
REMARK Flexibility Score: inf
ROOT
ATOM      1  C   UNL     1      17.638  -7.427   6.434  1.00  0.00     0.053 C 
ENDROOT
BRANCH   1   2
ATOM      2  C   UNL     1      18.607  -7.554   7.567  1.00  0.00     0.041 C 
ATOM      3  O   UNL     1      18.650  -6.674   8.465  1.00  0.00    -0.550 OA
ATOM      4  O   UNL     1      19.498  -8.620   7.604  1.00  0.00    -0.550 OA
ENDBRANCH   1   2
BRANCH   1   5
ATOM      5  C   UNL     1      16.264  -6.988   6.950  1.00  0.00     0.006 C 
BRANCH   5   6
ATOM      6  C   UNL     1      15.139  -7.674   6.166  1.00  0.00    -0.003 C 
ATOM      7  C   UNL     1      14.175  -8.396   7.103  1.00  0.00     0.004 C 
ENDBRANCH   5   6
ENDBRANCH   1   5
TORSDOF 3
ENDMDL
MODEL 7
REMARK VINA RESULT:    -2.483     14.521     16.085
REMARK INTER + INTRA:          -2.987
REMARK INTER:                  -2.911
REMARK INTRA:                  -0.076
REMARK UNBOUND:                -0.068
REMARK SMILES CCCCC(=O)[O-]
REMARK SMILES IDX 4 1 5 2 6 3 7 4 3 5 2 6 1 7
REMARK H PARENT
REMARK Flexibility Score: inf
ROOT
ATOM      1  C   UNL     1      18.598  -7.162   5.905  1.00  0.00     0.053 C 
ENDROOT
BRANCH   1   2
ATOM      2  C   UNL     1      18.944  -7.563   7.304  1.00  0.00     0.041 C 
ATOM      3  O   UNL     1      19.490  -8.675   7.527  1.00  0.00    -0.550 OA
ATOM      4  O   UNL     1      18.617  -6.731   8.367  1.00  0.00    -0.550 OA
ENDBRANCH   1   2
BRANCH   1   5
ATOM      5  C   UNL     1      19.870  -6.966   5.073  1.00  0.00     0.006 C 
BRANCH   5   6
ATOM      6  C   UNL     1      20.574  -5.657   5.447  1.00  0.00    -0.003 C 
ATOM      7  C   UNL     1      20.959  -4.863   4.202  1.00  0.00     0.004 C 
ENDBRANCH   5   6
ENDBRANCH   1   5
TORSDOF 3
ENDMDL
MODEL 8
REMARK VINA RESULT:    -2.478     14.215     15.505
REMARK INTER + INTRA:          -2.981
REMARK INTER:                  -2.943
REMARK INTRA:                  -0.038
REMARK UNBOUND:                -0.068
REMARK SMILES CCCCC(=O)[O-]
REMARK SMILES IDX 4 1 5 2 6 3 7 4 3 5 2 6 1 7
REMARK H PARENT
REMARK Flexibility Score: inf
ROOT
ATOM      1  C   UNL     1      16.386  -7.060   7.035  1.00  0.00     0.053 C 
ENDROOT
BRANCH   1   2
ATOM      2  C   UNL     1      15.111  -7.620   6.487  1.00  0.00     0.041 C 
ATOM      3  O   UNL     1      14.812  -7.447   5.277  1.00  0.00    -0.550 OA
ATOM      4  O   UNL     1      14.229  -8.291   7.325  1.00  0.00    -0.550 OA
ENDBRANCH   1   2
BRANCH   1   5
ATOM      5  C   UNL     1      17.571  -7.464   6.154  1.00  0.00     0.006 C 
BRANCH   5   6
ATOM      6  C   UNL     1      18.894  -7.326   6.917  1.00  0.00    -0.003 C 
ATOM      7  C   UNL     1      18.661  -6.820   8.337  1.00  0.00     0.004 C 
ENDBRANCH   5   6
ENDBRANCH   1   5
TORSDOF 3
ENDMDL
MODEL 9
REMARK VINA RESULT:    -2.444     19.221     20.313
REMARK INTER + INTRA:          -2.941
REMARK INTER:                  -2.913
REMARK INTRA:                  -0.028
REMARK UNBOUND:                -0.068
REMARK SMILES CCCCC(=O)[O-]
REMARK SMILES IDX 4 1 5 2 6 3 7 4 3 5 2 6 1 7
REMARK H PARENT
REMARK Flexibility Score: inf
ROOT
ATOM      1  C   UNL     1       6.266  -7.141   6.189  1.00  0.00     0.053 C 
ENDROOT
BRANCH   1   2
ATOM      2  C   UNL     1       5.108  -7.170   5.243  1.00  0.00     0.041 C 
ATOM      3  O   UNL     1       4.406  -8.210   5.134  1.00  0.00    -0.550 OA
ATOM      4  O   UNL     1       4.834  -6.067   4.444  1.00  0.00    -0.550 OA
ENDBRANCH   1   2
BRANCH   1   5
ATOM      5  C   UNL     1       6.782  -8.559   6.451  1.00  0.00     0.006 C 
BRANCH   5   6
ATOM      6  C   UNL     1       7.434  -8.659   7.835  1.00  0.00    -0.003 C 
ATOM      7  C   UNL     1       7.322 -10.074   8.395  1.00  0.00     0.004 C 
ENDBRANCH   5   6
ENDBRANCH   1   5
TORSDOF 3
ENDMDL
