MODEL 1
REMARK VINA RESULT:    -4.391      0.000      0.000
REMARK INTER + INTRA:          -5.289
REMARK INTER:                  -5.675
REMARK INTRA:                   0.386
REMARK UNBOUND:                 0.386
REMARK SMILES CCOC(=O)C=Cc1ccc(O)c(O)c1
REMARK SMILES IDX 6 1 7 2 4 3 5 4 3 5 2 6 1 7 8 8 15 9 9 10 13 11 10 12 11 13
REMARK SMILES IDX 14 14 12 16
REMARK H PARENT 14 15 12 17
REMARK Flexibility Score: inf
ROOT
ATOM      1  C   UNL     1      27.768  20.661  16.743  1.00  0.00     0.094 C 
ATOM      2  C   UNL     1      26.476  20.338  16.915  1.00  0.00     0.016 C 
ENDROOT
BRANCH   1   3
ATOM      3  C   UNL     1      28.464  20.767  15.446  1.00  0.00     0.330 C 
ATOM      4  O   UNL     1      29.277  19.880  15.069  1.00  0.00    -0.247 OA
BRANCH   3   5
ATOM      5  O   UNL     1      28.252  21.906  14.665  1.00  0.00    -0.463 OA
BRANCH   5   6
ATOM      6  C   UNL     1      29.022  22.193  13.502  1.00  0.00     0.230 C 
ATOM      7  C   UNL     1      28.282  21.701  12.268  1.00  0.00     0.049 C 
ENDBRANCH   5   6
ENDBRANCH   3   5
ENDBRANCH   1   3
BRANCH   2   8
ATOM      8  C   UNL     1      25.475  20.208  15.837  1.00  0.00    -0.021 A 
ATOM      9  C   UNL     1      24.123  20.449  16.120  1.00  0.00     0.058 A 
ATOM     10  C   UNL     1      25.862  19.946  14.512  1.00  0.00     0.012 A 
ATOM     11  C   UNL     1      23.159  20.380  15.108  1.00  0.00     0.157 A 
ATOM     12  C   UNL     1      24.903  19.875  13.498  1.00  0.00     0.051 A 
ATOM     13  C   UNL     1      23.550  20.087  13.790  1.00  0.00     0.157 A 
BRANCH  11  14
ATOM     14  O   UNL     1      21.821  20.607  15.430  1.00  0.00    -0.504 OA
ATOM     15  H   UNL     1      21.127  19.870  15.395  1.00  0.00     0.293 HD
ENDBRANCH  11  14
BRANCH  13  16
ATOM     16  O   UNL     1      22.594  20.014  12.778  1.00  0.00    -0.504 OA
ATOM     17  H   UNL     1      22.818  19.639  11.863  1.00  0.00     0.293 HD
ENDBRANCH  13  16
ENDBRANCH   2   8
TORSDOF 6
ENDMDL
MODEL 2
REMARK VINA RESULT:    -4.304      2.096      5.353
REMARK INTER + INTRA:          -5.176
REMARK INTER:                  -5.424
REMARK INTRA:                   0.247
REMARK UNBOUND:                 0.386
REMARK SMILES CCOC(=O)C=Cc1ccc(O)c(O)c1
REMARK SMILES IDX 6 1 7 2 4 3 5 4 3 5 2 6 1 7 8 8 15 9 9 10 13 11 10 12 11 13
REMARK SMILES IDX 14 14 12 16
REMARK H PARENT 14 15 12 17
REMARK Flexibility Score: inf
ROOT
ATOM      1  C   UNL     1      27.156  20.454  16.258  1.00  0.00     0.094 C 
ATOM      2  C   UNL     1      28.315  20.990  15.843  1.00  0.00     0.016 C 
ENDROOT
BRANCH   1   3
ATOM      3  C   UNL     1      26.011  20.104  15.395  1.00  0.00     0.330 C 
ATOM      4  O   UNL     1      26.169  19.875  14.165  1.00  0.00    -0.247 OA
BRANCH   3   5
ATOM      5  O   UNL     1      24.732  20.091  15.955  1.00  0.00    -0.463 OA
BRANCH   5   6
ATOM      6  C   UNL     1      23.557  19.876  15.179  1.00  0.00     0.230 C 
ATOM      7  C   UNL     1      22.475  20.853  15.612  1.00  0.00     0.049 C 
ENDBRANCH   5   6
ENDBRANCH   3   5
ENDBRANCH   1   3
BRANCH   2   8
ATOM      8  C   UNL     1      28.725  21.158  14.434  1.00  0.00    -0.021 A 
ATOM      9  C   UNL     1      28.630  22.422  13.835  1.00  0.00     0.058 A 
ATOM     10  C   UNL     1      29.302  20.099  13.713  1.00  0.00     0.012 A 
ATOM     11  C   UNL     1      29.056  22.621  12.517  1.00  0.00     0.157 A 
ATOM     12  C   UNL     1      29.728  20.292  12.396  1.00  0.00     0.051 A 
ATOM     13  C   UNL     1      29.604  21.550  11.791  1.00  0.00     0.157 A 
BRANCH  11  14
ATOM     14  O   UNL     1      28.928  23.888  11.948  1.00  0.00    -0.504 OA
ATOM     15  H   UNL     1      29.678  24.569  11.979  1.00  0.00     0.293 HD
ENDBRANCH  11  14
BRANCH  13  16
ATOM     16  O   UNL     1      30.027  21.740  10.476  1.00  0.00    -0.504 OA
ATOM     17  H   UNL     1      29.432  22.187   9.788  1.00  0.00     0.293 HD
ENDBRANCH  13  16
ENDBRANCH   2   8
TORSDOF 6
ENDMDL
MODEL 3
REMARK VINA RESULT:    -3.712      1.514      2.786
REMARK INTER + INTRA:          -4.410
REMARK INTER:                  -4.488
REMARK INTRA:                   0.077
REMARK UNBOUND:                 0.386
REMARK SMILES CCOC(=O)C=Cc1ccc(O)c(O)c1
REMARK SMILES IDX 6 1 7 2 4 3 5 4 3 5 2 6 1 7 8 8 15 9 9 10 13 11 10 12 11 13
REMARK SMILES IDX 14 14 12 16
REMARK H PARENT 14 15 12 17
REMARK Flexibility Score: inf
ROOT
ATOM      1  C   UNL     1      29.590  20.900  14.522  1.00  0.00     0.094 C 
ATOM      2  C   UNL     1      28.817  20.243  15.401  1.00  0.00     0.016 C 
ENDROOT
BRANCH   1   3
ATOM      3  C   UNL     1      29.108  21.672  13.360  1.00  0.00     0.330 C 
ATOM      4  O   UNL     1      28.817  22.894  13.466  1.00  0.00    -0.247 OA
BRANCH   3   5
ATOM      5  O   UNL     1      28.920  21.006  12.147  1.00  0.00    -0.463 OA
BRANCH   5   6
ATOM      6  C   UNL     1      29.873  21.053  11.089  1.00  0.00     0.230 C 
ATOM      7  C   UNL     1      29.154  21.265   9.766  1.00  0.00     0.049 C 
ENDBRANCH   5   6
ENDBRANCH   3   5
ENDBRANCH   1   3
BRANCH   2   8
ATOM      8  C   UNL     1      27.344  20.323  15.473  1.00  0.00    -0.021 A 
ATOM      9  C   UNL     1      26.585  20.080  14.319  1.00  0.00     0.058 A 
ATOM     10  C   UNL     1      26.684  20.537  16.695  1.00  0.00     0.012 A 
ATOM     11  C   UNL     1      25.186  20.102  14.367  1.00  0.00     0.157 A 
ATOM     12  C   UNL     1      25.288  20.560  16.748  1.00  0.00     0.051 A 
ATOM     13  C   UNL     1      24.534  20.347  15.588  1.00  0.00     0.157 A 
BRANCH  11  14
ATOM     14  O   UNL     1      24.464  19.875  13.196  1.00  0.00    -0.504 OA
ATOM     15  H   UNL     1      24.450  20.545  12.436  1.00  0.00     0.293 HD
ENDBRANCH  11  14
BRANCH  13  16
ATOM     16  O   UNL     1      23.141  20.372  15.642  1.00  0.00    -0.504 OA
ATOM     17  H   UNL     1      22.645  21.026  16.238  1.00  0.00     0.293 HD
ENDBRANCH  13  16
ENDBRANCH   2   8
TORSDOF 6
ENDMDL
MODEL 4
REMARK VINA RESULT:    -2.387     13.798     16.144
REMARK INTER + INTRA:          -2.698
REMARK INTER:                  -3.356
REMARK INTRA:                   0.658
REMARK UNBOUND:                 0.386
REMARK SMILES CCOC(=O)C=Cc1ccc(O)c(O)c1
REMARK SMILES IDX 6 1 7 2 4 3 5 4 3 5 2 6 1 7 8 8 15 9 9 10 13 11 10 12 11 13
REMARK SMILES IDX 14 14 12 16
REMARK H PARENT 14 15 12 17
REMARK Flexibility Score: inf
ROOT
ATOM      1  C   UNL     1      10.223  22.433  21.883  1.00  0.00     0.094 C 
ATOM      2  C   UNL     1       9.875  22.320  20.591  1.00  0.00     0.016 C 
ENDROOT
BRANCH   1   3
ATOM      3  C   UNL     1      11.448  21.884  22.496  1.00  0.00     0.330 C 
ATOM      4  O   UNL     1      12.427  22.629  22.775  1.00  0.00    -0.247 OA
BRANCH   3   5
ATOM      5  O   UNL     1      11.530  20.506  22.707  1.00  0.00    -0.463 OA
BRANCH   5   6
ATOM      6  C   UNL     1      11.464  19.923  24.005  1.00  0.00     0.230 C 
ATOM      7  C   UNL     1      10.017  19.877  24.470  1.00  0.00     0.049 C 
ENDBRANCH   5   6
ENDBRANCH   3   5
ENDBRANCH   1   3
BRANCH   2   8
ATOM      8  C   UNL     1      10.736  21.787  19.516  1.00  0.00    -0.021 A 
ATOM      9  C   UNL     1      10.512  22.190  18.192  1.00  0.00     0.058 A 
ATOM     10  C   UNL     1      11.837  20.963  19.805  1.00  0.00     0.012 A 
ATOM     11  C   UNL     1      11.342  21.739  17.159  1.00  0.00     0.157 A 
ATOM     12  C   UNL     1      12.668  20.509  18.778  1.00  0.00     0.051 A 
ATOM     13  C   UNL     1      12.424  20.891  17.452  1.00  0.00     0.157 A 
BRANCH  11  14
ATOM     14  O   UNL     1      11.078  22.146  15.851  1.00  0.00    -0.504 OA
ATOM     15  H   UNL     1      10.724  23.071  15.637  1.00  0.00     0.293 HD
ENDBRANCH  11  14
BRANCH  13  16
ATOM     16  O   UNL     1      13.252  20.435  16.427  1.00  0.00    -0.504 OA
ATOM     17  H   UNL     1      14.160  20.852  16.255  1.00  0.00     0.293 HD
ENDBRANCH  13  16
ENDBRANCH   2   8
TORSDOF 6
ENDMDL
MODEL 5
REMARK VINA RESULT:    -2.332      2.833      4.954
REMARK INTER + INTRA:          -2.627
REMARK INTER:                  -3.608
REMARK INTRA:                   0.980
REMARK UNBOUND:                 0.386
REMARK SMILES CCOC(=O)C=Cc1ccc(O)c(O)c1
REMARK SMILES IDX 6 1 7 2 4 3 5 4 3 5 2 6 1 7 8 8 15 9 9 10 13 11 10 12 11 13
REMARK SMILES IDX 14 14 12 16
REMARK H PARENT 14 15 12 17
REMARK Flexibility Score: inf
ROOT
ATOM      1  C   UNL     1      30.098  22.372  10.962  1.00  0.00     0.094 C 
ATOM      2  C   UNL     1      29.615  22.758  12.153  1.00  0.00     0.016 C 
ENDROOT
BRANCH   1   3
ATOM      3  C   UNL     1      29.954  21.028  10.369  1.00  0.00     0.330 C 
ATOM      4  O   UNL     1      29.757  20.014  11.093  1.00  0.00    -0.247 OA
BRANCH   3   5
ATOM      5  O   UNL     1      30.102  20.887   8.987  1.00  0.00    -0.463 OA
BRANCH   5   6
ATOM      6  C   UNL     1      29.016  20.554   8.129  1.00  0.00     0.230 C 
ATOM      7  C   UNL     1      27.786  20.235   8.965  1.00  0.00     0.049 C 
ENDBRANCH   5   6
ENDBRANCH   3   5
ENDBRANCH   1   3
BRANCH   2   8
ATOM      8  C   UNL     1      28.701  21.969  13.004  1.00  0.00    -0.021 A 
ATOM      9  C   UNL     1      28.915  21.926  14.389  1.00  0.00     0.058 A 
ATOM     10  C   UNL     1      27.563  21.345  12.465  1.00  0.00     0.012 A 
ATOM     11  C   UNL     1      28.037  21.225  15.224  1.00  0.00     0.157 A 
ATOM     12  C   UNL     1      26.684  20.644  13.295  1.00  0.00     0.051 A 
ATOM     13  C   UNL     1      26.918  20.577  14.675  1.00  0.00     0.157 A 
BRANCH  11  14
ATOM     14  O   UNL     1      28.293  21.187  16.595  1.00  0.00    -0.504 OA
ATOM     15  H   UNL     1      28.191  20.337  17.137  1.00  0.00     0.293 HD
ENDBRANCH  11  14
BRANCH  13  16
ATOM     16  O   UNL     1      26.042  19.876  15.502  1.00  0.00    -0.504 OA
ATOM     17  H   UNL     1      25.116  20.230  15.715  1.00  0.00     0.293 HD
ENDBRANCH  13  16
ENDBRANCH   2   8
TORSDOF 6
ENDMDL
MODEL 6
REMARK VINA RESULT:    -2.298     13.233     15.200
REMARK INTER + INTRA:          -2.584
REMARK INTER:                  -3.654
REMARK INTRA:                   1.070
REMARK UNBOUND:                 0.386
REMARK SMILES CCOC(=O)C=Cc1ccc(O)c(O)c1
REMARK SMILES IDX 6 1 7 2 4 3 5 4 3 5 2 6 1 7 8 8 15 9 9 10 13 11 10 12 11 13
REMARK SMILES IDX 14 14 12 16
REMARK H PARENT 14 15 12 17
REMARK Flexibility Score: inf
ROOT
ATOM      1  C   UNL     1      12.501  19.875  20.465  1.00  0.00     0.094 C 
ATOM      2  C   UNL     1      13.245  19.897  19.347  1.00  0.00     0.016 C 
ENDROOT
BRANCH   1   3
ATOM      3  C   UNL     1      11.231  20.599  20.668  1.00  0.00     0.330 C 
ATOM      4  O   UNL     1      10.124  20.063  20.390  1.00  0.00    -0.247 OA
BRANCH   3   5
ATOM      5  O   UNL     1      11.280  21.920  21.121  1.00  0.00    -0.463 OA
BRANCH   5   6
ATOM      6  C   UNL     1      11.207  22.261  22.502  1.00  0.00     0.230 C 
ATOM      7  C   UNL     1      11.329  21.001  23.345  1.00  0.00     0.049 C 
ENDBRANCH   5   6
ENDBRANCH   3   5
ENDBRANCH   1   3
BRANCH   2   8
ATOM      8  C   UNL     1      12.841  20.501  18.061  1.00  0.00    -0.021 A 
ATOM      9  C   UNL     1      11.589  21.124  17.957  1.00  0.00     0.058 A 
ATOM     10  C   UNL     1      13.725  20.551  16.970  1.00  0.00     0.012 A 
ATOM     11  C   UNL     1      11.199  21.746  16.765  1.00  0.00     0.157 A 
ATOM     12  C   UNL     1      13.340  21.170  15.778  1.00  0.00     0.051 A 
ATOM     13  C   UNL     1      12.077  21.766  15.668  1.00  0.00     0.157 A 
BRANCH  11  14
ATOM     14  O   UNL     1       9.939  22.340  16.692  1.00  0.00    -0.504 OA
ATOM     15  H   UNL     1       9.815  23.345  16.730  1.00  0.00     0.293 HD
ENDBRANCH  11  14
BRANCH  13  16
ATOM     16  O   UNL     1      11.693  22.381  14.477  1.00  0.00    -0.504 OA
ATOM     17  H   UNL     1      10.746  22.713  14.334  1.00  0.00     0.293 HD
ENDBRANCH  13  16
ENDBRANCH   2   8
TORSDOF 6
ENDMDL
MODEL 7
REMARK VINA RESULT:    -1.689      2.475      4.216
REMARK INTER + INTRA:          -1.796
REMARK INTER:                  -2.748
REMARK INTRA:                   0.952
REMARK UNBOUND:                 0.386
REMARK SMILES CCOC(=O)C=Cc1ccc(O)c(O)c1
REMARK SMILES IDX 6 1 7 2 4 3 5 4 3 5 2 6 1 7 8 8 15 9 9 10 13 11 10 12 11 13
REMARK SMILES IDX 14 14 12 16
REMARK H PARENT 14 15 12 17
REMARK Flexibility Score: inf
ROOT
ATOM      1  C   UNL     1      30.108  22.526  12.477  1.00  0.00     0.094 C 
ATOM      2  C   UNL     1      29.811  22.298  13.767  1.00  0.00     0.016 C 
ENDROOT
BRANCH   1   3
ATOM      3  C   UNL     1      29.316  22.072  11.318  1.00  0.00     0.330 C 
ATOM      4  O   UNL     1      28.254  22.663  10.982  1.00  0.00    -0.247 OA
BRANCH   3   5
ATOM      5  O   UNL     1      29.732  20.929  10.631  1.00  0.00    -0.463 OA
BRANCH   5   6
ATOM      6  C   UNL     1      29.604  20.792   9.219  1.00  0.00     0.230 C 
ATOM      7  C   UNL     1      28.336  20.016   8.896  1.00  0.00     0.049 C 
ENDBRANCH   5   6
ENDBRANCH   3   5
ENDBRANCH   1   3
BRANCH   2   8
ATOM      8  C   UNL     1      28.551  21.711  14.264  1.00  0.00    -0.021 A 
ATOM      9  C   UNL     1      27.677  21.091  13.360  1.00  0.00     0.058 A 
ATOM     10  C   UNL     1      28.258  21.672  15.638  1.00  0.00     0.012 A 
ATOM     11  C   UNL     1      26.498  20.484  13.810  1.00  0.00     0.157 A 
ATOM     12  C   UNL     1      27.082  21.068  16.092  1.00  0.00     0.051 A 
ATOM     13  C   UNL     1      26.197  20.476  15.182  1.00  0.00     0.157 A 
BRANCH  11  14
ATOM     14  O   UNL     1      25.643  19.893  12.879  1.00  0.00    -0.504 OA
ATOM     15  H   UNL     1      25.991  19.418  12.055  1.00  0.00     0.293 HD
ENDBRANCH  11  14
BRANCH  13  16
ATOM     16  O   UNL     1      25.023  19.875  15.636  1.00  0.00    -0.504 OA
ATOM     17  H   UNL     1      24.963  19.457  16.558  1.00  0.00     0.293 HD
ENDBRANCH  13  16
ENDBRANCH   2   8
TORSDOF 6
ENDMDL
