MODEL 1
REMARK VINA RESULT:    -5.166      0.000      0.000
REMARK INTER + INTRA:          -5.166
REMARK INTER:                  -5.166
REMARK INTRA:                   0.000
REMARK UNBOUND:                 0.000
REMARK SMILES CC(C)=C1CC[C@@H](C)CC1=O
REMARK SMILES IDX 8 1 7 2 6 3 5 4 4 5 2 6 1 7 3 8 10 9 11 10 9 11
REMARK H PARENT
REMARK Flexibility Score: inf
ROOT
ATOM      1  C   UNL     1      12.004 -10.100  19.229  1.00  0.00     0.008 C 
ATOM      2  C   UNL     1      10.933 -10.119  18.127  1.00  0.00    -0.006 C 
ATOM      3  C   UNL     1       9.697 -10.944  18.528  1.00  0.00     0.008 C 
ATOM      4  C   UNL     1       9.995 -12.446  18.663  1.00  0.00     0.039 C 
ATOM      5  C   UNL     1      10.744 -13.013  17.464  1.00  0.00    -0.006 C 
ATOM      6  C   UNL     1      10.586 -14.315  17.085  1.00  0.00    -0.070 C 
ATOM      7  C   UNL     1       9.677 -15.250  17.849  1.00  0.00     0.039 C 
ATOM      8  C   UNL     1      11.279 -14.878  15.865  1.00  0.00     0.039 C 
ATOM      9  C   UNL     1      11.736 -12.107  16.815  1.00  0.00     0.159 C 
ATOM     10  O   UNL     1      12.788 -12.557  16.289  1.00  0.00    -0.295 OA
ATOM     11  C   UNL     1      11.499 -10.625  16.792  1.00  0.00     0.084 C 
ENDROOT
TORSDOF 0
ENDMDL
MODEL 2
REMARK VINA RESULT:    -5.044      2.090      3.767
REMARK INTER + INTRA:          -5.044
REMARK INTER:                  -5.044
REMARK INTRA:                   0.000
REMARK UNBOUND:                 0.000
REMARK SMILES CC(C)=C1CC[C@@H](C)CC1=O
REMARK SMILES IDX 8 1 7 2 6 3 5 4 4 5 2 6 1 7 3 8 10 9 11 10 9 11
REMARK H PARENT
REMARK Flexibility Score: inf
ROOT
ATOM      1  C   UNL     1      10.636 -12.937  17.631  1.00  0.00     0.008 C 
ATOM      2  C   UNL     1       9.731 -13.983  16.962  1.00  0.00    -0.006 C 
ATOM      3  C   UNL     1       9.729 -15.323  17.718  1.00  0.00     0.008 C 
ATOM      4  C   UNL     1      11.085 -16.045  17.666  1.00  0.00     0.039 C 
ATOM      5  C   UNL     1      11.653 -16.141  16.256  1.00  0.00    -0.006 C 
ATOM      6  C   UNL     1      12.454 -17.184  15.887  1.00  0.00    -0.070 C 
ATOM      7  C   UNL     1      12.823 -18.274  16.867  1.00  0.00     0.039 C 
ATOM      8  C   UNL     1      12.979 -17.323  14.476  1.00  0.00     0.039 C 
ATOM      9  C   UNL     1      11.384 -14.983  15.354  1.00  0.00     0.159 C 
ATOM     10  O   UNL     1      12.217 -14.628  14.478  1.00  0.00    -0.295 OA
ATOM     11  C   UNL     1      10.108 -14.205  15.489  1.00  0.00     0.084 C 
ENDROOT
TORSDOF 0
ENDMDL
MODEL 3
REMARK VINA RESULT:    -4.956      3.218      5.682
REMARK INTER + INTRA:          -4.956
REMARK INTER:                  -4.956
REMARK INTRA:                   0.000
REMARK UNBOUND:                 0.000
REMARK SMILES CC(C)=C1CC[C@@H](C)CC1=O
REMARK SMILES IDX 8 1 7 2 6 3 5 4 4 5 2 6 1 7 3 8 10 9 11 10 9 11
REMARK H PARENT
REMARK Flexibility Score: inf
ROOT
ATOM      1  C   UNL     1      12.012 -18.613  13.794  1.00  0.00     0.008 C 
ATOM      2  C   UNL     1      12.917 -17.539  14.416  1.00  0.00    -0.006 C 
ATOM      3  C   UNL     1      12.854 -17.540  15.954  1.00  0.00     0.008 C 
ATOM      4  C   UNL     1      11.483 -17.108  16.499  1.00  0.00     0.039 C 
ATOM      5  C   UNL     1      10.972 -15.819  15.869  1.00  0.00    -0.006 C 
ATOM      6  C   UNL     1      10.161 -14.968  16.562  1.00  0.00    -0.070 C 
ATOM      7  C   UNL     1       9.724 -15.278  17.976  1.00  0.00     0.039 C 
ATOM      8  C   UNL     1       9.691 -13.658  15.971  1.00  0.00     0.039 C 
ATOM      9  C   UNL     1      11.307 -15.608  14.430  1.00  0.00     0.159 C 
ATOM     10  O   UNL     1      10.521 -14.999  13.657  1.00  0.00    -0.295 OA
ATOM     11  C   UNL     1      12.596 -16.138  13.873  1.00  0.00     0.084 C 
ENDROOT
TORSDOF 0
ENDMDL
MODEL 4
REMARK VINA RESULT:    -4.866     17.397     19.457
REMARK INTER + INTRA:          -4.866
REMARK INTER:                  -4.866
REMARK INTRA:                   0.000
REMARK UNBOUND:                 0.000
REMARK SMILES CC(C)=C1CC[C@@H](C)CC1=O
REMARK SMILES IDX 8 1 7 2 6 3 5 4 4 5 2 6 1 7 3 8 10 9 11 10 9 11
REMARK H PARENT
REMARK Flexibility Score: inf
ROOT
ATOM      1  C   UNL     1       0.631 -25.750  15.705  1.00  0.00     0.008 C 
ATOM      2  C   UNL     1       0.019 -25.133  14.437  1.00  0.00    -0.006 C 
ATOM      3  C   UNL     1      -1.507 -24.971  14.544  1.00  0.00     0.008 C 
ATOM      4  C   UNL     1      -2.252 -26.315  14.595  1.00  0.00     0.039 C 
ATOM      5  C   UNL     1      -1.816 -27.278  13.499  1.00  0.00    -0.006 C 
ATOM      6  C   UNL     1      -2.681 -28.200  12.985  1.00  0.00    -0.070 C 
ATOM      7  C   UNL     1      -4.100 -28.314  13.494  1.00  0.00     0.039 C 
ATOM      8  C   UNL     1      -2.281 -29.125  11.858  1.00  0.00     0.039 C 
ATOM      9  C   UNL     1      -0.375 -27.233  13.113  1.00  0.00     0.159 C 
ATOM     10  O   UNL     1       0.235 -28.269  12.740  1.00  0.00    -0.295 OA
ATOM     11  C   UNL     1       0.381 -25.938  13.180  1.00  0.00     0.084 C 
ENDROOT
TORSDOF 0
ENDMDL
MODEL 5
REMARK VINA RESULT:    -4.826     17.170     18.907
REMARK INTER + INTRA:          -4.826
REMARK INTER:                  -4.826
REMARK INTRA:                   0.000
REMARK UNBOUND:                 0.000
REMARK SMILES CC(C)=C1CC[C@@H](C)CC1=O
REMARK SMILES IDX 8 1 7 2 6 3 5 4 4 5 2 6 1 7 3 8 10 9 11 10 9 11
REMARK H PARENT
REMARK Flexibility Score: inf
ROOT
ATOM      1  C   UNL     1      -1.495 -23.491  14.621  1.00  0.00     0.008 C 
ATOM      2  C   UNL     1      -0.744 -24.572  15.414  1.00  0.00    -0.006 C 
ATOM      3  C   UNL     1       0.563 -25.000  14.724  1.00  0.00     0.008 C 
ATOM      4  C   UNL     1       0.328 -25.735  13.394  1.00  0.00     0.039 C 
ATOM      5  C   UNL     1      -0.698 -26.855  13.507  1.00  0.00    -0.006 C 
ATOM      6  C   UNL     1      -0.628 -27.959  12.708  1.00  0.00    -0.070 C 
ATOM      7  C   UNL     1       0.459 -28.106  11.667  1.00  0.00     0.039 C 
ATOM      8  C   UNL     1      -1.605 -29.105  12.846  1.00  0.00     0.039 C 
ATOM      9  C   UNL     1      -1.835 -26.619  14.445  1.00  0.00     0.159 C 
ATOM     10  O   UNL     1      -2.981 -27.086  14.215  1.00  0.00    -0.295 OA
ATOM     11  C   UNL     1      -1.629 -25.799  15.685  1.00  0.00     0.084 C 
ENDROOT
TORSDOF 0
ENDMDL
MODEL 6
REMARK VINA RESULT:    -4.812      1.954      4.583
REMARK INTER + INTRA:          -4.812
REMARK INTER:                  -4.812
REMARK INTRA:                   0.000
REMARK UNBOUND:                 0.000
REMARK SMILES CC(C)=C1CC[C@@H](C)CC1=O
REMARK SMILES IDX 8 1 7 2 6 3 5 4 4 5 2 6 1 7 3 8 10 9 11 10 9 11
REMARK H PARENT
REMARK Flexibility Score: inf
ROOT
ATOM      1  C   UNL     1      11.653 -16.345  17.152  1.00  0.00     0.008 C 
ATOM      2  C   UNL     1      10.276 -16.018  16.554  1.00  0.00    -0.006 C 
ATOM      3  C   UNL     1      10.384 -15.271  15.213  1.00  0.00     0.008 C 
ATOM      4  C   UNL     1      10.975 -13.859  15.356  1.00  0.00     0.039 C 
ATOM      5  C   UNL     1      10.306 -13.045  16.456  1.00  0.00    -0.006 C 
ATOM      6  C   UNL     1      10.220 -11.685  16.374  1.00  0.00    -0.070 C 
ATOM      7  C   UNL     1      10.800 -10.932  15.198  1.00  0.00     0.039 C 
ATOM      8  C   UNL     1       9.510 -10.867  17.429  1.00  0.00     0.039 C 
ATOM      9  C   UNL     1       9.866 -13.801  17.665  1.00  0.00     0.159 C 
ATOM     10  O   UNL     1       9.885 -13.274  18.809  1.00  0.00    -0.295 OA
ATOM     11  C   UNL     1       9.402 -15.222  17.536  1.00  0.00     0.084 C 
ENDROOT
TORSDOF 0
ENDMDL
MODEL 7
REMARK VINA RESULT:    -4.759     16.740     19.484
REMARK INTER + INTRA:          -4.759
REMARK INTER:                  -4.759
REMARK INTRA:                   0.000
REMARK UNBOUND:                 0.000
REMARK SMILES CC(C)=C1CC[C@@H](C)CC1=O
REMARK SMILES IDX 8 1 7 2 6 3 5 4 4 5 2 6 1 7 3 8 10 9 11 10 9 11
REMARK H PARENT
REMARK Flexibility Score: inf
ROOT
ATOM      1  C   UNL     1      -2.896 -28.598  12.128  1.00  0.00     0.008 C 
ATOM      2  C   UNL     1      -2.115 -28.803  13.436  1.00  0.00    -0.006 C 
ATOM      3  C   UNL     1      -2.634 -27.905  14.573  1.00  0.00     0.008 C 
ATOM      4  C   UNL     1      -2.381 -26.409  14.321  1.00  0.00     0.039 C 
ATOM      5  C   UNL     1      -0.943 -26.111  13.914  1.00  0.00    -0.006 C 
ATOM      6  C   UNL     1      -0.358 -24.916  14.220  1.00  0.00    -0.070 C 
ATOM      7  C   UNL     1      -1.117 -23.836  14.957  1.00  0.00     0.039 C 
ATOM      8  C   UNL     1       1.085 -24.626  13.873  1.00  0.00     0.039 C 
ATOM      9  C   UNL     1      -0.267 -27.139  13.071  1.00  0.00     0.159 C 
ATOM     10  O   UNL     1       0.585 -26.816  12.201  1.00  0.00    -0.295 OA
ATOM     11  C   UNL     1      -0.607 -28.592  13.238  1.00  0.00     0.084 C 
ENDROOT
TORSDOF 0
ENDMDL
MODEL 8
REMARK VINA RESULT:    -4.650      1.581      2.610
REMARK INTER + INTRA:          -4.650
REMARK INTER:                  -4.650
REMARK INTRA:                   0.000
REMARK UNBOUND:                 0.000
REMARK SMILES CC(C)=C1CC[C@@H](C)CC1=O
REMARK SMILES IDX 8 1 7 2 6 3 5 4 4 5 2 6 1 7 3 8 10 9 11 10 9 11
REMARK H PARENT
REMARK Flexibility Score: inf
ROOT
ATOM      1  C   UNL     1      11.557  -9.767  16.438  1.00  0.00     0.008 C 
ATOM      2  C   UNL     1      12.446 -10.700  17.274  1.00  0.00    -0.006 C 
ATOM      3  C   UNL     1      13.005 -11.871  16.446  1.00  0.00     0.008 C 
ATOM      4  C   UNL     1      11.916 -12.853  15.983  1.00  0.00     0.039 C 
ATOM      5  C   UNL     1      10.992 -13.290  17.111  1.00  0.00    -0.006 C 
ATOM      6  C   UNL     1      10.398 -14.520  17.101  1.00  0.00    -0.070 C 
ATOM      7  C   UNL     1      10.621 -15.489  15.962  1.00  0.00     0.039 C 
ATOM      8  C   UNL     1       9.523 -14.991  18.240  1.00  0.00     0.039 C 
ATOM      9  C   UNL     1      10.683 -12.264  18.149  1.00  0.00     0.159 C 
ATOM     10  O   UNL     1       9.565 -12.233  18.728  1.00  0.00    -0.295 OA
ATOM     11  C   UNL     1      11.709 -11.230  18.513  1.00  0.00     0.084 C 
ENDROOT
TORSDOF 0
ENDMDL
MODEL 9
REMARK VINA RESULT:    -4.597      1.824      3.003
REMARK INTER + INTRA:          -4.597
REMARK INTER:                  -4.597
REMARK INTRA:                   0.000
REMARK UNBOUND:                 0.000
REMARK SMILES CC(C)=C1CC[C@@H](C)CC1=O
REMARK SMILES IDX 8 1 7 2 6 3 5 4 4 5 2 6 1 7 3 8 10 9 11 10 9 11
REMARK H PARENT
REMARK Flexibility Score: inf
ROOT
ATOM      1  C   UNL     1       9.420 -11.114  16.686  1.00  0.00     0.008 C 
ATOM      2  C   UNL     1      10.640 -11.521  17.526  1.00  0.00    -0.006 C 
ATOM      3  C   UNL     1      11.889 -11.766  16.661  1.00  0.00     0.008 C 
ATOM      4  C   UNL     1      11.754 -12.991  15.742  1.00  0.00     0.039 C 
ATOM      5  C   UNL     1      11.267 -14.233  16.476  1.00  0.00    -0.006 C 
ATOM      6  C   UNL     1      11.633 -15.483  16.067  1.00  0.00    -0.070 C 
ATOM      7  C   UNL     1      12.520 -15.685  14.859  1.00  0.00     0.039 C 
ATOM      8  C   UNL     1      11.205 -16.723  16.818  1.00  0.00     0.039 C 
ATOM      9  C   UNL     1      10.286 -14.009  17.578  1.00  0.00     0.159 C 
ATOM     10  O   UNL     1       9.386 -14.852  17.834  1.00  0.00    -0.295 OA
ATOM     11  C   UNL     1      10.347 -12.753  18.396  1.00  0.00     0.084 C 
ENDROOT
TORSDOF 0
ENDMDL
