MODEL 1
REMARK VINA RESULT:    -4.908      0.000      0.000
REMARK INTER + INTRA:          -8.320
REMARK INTER:                  -7.777
REMARK INTRA:                  -0.543
REMARK UNBOUND:                -0.543
REMARK SMILES CCCCCCCCCCCC(=O)[O-]
REMARK SMILES IDX 7 1 8 2 9 3 10 4 11 5 12 6 13 7 14 8 6 9 5 10 4 11 3 12 2 13
REMARK SMILES IDX 1 14
REMARK H PARENT
REMARK Flexibility Score: inf
ROOT
ATOM      1  C   UNL     1      97.122 123.733 126.153  1.00  0.00     0.000 C 
ENDROOT
BRANCH   1   2
ATOM      2  C   UNL     1      98.484 124.240 126.655  1.00  0.00     0.000 C 
BRANCH   2   3
ATOM      3  C   UNL     1      99.601 123.198 126.486  1.00  0.00     0.000 C 
BRANCH   3   4
ATOM      4  C   UNL     1      99.065 121.755 126.491  1.00  0.00     0.006 C 
BRANCH   4   5
ATOM      5  C   UNL     1     100.119 120.748 126.969  1.00  0.00     0.053 C 
BRANCH   5   6
ATOM      6  C   UNL     1     100.751 120.024 125.820  1.00  0.00     0.041 C 
ATOM      7  O   UNL     1     100.094 119.807 124.767  1.00  0.00    -0.550 OA
ATOM      8  O   UNL     1     102.056 119.561 125.923  1.00  0.00    -0.550 OA
ENDBRANCH   5   6
ENDBRANCH   4   5
ENDBRANCH   3   4
ENDBRANCH   2   3
ENDBRANCH   1   2
BRANCH   1   9
ATOM      9  C   UNL     1      96.607 124.545 124.945  1.00  0.00     0.000 C 
BRANCH   9  10
ATOM     10  C   UNL     1      95.363 123.934 124.276  1.00  0.00    -0.000 C 
BRANCH  10  11
ATOM     11  C   UNL     1      94.583 122.992 125.208  1.00  0.00    -0.000 C 
BRANCH  11  12
ATOM     12  C   UNL     1      93.138 122.755 124.721  1.00  0.00    -0.000 C 
BRANCH  12  13
ATOM     13  C   UNL     1      92.826 123.427 123.373  1.00  0.00    -0.003 C 
ATOM     14  C   UNL     1      92.713 122.432 122.221  1.00  0.00     0.004 C 
ENDBRANCH  12  13
ENDBRANCH  11  12
ENDBRANCH  10  11
ENDBRANCH   9  10
ENDBRANCH   1   9
TORSDOF 10
ENDMDL
MODEL 2
REMARK VINA RESULT:    -4.902      3.573      7.028
REMARK INTER + INTRA:          -8.310
REMARK INTER:                  -7.820
REMARK INTRA:                  -0.491
REMARK UNBOUND:                -0.543
REMARK SMILES CCCCCCCCCCCC(=O)[O-]
REMARK SMILES IDX 7 1 8 2 9 3 10 4 11 5 12 6 13 7 14 8 6 9 5 10 4 11 3 12 2 13
REMARK SMILES IDX 1 14
REMARK H PARENT
REMARK Flexibility Score: inf
ROOT
ATOM      1  C   UNL     1      97.662 122.963 126.416  1.00  0.00     0.000 C 
ENDROOT
BRANCH   1   2
ATOM      2  C   UNL     1      96.567 124.016 126.175  1.00  0.00     0.000 C 
BRANCH   2   3
ATOM      3  C   UNL     1      96.633 124.625 124.765  1.00  0.00     0.000 C 
BRANCH   3   4
ATOM      4  C   UNL     1      95.584 124.022 123.814  1.00  0.00     0.006 C 
BRANCH   4   5
ATOM      5  C   UNL     1      94.412 123.386 124.573  1.00  0.00     0.053 C 
BRANCH   5   6
ATOM      6  C   UNL     1      93.134 123.483 123.798  1.00  0.00     0.041 C 
ATOM      7  O   UNL     1      92.364 124.466 123.964  1.00  0.00    -0.550 OA
ATOM      8  O   UNL     1      92.778 122.472 122.915  1.00  0.00    -0.550 OA
ENDBRANCH   5   6
ENDBRANCH   4   5
ENDBRANCH   3   4
ENDBRANCH   2   3
ENDBRANCH   1   2
BRANCH   1   9
ATOM      9  C   UNL     1      99.061 123.600 126.555  1.00  0.00     0.000 C 
BRANCH   9  10
ATOM     10  C   UNL     1     100.214 122.590 126.426  1.00  0.00    -0.000 C 
BRANCH  10  11
ATOM     11  C   UNL     1      99.728 121.134 126.332  1.00  0.00    -0.000 C 
BRANCH  11  12
ATOM     12  C   UNL     1     100.651 120.161 127.096  1.00  0.00    -0.000 C 
BRANCH  12  13
ATOM     13  C   UNL     1     102.002 119.923 126.400  1.00  0.00    -0.003 C 
ATOM     14  C   UNL     1     101.878 119.773 124.886  1.00  0.00     0.004 C 
ENDBRANCH  12  13
ENDBRANCH  11  12
ENDBRANCH  10  11
ENDBRANCH   9  10
ENDBRANCH   1   9
TORSDOF 10
ENDMDL
MODEL 3
REMARK VINA RESULT:    -4.720      3.534      7.171
REMARK INTER + INTRA:          -8.023
REMARK INTER:                  -7.588
REMARK INTRA:                  -0.435
REMARK UNBOUND:                -0.543
REMARK SMILES CCCCCCCCCCCC(=O)[O-]
REMARK SMILES IDX 7 1 8 2 9 3 10 4 11 5 12 6 13 7 14 8 6 9 5 10 4 11 3 12 2 13
REMARK SMILES IDX 1 14
REMARK H PARENT
REMARK Flexibility Score: inf
ROOT
ATOM      1  C   UNL     1      95.460 123.901 123.938  1.00  0.00     0.000 C 
ENDROOT
BRANCH   1   2
ATOM      2  C   UNL     1      94.411 123.283 124.877  1.00  0.00     0.000 C 
BRANCH   2   3
ATOM      3  C   UNL     1      93.072 123.014 124.172  1.00  0.00     0.000 C 
BRANCH   3   4
ATOM      4  C   UNL     1      93.154 123.237 122.651  1.00  0.00     0.006 C 
BRANCH   4   5
ATOM      5  C   UNL     1      92.443 122.127 121.865  1.00  0.00     0.053 C 
BRANCH   5   6
ATOM      6  C   UNL     1      92.807 122.160 120.412  1.00  0.00     0.041 C 
ATOM      7  O   UNL     1      92.083 122.784 119.590  1.00  0.00    -0.550 OA
ATOM      8  O   UNL     1      93.927 121.476 119.959  1.00  0.00    -0.550 OA
ENDBRANCH   5   6
ENDBRANCH   4   5
ENDBRANCH   3   4
ENDBRANCH   2   3
ENDBRANCH   1   2
BRANCH   1   9
ATOM      9  C   UNL     1      96.578 124.629 124.714  1.00  0.00     0.000 C 
BRANCH   9  10
ATOM     10  C   UNL     1      96.827 124.058 126.120  1.00  0.00    -0.000 C 
BRANCH  10  11
ATOM     11  C   UNL     1      98.316 123.807 126.411  1.00  0.00    -0.000 C 
BRANCH  11  12
ATOM     12  C   UNL     1      98.653 122.303 126.473  1.00  0.00    -0.000 C 
BRANCH  12  13
ATOM     13  C   UNL     1     100.161 122.007 126.410  1.00  0.00    -0.003 C 
ATOM     14  C   UNL     1     100.482 120.516 126.490  1.00  0.00     0.004 C 
ENDBRANCH  12  13
ENDBRANCH  11  12
ENDBRANCH  10  11
ENDBRANCH   9  10
ENDBRANCH   1   9
TORSDOF 10
ENDMDL
MODEL 4
REMARK VINA RESULT:    -4.700      0.787      1.607
REMARK INTER + INTRA:          -7.990
REMARK INTER:                  -7.461
REMARK INTRA:                  -0.529
REMARK UNBOUND:                -0.543
REMARK SMILES CCCCCCCCCCCC(=O)[O-]
REMARK SMILES IDX 7 1 8 2 9 3 10 4 11 5 12 6 13 7 14 8 6 9 5 10 4 11 3 12 2 13
REMARK SMILES IDX 1 14
REMARK H PARENT
REMARK Flexibility Score: inf
ROOT
ATOM      1  C   UNL     1      96.649 124.530 124.748  1.00  0.00     0.000 C 
ENDROOT
BRANCH   1   2
ATOM      2  C   UNL     1      96.969 123.800 126.063  1.00  0.00     0.000 C 
BRANCH   2   3
ATOM      3  C   UNL     1      98.303 124.252 126.679  1.00  0.00     0.000 C 
BRANCH   3   4
ATOM      4  C   UNL     1      99.425 123.219 126.475  1.00  0.00     0.006 C 
BRANCH   4   5
ATOM      5  C   UNL     1      98.933 121.781 126.685  1.00  0.00     0.053 C 
BRANCH   5   6
ATOM      6  C   UNL     1     100.020 120.782 126.428  1.00  0.00     0.041 C 
ATOM      7  O   UNL     1     100.331 120.473 125.246  1.00  0.00    -0.550 OA
ATOM      8  O   UNL     1     100.667 120.168 127.492  1.00  0.00    -0.550 OA
ENDBRANCH   5   6
ENDBRANCH   4   5
ENDBRANCH   3   4
ENDBRANCH   2   3
ENDBRANCH   1   2
BRANCH   1   9
ATOM      9  C   UNL     1      95.324 124.046 124.121  1.00  0.00     0.000 C 
BRANCH   9  10
ATOM     10  C   UNL     1      94.518 123.105 125.032  1.00  0.00    -0.000 C 
BRANCH  10  11
ATOM     11  C   UNL     1      93.054 122.948 124.587  1.00  0.00    -0.000 C 
BRANCH  11  12
ATOM     12  C   UNL     1      92.857 123.297 123.097  1.00  0.00    -0.000 C 
BRANCH  12  13
ATOM     13  C   UNL     1      92.677 122.064 122.196  1.00  0.00    -0.003 C 
ATOM     14  C   UNL     1      92.648 122.409 120.709  1.00  0.00     0.004 C 
ENDBRANCH  12  13
ENDBRANCH  11  12
ENDBRANCH  10  11
ENDBRANCH   9  10
ENDBRANCH   1   9
TORSDOF 10
ENDMDL
MODEL 5
REMARK VINA RESULT:    -4.401      3.611      6.287
REMARK INTER + INTRA:          -7.517
REMARK INTER:                  -7.101
REMARK INTRA:                  -0.416
REMARK UNBOUND:                -0.543
REMARK SMILES CCCCCCCCCCCC(=O)[O-]
REMARK SMILES IDX 7 1 8 2 9 3 10 4 11 5 12 6 13 7 14 8 6 9 5 10 4 11 3 12 2 13
REMARK SMILES IDX 1 14
REMARK H PARENT
REMARK Flexibility Score: inf
ROOT
ATOM      1  C   UNL     1      92.717 122.151 122.202  1.00  0.00     0.000 C 
ENDROOT
BRANCH   1   2
ATOM      2  C   UNL     1      93.127 123.341 123.085  1.00  0.00     0.000 C 
BRANCH   2   3
ATOM      3  C   UNL     1      93.114 122.996 124.583  1.00  0.00     0.000 C 
BRANCH   3   4
ATOM      4  C   UNL     1      94.524 122.996 125.199  1.00  0.00     0.006 C 
BRANCH   4   5
ATOM      5  C   UNL     1      95.470 123.967 124.480  1.00  0.00     0.053 C 
BRANCH   5   6
ATOM      6  C   UNL     1      96.668 124.294 125.318  1.00  0.00     0.041 C 
ATOM      7  O   UNL     1      97.253 125.402 125.184  1.00  0.00    -0.550 OA
ATOM      8  O   UNL     1      97.157 123.363 126.225  1.00  0.00    -0.550 OA
ENDBRANCH   5   6
ENDBRANCH   4   5
ENDBRANCH   3   4
ENDBRANCH   2   3
ENDBRANCH   1   2
BRANCH   1   9
ATOM      9  C   UNL     1      92.798 122.488 120.698  1.00  0.00     0.000 C 
BRANCH   9  10
ATOM     10  C   UNL     1      93.660 121.502 119.890  1.00  0.00    -0.000 C 
BRANCH  10  11
ATOM     11  C   UNL     1      93.352 121.531 118.384  1.00  0.00    -0.000 C 
BRANCH  11  12
ATOM     12  C   UNL     1      92.018 122.240 118.075  1.00  0.00    -0.000 C 
BRANCH  12  13
ATOM     13  C   UNL     1      91.636 122.212 116.586  1.00  0.00    -0.003 C 
ATOM     14  C   UNL     1      92.059 120.924 115.883  1.00  0.00     0.004 C 
ENDBRANCH  12  13
ENDBRANCH  11  12
ENDBRANCH  10  11
ENDBRANCH   9  10
ENDBRANCH   1   9
TORSDOF 10
ENDMDL
MODEL 6
REMARK VINA RESULT:    -4.246      3.197      5.308
REMARK INTER + INTRA:          -7.272
REMARK INTER:                  -6.927
REMARK INTRA:                  -0.345
REMARK UNBOUND:                -0.543
REMARK SMILES CCCCCCCCCCCC(=O)[O-]
REMARK SMILES IDX 7 1 8 2 9 3 10 4 11 5 12 6 13 7 14 8 6 9 5 10 4 11 3 12 2 13
REMARK SMILES IDX 1 14
REMARK H PARENT
REMARK Flexibility Score: inf
ROOT
ATOM      1  C   UNL     1      92.838 122.857 124.022  1.00  0.00     0.000 C 
ENDROOT
BRANCH   1   2
ATOM      2  C   UNL     1      94.153 123.094 124.783  1.00  0.00     0.000 C 
BRANCH   2   3
ATOM      3  C   UNL     1      95.013 124.197 124.146  1.00  0.00     0.000 C 
BRANCH   3   4
ATOM      4  C   UNL     1      96.490 124.109 124.569  1.00  0.00     0.006 C 
BRANCH   4   5
ATOM      5  C   UNL     1      96.647 123.802 126.064  1.00  0.00     0.053 C 
BRANCH   5   6
ATOM      6  C   UNL     1      97.825 124.515 126.654  1.00  0.00     0.041 C 
ATOM      7  O   UNL     1      98.948 123.947 126.709  1.00  0.00    -0.550 OA
ATOM      8  O   UNL     1      97.676 125.795 127.171  1.00  0.00    -0.550 OA
ENDBRANCH   5   6
ENDBRANCH   4   5
ENDBRANCH   3   4
ENDBRANCH   2   3
ENDBRANCH   1   2
BRANCH   1   9
ATOM      9  C   UNL     1      92.893 123.403 122.580  1.00  0.00     0.000 C 
BRANCH   9  10
ATOM     10  C   UNL     1      92.784 122.312 121.501  1.00  0.00    -0.000 C 
BRANCH  10  11
ATOM     11  C   UNL     1      92.273 122.849 120.154  1.00  0.00    -0.000 C 
BRANCH  11  12
ATOM     12  C   UNL     1      92.731 121.977 118.967  1.00  0.00    -0.000 C 
BRANCH  12  13
ATOM     13  C   UNL     1      91.962 122.258 117.665  1.00  0.00    -0.003 C 
ATOM     14  C   UNL     1      92.055 121.115 116.656  1.00  0.00     0.004 C 
ENDBRANCH  12  13
ENDBRANCH  11  12
ENDBRANCH  10  11
ENDBRANCH   9  10
ENDBRANCH   1   9
TORSDOF 10
ENDMDL
MODEL 7
REMARK VINA RESULT:    -4.236     12.871     15.601
REMARK INTER + INTRA:          -7.256
REMARK INTER:                  -6.538
REMARK INTRA:                  -0.718
REMARK UNBOUND:                -0.543
REMARK SMILES CCCCCCCCCCCC(=O)[O-]
REMARK SMILES IDX 7 1 8 2 9 3 10 4 11 5 12 6 13 7 14 8 6 9 5 10 4 11 3 12 2 13
REMARK SMILES IDX 1 14
REMARK H PARENT
REMARK Flexibility Score: inf
ROOT
ATOM      1  C   UNL     1      82.111 127.015 130.117  1.00  0.00     0.000 C 
ENDROOT
BRANCH   1   2
ATOM      2  C   UNL     1      83.235 125.969 130.197  1.00  0.00     0.000 C 
BRANCH   2   3
ATOM      3  C   UNL     1      82.783 124.580 129.718  1.00  0.00     0.000 C 
BRANCH   3   4
ATOM      4  C   UNL     1      82.880 124.424 128.190  1.00  0.00     0.006 C 
BRANCH   4   5
ATOM      5  C   UNL     1      84.260 124.828 127.654  1.00  0.00     0.053 C 
BRANCH   5   6
ATOM      6  C   UNL     1      85.137 123.634 127.433  1.00  0.00     0.041 C 
ATOM      7  O   UNL     1      84.668 122.590 126.905  1.00  0.00    -0.550 OA
ATOM      8  O   UNL     1      86.465 123.662 127.838  1.00  0.00    -0.550 OA
ENDBRANCH   5   6
ENDBRANCH   4   5
ENDBRANCH   3   4
ENDBRANCH   2   3
ENDBRANCH   1   2
BRANCH   1   9
ATOM      9  C   UNL     1      82.560 128.393 130.649  1.00  0.00     0.000 C 
BRANCH   9  10
ATOM     10  C   UNL     1      83.991 128.778 130.236  1.00  0.00    -0.000 C 
BRANCH  10  11
ATOM     11  C   UNL     1      84.877 129.163 131.432  1.00  0.00    -0.000 C 
BRANCH  11  12
ATOM     12  C   UNL     1      84.064 129.798 132.579  1.00  0.00    -0.000 C 
BRANCH  12  13
ATOM     13  C   UNL     1      84.133 131.334 132.606  1.00  0.00    -0.003 C 
ATOM     14  C   UNL     1      83.010 131.997 131.812  1.00  0.00     0.004 C 
ENDBRANCH  12  13
ENDBRANCH  11  12
ENDBRANCH  10  11
ENDBRANCH   9  10
ENDBRANCH   1   9
TORSDOF 10
ENDMDL
MODEL 8
REMARK VINA RESULT:    -4.089     13.848     15.753
REMARK INTER + INTRA:          -7.022
REMARK INTER:                  -6.494
REMARK INTRA:                  -0.528
REMARK UNBOUND:                -0.543
REMARK SMILES CCCCCCCCCCCC(=O)[O-]
REMARK SMILES IDX 7 1 8 2 9 3 10 4 11 5 12 6 13 7 14 8 6 9 5 10 4 11 3 12 2 13
REMARK SMILES IDX 1 14
REMARK H PARENT
REMARK Flexibility Score: inf
ROOT
ATOM      1  C   UNL     1      82.021 125.534 129.360  1.00  0.00     0.000 C 
ENDROOT
BRANCH   1   2
ATOM      2  C   UNL     1      83.385 124.825 129.393  1.00  0.00     0.000 C 
BRANCH   2   3
ATOM      3  C   UNL     1      84.024 124.709 128.000  1.00  0.00     0.000 C 
BRANCH   3   4
ATOM      4  C   UNL     1      83.050 124.140 126.952  1.00  0.00     0.006 C 
BRANCH   4   5
ATOM      5  C   UNL     1      83.673 124.089 125.551  1.00  0.00     0.053 C 
BRANCH   5   6
ATOM      6  C   UNL     1      83.739 122.687 125.026  1.00  0.00     0.041 C 
ATOM      7  O   UNL     1      83.001 122.333 124.068  1.00  0.00    -0.550 OA
ATOM      8  O   UNL     1      84.592 121.763 125.616  1.00  0.00    -0.550 OA
ENDBRANCH   5   6
ENDBRANCH   4   5
ENDBRANCH   3   4
ENDBRANCH   2   3
ENDBRANCH   1   2
BRANCH   1   9
ATOM      9  C   UNL     1      81.980 126.761 130.296  1.00  0.00     0.000 C 
BRANCH   9  10
ATOM     10  C   UNL     1      83.372 127.250 130.734  1.00  0.00    -0.000 C 
BRANCH  10  11
ATOM     11  C   UNL     1      83.748 128.611 130.124  1.00  0.00    -0.000 C 
BRANCH  11  12
ATOM     12  C   UNL     1      83.787 129.733 131.182  1.00  0.00    -0.000 C 
BRANCH  12  13
ATOM     13  C   UNL     1      82.466 130.510 131.304  1.00  0.00    -0.003 C 
ATOM     14  C   UNL     1      82.664 131.965 131.725  1.00  0.00     0.004 C 
ENDBRANCH  12  13
ENDBRANCH  11  12
ENDBRANCH  10  11
ENDBRANCH   9  10
ENDBRANCH   1   9
TORSDOF 10
ENDMDL
MODEL 9
REMARK VINA RESULT:    -3.986     12.825     14.111
REMARK INTER + INTRA:          -6.860
REMARK INTER:                  -5.927
REMARK INTRA:                  -0.932
REMARK UNBOUND:                -0.543
REMARK SMILES CCCCCCCCCCCC(=O)[O-]
REMARK SMILES IDX 7 1 8 2 9 3 10 4 11 5 12 6 13 7 14 8 6 9 5 10 4 11 3 12 2 13
REMARK SMILES IDX 1 14
REMARK H PARENT
REMARK Flexibility Score: inf
ROOT
ATOM      1  C   UNL     1      83.721 123.961 125.326  1.00  0.00     0.000 C 
ENDROOT
BRANCH   1   2
ATOM      2  C   UNL     1      83.492 124.240 126.821  1.00  0.00     0.000 C 
BRANCH   2   3
ATOM      3  C   UNL     1      82.363 123.382 127.415  1.00  0.00     0.000 C 
BRANCH   3   4
ATOM      4  C   UNL     1      82.872 122.396 128.482  1.00  0.00     0.006 C 
BRANCH   4   5
ATOM      5  C   UNL     1      84.304 122.718 128.930  1.00  0.00     0.053 C 
BRANCH   5   6
ATOM      6  C   UNL     1      85.204 121.528 128.797  1.00  0.00     0.041 C 
ATOM      7  O   UNL     1      84.937 120.619 127.967  1.00  0.00    -0.550 OA
ATOM      8  O   UNL     1      86.322 121.408 129.612  1.00  0.00    -0.550 OA
ENDBRANCH   5   6
ENDBRANCH   4   5
ENDBRANCH   3   4
ENDBRANCH   2   3
ENDBRANCH   1   2
BRANCH   1   9
ATOM      9  C   UNL     1      84.562 122.688 125.093  1.00  0.00     0.000 C 
BRANCH   9  10
ATOM     10  C   UNL     1      83.742 121.491 124.581  1.00  0.00    -0.000 C 
BRANCH  10  11
ATOM     11  C   UNL     1      82.640 121.901 123.589  1.00  0.00    -0.000 C 
BRANCH  11  12
ATOM     12  C   UNL     1      81.878 120.682 123.029  1.00  0.00    -0.000 C 
BRANCH  12  13
ATOM     13  C   UNL     1      82.487 120.119 121.734  1.00  0.00    -0.003 C 
ATOM     14  C   UNL     1      82.377 121.080 120.553  1.00  0.00     0.004 C 
ENDBRANCH  12  13
ENDBRANCH  11  12
ENDBRANCH  10  11
ENDBRANCH   9  10
ENDBRANCH   1   9
TORSDOF 10
ENDMDL
