MODEL 1
REMARK VINA RESULT:     1.020      0.000      0.000
REMARK INTER + INTRA:           1.050
REMARK INTER:                   1.050
REMARK INTRA:                   0.000
REMARK UNBOUND:                 0.000
REMARK SMILES O=c1ccc2cc(O)ccc2o1
REMARK SMILES IDX 9 1 10 2 11 3 5 4 4 5 3 6 2 7 1 8 12 9 6 10 7 11 8 12
REMARK H PARENT 8 13
REMARK Flexibility Score: inf
ROOT
ATOM      1  C   UNL     1      17.747  41.284   9.650  1.00  0.00     0.050 A 
ATOM      2  C   UNL     1      18.126  42.532  10.156  1.00  0.00     0.052 A 
ATOM      3  C   UNL     1      19.100  42.617  11.155  1.00  0.00     0.138 A 
ATOM      4  C   UNL     1      19.701  41.439  11.651  1.00  0.00     0.021 A 
ATOM      5  C   UNL     1      20.672  41.556  12.651  1.00  0.00     0.019 A 
ATOM      6  C   UNL     1      21.016  42.821  13.125  1.00  0.00     0.094 A 
ATOM      7  C   UNL     1      20.380  43.944  12.586  1.00  0.00     0.336 A 
ATOM      8  O   UNL     1      20.676  45.094  13.002  1.00  0.00    -0.246 OA
ATOM      9  O   UNL     1      19.458  43.805  11.636  1.00  0.00    -0.423 OA
ATOM     10  C   UNL     1      19.319  40.190  11.140  1.00  0.00     0.058 A 
ATOM     11  C   UNL     1      18.340  40.114  10.138  1.00  0.00     0.116 A 
ENDROOT
BRANCH  11  12
ATOM     12  O   UNL     1      17.951  38.880   9.620  1.00  0.00    -0.508 OA
ATOM     13  H   UNL     1      18.632  38.197   9.312  1.00  0.00     0.293 HD
ENDBRANCH  11  12
TORSDOF 1
ENDMDL
MODEL 2
REMARK VINA RESULT:     2.095      0.832      4.768
REMARK INTER + INTRA:           2.156
REMARK INTER:                   2.156
REMARK INTRA:                   0.000
REMARK UNBOUND:                 0.000
REMARK SMILES O=c1ccc2cc(O)ccc2o1
REMARK SMILES IDX 9 1 10 2 11 3 5 4 4 5 3 6 2 7 1 8 12 9 6 10 7 11 8 12
REMARK H PARENT 8 13
REMARK Flexibility Score: inf
ROOT
ATOM      1  C   UNL     1      21.071  42.683  13.099  1.00  0.00     0.050 A 
ATOM      2  C   UNL     1      20.625  41.455  12.599  1.00  0.00     0.052 A 
ATOM      3  C   UNL     1      19.635  41.417  11.612  1.00  0.00     0.138 A 
ATOM      4  C   UNL     1      19.088  42.623  11.122  1.00  0.00     0.021 A 
ATOM      5  C   UNL     1      18.099  42.553  10.136  1.00  0.00     0.019 A 
ATOM      6  C   UNL     1      17.686  41.306   9.668  1.00  0.00     0.094 A 
ATOM      7  C   UNL     1      18.273  40.154  10.200  1.00  0.00     0.336 A 
ATOM      8  O   UNL     1      17.913  39.019   9.791  1.00  0.00    -0.246 OA
ATOM      9  O   UNL     1      19.212  40.247  11.139  1.00  0.00    -0.423 OA
ATOM     10  C   UNL     1      19.538  43.852  11.626  1.00  0.00     0.058 A 
ATOM     11  C   UNL     1      20.531  43.880  12.616  1.00  0.00     0.116 A 
ENDROOT
BRANCH  11  12
ATOM     12  O   UNL     1      20.990  45.093  13.125  1.00  0.00    -0.508 OA
ATOM     13  H   UNL     1      21.795  45.140  13.738  1.00  0.00     0.293 HD
ENDBRANCH  11  12
TORSDOF 1
ENDMDL
MODEL 3
REMARK VINA RESULT:     2.312      0.595      0.595
REMARK INTER + INTRA:           2.380
REMARK INTER:                   2.380
REMARK INTRA:                   0.000
REMARK UNBOUND:                 0.000
REMARK SMILES O=c1ccc2cc(O)ccc2o1
REMARK SMILES IDX 9 1 10 2 11 3 5 4 4 5 3 6 2 7 1 8 12 9 6 10 7 11 8 12
REMARK H PARENT 8 13
REMARK Flexibility Score: inf
ROOT
ATOM      1  C   UNL     1      17.210  41.535   9.734  1.00  0.00     0.050 A 
ATOM      2  C   UNL     1      17.823  42.652  10.310  1.00  0.00     0.052 A 
ATOM      3  C   UNL     1      18.878  42.487  11.213  1.00  0.00     0.138 A 
ATOM      4  C   UNL     1      19.322  41.186  11.540  1.00  0.00     0.021 A 
ATOM      5  C   UNL     1      20.379  41.052  12.446  1.00  0.00     0.019 A 
ATOM      6  C   UNL     1      20.959  42.195  12.995  1.00  0.00     0.094 A 
ATOM      7  C   UNL     1      20.466  43.450  12.624  1.00  0.00     0.336 A 
ATOM      8  O   UNL     1      20.976  44.494  13.110  1.00  0.00    -0.246 OA
ATOM      9  O   UNL     1      19.459  43.551  11.761  1.00  0.00    -0.423 OA
ATOM     10  C   UNL     1      18.705  40.069  10.960  1.00  0.00     0.058 A 
ATOM     11  C   UNL     1      17.647  40.245  10.056  1.00  0.00     0.116 A 
ENDROOT
BRANCH  11  12
ATOM     12  O   UNL     1      17.025  39.144   9.471  1.00  0.00    -0.508 OA
ATOM     13  H   UNL     1      17.465  38.232   9.458  1.00  0.00     0.293 HD
ENDBRANCH  11  12
TORSDOF 1
ENDMDL
MODEL 4
REMARK VINA RESULT:     2.834      1.432      2.214
REMARK INTER + INTRA:           2.917
REMARK INTER:                   2.917
REMARK INTRA:                   0.000
REMARK UNBOUND:                 0.000
REMARK SMILES O=c1ccc2cc(O)ccc2o1
REMARK SMILES IDX 9 1 10 2 11 3 5 4 4 5 3 6 2 7 1 8 12 9 6 10 7 11 8 12
REMARK H PARENT 8 13
REMARK Flexibility Score: inf
ROOT
ATOM      1  C   UNL     1      18.082  39.569  10.219  1.00  0.00     0.050 A 
ATOM      2  C   UNL     1      19.218  39.840  10.989  1.00  0.00     0.052 A 
ATOM      3  C   UNL     1      19.530  41.158  11.339  1.00  0.00     0.138 A 
ATOM      4  C   UNL     1      18.692  42.212  10.914  1.00  0.00     0.021 A 
ATOM      5  C   UNL     1      19.030  43.520  11.280  1.00  0.00     0.019 A 
ATOM      6  C   UNL     1      20.173  43.741  12.048  1.00  0.00     0.094 A 
ATOM      7  C   UNL     1      20.954  42.647  12.433  1.00  0.00     0.336 A 
ATOM      8  O   UNL     1      21.990  42.828  13.125  1.00  0.00    -0.246 OA
ATOM      9  O   UNL     1      20.612  41.414  12.070  1.00  0.00    -0.423 OA
ATOM     10  C   UNL     1      17.553  41.936  10.144  1.00  0.00     0.058 A 
ATOM     11  C   UNL     1      17.249  40.612   9.796  1.00  0.00     0.116 A 
ENDROOT
BRANCH  11  12
ATOM     12  O   UNL     1      16.121  40.321   9.032  1.00  0.00    -0.508 OA
ATOM     13  H   UNL     1      15.698  39.401   9.042  1.00  0.00     0.293 HD
ENDBRANCH  11  12
TORSDOF 1
ENDMDL
MODEL 5
REMARK VINA RESULT:     3.439      1.487      4.278
REMARK INTER + INTRA:           3.539
REMARK INTER:                   3.539
REMARK INTRA:                   0.000
REMARK UNBOUND:                 0.000
REMARK SMILES O=c1ccc2cc(O)ccc2o1
REMARK SMILES IDX 9 1 10 2 11 3 5 4 4 5 3 6 2 7 1 8 12 9 6 10 7 11 8 12
REMARK H PARENT 8 13
REMARK Flexibility Score: inf
ROOT
ATOM      1  C   UNL     1      20.174  43.751  11.998  1.00  0.00     0.050 A 
ATOM      2  C   UNL     1      19.013  43.510  11.254  1.00  0.00     0.052 A 
ATOM      3  C   UNL     1      18.671  42.204  10.891  1.00  0.00     0.138 A 
ATOM      4  C   UNL     1      19.502  41.129  11.278  1.00  0.00     0.021 A 
ATOM      5  C   UNL     1      19.134  39.833  10.900  1.00  0.00     0.019 A 
ATOM      6  C   UNL     1      17.969  39.642  10.159  1.00  0.00     0.094 A 
ATOM      7  C   UNL     1      17.195  40.755   9.812  1.00  0.00     0.336 A 
ATOM      8  O   UNL     1      16.140  40.602   9.142  1.00  0.00    -0.246 OA
ATOM      9  O   UNL     1      17.568  41.977  10.183  1.00  0.00    -0.423 OA
ATOM     10  C   UNL     1      20.663  41.375  12.024  1.00  0.00     0.058 A 
ATOM     11  C   UNL     1      20.999  42.688  12.384  1.00  0.00     0.116 A 
ENDROOT
BRANCH  11  12
ATOM     12  O   UNL     1      22.150  42.948  13.125  1.00  0.00    -0.508 OA
ATOM     13  H   UNL     1      22.102  43.206  14.103  1.00  0.00     0.293 HD
ENDBRANCH  11  12
TORSDOF 1
ENDMDL
