MODEL 1
REMARK VINA RESULT:     1.408      0.000      0.000
REMARK INTER + INTRA:           1.935
REMARK INTER:                   2.067
REMARK INTRA:                  -0.132
REMARK UNBOUND:                -0.132
REMARK SMILES O=C([O-])CCCCCCCC(=O)[O-]
REMARK SMILES IDX 7 1 6 2 5 3 4 4 2 5 1 6 3 7 8 8 9 9 10 10 11 11 12 12 13 13
REMARK H PARENT
REMARK Flexibility Score: inf
ROOT
ATOM      1  C   UNL     1      -4.923 -12.880   7.267  1.00  0.00     0.000 C 
ENDROOT
BRANCH   1   2
ATOM      2  C   UNL     1      -3.420 -12.748   6.979  1.00  0.00     0.000 C 
BRANCH   2   3
ATOM      3  C   UNL     1      -2.985 -13.725   5.876  1.00  0.00     0.006 C 
BRANCH   3   4
ATOM      4  C   UNL     1      -1.897 -14.695   6.354  1.00  0.00     0.053 C 
BRANCH   4   5
ATOM      5  C   UNL     1      -1.446 -14.380   7.747  1.00  0.00     0.041 C 
ATOM      6  O   UNL     1      -0.324 -13.845   7.946  1.00  0.00    -0.550 OA
ATOM      7  O   UNL     1      -2.253 -14.708   8.830  1.00  0.00    -0.550 OA
ENDBRANCH   4   5
ENDBRANCH   3   4
ENDBRANCH   2   3
ENDBRANCH   1   2
BRANCH   1   8
ATOM      8  C   UNL     1      -5.774 -12.890   5.987  1.00  0.00     0.000 C 
BRANCH   8   9
ATOM      9  C   UNL     1      -6.823 -14.017   5.982  1.00  0.00     0.006 C 
BRANCH   9  10
ATOM     10  C   UNL     1      -6.839 -14.797   7.303  1.00  0.00     0.053 C 
BRANCH  10  11
ATOM     11  C   UNL     1      -6.192 -16.141   7.163  1.00  0.00     0.041 C 
ATOM     12  O   UNL     1      -5.024 -16.239   6.704  1.00  0.00    -0.550 OA
ATOM     13  O   UNL     1      -6.870 -17.284   7.567  1.00  0.00    -0.550 OA
ENDBRANCH  10  11
ENDBRANCH   9  10
ENDBRANCH   8   9
ENDBRANCH   1   8
TORSDOF 8
ENDMDL
MODEL 2
REMARK VINA RESULT:     1.657      2.016      5.053
REMARK INTER + INTRA:           2.300
REMARK INTER:                   2.415
REMARK INTRA:                  -0.115
REMARK UNBOUND:                -0.132
REMARK SMILES O=C([O-])CCCCCCCC(=O)[O-]
REMARK SMILES IDX 7 1 6 2 5 3 4 4 2 5 1 6 3 7 8 8 9 9 10 10 11 11 12 12 13 13
REMARK H PARENT
REMARK Flexibility Score: inf
ROOT
ATOM      1  C   UNL     1      -4.899 -15.915   6.202  1.00  0.00     0.000 C 
ENDROOT
BRANCH   1   2
ATOM      2  C   UNL     1      -5.888 -15.905   7.377  1.00  0.00     0.000 C 
BRANCH   2   3
ATOM      3  C   UNL     1      -7.021 -14.895   7.132  1.00  0.00     0.006 C 
BRANCH   3   4
ATOM      4  C   UNL     1      -6.784 -14.048   5.875  1.00  0.00     0.053 C 
BRANCH   4   5
ATOM      5  C   UNL     1      -6.381 -12.648   6.218  1.00  0.00     0.041 C 
ATOM      6  O   UNL     1      -7.119 -11.678   5.902  1.00  0.00    -0.550 OA
ATOM      7  O   UNL     1      -5.172 -12.410   6.861  1.00  0.00    -0.550 OA
ENDBRANCH   4   5
ENDBRANCH   3   4
ENDBRANCH   2   3
ENDBRANCH   1   2
BRANCH   1   8
ATOM      8  C   UNL     1      -3.455 -15.621   6.639  1.00  0.00     0.000 C 
BRANCH   8   9
ATOM      9  C   UNL     1      -2.857 -14.397   5.922  1.00  0.00     0.006 C 
BRANCH   9  10
ATOM     10  C   UNL     1      -1.377 -14.192   6.267  1.00  0.00     0.053 C 
BRANCH  10  11
ATOM     11  C   UNL     1      -1.179 -13.911   7.725  1.00  0.00     0.041 C 
ATOM     12  O   UNL     1      -0.024 -13.934   8.225  1.00  0.00    -0.550 OA
ATOM     13  O   UNL     1      -2.269 -13.595   8.526  1.00  0.00    -0.550 OA
ENDBRANCH  10  11
ENDBRANCH   9  10
ENDBRANCH   8   9
ENDBRANCH   1   8
TORSDOF 8
ENDMDL
MODEL 3
REMARK VINA RESULT:     1.716      0.637      4.894
REMARK INTER + INTRA:           2.386
REMARK INTER:                   2.679
REMARK INTRA:                  -0.293
REMARK UNBOUND:                -0.132
REMARK SMILES O=C([O-])CCCCCCCC(=O)[O-]
REMARK SMILES IDX 7 1 6 2 5 3 4 4 2 5 1 6 3 7 8 8 9 9 10 10 11 11 12 12 13 13
REMARK H PARENT
REMARK Flexibility Score: inf
ROOT
ATOM      1  C   UNL     1      -4.684 -12.855   6.938  1.00  0.00     0.000 C 
ENDROOT
BRANCH   1   2
ATOM      2  C   UNL     1      -6.132 -12.653   6.470  1.00  0.00     0.000 C 
BRANCH   2   3
ATOM      3  C   UNL     1      -6.781 -13.994   6.097  1.00  0.00     0.006 C 
BRANCH   3   4
ATOM      4  C   UNL     1      -7.071 -14.863   7.327  1.00  0.00     0.053 C 
BRANCH   4   5
ATOM      5  C   UNL     1      -6.459 -16.224   7.201  1.00  0.00     0.041 C 
ATOM      6  O   UNL     1      -5.377 -16.379   6.576  1.00  0.00    -0.550 OA
ATOM      7  O   UNL     1      -7.101 -17.329   7.748  1.00  0.00    -0.550 OA
ENDBRANCH   4   5
ENDBRANCH   3   4
ENDBRANCH   2   3
ENDBRANCH   1   2
BRANCH   1   8
ATOM      8  C   UNL     1      -3.805 -13.534   5.875  1.00  0.00     0.000 C 
BRANCH   8   9
ATOM      9  C   UNL     1      -2.876 -14.606   6.471  1.00  0.00     0.006 C 
BRANCH   9  10
ATOM     10  C   UNL     1      -1.427 -14.118   6.584  1.00  0.00     0.053 C 
BRANCH  10  11
ATOM     11  C   UNL     1      -0.945 -14.127   8.002  1.00  0.00     0.041 C 
ATOM     12  O   UNL     1      -1.732 -14.430   8.938  1.00  0.00    -0.550 OA
ATOM     13  O   UNL     1       0.381 -13.829   8.288  1.00  0.00    -0.550 OA
ENDBRANCH  10  11
ENDBRANCH   9  10
ENDBRANCH   8   9
ENDBRANCH   1   8
TORSDOF 8
ENDMDL
MODEL 4
REMARK VINA RESULT:     2.100      1.666      2.654
REMARK INTER + INTRA:           2.951
REMARK INTER:                   3.338
REMARK INTRA:                  -0.387
REMARK UNBOUND:                -0.132
REMARK SMILES O=C([O-])CCCCCCCC(=O)[O-]
REMARK SMILES IDX 7 1 6 2 5 3 4 4 2 5 1 6 3 7 8 8 9 9 10 10 11 11 12 12 13 13
REMARK H PARENT
REMARK Flexibility Score: inf
ROOT
ATOM      1  C   UNL     1      -2.955 -14.030   6.130  1.00  0.00     0.000 C 
ENDROOT
BRANCH   1   2
ATOM      2  C   UNL     1      -1.592 -14.568   6.590  1.00  0.00     0.000 C 
BRANCH   2   3
ATOM      3  C   UNL     1      -1.309 -14.172   8.047  1.00  0.00     0.006 C 
BRANCH   3   4
ATOM      4  C   UNL     1       0.112 -13.628   8.237  1.00  0.00     0.053 C 
BRANCH   4   5
ATOM      5  C   UNL     1       1.002 -14.625   8.914  1.00  0.00     0.041 C 
ATOM      6  O   UNL     1       1.020 -14.711  10.170  1.00  0.00    -0.550 OA
ATOM      7  O   UNL     1       1.835 -15.439   8.157  1.00  0.00    -0.550 OA
ENDBRANCH   4   5
ENDBRANCH   3   4
ENDBRANCH   2   3
ENDBRANCH   1   2
BRANCH   1   8
ATOM      8  C   UNL     1      -3.743 -13.359   7.266  1.00  0.00     0.000 C 
BRANCH   8   9
ATOM      9  C   UNL     1      -5.019 -12.658   6.767  1.00  0.00     0.006 C 
BRANCH   9  10
ATOM     10  C   UNL     1      -5.975 -13.629   6.064  1.00  0.00     0.053 C 
BRANCH  10  11
ATOM     11  C   UNL     1      -6.366 -14.768   6.956  1.00  0.00     0.041 C 
ATOM     12  O   UNL     1      -7.125 -14.572   7.942  1.00  0.00    -0.550 OA
ATOM     13  O   UNL     1      -5.914 -16.052   6.681  1.00  0.00    -0.550 OA
ENDBRANCH  10  11
ENDBRANCH   9  10
ENDBRANCH   8   9
ENDBRANCH   1   8
TORSDOF 8
ENDMDL
MODEL 5
REMARK VINA RESULT:     2.363      2.364      5.009
REMARK INTER + INTRA:           3.336
REMARK INTER:                   3.532
REMARK INTRA:                  -0.196
REMARK UNBOUND:                -0.132
REMARK SMILES O=C([O-])CCCCCCCC(=O)[O-]
REMARK SMILES IDX 7 1 6 2 5 3 4 4 2 5 1 6 3 7 8 8 9 9 10 10 11 11 12 12 13 13
REMARK H PARENT
REMARK Flexibility Score: inf
ROOT
ATOM      1  C   UNL     1      -2.644 -16.049   7.148  1.00  0.00     0.000 C 
ENDROOT
BRANCH   1   2
ATOM      2  C   UNL     1      -3.849 -16.822   6.594  1.00  0.00     0.000 C 
BRANCH   2   3
ATOM      3  C   UNL     1      -5.168 -16.141   6.990  1.00  0.00     0.006 C 
BRANCH   3   4
ATOM      4  C   UNL     1      -5.540 -14.996   6.039  1.00  0.00     0.053 C 
BRANCH   4   5
ATOM      5  C   UNL     1      -6.602 -14.115   6.621  1.00  0.00     0.041 C 
ATOM      6  O   UNL     1      -7.124 -14.398   7.731  1.00  0.00    -0.550 OA
ATOM      7  O   UNL     1      -7.038 -12.997   5.920  1.00  0.00    -0.550 OA
ENDBRANCH   4   5
ENDBRANCH   3   4
ENDBRANCH   2   3
ENDBRANCH   1   2
BRANCH   1   8
ATOM      8  C   UNL     1      -2.267 -14.836   6.282  1.00  0.00     0.000 C 
BRANCH   8   9
ATOM      9  C   UNL     1      -1.757 -13.648   7.116  1.00  0.00     0.006 C 
BRANCH   9  10
ATOM     10  C   UNL     1      -2.707 -13.300   8.268  1.00  0.00     0.053 C 
BRANCH  10  11
ATOM     11  C   UNL     1      -3.415 -12.001   8.032  1.00  0.00     0.041 C 
ATOM     12  O   UNL     1      -3.126 -10.985   8.718  1.00  0.00    -0.550 OA
ATOM     13  O   UNL     1      -4.376 -11.904   7.033  1.00  0.00    -0.550 OA
ENDBRANCH  10  11
ENDBRANCH   9  10
ENDBRANCH   8   9
ENDBRANCH   1   8
TORSDOF 8
ENDMDL
MODEL 6
REMARK VINA RESULT:     2.910      1.982      4.334
REMARK INTER + INTRA:           4.139
REMARK INTER:                   3.741
REMARK INTRA:                   0.398
REMARK UNBOUND:                -0.132
REMARK SMILES O=C([O-])CCCCCCCC(=O)[O-]
REMARK SMILES IDX 7 1 6 2 5 3 4 4 2 5 1 6 3 7 8 8 9 9 10 10 11 11 12 12 13 13
REMARK H PARENT
REMARK Flexibility Score: inf
ROOT
ATOM      1  C   UNL     1      -5.888 -16.070   7.160  1.00  0.00     0.000 C 
ENDROOT
BRANCH   1   2
ATOM      2  C   UNL     1      -6.764 -14.811   7.226  1.00  0.00     0.000 C 
BRANCH   2   3
ATOM      3  C   UNL     1      -6.411 -13.836   6.092  1.00  0.00     0.006 C 
BRANCH   3   4
ATOM      4  C   UNL     1      -5.887 -12.494   6.620  1.00  0.00     0.053 C 
BRANCH   4   5
ATOM      5  C   UNL     1      -4.397 -12.499   6.765  1.00  0.00     0.041 C 
ATOM      6  O   UNL     1      -3.674 -13.041   5.887  1.00  0.00    -0.550 OA
ATOM      7  O   UNL     1      -3.806 -11.932   7.888  1.00  0.00    -0.550 OA
ENDBRANCH   4   5
ENDBRANCH   3   4
ENDBRANCH   2   3
ENDBRANCH   1   2
BRANCH   1   8
ATOM      8  C   UNL     1      -4.613 -15.864   6.326  1.00  0.00     0.000 C 
BRANCH   8   9
ATOM      9  C   UNL     1      -3.333 -16.208   7.107  1.00  0.00     0.006 C 
BRANCH   9  10
ATOM     10  C   UNL     1      -2.148 -15.328   6.691  1.00  0.00     0.053 C 
BRANCH  10  11
ATOM     11  C   UNL     1      -1.610 -14.537   7.844  1.00  0.00     0.041 C 
ATOM     12  O   UNL     1      -2.242 -14.491   8.933  1.00  0.00    -0.550 OA
ATOM     13  O   UNL     1      -0.396 -13.874   7.726  1.00  0.00    -0.550 OA
ENDBRANCH  10  11
ENDBRANCH   9  10
ENDBRANCH   8   9
ENDBRANCH   1   8
TORSDOF 8
ENDMDL
MODEL 7
REMARK VINA RESULT:     3.965     17.024     18.311
REMARK INTER + INTRA:           5.688
REMARK INTER:                   5.977
REMARK INTRA:                  -0.289
REMARK UNBOUND:                -0.132
REMARK SMILES O=C([O-])CCCCCCCC(=O)[O-]
REMARK SMILES IDX 7 1 6 2 5 3 4 4 2 5 1 6 3 7 8 8 9 9 10 10 11 11 12 12 13 13
REMARK H PARENT
REMARK Flexibility Score: inf
ROOT
ATOM      1  C   UNL     1      -1.993  -6.350  23.496  1.00  0.00     0.000 C 
ENDROOT
BRANCH   1   2
ATOM      2  C   UNL     1      -1.600  -5.025  24.166  1.00  0.00     0.000 C 
BRANCH   2   3
ATOM      3  C   UNL     1      -2.846  -4.209  24.541  1.00  0.00     0.006 C 
BRANCH   3   4
ATOM      4  C   UNL     1      -3.618  -4.829  25.712  1.00  0.00     0.053 C 
BRANCH   4   5
ATOM      5  C   UNL     1      -4.998  -5.248  25.308  1.00  0.00     0.041 C 
ATOM      6  O   UNL     1      -5.954  -5.159  26.122  1.00  0.00    -0.550 OA
ATOM      7  O   UNL     1      -5.222  -5.768  24.039  1.00  0.00    -0.550 OA
ENDBRANCH   4   5
ENDBRANCH   3   4
ENDBRANCH   2   3
ENDBRANCH   1   2
BRANCH   1   8
ATOM      8  C   UNL     1      -1.330  -6.541  22.122  1.00  0.00     0.000 C 
BRANCH   8   9
ATOM      9  C   UNL     1      -0.861  -7.988  21.888  1.00  0.00     0.006 C 
BRANCH   9  10
ATOM     10  C   UNL     1      -0.887  -8.370  20.403  1.00  0.00     0.053 C 
BRANCH  10  11
ATOM     11  C   UNL     1      -2.283  -8.394  19.859  1.00  0.00     0.041 C 
ATOM     12  O   UNL     1      -3.087  -9.298  20.212  1.00  0.00    -0.550 OA
ATOM     13  O   UNL     1      -2.705  -7.402  18.984  1.00  0.00    -0.550 OA
ENDBRANCH  10  11
ENDBRANCH   9  10
ENDBRANCH   8   9
ENDBRANCH   1   8
TORSDOF 8
ENDMDL
MODEL 8
REMARK VINA RESULT:     4.222      2.302      3.227
REMARK INTER + INTRA:           6.064
REMARK INTER:                   4.989
REMARK INTRA:                   1.075
REMARK UNBOUND:                -0.132
REMARK SMILES O=C([O-])CCCCCCCC(=O)[O-]
REMARK SMILES IDX 7 1 6 2 5 3 4 4 2 5 1 6 3 7 8 8 9 9 10 10 11 11 12 12 13 13
REMARK H PARENT
REMARK Flexibility Score: inf
ROOT
ATOM      1  C   UNL     1      -5.722 -15.987   7.152  1.00  0.00     0.000 C 
ENDROOT
BRANCH   1   2
ATOM      2  C   UNL     1      -4.424 -15.633   6.411  1.00  0.00     0.000 C 
BRANCH   2   3
ATOM      3  C   UNL     1      -3.197 -16.160   7.170  1.00  0.00     0.006 C 
BRANCH   3   4
ATOM      4  C   UNL     1      -2.567 -15.091   8.073  1.00  0.00     0.053 C 
BRANCH   4   5
ATOM      5  C   UNL     1      -1.521 -14.301   7.349  1.00  0.00     0.041 C 
ATOM      6  O   UNL     1      -1.653 -14.045   6.123  1.00  0.00    -0.550 OA
ATOM      7  O   UNL     1      -0.384 -13.873   8.022  1.00  0.00    -0.550 OA
ENDBRANCH   4   5
ENDBRANCH   3   4
ENDBRANCH   2   3
ENDBRANCH   1   2
BRANCH   1   8
ATOM      8  C   UNL     1      -6.740 -14.835   7.153  1.00  0.00     0.000 C 
BRANCH   8   9
ATOM      9  C   UNL     1      -6.496 -13.829   6.014  1.00  0.00     0.006 C 
BRANCH   9  10
ATOM     10  C   UNL     1      -5.062 -13.286   6.020  1.00  0.00     0.053 C 
BRANCH  10  11
ATOM     11  C   UNL     1      -4.913 -12.120   6.950  1.00  0.00     0.041 C 
ATOM     12  O   UNL     1      -5.810 -11.239   7.013  1.00  0.00    -0.550 OA
ATOM     13  O   UNL     1      -3.795 -12.023   7.769  1.00  0.00    -0.550 OA
ENDBRANCH  10  11
ENDBRANCH   9  10
ENDBRANCH   8   9
ENDBRANCH   1   8
TORSDOF 8
ENDMDL
