MODEL 1
REMARK VINA RESULT:    -3.027      0.000      0.000
REMARK INTER + INTRA:          -3.292
REMARK INTER:                  -3.292
REMARK INTRA:                   0.000
REMARK UNBOUND:                 0.000
REMARK SMILES [NH3+]CC(=O)[O-]
REMARK SMILES IDX 2 1 1 2 3 6 4 7 5 8
REMARK H PARENT 1 3 1 4 1 5
REMARK Flexibility Score: inf
ROOT
ATOM      1  C   UNL     1     156.449 166.173 230.142  1.00  0.00     0.312 C 
ENDROOT
BRANCH   1   2
ATOM      2  N   UNL     1     155.730 167.169 229.349  1.00  0.00    -0.353 N 
ATOM      3  H   UNL     1     154.718 166.912 229.282  1.00  0.00     0.344 HD
ATOM      4  H   UNL     1     156.144 167.231 228.390  1.00  0.00     0.344 HD
ATOM      5  H   UNL     1     155.813 168.102 229.815  1.00  0.00     0.344 HD
ENDBRANCH   1   2
BRANCH   1   6
ATOM      6  C   UNL     1     157.917 166.230 229.854  1.00  0.00     0.096 C 
ATOM      7  O   UNL     1     158.526 165.199 229.465  1.00  0.00    -0.544 OA
ATOM      8  O   UNL     1     158.622 167.407 230.065  1.00  0.00    -0.544 OA
ENDBRANCH   1   6
TORSDOF 2
ENDMDL
MODEL 2
REMARK VINA RESULT:    -3.023      0.208      1.450
REMARK INTER + INTRA:          -3.288
REMARK INTER:                  -3.288
REMARK INTRA:                   0.000
REMARK UNBOUND:                 0.000
REMARK SMILES [NH3+]CC(=O)[O-]
REMARK SMILES IDX 2 1 1 2 3 6 4 7 5 8
REMARK H PARENT 1 3 1 4 1 5
REMARK Flexibility Score: inf
ROOT
ATOM      1  C   UNL     1     156.477 166.227 230.060  1.00  0.00     0.312 C 
ENDROOT
BRANCH   1   2
ATOM      2  N   UNL     1     155.861 167.181 229.139  1.00  0.00    -0.353 N 
ATOM      3  H   UNL     1     156.489 167.345 228.319  1.00  0.00     0.344 HD
ATOM      4  H   UNL     1     155.676 168.086 229.630  1.00  0.00     0.344 HD
ATOM      5  H   UNL     1     154.953 166.789 228.798  1.00  0.00     0.344 HD
ENDBRANCH   1   2
BRANCH   1   6
ATOM      6  C   UNL     1     157.966 166.231 229.904  1.00  0.00     0.096 C 
ATOM      7  O   UNL     1     158.599 167.319 229.899  1.00  0.00    -0.544 OA
ATOM      8  O   UNL     1     158.649 165.037 229.713  1.00  0.00    -0.544 OA
ENDBRANCH   1   6
TORSDOF 2
ENDMDL
MODEL 3
REMARK VINA RESULT:    -2.953     14.614     15.146
REMARK INTER + INTRA:          -3.212
REMARK INTER:                  -3.212
REMARK INTRA:                   0.000
REMARK UNBOUND:                 0.000
REMARK SMILES [NH3+]CC(=O)[O-]
REMARK SMILES IDX 2 1 1 2 3 6 4 7 5 8
REMARK H PARENT 1 3 1 4 1 5
REMARK Flexibility Score: inf
ROOT
ATOM      1  C   UNL     1     161.642 152.180 229.972  1.00  0.00     0.312 C 
ENDROOT
BRANCH   1   2
ATOM      2  N   UNL     1     162.307 151.117 229.222  1.00  0.00    -0.353 N 
ATOM      3  H   UNL     1     161.746 150.235 229.275  1.00  0.00     0.344 HD
ATOM      4  H   UNL     1     163.265 150.951 229.606  1.00  0.00     0.344 HD
ATOM      5  H   UNL     1     162.389 151.406 228.219  1.00  0.00     0.344 HD
ENDBRANCH   1   2
BRANCH   1   6
ATOM      6  C   UNL     1     160.158 152.114 229.778  1.00  0.00     0.096 C 
ATOM      7  O   UNL     1     159.507 153.161 229.521  1.00  0.00    -0.544 OA
ATOM      8  O   UNL     1     159.489 150.907 229.930  1.00  0.00    -0.544 OA
ENDBRANCH   1   6
TORSDOF 2
ENDMDL
MODEL 4
REMARK VINA RESULT:    -2.859     14.119     14.563
REMARK INTER + INTRA:          -3.110
REMARK INTER:                  -3.110
REMARK INTRA:                   0.000
REMARK UNBOUND:                 0.000
REMARK SMILES [NH3+]CC(=O)[O-]
REMARK SMILES IDX 2 1 1 2 3 6 4 7 5 8
REMARK H PARENT 1 3 1 4 1 5
REMARK Flexibility Score: inf
ROOT
ATOM      1  C   UNL     1     162.027 151.801 230.436  1.00  0.00     0.312 C 
ENDROOT
BRANCH   1   2
ATOM      2  N   UNL     1     162.362 151.082 229.208  1.00  0.00    -0.353 N 
ATOM      3  H   UNL     1     163.239 150.528 229.344  1.00  0.00     0.344 HD
ATOM      4  H   UNL     1     162.487 151.757 228.419  1.00  0.00     0.344 HD
ATOM      5  H   UNL     1     161.581 150.426 228.972  1.00  0.00     0.344 HD
ENDBRANCH   1   2
BRANCH   1   6
ATOM      6  C   UNL     1     161.254 153.045 230.124  1.00  0.00     0.096 C 
ATOM      7  O   UNL     1     160.060 152.966 229.734  1.00  0.00    -0.544 OA
ATOM      8  O   UNL     1     161.868 154.287 230.216  1.00  0.00    -0.544 OA
ENDBRANCH   1   6
TORSDOF 2
ENDMDL
MODEL 5
REMARK VINA RESULT:    -2.852     15.789     16.025
REMARK INTER + INTRA:          -3.102
REMARK INTER:                  -3.102
REMARK INTRA:                   0.000
REMARK UNBOUND:                 0.000
REMARK SMILES [NH3+]CC(=O)[O-]
REMARK SMILES IDX 2 1 1 2 3 6 4 7 5 8
REMARK H PARENT 1 3 1 4 1 5
REMARK Flexibility Score: inf
ROOT
ATOM      1  C   UNL     1     161.668 151.747 230.242  1.00  0.00     0.312 C 
ENDROOT
BRANCH   1   2
ATOM      2  N   UNL     1     162.241 151.074 229.077  1.00  0.00    -0.353 N 
ATOM      3  H   UNL     1     161.803 151.439 228.200  1.00  0.00     0.344 HD
ATOM      4  H   UNL     1     162.088 150.042 229.148  1.00  0.00     0.344 HD
ATOM      5  H   UNL     1     163.270 151.263 229.045  1.00  0.00     0.344 HD
ENDBRANCH   1   2
BRANCH   1   6
ATOM      6  C   UNL     1     160.524 150.956 230.797  1.00  0.00     0.096 C 
ATOM      7  O   UNL     1     160.625 150.404 231.924  1.00  0.00    -0.544 OA
ATOM      8  O   UNL     1     159.367 150.787 230.049  1.00  0.00    -0.544 OA
ENDBRANCH   1   6
TORSDOF 2
ENDMDL
MODEL 6
REMARK VINA RESULT:    -2.730      9.829     10.276
REMARK INTER + INTRA:          -2.970
REMARK INTER:                  -2.970
REMARK INTRA:                   0.000
REMARK UNBOUND:                 0.000
REMARK SMILES [NH3+]CC(=O)[O-]
REMARK SMILES IDX 2 1 1 2 3 6 4 7 5 8
REMARK H PARENT 1 3 1 4 1 5
REMARK Flexibility Score: inf
ROOT
ATOM      1  C   UNL     1     162.933 158.088 228.874  1.00  0.00     0.312 C 
ENDROOT
BRANCH   1   2
ATOM      2  N   UNL     1     163.592 156.882 228.377  1.00  0.00    -0.353 N 
ATOM      3  H   UNL     1     163.484 156.103 229.067  1.00  0.00     0.344 HD
ATOM      4  H   UNL     1     164.608 157.070 228.210  1.00  0.00     0.344 HD
ATOM      5  H   UNL     1     163.148 156.597 227.473  1.00  0.00     0.344 HD
ENDBRANCH   1   2
BRANCH   1   6
ATOM      6  C   UNL     1     161.638 157.744 229.543  1.00  0.00     0.096 C 
ATOM      7  O   UNL     1     161.535 156.682 230.212  1.00  0.00    -0.544 OA
ATOM      8  O   UNL     1     160.533 158.570 229.387  1.00  0.00    -0.544 OA
ENDBRANCH   1   6
TORSDOF 2
ENDMDL
MODEL 7
REMARK VINA RESULT:    -2.722      9.471      9.644
REMARK INTER + INTRA:          -2.960
REMARK INTER:                  -2.960
REMARK INTRA:                   0.000
REMARK UNBOUND:                 0.000
REMARK SMILES [NH3+]CC(=O)[O-]
REMARK SMILES IDX 2 1 1 2 3 6 4 7 5 8
REMARK H PARENT 1 3 1 4 1 5
REMARK Flexibility Score: inf
ROOT
ATOM      1  C   UNL     1     158.994 162.613 220.854  1.00  0.00     0.312 C 
ENDROOT
BRANCH   1   2
ATOM      2  N   UNL     1     159.271 162.496 219.424  1.00  0.00    -0.353 N 
ATOM      3  H   UNL     1     158.387 162.294 218.902  1.00  0.00     0.344 HD
ATOM      4  H   UNL     1     159.966 161.733 219.253  1.00  0.00     0.344 HD
ATOM      5  H   UNL     1     159.670 163.400 219.078  1.00  0.00     0.344 HD
ENDBRANCH   1   2
BRANCH   1   6
ATOM      6  C   UNL     1     159.995 163.511 221.513  1.00  0.00     0.096 C 
ATOM      7  O   UNL     1     161.071 163.036 221.963  1.00  0.00    -0.544 OA
ATOM      8  O   UNL     1     159.717 164.861 221.676  1.00  0.00    -0.544 OA
ENDBRANCH   1   6
TORSDOF 2
ENDMDL
MODEL 8
REMARK VINA RESULT:    -2.693      2.473      2.633
REMARK INTER + INTRA:          -2.929
REMARK INTER:                  -2.929
REMARK INTRA:                   0.000
REMARK UNBOUND:                 0.000
REMARK SMILES [NH3+]CC(=O)[O-]
REMARK SMILES IDX 2 1 1 2 3 6 4 7 5 8
REMARK H PARENT 1 3 1 4 1 5
REMARK Flexibility Score: inf
ROOT
ATOM      1  C   UNL     1     158.105 166.661 229.780  1.00  0.00     0.312 C 
ENDROOT
BRANCH   1   2
ATOM      2  N   UNL     1     159.082 167.649 230.233  1.00  0.00    -0.353 N 
ATOM      3  H   UNL     1     159.029 167.757 231.273  1.00  0.00     0.344 HD
ATOM      4  H   UNL     1     158.902 168.571 229.771  1.00  0.00     0.344 HD
ATOM      5  H   UNL     1     160.043 167.324 229.976  1.00  0.00     0.344 HD
ENDBRANCH   1   2
BRANCH   1   6
ATOM      6  C   UNL     1     156.871 166.713 230.627  1.00  0.00     0.096 C 
ATOM      7  O   UNL     1     155.734 166.730 230.087  1.00  0.00    -0.544 OA
ATOM      8  O   UNL     1     156.979 166.794 232.009  1.00  0.00    -0.544 OA
ENDBRANCH   1   6
TORSDOF 2
ENDMDL
MODEL 9
REMARK VINA RESULT:    -2.679     18.178     18.672
REMARK INTER + INTRA:          -2.914
REMARK INTER:                  -2.914
REMARK INTRA:                   0.000
REMARK UNBOUND:                 0.000
REMARK SMILES [NH3+]CC(=O)[O-]
REMARK SMILES IDX 2 1 1 2 3 6 4 7 5 8
REMARK H PARENT 1 3 1 4 1 5
REMARK Flexibility Score: inf
ROOT
ATOM      1  C   UNL     1     168.883 158.699 216.378  1.00  0.00     0.312 C 
ENDROOT
BRANCH   1   2
ATOM      2  N   UNL     1     169.123 159.228 215.036  1.00  0.00    -0.353 N 
ATOM      3  H   UNL     1     170.061 159.690 214.995  1.00  0.00     0.344 HD
ATOM      4  H   UNL     1     168.377 159.917 214.783  1.00  0.00     0.344 HD
ATOM      5  H   UNL     1     169.103 158.440 214.349  1.00  0.00     0.344 HD
ENDBRANCH   1   2
BRANCH   1   6
ATOM      6  C   UNL     1     167.461 158.928 216.788  1.00  0.00     0.096 C 
ATOM      7  O   UNL     1     167.202 159.495 217.882  1.00  0.00    -0.544 OA
ATOM      8  O   UNL     1     166.424 158.470 215.988  1.00  0.00    -0.544 OA
ENDBRANCH   1   6
TORSDOF 2
ENDMDL
