MODEL 1
REMARK VINA RESULT:     2.291      0.000      0.000
REMARK INTER + INTRA:           4.098
REMARK INTER:                   3.228
REMARK INTRA:                   0.869
REMARK UNBOUND:                 0.869
REMARK SMILES CC1=CCC(=C(C)C)C(=O)CC(C)=CCC1
REMARK SMILES IDX 12 1 14 2 13 3 15 4 16 5 2 6 1 7 3 8 11 10 9 11 10 12 5 13
REMARK SMILES IDX 6 14 7 15 8 16 4 17
REMARK H PARENT
REMARK Flexibility Score: 60.00
ROOT
ATOM      1  C   UNL     1      76.056  75.737  72.502  1.00  0.00    -0.070 C 
ATOM      2  C   UNL     1      76.106  76.351  73.709  1.00  0.00    -0.027 C 
ATOM      3  C   UNL     1      75.518  76.536  71.339  1.00  0.00     0.039 C 
ENDROOT
BRANCH   2   4
ATOM      4  C   UNL     1      76.505  75.713  75.018  1.00  0.00     0.032 C 
BRANCH   4   5
ATOM      5  C   UNL     1      75.404  75.821  76.090  1.00  0.00     0.034 C 
BRANCH   5   6
ATOM      6  C   UNL     1      74.741  74.484  76.365  1.00  0.00    -0.077 C 
ATOM      7  C   UNL     1      75.012  73.811  77.686  1.00  0.00     0.039 C 
ATOM      8  C   UNL     1      73.900  73.872  75.502  1.00  0.00    -0.023 CG0
ATOM      9  G   UNL     1      73.479  74.403  74.153  1.00  0.00     0.000 G0
ENDBRANCH   5   6
ENDBRANCH   4   5
ENDBRANCH   2   4
BRANCH   1  10
ATOM     10  C   UNL     1      76.444  74.286  72.274  1.00  0.00     0.111 C 
BRANCH  10  11
ATOM     11  C   UNL     1      75.541  73.344  73.031  1.00  0.00     0.163 C 
ATOM     12  O   UNL     1      76.075  72.416  73.697  1.00  0.00    -0.294 OA
BRANCH  11  13
ATOM     13  C   UNL     1      74.055  73.518  73.052  1.00  0.00    -0.002 C 
ATOM     14  C   UNL     1      73.254  72.975  72.086  1.00  0.00    -0.069 C 
ATOM     15  C   UNL     1      71.748  73.123  72.135  1.00  0.00     0.039 C 
ATOM     16  C   UNL     1      73.832  72.231  70.903  1.00  0.00     0.039 C 
BRANCH  13  17
ATOM     17  C   UNL     1      73.477  74.389  74.154  1.00  0.00     0.066 CG0
ATOM     18  G   UNL     1      73.916  73.868  75.501  1.00  0.00     0.000 G0
ENDBRANCH  13  17
ENDBRANCH  11  13
ENDBRANCH  10  11
ENDBRANCH   1  10
TORSDOF 0
ENDMDL
MODEL 2
REMARK VINA RESULT:     2.927      1.715      3.623
REMARK INTER + INTRA:           4.994
REMARK INTER:                   2.707
REMARK INTRA:                   2.287
REMARK UNBOUND:                 0.869
REMARK SMILES CC1=CCC(=C(C)C)C(=O)CC(C)=CCC1
REMARK SMILES IDX 12 1 14 2 13 3 15 4 16 5 2 6 1 7 3 8 11 10 9 11 10 12 5 13
REMARK SMILES IDX 6 14 7 15 8 16 4 17
REMARK H PARENT
REMARK Flexibility Score: 60.00
ROOT
ATOM      1  C   UNL     1      75.188  74.381  76.552  1.00  0.00    -0.070 C 
ATOM      2  C   UNL     1      76.163  75.305  76.385  1.00  0.00    -0.027 C 
ATOM      3  C   UNL     1      74.641  74.192  77.947  1.00  0.00     0.039 C 
ENDROOT
BRANCH   2   4
ATOM      4  C   UNL     1      76.921  75.583  75.109  1.00  0.00     0.032 C 
BRANCH   4   5
ATOM      5  C   UNL     1      76.337  74.831  73.898  1.00  0.00     0.034 C 
BRANCH   5   6
ATOM      6  C   UNL     1      75.987  75.769  72.758  1.00  0.00    -0.077 C 
ATOM      7  C   UNL     1      77.046  76.066  71.726  1.00  0.00     0.039 C 
ATOM      8  C   UNL     1      74.770  76.335  72.599  1.00  0.00    -0.023 CG0
ATOM      9  G   UNL     1      73.577  76.132  73.501  1.00  0.00     0.000 G0
ENDBRANCH   5   6
ENDBRANCH   4   5
ENDBRANCH   2   4
BRANCH   1  10
ATOM     10  C   UNL     1      74.669  73.488  75.437  1.00  0.00     0.111 C 
BRANCH  10  11
ATOM     11  C   UNL     1      73.351  73.984  74.897  1.00  0.00     0.163 C 
ATOM     12  O   UNL     1      72.329  73.870  75.626  1.00  0.00    -0.294 OA
BRANCH  11  13
ATOM     13  C   UNL     1      73.243  74.647  73.559  1.00  0.00    -0.002 C 
ATOM     14  C   UNL     1      72.923  73.941  72.432  1.00  0.00    -0.069 C 
ATOM     15  C   UNL     1      72.778  74.625  71.088  1.00  0.00     0.039 C 
ATOM     16  C   UNL     1      72.732  72.441  72.462  1.00  0.00     0.039 C 
BRANCH  13  17
ATOM     17  C   UNL     1      73.578  76.126  73.492  1.00  0.00     0.066 CG0
ATOM     18  G   UNL     1      74.772  76.340  72.595  1.00  0.00     0.000 G0
ENDBRANCH  13  17
ENDBRANCH  11  13
ENDBRANCH  10  11
ENDBRANCH   1  10
TORSDOF 0
ENDMDL
MODEL 3
REMARK VINA RESULT:     2.971      1.637      3.194
REMARK INTER + INTRA:           5.056
REMARK INTER:                   4.057
REMARK INTRA:                   0.999
REMARK UNBOUND:                 0.869
REMARK SMILES CC1=CCC(=C(C)C)C(=O)CC(C)=CCC1
REMARK SMILES IDX 12 1 14 2 13 3 15 4 16 5 2 6 1 7 3 8 11 10 9 11 10 12 5 13
REMARK SMILES IDX 6 14 7 15 8 16 4 17
REMARK H PARENT
REMARK Flexibility Score: 60.00
ROOT
ATOM      1  C   UNL     1      73.079  75.394  73.588  1.00  0.00    -0.070 C 
ATOM      2  C   UNL     1      73.125  75.161  74.921  1.00  0.00    -0.027 C 
ATOM      3  C   UNL     1      73.212  76.826  73.129  1.00  0.00     0.039 C 
ENDROOT
BRANCH   2   4
ATOM      4  C   UNL     1      72.909  73.831  75.602  1.00  0.00     0.032 C 
BRANCH   4   5
ATOM      5  C   UNL     1      74.231  73.143  75.993  1.00  0.00     0.034 C 
BRANCH   5   6
ATOM      6  C   UNL     1      75.408  74.099  75.950  1.00  0.00    -0.077 C 
ATOM      7  C   UNL     1      75.663  74.974  77.151  1.00  0.00     0.039 C 
ATOM      8  C   UNL     1      76.259  74.195  74.903  1.00  0.00    -0.023 CG0
ATOM      9  G   UNL     1      76.190  73.383  73.633  1.00  0.00     0.000 G0
ENDBRANCH   5   6
ENDBRANCH   4   5
ENDBRANCH   2   4
BRANCH   1  10
ATOM     10  C   UNL     1      72.837  74.313  72.548  1.00  0.00     0.111 C 
BRANCH  10  11
ATOM     11  C   UNL     1      74.120  73.628  72.150  1.00  0.00     0.163 C 
ATOM     12  O   UNL     1      74.045  72.605  71.416  1.00  0.00    -0.294 OA
BRANCH  11  13
ATOM     13  C   UNL     1      75.459  74.157  72.558  1.00  0.00    -0.002 C 
ATOM     14  C   UNL     1      76.015  75.249  71.951  1.00  0.00    -0.069 C 
ATOM     15  C   UNL     1      77.354  75.802  72.394  1.00  0.00     0.039 C 
ATOM     16  C   UNL     1      75.342  75.937  70.785  1.00  0.00     0.039 C 
BRANCH  13  17
ATOM     17  C   UNL     1      76.211  73.384  73.627  1.00  0.00     0.066 CG0
ATOM     18  G   UNL     1      76.263  74.192  74.901  1.00  0.00     0.000 G0
ENDBRANCH  13  17
ENDBRANCH  11  13
ENDBRANCH  10  11
ENDBRANCH   1  10
TORSDOF 0
ENDMDL
MODEL 4
REMARK VINA RESULT:     3.505      1.645      4.003
REMARK INTER + INTRA:           5.809
REMARK INTER:                   3.889
REMARK INTRA:                   1.920
REMARK UNBOUND:                 0.869
REMARK SMILES CC1=CCC(=C(C)C)C(=O)CC(C)=CCC1
REMARK SMILES IDX 12 1 14 2 13 3 15 4 16 5 2 6 1 7 3 8 11 10 9 11 10 12 5 13
REMARK SMILES IDX 6 14 7 15 8 16 4 17
REMARK H PARENT
REMARK Flexibility Score: 60.00
ROOT
ATOM      1  C   UNL     1      76.103  74.714  72.261  1.00  0.00    -0.070 C 
ATOM      2  C   UNL     1      75.158  74.375  71.352  1.00  0.00    -0.027 C 
ATOM      3  C   UNL     1      77.247  73.750  72.465  1.00  0.00     0.039 C 
ENDROOT
BRANCH   2   4
ATOM      4  C   UNL     1      73.883  75.131  71.067  1.00  0.00     0.032 C 
BRANCH   4   5
ATOM      5  C   UNL     1      72.692  74.622  71.900  1.00  0.00     0.034 C 
BRANCH   5   6
ATOM      6  C   UNL     1      73.005  73.317  72.608  1.00  0.00    -0.077 C 
ATOM      7  C   UNL     1      73.144  72.068  71.776  1.00  0.00     0.039 C 
ATOM      8  C   UNL     1      73.192  73.214  73.943  1.00  0.00    -0.023 CG0
ATOM      9  G   UNL     1      73.130  74.351  74.934  1.00  0.00     0.000 G0
ENDBRANCH   5   6
ENDBRANCH   4   5
ENDBRANCH   2   4
BRANCH   1  10
ATOM     10  C   UNL     1      76.037  75.963  73.124  1.00  0.00     0.111 C 
BRANCH  10  11
ATOM     11  C   UNL     1      74.753  76.027  73.912  1.00  0.00     0.163 C 
ATOM     12  O   UNL     1      73.897  76.894  73.584  1.00  0.00    -0.294 OA
BRANCH  11  13
ATOM     13  C   UNL     1      74.454  75.066  75.019  1.00  0.00    -0.002 C 
ATOM     14  C   UNL     1      75.363  74.802  76.006  1.00  0.00    -0.069 C 
ATOM     15  C   UNL     1      75.039  73.857  77.144  1.00  0.00     0.039 C 
ATOM     16  C   UNL     1      76.747  75.411  75.993  1.00  0.00     0.039 C 
BRANCH  13  17
ATOM     17  C   UNL     1      73.124  74.336  74.960  1.00  0.00     0.066 CG0
ATOM     18  G   UNL     1      73.204  73.206  73.963  1.00  0.00     0.000 G0
ENDBRANCH  13  17
ENDBRANCH  11  13
ENDBRANCH  10  11
ENDBRANCH   1  10
TORSDOF 0
ENDMDL
MODEL 5
REMARK VINA RESULT:     3.539      1.414      4.185
REMARK INTER + INTRA:           5.856
REMARK INTER:                   3.454
REMARK INTRA:                   2.403
REMARK UNBOUND:                 0.869
REMARK SMILES CC1=CCC(=C(C)C)C(=O)CC(C)=CCC1
REMARK SMILES IDX 12 1 14 2 13 3 15 4 16 5 2 6 1 7 3 8 11 10 9 11 10 12 5 13
REMARK SMILES IDX 6 14 7 15 8 16 4 17
REMARK H PARENT
REMARK Flexibility Score: 60.00
ROOT
ATOM      1  C   UNL     1      75.007  74.494  76.564  1.00  0.00    -0.070 C 
ATOM      2  C   UNL     1      73.794  73.943  76.319  1.00  0.00    -0.027 C 
ATOM      3  C   UNL     1      75.617  74.254  77.923  1.00  0.00     0.039 C 
ENDROOT
BRANCH   2   4
ATOM      4  C   UNL     1      72.959  74.140  75.077  1.00  0.00     0.032 C 
BRANCH   4   5
ATOM      5  C   UNL     1      73.126  72.993  74.062  1.00  0.00     0.034 C 
BRANCH   5   6
ATOM      6  C   UNL     1      72.805  73.431  72.646  1.00  0.00    -0.077 C 
ATOM      7  C   UNL     1      72.130  72.444  71.727  1.00  0.00     0.039 C 
ATOM      8  C   UNL     1      73.067  74.668  72.165  1.00  0.00    -0.023 CG0
ATOM      9  G   UNL     1      73.701  75.799  72.938  1.00  0.00     0.000 G0
ENDBRANCH   5   6
ENDBRANCH   4   5
ENDBRANCH   2   4
BRANCH   1  10
ATOM     10  C   UNL     1      75.746  75.385  75.579  1.00  0.00     0.111 C 
BRANCH  10  11
ATOM     11  C   UNL     1      75.731  74.805  74.186  1.00  0.00     0.163 C 
ATOM     12  O   UNL     1      76.129  73.618  74.033  1.00  0.00    -0.294 OA
BRANCH  11  13
ATOM     13  C   UNL     1      75.212  75.576  73.013  1.00  0.00    -0.002 C 
ATOM     14  C   UNL     1      76.053  76.119  72.082  1.00  0.00    -0.069 C 
ATOM     15  C   UNL     1      75.520  76.866  70.877  1.00  0.00     0.039 C 
ATOM     16  C   UNL     1      77.556  76.036  72.226  1.00  0.00     0.039 C 
BRANCH  13  17
ATOM     17  C   UNL     1      73.712  75.793  72.939  1.00  0.00     0.066 CG0
ATOM     18  G   UNL     1      73.070  74.668  72.163  1.00  0.00     0.000 G0
ENDBRANCH  13  17
ENDBRANCH  11  13
ENDBRANCH  10  11
ENDBRANCH   1  10
TORSDOF 0
ENDMDL
MODEL 6
REMARK VINA RESULT:     3.552      1.472      3.880
REMARK INTER + INTRA:           5.875
REMARK INTER:                   3.479
REMARK INTRA:                   2.396
REMARK UNBOUND:                 0.869
REMARK SMILES CC1=CCC(=C(C)C)C(=O)CC(C)=CCC1
REMARK SMILES IDX 12 1 14 2 13 3 15 4 16 5 2 6 1 7 3 8 11 10 9 11 10 12 5 13
REMARK SMILES IDX 6 14 7 15 8 16 4 17
REMARK H PARENT
REMARK Flexibility Score: 60.00
ROOT
ATOM      1  C   UNL     1      76.168  75.013  72.470  1.00  0.00    -0.070 C 
ATOM      2  C   UNL     1      75.194  75.873  72.089  1.00  0.00    -0.027 C 
ATOM      3  C   UNL     1      77.358  74.861  71.554  1.00  0.00     0.039 C 
ENDROOT
BRANCH   2   4
ATOM      4  C   UNL     1      73.878  76.101  72.793  1.00  0.00     0.032 C 
BRANCH   4   5
ATOM      5  C   UNL     1      72.807  75.067  72.396  1.00  0.00     0.034 C 
BRANCH   5   6
ATOM      6  C   UNL     1      73.128  73.681  72.921  1.00  0.00    -0.077 C 
ATOM      7  C   UNL     1      73.227  72.547  71.931  1.00  0.00     0.039 C 
ATOM      8  C   UNL     1      73.355  73.406  74.225  1.00  0.00    -0.023 CG0
ATOM      9  G   UNL     1      73.336  74.408  75.354  1.00  0.00     0.000 G0
ENDBRANCH   5   6
ENDBRANCH   4   5
ENDBRANCH   2   4
BRANCH   1  10
ATOM     10  C   UNL     1      76.095  74.155  73.722  1.00  0.00     0.111 C 
BRANCH  10  11
ATOM     11  C   UNL     1      75.806  74.985  74.948  1.00  0.00     0.163 C 
ATOM     12  O   UNL     1      76.467  76.046  75.116  1.00  0.00    -0.294 OA
BRANCH  11  13
ATOM     13  C   UNL     1      74.735  74.611  75.923  1.00  0.00    -0.002 C 
ATOM     14  C   UNL     1      75.010  74.396  77.245  1.00  0.00    -0.069 C 
ATOM     15  C   UNL     1      73.914  74.054  78.233  1.00  0.00     0.039 C 
ATOM     16  C   UNL     1      76.423  74.452  77.781  1.00  0.00     0.039 C 
BRANCH  13  17
ATOM     17  C   UNL     1      73.337  74.407  75.368  1.00  0.00     0.066 CG0
ATOM     18  G   UNL     1      73.378  73.414  74.232  1.00  0.00     0.000 G0
ENDBRANCH  13  17
ENDBRANCH  11  13
ENDBRANCH  10  11
ENDBRANCH   1  10
TORSDOF 0
ENDMDL
MODEL 7
REMARK VINA RESULT:     3.861      1.479      3.966
REMARK INTER + INTRA:           6.310
REMARK INTER:                   4.479
REMARK INTRA:                   1.830
REMARK UNBOUND:                 0.869
REMARK SMILES CC1=CCC(=C(C)C)C(=O)CC(C)=CCC1
REMARK SMILES IDX 12 1 14 2 13 3 15 4 16 5 2 6 1 7 3 8 11 10 9 11 10 12 5 13
REMARK SMILES IDX 6 14 7 15 8 16 4 17
REMARK H PARENT
REMARK Flexibility Score: 60.00
ROOT
ATOM      1  C   UNL     1      76.249  74.116  72.788  1.00  0.00    -0.070 C 
ATOM      2  C   UNL     1      75.499  74.007  71.665  1.00  0.00    -0.027 C 
ATOM      3  C   UNL     1      76.811  72.844  73.373  1.00  0.00     0.039 C 
ENDROOT
BRANCH   2   4
ATOM      4  C   UNL     1      74.757  75.127  70.975  1.00  0.00     0.032 C 
BRANCH   4   5
ATOM      5  C   UNL     1      73.228  74.996  71.110  1.00  0.00     0.034 C 
BRANCH   5   6
ATOM      6  C   UNL     1      72.832  73.977  72.161  1.00  0.00    -0.077 C 
ATOM      7  C   UNL     1      72.301  72.643  71.700  1.00  0.00     0.039 C 
ATOM      8  C   UNL     1      72.950  74.186  73.492  1.00  0.00    -0.023 CG0
ATOM      9  G   UNL     1      73.491  75.435  74.144  1.00  0.00     0.000 G0
ENDBRANCH   5   6
ENDBRANCH   4   5
ENDBRANCH   2   4
BRANCH   1  10
ATOM     10  C   UNL     1      76.494  75.427  73.517  1.00  0.00     0.111 C 
BRANCH  10  11
ATOM     11  C   UNL     1      75.946  75.391  74.922  1.00  0.00     0.163 C 
ATOM     12  O   UNL     1      76.719  75.700  75.869  1.00  0.00    -0.294 OA
BRANCH  11  13
ATOM     13  C   UNL     1      74.516  75.054  75.206  1.00  0.00    -0.002 C 
ATOM     14  C   UNL     1      74.148  74.379  76.337  1.00  0.00    -0.069 C 
ATOM     15  C   UNL     1      72.695  74.075  76.636  1.00  0.00     0.039 C 
ATOM     16  C   UNL     1      75.172  73.872  77.327  1.00  0.00     0.039 C 
BRANCH  13  17
ATOM     17  C   UNL     1      73.495  75.427  74.146  1.00  0.00     0.066 CG0
ATOM     18  G   UNL     1      72.953  74.178  73.495  1.00  0.00     0.000 G0
ENDBRANCH  13  17
ENDBRANCH  11  13
ENDBRANCH  10  11
ENDBRANCH   1  10
TORSDOF 0
ENDMDL
MODEL 8
REMARK VINA RESULT:     3.907      1.689      4.440
REMARK INTER + INTRA:           6.375
REMARK INTER:                   4.077
REMARK INTRA:                   2.298
REMARK UNBOUND:                 0.869
REMARK SMILES CC1=CCC(=C(C)C)C(=O)CC(C)=CCC1
REMARK SMILES IDX 12 1 14 2 13 3 15 4 16 5 2 6 1 7 3 8 11 10 9 11 10 12 5 13
REMARK SMILES IDX 6 14 7 15 8 16 4 17
REMARK H PARENT
REMARK Flexibility Score: 60.00
ROOT
ATOM      1  C   UNL     1      73.285  73.513  72.538  1.00  0.00    -0.070 C 
ATOM      2  C   UNL     1      73.054  74.787  72.140  1.00  0.00    -0.027 C 
ATOM      3  C   UNL     1      72.502  72.418  71.854  1.00  0.00     0.039 C 
ENDROOT
BRANCH   2   4
ATOM      4  C   UNL     1      73.641  76.034  72.754  1.00  0.00     0.032 C 
BRANCH   4   5
ATOM      5  C   UNL     1      75.006  76.409  72.144  1.00  0.00     0.034 C 
BRANCH   5   6
ATOM      6  C   UNL     1      76.100  75.442  72.555  1.00  0.00    -0.077 C 
ATOM      7  C   UNL     1      76.935  74.806  71.472  1.00  0.00     0.039 C 
ATOM      8  C   UNL     1      76.388  75.136  73.840  1.00  0.00    -0.023 CG0
ATOM      9  G   UNL     1      75.693  75.695  75.057  1.00  0.00     0.000 G0
ENDBRANCH   5   6
ENDBRANCH   4   5
ENDBRANCH   2   4
BRANCH   1  10
ATOM     10  C   UNL     1      74.230  73.139  73.668  1.00  0.00     0.111 C 
BRANCH  10  11
ATOM     11  C   UNL     1      73.882  73.863  74.945  1.00  0.00     0.163 C 
ATOM     12  O   UNL     1      72.688  73.816  75.349  1.00  0.00    -0.294 OA
BRANCH  11  13
ATOM     13  C   UNL     1      74.916  74.579  75.756  1.00  0.00    -0.002 C 
ATOM     14  C   UNL     1      75.109  74.301  77.081  1.00  0.00    -0.069 C 
ATOM     15  C   UNL     1      76.183  75.003  77.886  1.00  0.00     0.039 C 
ATOM     16  C   UNL     1      74.239  73.309  77.819  1.00  0.00     0.039 C 
BRANCH  13  17
ATOM     17  C   UNL     1      75.695  75.682  75.063  1.00  0.00     0.066 CG0
ATOM     18  G   UNL     1      76.385  75.131  73.839  1.00  0.00     0.000 G0
ENDBRANCH  13  17
ENDBRANCH  11  13
ENDBRANCH  10  11
ENDBRANCH   1  10
TORSDOF 0
ENDMDL
MODEL 9
REMARK VINA RESULT:     4.167      1.466      2.006
REMARK INTER + INTRA:           6.742
REMARK INTER:                   6.101
REMARK INTRA:                   0.640
REMARK UNBOUND:                 0.869
REMARK SMILES CC1=CCC(=C(C)C)C(=O)CC(C)=CCC1
REMARK SMILES IDX 12 1 14 2 13 3 15 4 16 5 2 6 1 7 3 8 11 10 9 11 10 12 5 13
REMARK SMILES IDX 6 14 7 15 8 16 4 17
REMARK H PARENT
REMARK Flexibility Score: 60.00
ROOT
ATOM      1  C   UNL     1      76.441  73.608  73.361  1.00  0.00    -0.070 C 
ATOM      2  C   UNL     1      76.489  73.955  74.669  1.00  0.00    -0.027 C 
ATOM      3  C   UNL     1      76.454  72.134  73.032  1.00  0.00     0.039 C 
ENDROOT
BRANCH   2   4
ATOM      4  C   UNL     1      76.592  75.358  75.216  1.00  0.00     0.032 C 
BRANCH   4   5
ATOM      5  C   UNL     1      75.259  75.868  75.796  1.00  0.00     0.034 C 
BRANCH   5   6
ATOM      6  C   UNL     1      74.216  74.771  75.882  1.00  0.00    -0.077 C 
ATOM      7  C   UNL     1      74.213  73.880  77.099  1.00  0.00     0.039 C 
ATOM      8  C   UNL     1      73.269  74.560  74.940  1.00  0.00    -0.023 CG0
ATOM      9  G   UNL     1      73.087  75.365  73.676  1.00  0.00     0.000 G0
ENDBRANCH   5   6
ENDBRANCH   4   5
ENDBRANCH   2   4
BRANCH   1  10
ATOM     10  C   UNL     1      76.444  74.610  72.219  1.00  0.00     0.111 C 
BRANCH  10  11
ATOM     11  C   UNL     1      75.131  75.346  72.123  1.00  0.00     0.163 C 
ATOM     12  O   UNL     1      75.137  76.514  71.647  1.00  0.00    -0.294 OA
BRANCH  11  13
ATOM     13  C   UNL     1      73.836  74.710  72.523  1.00  0.00    -0.002 C 
ATOM     14  C   UNL     1      73.326  73.634  71.851  1.00  0.00    -0.069 C 
ATOM     15  C   UNL     1      72.035  72.973  72.285  1.00  0.00     0.039 C 
ATOM     16  C   UNL     1      74.004  73.073  70.621  1.00  0.00     0.039 C 
BRANCH  13  17
ATOM     17  C   UNL     1      73.073  75.358  73.665  1.00  0.00     0.066 CG0
ATOM     18  G   UNL     1      73.254  74.547  74.925  1.00  0.00     0.000 G0
ENDBRANCH  13  17
ENDBRANCH  11  13
ENDBRANCH  10  11
ENDBRANCH   1  10
TORSDOF 0
ENDMDL
