MODEL 1
REMARK VINA RESULT:    -6.675      0.000      0.000
REMARK INTER + INTRA:          -8.912
REMARK INTER:                  -8.431
REMARK INTRA:                  -0.481
REMARK UNBOUND:                -0.481
REMARK SMILES Oc1ccc(CCc2cc(O)cc(O)c2)cc1
REMARK SMILES IDX 6 1 5 2 4 3 3 4 2 5 16 6 17 7 1 8 7 10 8 11 15 12 9 13 13 14
REMARK SMILES IDX 10 15 12 16 14 17 11 19
REMARK H PARENT 1 9 14 18 11 20
REMARK Flexibility Score: inf
ROOT
ATOM      1  C   UNL     1     -25.560  60.917  31.287  1.00  0.00     0.040 C 
ENDROOT
BRANCH   1   2
ATOM      2  C   UNL     1     -26.248  61.258  32.581  1.00  0.00    -0.047 A 
ATOM      3  C   UNL     1     -27.452  61.980  32.574  1.00  0.00     0.007 A 
ATOM      4  C   UNL     1     -28.074  62.325  33.778  1.00  0.00     0.046 A 
ATOM      5  C   UNL     1     -27.494  61.963  34.998  1.00  0.00     0.115 A 
ATOM      6  C   UNL     1     -25.661  60.909  33.808  1.00  0.00     0.007 A 
ATOM      7  C   UNL     1     -26.285  61.255  35.012  1.00  0.00     0.046 A 
BRANCH   5   8
ATOM      8  O   UNL     1     -28.125  62.314  36.190  1.00  0.00    -0.508 OA
ATOM      9  H   UNL     1     -27.595  62.509  37.032  1.00  0.00     0.293 HD
ENDBRANCH   5   8
ENDBRANCH   1   2
BRANCH   1  10
ATOM     10  C   UNL     1     -25.075  62.187  30.583  1.00  0.00     0.040 C 
BRANCH  10  11
ATOM     11  C   UNL     1     -23.644  62.035  30.141  1.00  0.00    -0.040 A 
ATOM     12  C   UNL     1     -23.342  61.784  28.793  1.00  0.00     0.050 A 
ATOM     13  C   UNL     1     -22.604  62.087  31.083  1.00  0.00     0.050 A 
ATOM     14  C   UNL     1     -22.013  61.609  28.387  1.00  0.00     0.119 A 
ATOM     15  C   UNL     1     -21.274  61.912  30.678  1.00  0.00     0.119 A 
ATOM     16  C   UNL     1     -20.982  61.677  29.330  1.00  0.00     0.092 A 
BRANCH  14  17
ATOM     17  O   UNL     1     -21.704  61.366  27.050  1.00  0.00    -0.508 OA
ATOM     18  H   UNL     1     -21.607  62.123  26.383  1.00  0.00     0.293 HD
ENDBRANCH  14  17
BRANCH  15  19
ATOM     19  O   UNL     1     -20.236  61.968  31.605  1.00  0.00    -0.508 OA
ATOM     20  H   UNL     1     -19.428  62.561  31.460  1.00  0.00     0.293 HD
ENDBRANCH  15  19
ENDBRANCH  10  11
ENDBRANCH   1  10
TORSDOF 6
ENDMDL
MODEL 2
REMARK VINA RESULT:    -6.623      2.257      6.464
REMARK INTER + INTRA:          -8.846
REMARK INTER:                  -8.270
REMARK INTRA:                  -0.575
REMARK UNBOUND:                -0.481
REMARK SMILES Oc1ccc(CCc2cc(O)cc(O)c2)cc1
REMARK SMILES IDX 6 1 5 2 4 3 3 4 2 5 16 6 17 7 1 8 7 10 8 11 15 12 9 13 13 14
REMARK SMILES IDX 10 15 12 16 14 17 11 19
REMARK H PARENT 1 9 14 18 11 20
REMARK Flexibility Score: inf
ROOT
ATOM      1  C   UNL     1     -24.253  61.359  28.454  1.00  0.00     0.040 C 
ENDROOT
BRANCH   1   2
ATOM      2  C   UNL     1     -22.822  61.564  28.872  1.00  0.00    -0.047 A 
ATOM      3  C   UNL     1     -21.789  61.480  27.926  1.00  0.00     0.007 A 
ATOM      4  C   UNL     1     -20.456  61.638  28.321  1.00  0.00     0.046 A 
ATOM      5  C   UNL     1     -20.145  61.870  29.665  1.00  0.00     0.115 A 
ATOM      6  C   UNL     1     -22.504  61.784  30.222  1.00  0.00     0.007 A 
ATOM      7  C   UNL     1     -21.171  61.942  30.616  1.00  0.00     0.046 A 
BRANCH   5   8
ATOM      8  O   UNL     1     -18.813  62.026  30.044  1.00  0.00    -0.508 OA
ATOM      9  H   UNL     1     -18.430  61.535  30.844  1.00  0.00     0.293 HD
ENDBRANCH   5   8
ENDBRANCH   1   2
BRANCH   1  10
ATOM     10  C   UNL     1     -24.707  59.930  28.764  1.00  0.00     0.040 C 
BRANCH  10  11
ATOM     11  C   UNL     1     -25.278  59.845  30.154  1.00  0.00    -0.040 A 
ATOM     12  C   UNL     1     -26.280  60.739  30.564  1.00  0.00     0.050 A 
ATOM     13  C   UNL     1     -24.773  58.908  31.071  1.00  0.00     0.050 A 
ATOM     14  C   UNL     1     -26.788  60.683  31.868  1.00  0.00     0.119 A 
ATOM     15  C   UNL     1     -25.281  58.850  32.375  1.00  0.00     0.119 A 
ATOM     16  C   UNL     1     -26.290  59.736  32.769  1.00  0.00     0.092 A 
BRANCH  14  17
ATOM     17  O   UNL     1     -27.787  61.562  32.280  1.00  0.00    -0.508 OA
ATOM     18  H   UNL     1     -27.596  62.308  32.940  1.00  0.00     0.293 HD
ENDBRANCH  14  17
BRANCH  15  19
ATOM     19  O   UNL     1     -24.790  57.920  33.288  1.00  0.00    -0.508 OA
ATOM     20  H   UNL     1     -25.180  56.987  33.355  1.00  0.00     0.293 HD
ENDBRANCH  15  19
ENDBRANCH  10  11
ENDBRANCH   1  10
TORSDOF 6
ENDMDL
MODEL 3
REMARK VINA RESULT:    -6.531      1.961      6.314
REMARK INTER + INTRA:          -8.730
REMARK INTER:                  -8.020
REMARK INTRA:                  -0.709
REMARK UNBOUND:                -0.481
REMARK SMILES Oc1ccc(CCc2cc(O)cc(O)c2)cc1
REMARK SMILES IDX 6 1 5 2 4 3 3 4 2 5 16 6 17 7 1 8 7 10 8 11 15 12 9 13 13 14
REMARK SMILES IDX 10 15 12 16 14 17 11 19
REMARK H PARENT 1 9 14 18 11 20
REMARK Flexibility Score: inf
ROOT
ATOM      1  C   UNL     1     -24.736  62.228  29.443  1.00  0.00     0.040 C 
ENDROOT
BRANCH   1   2
ATOM      2  C   UNL     1     -23.261  62.035  29.673  1.00  0.00    -0.047 A 
ATOM      3  C   UNL     1     -22.691  62.354  30.916  1.00  0.00     0.007 A 
ATOM      4  C   UNL     1     -21.315  62.206  31.119  1.00  0.00     0.046 A 
ATOM      5  C   UNL     1     -20.496  61.749  30.081  1.00  0.00     0.115 A 
ATOM      6  C   UNL     1     -22.434  61.590  28.630  1.00  0.00     0.007 A 
ATOM      7  C   UNL     1     -21.058  61.442  28.835  1.00  0.00     0.046 A 
BRANCH   5   8
ATOM      8  O   UNL     1     -19.127  61.607  30.298  1.00  0.00    -0.508 OA
ATOM      9  H   UNL     1     -18.707  60.696  30.448  1.00  0.00     0.293 HD
ENDBRANCH   5   8
ENDBRANCH   1   2
BRANCH   1  10
ATOM     10  C   UNL     1     -25.479  60.894  29.561  1.00  0.00     0.040 C 
BRANCH  10  11
ATOM     11  C   UNL     1     -25.659  60.513  31.006  1.00  0.00    -0.040 A 
ATOM     12  C   UNL     1     -26.315  61.383  31.891  1.00  0.00     0.050 A 
ATOM     13  C   UNL     1     -25.120  59.311  31.493  1.00  0.00     0.050 A 
ATOM     14  C   UNL     1     -26.453  61.043  33.244  1.00  0.00     0.119 A 
ATOM     15  C   UNL     1     -25.258  58.971  32.845  1.00  0.00     0.119 A 
ATOM     16  C   UNL     1     -25.927  59.837  33.716  1.00  0.00     0.092 A 
BRANCH  14  17
ATOM     17  O   UNL     1     -27.110  61.898  34.127  1.00  0.00    -0.508 OA
ATOM     18  H   UNL     1     -26.597  62.474  34.785  1.00  0.00     0.293 HD
ENDBRANCH  14  17
BRANCH  15  19
ATOM     19  O   UNL     1     -24.732  57.777  33.334  1.00  0.00    -0.508 OA
ATOM     20  H   UNL     1     -25.261  56.914  33.304  1.00  0.00     0.293 HD
ENDBRANCH  15  19
ENDBRANCH  10  11
ENDBRANCH   1  10
TORSDOF 6
ENDMDL
MODEL 4
REMARK VINA RESULT:    -6.490      1.978      6.294
REMARK INTER + INTRA:          -8.678
REMARK INTER:                  -8.004
REMARK INTRA:                  -0.674
REMARK UNBOUND:                -0.481
REMARK SMILES Oc1ccc(CCc2cc(O)cc(O)c2)cc1
REMARK SMILES IDX 6 1 5 2 4 3 3 4 2 5 16 6 17 7 1 8 7 10 8 11 15 12 9 13 13 14
REMARK SMILES IDX 10 15 12 16 14 17 11 19
REMARK H PARENT 1 9 14 18 11 20
REMARK Flexibility Score: inf
ROOT
ATOM      1  C   UNL     1     -24.699  62.229  29.408  1.00  0.00     0.040 C 
ENDROOT
BRANCH   1   2
ATOM      2  C   UNL     1     -23.225  62.035  29.636  1.00  0.00    -0.047 A 
ATOM      3  C   UNL     1     -22.657  62.330  30.886  1.00  0.00     0.007 A 
ATOM      4  C   UNL     1     -21.281  62.182  31.088  1.00  0.00     0.046 A 
ATOM      5  C   UNL     1     -20.460  61.748  30.042  1.00  0.00     0.115 A 
ATOM      6  C   UNL     1     -22.395  61.613  28.585  1.00  0.00     0.007 A 
ATOM      7  C   UNL     1     -21.019  61.465  28.789  1.00  0.00     0.046 A 
BRANCH   5   8
ATOM      8  O   UNL     1     -19.091  61.604  30.258  1.00  0.00    -0.508 OA
ATOM      9  H   UNL     1     -18.438  61.532  29.486  1.00  0.00     0.293 HD
ENDBRANCH   5   8
ENDBRANCH   1   2
BRANCH   1  10
ATOM     10  C   UNL     1     -25.448  60.901  29.557  1.00  0.00     0.040 C 
BRANCH  10  11
ATOM     11  C   UNL     1     -25.584  60.529  31.009  1.00  0.00    -0.040 A 
ATOM     12  C   UNL     1     -25.080  59.305  31.476  1.00  0.00     0.050 A 
ATOM     13  C   UNL     1     -26.267  61.377  31.896  1.00  0.00     0.050 A 
ATOM     14  C   UNL     1     -25.236  58.943  32.821  1.00  0.00     0.119 A 
ATOM     15  C   UNL     1     -26.423  61.017  33.240  1.00  0.00     0.119 A 
ATOM     16  C   UNL     1     -25.904  59.801  33.700  1.00  0.00     0.092 A 
BRANCH  14  17
ATOM     17  O   UNL     1     -24.732  57.733  33.294  1.00  0.00    -0.508 OA
ATOM     18  H   UNL     1     -24.529  56.963  32.667  1.00  0.00     0.293 HD
ENDBRANCH  14  17
BRANCH  15  19
ATOM     19  O   UNL     1     -27.094  61.856  34.127  1.00  0.00    -0.508 OA
ATOM     20  H   UNL     1     -28.093  61.779  34.276  1.00  0.00     0.293 HD
ENDBRANCH  15  19
ENDBRANCH  10  11
ENDBRANCH   1  10
TORSDOF 6
ENDMDL
MODEL 5
REMARK VINA RESULT:    -6.361      2.498      6.602
REMARK INTER + INTRA:          -8.515
REMARK INTER:                  -7.717
REMARK INTRA:                  -0.798
REMARK UNBOUND:                -0.481
REMARK SMILES Oc1ccc(CCc2cc(O)cc(O)c2)cc1
REMARK SMILES IDX 6 1 5 2 4 3 3 4 2 5 16 6 17 7 1 8 7 10 8 11 15 12 9 13 13 14
REMARK SMILES IDX 10 15 12 16 14 17 11 19
REMARK H PARENT 1 9 14 18 11 20
REMARK Flexibility Score: inf
ROOT
ATOM      1  C   UNL     1     -23.331  58.651  28.573  1.00  0.00     0.040 C 
ENDROOT
BRANCH   1   2
ATOM      2  C   UNL     1     -22.199  59.601  28.856  1.00  0.00    -0.047 A 
ATOM      3  C   UNL     1     -21.397  59.428  29.995  1.00  0.00     0.007 A 
ATOM      4  C   UNL     1     -20.366  60.331  30.276  1.00  0.00     0.046 A 
ATOM      5  C   UNL     1     -20.135  61.419  29.427  1.00  0.00     0.115 A 
ATOM      6  C   UNL     1     -21.972  60.702  28.014  1.00  0.00     0.007 A 
ATOM      7  C   UNL     1     -20.941  61.604  28.296  1.00  0.00     0.046 A 
BRANCH   5   8
ATOM      8  O   UNL     1     -19.104  62.310  29.719  1.00  0.00    -0.508 OA
ATOM      9  H   UNL     1     -18.344  62.055  30.338  1.00  0.00     0.293 HD
ENDBRANCH   5   8
ENDBRANCH   1   2
BRANCH   1  10
ATOM     10  C   UNL     1     -24.661  59.404  28.492  1.00  0.00     0.040 C 
BRANCH  10  11
ATOM     11  C   UNL     1     -25.091  59.869  29.857  1.00  0.00    -0.040 A 
ATOM     12  C   UNL     1     -25.117  58.970  30.936  1.00  0.00     0.050 A 
ATOM     13  C   UNL     1     -25.525  61.191  30.051  1.00  0.00     0.050 A 
ATOM     14  C   UNL     1     -25.549  59.394  32.199  1.00  0.00     0.119 A 
ATOM     15  C   UNL     1     -25.957  61.615  31.314  1.00  0.00     0.119 A 
ATOM     16  C   UNL     1     -25.965  60.716  32.386  1.00  0.00     0.092 A 
BRANCH  14  17
ATOM     17  O   UNL     1     -25.571  58.510  33.276  1.00  0.00    -0.508 OA
ATOM     18  H   UNL     1     -24.864  58.543  34.002  1.00  0.00     0.293 HD
ENDBRANCH  14  17
BRANCH  15  19
ATOM     19  O   UNL     1     -26.383  62.926  31.515  1.00  0.00    -0.508 OA
ATOM     20  H   UNL     1     -25.725  63.676  31.688  1.00  0.00     0.293 HD
ENDBRANCH  15  19
ENDBRANCH  10  11
ENDBRANCH   1  10
TORSDOF 6
ENDMDL
MODEL 6
REMARK VINA RESULT:    -6.309      3.125      6.799
REMARK INTER + INTRA:          -8.449
REMARK INTER:                  -8.016
REMARK INTRA:                  -0.433
REMARK UNBOUND:                -0.481
REMARK SMILES Oc1ccc(CCc2cc(O)cc(O)c2)cc1
REMARK SMILES IDX 6 1 5 2 4 3 3 4 2 5 16 6 17 7 1 8 7 10 8 11 15 12 9 13 13 14
REMARK SMILES IDX 10 15 12 16 14 17 11 19
REMARK H PARENT 1 9 14 18 11 20
REMARK Flexibility Score: inf
ROOT
ATOM      1  C   UNL     1     -22.705  60.392  31.333  1.00  0.00     0.040 C 
ENDROOT
BRANCH   1   2
ATOM      2  C   UNL     1     -22.364  60.927  29.969  1.00  0.00    -0.047 A 
ATOM      3  C   UNL     1     -23.375  61.133  29.016  1.00  0.00     0.007 A 
ATOM      4  C   UNL     1     -23.054  61.599  27.737  1.00  0.00     0.046 A 
ATOM      5  C   UNL     1     -21.722  61.854  27.396  1.00  0.00     0.115 A 
ATOM      6  C   UNL     1     -21.027  61.171  29.617  1.00  0.00     0.007 A 
ATOM      7  C   UNL     1     -20.708  61.637  28.338  1.00  0.00     0.046 A 
BRANCH   5   8
ATOM      8  O   UNL     1     -21.417  62.318  26.118  1.00  0.00    -0.508 OA
ATOM      9  H   UNL     1     -22.044  62.937  25.616  1.00  0.00     0.293 HD
ENDBRANCH   5   8
ENDBRANCH   1   2
BRANCH   1  10
ATOM     10  C   UNL     1     -23.136  61.527  32.266  1.00  0.00     0.040 C 
BRANCH  10  11
ATOM     11  C   UNL     1     -22.527  61.352  33.631  1.00  0.00    -0.040 A 
ATOM     12  C   UNL     1     -23.164  60.552  34.593  1.00  0.00     0.050 A 
ATOM     13  C   UNL     1     -21.348  62.034  33.973  1.00  0.00     0.050 A 
ATOM     14  C   UNL     1     -22.615  60.416  35.875  1.00  0.00     0.119 A 
ATOM     15  C   UNL     1     -20.798  61.899  35.254  1.00  0.00     0.119 A 
ATOM     16  C   UNL     1     -21.432  61.087  36.201  1.00  0.00     0.092 A 
BRANCH  14  17
ATOM     17  O   UNL     1     -23.237  59.618  36.834  1.00  0.00    -0.508 OA
ATOM     18  H   UNL     1     -23.046  59.733  37.822  1.00  0.00     0.293 HD
ENDBRANCH  14  17
BRANCH  15  19
ATOM     19  O   UNL     1     -19.625  62.567  35.598  1.00  0.00    -0.508 OA
ATOM     20  H   UNL     1     -19.203  63.247  34.978  1.00  0.00     0.293 HD
ENDBRANCH  15  19
ENDBRANCH  10  11
ENDBRANCH   1  10
TORSDOF 6
ENDMDL
MODEL 7
REMARK VINA RESULT:    -6.291      3.196      6.914
REMARK INTER + INTRA:          -8.427
REMARK INTER:                  -7.992
REMARK INTRA:                  -0.435
REMARK UNBOUND:                -0.481
REMARK SMILES Oc1ccc(CCc2cc(O)cc(O)c2)cc1
REMARK SMILES IDX 6 1 5 2 4 3 3 4 2 5 16 6 17 7 1 8 7 10 8 11 15 12 9 13 13 14
REMARK SMILES IDX 10 15 12 16 14 17 11 19
REMARK H PARENT 1 9 14 18 11 20
REMARK Flexibility Score: inf
ROOT
ATOM      1  C   UNL     1     -22.616  60.408  31.295  1.00  0.00     0.040 C 
ENDROOT
BRANCH   1   2
ATOM      2  C   UNL     1     -22.296  60.893  29.907  1.00  0.00    -0.047 A 
ATOM      3  C   UNL     1     -20.971  61.194  29.551  1.00  0.00     0.007 A 
ATOM      4  C   UNL     1     -20.678  61.676  28.271  1.00  0.00     0.046 A 
ATOM      5  C   UNL     1     -21.704  61.871  27.341  1.00  0.00     0.115 A 
ATOM      6  C   UNL     1     -23.325  61.102  28.975  1.00  0.00     0.007 A 
ATOM      7  C   UNL     1     -23.029  61.584  27.696  1.00  0.00     0.046 A 
BRANCH   5   8
ATOM      8  O   UNL     1     -21.397  62.351  26.070  1.00  0.00    -0.508 OA
ATOM      9  H   UNL     1     -20.998  63.273  25.934  1.00  0.00     0.293 HD
ENDBRANCH   5   8
ENDBRANCH   1   2
BRANCH   1  10
ATOM     10  C   UNL     1     -23.036  61.576  32.191  1.00  0.00     0.040 C 
BRANCH  10  11
ATOM     11  C   UNL     1     -22.473  61.411  33.577  1.00  0.00    -0.040 A 
ATOM     12  C   UNL     1     -21.306  62.096  33.953  1.00  0.00     0.050 A 
ATOM     13  C   UNL     1     -23.076  60.526  34.485  1.00  0.00     0.050 A 
ATOM     14  C   UNL     1     -20.762  61.917  35.232  1.00  0.00     0.119 A 
ATOM     15  C   UNL     1     -22.533  60.346  35.764  1.00  0.00     0.119 A 
ATOM     16  C   UNL     1     -21.379  61.045  36.135  1.00  0.00     0.092 A 
BRANCH  14  17
ATOM     17  O   UNL     1     -19.609  62.598  35.616  1.00  0.00    -0.508 OA
ATOM     18  H   UNL     1     -19.185  63.298  35.018  1.00  0.00     0.293 HD
ENDBRANCH  14  17
BRANCH  15  19
ATOM     19  O   UNL     1     -23.130  59.475  36.673  1.00  0.00    -0.508 OA
ATOM     20  H   UNL     1     -22.851  58.504  36.736  1.00  0.00     0.293 HD
ENDBRANCH  15  19
ENDBRANCH  10  11
ENDBRANCH   1  10
TORSDOF 6
ENDMDL
MODEL 8
REMARK VINA RESULT:    -6.247     18.853     20.921
REMARK INTER + INTRA:          -8.371
REMARK INTER:                  -7.970
REMARK INTRA:                  -0.401
REMARK UNBOUND:                -0.481
REMARK SMILES Oc1ccc(CCc2cc(O)cc(O)c2)cc1
REMARK SMILES IDX 6 1 5 2 4 3 3 4 2 5 16 6 17 7 1 8 7 10 8 11 15 12 9 13 13 14
REMARK SMILES IDX 10 15 12 16 14 17 11 19
REMARK H PARENT 1 9 14 18 11 20
REMARK Flexibility Score: inf
ROOT
ATOM      1  C   UNL     1     -14.551  45.505  25.071  1.00  0.00     0.040 C 
ENDROOT
BRANCH   1   2
ATOM      2  C   UNL     1     -15.423  45.515  26.297  1.00  0.00    -0.047 A 
ATOM      3  C   UNL     1     -16.114  44.355  26.684  1.00  0.00     0.007 A 
ATOM      4  C   UNL     1     -16.951  44.374  27.804  1.00  0.00     0.046 A 
ATOM      5  C   UNL     1     -17.112  45.551  28.542  1.00  0.00     0.115 A 
ATOM      6  C   UNL     1     -15.598  46.698  27.032  1.00  0.00     0.007 A 
ATOM      7  C   UNL     1     -16.435  46.715  28.152  1.00  0.00     0.046 A 
BRANCH   5   8
ATOM      8  O   UNL     1     -17.948  45.555  29.656  1.00  0.00    -0.508 OA
ATOM      9  H   UNL     1     -18.691  44.873  29.762  1.00  0.00     0.293 HD
ENDBRANCH   5   8
ENDBRANCH   1   2
BRANCH   1  10
ATOM     10  C   UNL     1     -14.959  44.371  24.127  1.00  0.00     0.040 C 
BRANCH  10  11
ATOM     11  C   UNL     1     -14.066  44.340  22.916  1.00  0.00    -0.040 A 
ATOM     12  C   UNL     1     -12.879  45.091  22.893  1.00  0.00     0.050 A 
ATOM     13  C   UNL     1     -14.440  43.607  21.779  1.00  0.00     0.050 A 
ATOM     14  C   UNL     1     -12.064  45.090  21.754  1.00  0.00     0.119 A 
ATOM     15  C   UNL     1     -13.625  43.605  20.639  1.00  0.00     0.119 A 
ATOM     16  C   UNL     1     -12.437  44.344  20.631  1.00  0.00     0.092 A 
BRANCH  14  17
ATOM     17  O   UNL     1     -10.881  45.827  21.725  1.00  0.00    -0.508 OA
ATOM     18  H   UNL     1     -10.007  45.436  22.058  1.00  0.00     0.293 HD
ENDBRANCH  14  17
BRANCH  15  19
ATOM     19  O   UNL     1     -13.987  42.875  19.509  1.00  0.00    -0.508 OA
ATOM     20  H   UNL     1     -13.471  42.953  18.641  1.00  0.00     0.293 HD
ENDBRANCH  15  19
ENDBRANCH  10  11
ENDBRANCH   1  10
TORSDOF 6
ENDMDL
