MODEL 1
REMARK VINA RESULT:    -5.936      0.000      0.000
REMARK INTER + INTRA:          -6.844
REMARK INTER:                  -6.630
REMARK INTRA:                  -0.214
REMARK UNBOUND:                -0.214
REMARK SMILES O=C([O-])c1ccccc1C(=O)[O-]
REMARK SMILES IDX 4 1 9 2 5 3 8 4 6 5 7 6 2 7 1 8 3 9 10 10 11 11 12 12
REMARK H PARENT
REMARK Flexibility Score: inf
ROOT
ATOM      1  C   UNL     1      -7.139  28.231  19.207  1.00  0.00     0.006 A 
ATOM      2  C   UNL     1      -7.933  28.522  18.063  1.00  0.00     0.006 A 
ATOM      3  C   UNL     1      -7.699  28.392  20.488  1.00  0.00     0.010 A 
ATOM      4  C   UNL     1      -9.276  28.903  18.242  1.00  0.00     0.010 A 
ATOM      5  C   UNL     1      -9.027  28.792  20.643  1.00  0.00     0.001 A 
ATOM      6  C   UNL     1      -9.817  29.035  19.522  1.00  0.00     0.001 A 
ENDROOT
BRANCH   1   7
ATOM      7  C   UNL     1      -5.764  27.690  19.106  1.00  0.00     0.072 C 
ATOM      8  O   UNL     1      -5.573  26.445  19.074  1.00  0.00    -0.545 OA
ATOM      9  O   UNL     1      -4.675  28.543  18.978  1.00  0.00    -0.545 OA
ENDBRANCH   1   7
BRANCH   2  10
ATOM     10  C   UNL     1      -7.386  28.515  16.688  1.00  0.00     0.072 C 
ATOM     11  O   UNL     1      -7.704  27.599  15.883  1.00  0.00    -0.545 OA
ATOM     12  O   UNL     1      -6.569  29.548  16.245  1.00  0.00    -0.545 OA
ENDBRANCH   2  10
TORSDOF 2
ENDMDL
MODEL 2
REMARK VINA RESULT:    -5.933      0.074      2.859
REMARK INTER + INTRA:          -6.841
REMARK INTER:                  -6.636
REMARK INTRA:                  -0.205
REMARK UNBOUND:                -0.214
REMARK SMILES O=C([O-])c1ccccc1C(=O)[O-]
REMARK SMILES IDX 4 1 9 2 5 3 8 4 6 5 7 6 2 7 1 8 3 9 10 10 11 11 12 12
REMARK H PARENT
REMARK Flexibility Score: inf
ROOT
ATOM      1  C   UNL     1      -7.975  28.530  18.065  1.00  0.00     0.006 A 
ATOM      2  C   UNL     1      -7.193  28.231  19.214  1.00  0.00     0.006 A 
ATOM      3  C   UNL     1      -9.314  28.930  18.232  1.00  0.00     0.010 A 
ATOM      4  C   UNL     1      -7.760  28.405  20.491  1.00  0.00     0.010 A 
ATOM      5  C   UNL     1      -9.862  29.076  19.507  1.00  0.00     0.001 A 
ATOM      6  C   UNL     1      -9.083  28.826  20.634  1.00  0.00     0.001 A 
ENDROOT
BRANCH   1   7
ATOM      7  C   UNL     1      -7.416  28.509  16.693  1.00  0.00     0.072 C 
ATOM      8  O   UNL     1      -7.787  27.629  15.871  1.00  0.00    -0.545 OA
ATOM      9  O   UNL     1      -6.530  29.493  16.273  1.00  0.00    -0.545 OA
ENDBRANCH   1   7
BRANCH   2  10
ATOM     10  C   UNL     1      -5.826  27.671  19.127  1.00  0.00     0.072 C 
ATOM     11  O   UNL     1      -5.655  26.427  19.020  1.00  0.00    -0.545 OA
ATOM     12  O   UNL     1      -4.717  28.508  19.096  1.00  0.00    -0.545 OA
ENDBRANCH   2  10
TORSDOF 2
ENDMDL
MODEL 3
REMARK VINA RESULT:    -5.929      2.451      4.101
REMARK INTER + INTRA:          -6.837
REMARK INTER:                  -6.658
REMARK INTRA:                  -0.178
REMARK UNBOUND:                -0.214
REMARK SMILES O=C([O-])c1ccccc1C(=O)[O-]
REMARK SMILES IDX 4 1 9 2 5 3 8 4 6 5 7 6 2 7 1 8 3 9 10 10 11 11 12 12
REMARK H PARENT
REMARK Flexibility Score: inf
ROOT
ATOM      1  C   UNL     1      -8.570  28.516  18.077  1.00  0.00     0.006 A 
ATOM      2  C   UNL     1      -9.339  28.789  19.242  1.00  0.00     0.006 A 
ATOM      3  C   UNL     1      -7.221  28.142  18.219  1.00  0.00     0.010 A 
ATOM      4  C   UNL     1      -8.747  28.617  20.508  1.00  0.00     0.010 A 
ATOM      5  C   UNL     1      -6.648  27.997  19.483  1.00  0.00     0.001 A 
ATOM      6  C   UNL     1      -7.413  28.223  20.625  1.00  0.00     0.001 A 
ENDROOT
BRANCH   1   7
ATOM      7  C   UNL     1      -9.153  28.536  16.716  1.00  0.00     0.072 C 
ATOM      8  O   UNL     1      -8.748  29.374  15.865  1.00  0.00    -0.545 OA
ATOM      9  O   UNL     1     -10.100  27.594  16.335  1.00  0.00    -0.545 OA
ENDBRANCH   1   7
BRANCH   2  10
ATOM     10  C   UNL     1     -10.719  29.322  19.182  1.00  0.00     0.072 C 
ATOM     11  O   UNL     1     -10.917  30.565  19.119  1.00  0.00    -0.545 OA
ATOM     12  O   UNL     1     -11.809  28.462  19.129  1.00  0.00    -0.545 OA
ENDBRANCH   2  10
TORSDOF 2
ENDMDL
MODEL 4
REMARK VINA RESULT:    -5.919      2.439      3.789
REMARK INTER + INTRA:          -6.825
REMARK INTER:                  -6.653
REMARK INTRA:                  -0.172
REMARK UNBOUND:                -0.214
REMARK SMILES O=C([O-])c1ccccc1C(=O)[O-]
REMARK SMILES IDX 4 1 9 2 5 3 8 4 6 5 7 6 2 7 1 8 3 9 10 10 11 11 12 12
REMARK H PARENT
REMARK Flexibility Score: inf
ROOT
ATOM      1  C   UNL     1      -9.346  28.779  19.240  1.00  0.00     0.006 A 
ATOM      2  C   UNL     1      -8.552  28.523  18.089  1.00  0.00     0.006 A 
ATOM      3  C   UNL     1      -8.779  28.606  20.516  1.00  0.00     0.010 A 
ATOM      4  C   UNL     1      -7.201  28.165  18.256  1.00  0.00     0.010 A 
ATOM      5  C   UNL     1      -7.443  28.229  20.659  1.00  0.00     0.001 A 
ATOM      6  C   UNL     1      -6.653  28.021  19.531  1.00  0.00     0.001 A 
ENDROOT
BRANCH   1   7
ATOM      7  C   UNL     1     -10.732  29.295  19.155  1.00  0.00     0.072 C 
ATOM      8  O   UNL     1     -10.944  30.536  19.090  1.00  0.00    -0.545 OA
ATOM      9  O   UNL     1     -11.810  28.422  19.077  1.00  0.00    -0.545 OA
ENDBRANCH   1   7
BRANCH   2  10
ATOM     10  C   UNL     1      -9.106  28.544  16.716  1.00  0.00     0.072 C 
ATOM     11  O   UNL     1      -8.685  29.383  15.875  1.00  0.00    -0.545 OA
ATOM     12  O   UNL     1     -10.046  27.602  16.316  1.00  0.00    -0.545 OA
ENDBRANCH   2  10
TORSDOF 2
ENDMDL
MODEL 5
REMARK VINA RESULT:    -5.314      2.828      4.638
REMARK INTER + INTRA:          -6.150
REMARK INTER:                  -6.476
REMARK INTRA:                   0.326
REMARK UNBOUND:                -0.214
REMARK SMILES O=C([O-])c1ccccc1C(=O)[O-]
REMARK SMILES IDX 4 1 9 2 5 3 8 4 6 5 7 6 2 7 1 8 3 9 10 10 11 11 12 12
REMARK H PARENT
REMARK Flexibility Score: inf
ROOT
ATOM      1  C   UNL     1      -9.276  28.950  18.466  1.00  0.00     0.006 A 
ATOM      2  C   UNL     1      -8.214  28.470  19.282  1.00  0.00     0.006 A 
ATOM      3  C   UNL     1      -9.111  28.967  17.068  1.00  0.00     0.010 A 
ATOM      4  C   UNL     1      -7.053  27.968  18.667  1.00  0.00     0.010 A 
ATOM      5  C   UNL     1      -7.942  28.483  16.481  1.00  0.00     0.001 A 
ATOM      6  C   UNL     1      -6.920  27.973  17.278  1.00  0.00     0.001 A 
ENDROOT
BRANCH   1   7
ATOM      7  C   UNL     1     -10.584  29.365  19.022  1.00  0.00     0.072 C 
ATOM      8  O   UNL     1     -10.760  30.550  19.413  1.00  0.00    -0.545 OA
ATOM      9  O   UNL     1     -11.652  28.477  19.060  1.00  0.00    -0.545 OA
ENDBRANCH   1   7
BRANCH   2  10
ATOM     10  C   UNL     1      -8.247  28.546  20.760  1.00  0.00     0.072 C 
ATOM     11  O   UNL     1      -9.330  28.379  21.381  1.00  0.00    -0.545 OA
ATOM     12  O   UNL     1      -7.077  28.735  21.486  1.00  0.00    -0.545 OA
ENDBRANCH   2  10
TORSDOF 2
ENDMDL
MODEL 6
REMARK VINA RESULT:    -5.303      1.829      3.258
REMARK INTER + INTRA:          -6.137
REMARK INTER:                  -6.446
REMARK INTRA:                   0.309
REMARK UNBOUND:                -0.214
REMARK SMILES O=C([O-])c1ccccc1C(=O)[O-]
REMARK SMILES IDX 4 1 9 2 5 3 8 4 6 5 7 6 2 7 1 8 3 9 10 10 11 11 12 12
REMARK H PARENT
REMARK Flexibility Score: inf
ROOT
ATOM      1  C   UNL     1      -8.203  28.511  19.271  1.00  0.00     0.006 A 
ATOM      2  C   UNL     1      -7.141  28.010  18.470  1.00  0.00     0.006 A 
ATOM      3  C   UNL     1      -9.354  29.021  18.642  1.00  0.00     0.010 A 
ATOM      4  C   UNL     1      -7.296  27.978  17.071  1.00  0.00     0.010 A 
ATOM      5  C   UNL     1      -9.477  29.000  17.252  1.00  0.00     0.001 A 
ATOM      6  C   UNL     1      -8.455  28.467  16.469  1.00  0.00     0.001 A 
ENDROOT
BRANCH   1   7
ATOM      7  C   UNL     1      -8.182  28.453  20.751  1.00  0.00     0.072 C 
ATOM      8  O   UNL     1      -7.103  28.637  21.377  1.00  0.00    -0.545 OA
ATOM      9  O   UNL     1      -9.355  28.261  21.470  1.00  0.00    -0.545 OA
ENDBRANCH   1   7
BRANCH   2  10
ATOM     10  C   UNL     1      -5.842  27.585  19.039  1.00  0.00     0.072 C 
ATOM     11  O   UNL     1      -5.683  26.403  19.445  1.00  0.00    -0.545 OA
ATOM     12  O   UNL     1      -4.764  28.461  19.075  1.00  0.00    -0.545 OA
ENDBRANCH   2  10
TORSDOF 2
ENDMDL
MODEL 7
REMARK VINA RESULT:    -5.287      2.804      3.694
REMARK INTER + INTRA:          -6.120
REMARK INTER:                  -6.437
REMARK INTRA:                   0.318
REMARK UNBOUND:                -0.214
REMARK SMILES O=C([O-])c1ccccc1C(=O)[O-]
REMARK SMILES IDX 4 1 9 2 5 3 8 4 6 5 7 6 2 7 1 8 3 9 10 10 11 11 12 12
REMARK H PARENT
REMARK Flexibility Score: inf
ROOT
ATOM      1  C   UNL     1      -8.197  28.460  19.234  1.00  0.00     0.006 A 
ATOM      2  C   UNL     1      -9.269  28.932  18.427  1.00  0.00     0.006 A 
ATOM      3  C   UNL     1      -7.030  27.980  18.610  1.00  0.00     0.010 A 
ATOM      4  C   UNL     1      -9.109  28.966  17.029  1.00  0.00     0.010 A 
ATOM      5  C   UNL     1      -6.901  28.003  17.221  1.00  0.00     0.001 A 
ATOM      6  C   UNL     1      -7.933  28.507  16.433  1.00  0.00     0.001 A 
ENDROOT
BRANCH   1   7
ATOM      7  C   UNL     1      -8.227  28.520  20.713  1.00  0.00     0.072 C 
ATOM      8  O   UNL     1      -9.303  28.310  21.335  1.00  0.00    -0.545 OA
ATOM      9  O   UNL     1      -7.062  28.742  21.437  1.00  0.00    -0.545 OA
ENDBRANCH   1   7
BRANCH   2  10
ATOM     10  C   UNL     1     -10.581  29.323  18.990  1.00  0.00     0.072 C 
ATOM     11  O   UNL     1     -10.764  30.492  19.422  1.00  0.00    -0.545 OA
ATOM     12  O   UNL     1     -11.646  28.430  18.991  1.00  0.00    -0.545 OA
ENDBRANCH   2  10
TORSDOF 2
ENDMDL
MODEL 8
REMARK VINA RESULT:    -5.279      1.775      3.103
REMARK INTER + INTRA:          -6.110
REMARK INTER:                  -6.424
REMARK INTRA:                   0.314
REMARK UNBOUND:                -0.214
REMARK SMILES O=C([O-])c1ccccc1C(=O)[O-]
REMARK SMILES IDX 4 1 9 2 5 3 8 4 6 5 7 6 2 7 1 8 3 9 10 10 11 11 12 12
REMARK H PARENT
REMARK Flexibility Score: inf
ROOT
ATOM      1  C   UNL     1      -7.100  28.041  18.460  1.00  0.00     0.006 A 
ATOM      2  C   UNL     1      -8.166  28.535  19.260  1.00  0.00     0.006 A 
ATOM      3  C   UNL     1      -7.259  27.988  17.063  1.00  0.00     0.010 A 
ATOM      4  C   UNL     1      -9.328  29.018  18.629  1.00  0.00     0.010 A 
ATOM      5  C   UNL     1      -8.428  28.453  16.459  1.00  0.00     0.001 A 
ATOM      6  C   UNL     1      -9.455  28.978  17.240  1.00  0.00     0.001 A 
ENDROOT
BRANCH   1   7
ATOM      7  C   UNL     1      -5.792  27.645  19.031  1.00  0.00     0.072 C 
ATOM      8  O   UNL     1      -5.614  26.470  19.452  1.00  0.00    -0.545 OA
ATOM      9  O   UNL     1      -4.727  28.537  19.051  1.00  0.00    -0.545 OA
ENDBRANCH   1   7
BRANCH   2  10
ATOM     10  C   UNL     1      -8.140  28.496  20.740  1.00  0.00     0.072 C 
ATOM     11  O   UNL     1      -9.189  28.235  21.387  1.00  0.00    -0.545 OA
ATOM     12  O   UNL     1      -6.949  28.681  21.432  1.00  0.00    -0.545 OA
ENDBRANCH   2  10
TORSDOF 2
ENDMDL
MODEL 9
REMARK VINA RESULT:    -4.740      5.076      6.415
REMARK INTER + INTRA:          -5.509
REMARK INTER:                  -5.370
REMARK INTRA:                  -0.138
REMARK UNBOUND:                -0.214
REMARK SMILES O=C([O-])c1ccccc1C(=O)[O-]
REMARK SMILES IDX 4 1 9 2 5 3 8 4 6 5 7 6 2 7 1 8 3 9 10 10 11 11 12 12
REMARK H PARENT
REMARK Flexibility Score: inf
ROOT
ATOM      1  C   UNL     1     -11.025  27.694  14.337  1.00  0.00     0.006 A 
ATOM      2  C   UNL     1     -10.013  28.477  13.716  1.00  0.00     0.006 A 
ATOM      3  C   UNL     1     -10.902  27.376  15.702  1.00  0.00     0.010 A 
ATOM      4  C   UNL     1      -8.949  28.965  14.497  1.00  0.00     0.010 A 
ATOM      5  C   UNL     1      -9.827  27.852  16.454  1.00  0.00     0.001 A 
ATOM      6  C   UNL     1      -8.860  28.655  15.855  1.00  0.00     0.001 A 
ENDROOT
BRANCH   1   7
ATOM      7  C   UNL     1     -12.248  27.260  13.624  1.00  0.00     0.072 C 
ATOM      8  O   UNL     1     -13.360  27.791  13.889  1.00  0.00    -0.545 OA
ATOM      9  O   UNL     1     -12.178  26.312  12.610  1.00  0.00    -0.545 OA
ENDBRANCH   1   7
BRANCH   2  10
ATOM     10  C   UNL     1      -9.990  28.742  12.259  1.00  0.00     0.072 C 
ATOM     11  O   UNL     1      -9.411  27.940  11.478  1.00  0.00    -0.545 OA
ATOM     12  O   UNL     1     -10.658  29.838  11.727  1.00  0.00    -0.545 OA
ENDBRANCH   2  10
TORSDOF 2
ENDMDL
