MODEL 1
REMARK VINA RESULT:    -3.376      0.000      0.000
REMARK INTER + INTRA:          -5.431
REMARK INTER:                  -4.956
REMARK INTRA:                  -0.476
REMARK UNBOUND:                -0.476
REMARK SMILES O=C([O-])CCCCCCCC(=O)[O-]
REMARK SMILES IDX 7 1 6 2 5 3 4 4 2 5 1 6 3 7 8 8 9 9 10 10 11 11 12 12 13 13
REMARK H PARENT
REMARK Flexibility Score: inf
ROOT
ATOM      1  C   UNL     1     -13.833  13.545   7.914  1.00  0.00     0.000 C 
ENDROOT
BRANCH   1   2
ATOM      2  C   UNL     1     -14.319  13.368   9.362  1.00  0.00     0.000 C 
BRANCH   2   3
ATOM      3  C   UNL     1     -13.768  14.446  10.308  1.00  0.00     0.006 C 
BRANCH   3   4
ATOM      4  C   UNL     1     -14.451  14.375  11.676  1.00  0.00     0.053 C 
BRANCH   4   5
ATOM      5  C   UNL     1     -13.745  13.399  12.564  1.00  0.00     0.041 C 
ATOM      6  O   UNL     1     -12.573  13.636  12.961  1.00  0.00    -0.550 OA
ATOM      7  O   UNL     1     -14.398  12.252  12.995  1.00  0.00    -0.550 OA
ENDBRANCH   4   5
ENDBRANCH   3   4
ENDBRANCH   2   3
ENDBRANCH   1   2
BRANCH   1   8
ATOM      8  C   UNL     1     -14.735  12.834   6.895  1.00  0.00     0.000 C 
BRANCH   8   9
ATOM      9  C   UNL     1     -16.156  12.665   7.444  1.00  0.00     0.006 C 
BRANCH   9  10
ATOM     10  C   UNL     1     -16.638  11.220   7.285  1.00  0.00     0.053 C 
BRANCH  10  11
ATOM     11  C   UNL     1     -16.024  10.345   8.332  1.00  0.00     0.041 C 
ATOM     12  O   UNL     1     -15.204   9.448   8.006  1.00  0.00    -0.550 OA
ATOM     13  O   UNL     1     -16.394  10.489   9.664  1.00  0.00    -0.550 OA
ENDBRANCH  10  11
ENDBRANCH   9  10
ENDBRANCH   8   9
ENDBRANCH   1   8
TORSDOF 8
ENDMDL
MODEL 2
REMARK VINA RESULT:    -3.357      0.690      4.877
REMARK INTER + INTRA:          -5.403
REMARK INTER:                  -4.854
REMARK INTRA:                  -0.549
REMARK UNBOUND:                -0.476
REMARK SMILES O=C([O-])CCCCCCCC(=O)[O-]
REMARK SMILES IDX 7 1 6 2 5 3 4 4 2 5 1 6 3 7 8 8 9 9 10 10 11 11 12 12 13 13
REMARK H PARENT
REMARK Flexibility Score: inf
ROOT
ATOM      1  C   UNL     1     -14.613  12.894   6.939  1.00  0.00     0.000 C 
ENDROOT
BRANCH   1   2
ATOM      2  C   UNL     1     -16.130  12.920   7.184  1.00  0.00     0.000 C 
BRANCH   2   3
ATOM      3  C   UNL     1     -16.760  11.520   7.146  1.00  0.00     0.006 C 
BRANCH   3   4
ATOM      4  C   UNL     1     -15.704  10.437   7.387  1.00  0.00     0.053 C 
BRANCH   4   5
ATOM      5  C   UNL     1     -16.019   9.666   8.630  1.00  0.00     0.041 C 
ATOM      6  O   UNL     1     -16.112   8.410   8.590  1.00  0.00    -0.550 OA
ATOM      7  O   UNL     1     -16.162  10.327   9.843  1.00  0.00    -0.550 OA
ENDBRANCH   4   5
ENDBRANCH   3   4
ENDBRANCH   2   3
ENDBRANCH   1   2
BRANCH   1   8
ATOM      8  C   UNL     1     -13.822  13.624   8.034  1.00  0.00     0.000 C 
BRANCH   8   9
ATOM      9  C   UNL     1     -14.401  13.324   9.422  1.00  0.00     0.006 C 
BRANCH   9  10
ATOM     10  C   UNL     1     -13.853  14.297  10.470  1.00  0.00     0.053 C 
BRANCH  10  11
ATOM     11  C   UNL     1     -13.720  13.619  11.796  1.00  0.00     0.041 C 
ATOM     12  O   UNL     1     -12.702  13.819  12.510  1.00  0.00    -0.550 OA
ATOM     13  O   UNL     1     -14.695  12.727  12.223  1.00  0.00    -0.550 OA
ENDBRANCH  10  11
ENDBRANCH   9  10
ENDBRANCH   8   9
ENDBRANCH   1   8
TORSDOF 8
ENDMDL
MODEL 3
REMARK VINA RESULT:    -3.070      3.838      5.638
REMARK INTER + INTRA:          -4.982
REMARK INTER:                  -4.755
REMARK INTRA:                  -0.227
REMARK UNBOUND:                -0.476
REMARK SMILES O=C([O-])CCCCCCCC(=O)[O-]
REMARK SMILES IDX 7 1 6 2 5 3 4 4 2 5 1 6 3 7 8 8 9 9 10 10 11 11 12 12 13 13
REMARK H PARENT
REMARK Flexibility Score: inf
ROOT
ATOM      1  C   UNL     1     -15.348   8.963   8.616  1.00  0.00     0.000 C 
ENDROOT
BRANCH   1   2
ATOM      2  C   UNL     1     -16.016   7.767   9.311  1.00  0.00     0.000 C 
BRANCH   2   3
ATOM      3  C   UNL     1     -15.564   7.601  10.770  1.00  0.00     0.006 C 
BRANCH   3   4
ATOM      4  C   UNL     1     -15.392   6.121  11.124  1.00  0.00     0.053 C 
BRANCH   4   5
ATOM      5  C   UNL     1     -13.997   5.853  11.593  1.00  0.00     0.041 C 
ATOM      6  O   UNL     1     -13.285   6.793  12.036  1.00  0.00    -0.550 OA
ATOM      7  O   UNL     1     -13.497   4.557  11.586  1.00  0.00    -0.550 OA
ENDBRANCH   4   5
ENDBRANCH   3   4
ENDBRANCH   2   3
ENDBRANCH   1   2
BRANCH   1   8
ATOM      8  C   UNL     1     -16.332  10.105   8.324  1.00  0.00     0.000 C 
BRANCH   8   9
ATOM      9  C   UNL     1     -15.744  11.458   8.742  1.00  0.00     0.006 C 
BRANCH   9  10
ATOM     10  C   UNL     1     -15.259  12.248   7.523  1.00  0.00     0.053 C 
BRANCH  10  11
ATOM     11  C   UNL     1     -14.189  13.216   7.918  1.00  0.00     0.041 C 
ATOM     12  O   UNL     1     -13.390  13.664   7.053  1.00  0.00    -0.550 OA
ATOM     13  O   UNL     1     -14.042  13.587   9.249  1.00  0.00    -0.550 OA
ENDBRANCH  10  11
ENDBRANCH   9  10
ENDBRANCH   8   9
ENDBRANCH   1   8
TORSDOF 8
ENDMDL
MODEL 4
REMARK VINA RESULT:    -3.031      3.354      4.942
REMARK INTER + INTRA:          -4.925
REMARK INTER:                  -4.588
REMARK INTRA:                  -0.337
REMARK UNBOUND:                -0.476
REMARK SMILES O=C([O-])CCCCCCCC(=O)[O-]
REMARK SMILES IDX 7 1 6 2 5 3 4 4 2 5 1 6 3 7 8 8 9 9 10 10 11 11 12 12 13 13
REMARK H PARENT
REMARK Flexibility Score: inf
ROOT
ATOM      1  C   UNL     1     -15.411   9.251   8.306  1.00  0.00     0.000 C 
ENDROOT
BRANCH   1   2
ATOM      2  C   UNL     1     -15.558  10.337   7.228  1.00  0.00     0.000 C 
BRANCH   2   3
ATOM      3  C   UNL     1     -16.193  11.626   7.769  1.00  0.00     0.006 C 
BRANCH   3   4
ATOM      4  C   UNL     1     -15.538  12.863   7.147  1.00  0.00     0.053 C 
BRANCH   4   5
ATOM      5  C   UNL     1     -14.266  13.197   7.860  1.00  0.00     0.041 C 
ATOM      6  O   UNL     1     -13.262  13.597   7.213  1.00  0.00    -0.550 OA
ATOM      7  O   UNL     1     -14.203  13.113   9.245  1.00  0.00    -0.550 OA
ENDBRANCH   4   5
ENDBRANCH   3   4
ENDBRANCH   2   3
ENDBRANCH   1   2
BRANCH   1   8
ATOM      8  C   UNL     1     -16.706   8.456   8.526  1.00  0.00     0.000 C 
BRANCH   8   9
ATOM      9  C   UNL     1     -16.457   7.239   9.425  1.00  0.00     0.006 C 
BRANCH   9  10
ATOM     10  C   UNL     1     -15.379   7.539  10.471  1.00  0.00     0.053 C 
BRANCH  10  11
ATOM     11  C   UNL     1     -14.952   6.280  11.158  1.00  0.00     0.041 C 
ATOM     12  O   UNL     1     -13.750   6.123  11.500  1.00  0.00    -0.550 OA
ATOM     13  O   UNL     1     -15.869   5.260  11.376  1.00  0.00    -0.550 OA
ENDBRANCH  10  11
ENDBRANCH   9  10
ENDBRANCH   8   9
ENDBRANCH   1   8
TORSDOF 8
ENDMDL
MODEL 5
REMARK VINA RESULT:    -3.010      1.997      3.017
REMARK INTER + INTRA:          -4.894
REMARK INTER:                  -4.393
REMARK INTRA:                  -0.501
REMARK UNBOUND:                -0.476
REMARK SMILES O=C([O-])CCCCCCCC(=O)[O-]
REMARK SMILES IDX 7 1 6 2 5 3 4 4 2 5 1 6 3 7 8 8 9 9 10 10 11 11 12 12 13 13
REMARK H PARENT
REMARK Flexibility Score: inf
ROOT
ATOM      1  C   UNL     1     -15.584  11.315   7.077  1.00  0.00     0.000 C 
ENDROOT
BRANCH   1   2
ATOM      2  C   UNL     1     -15.297  12.824   7.034  1.00  0.00     0.000 C 
BRANCH   2   3
ATOM      3  C   UNL     1     -14.175  13.241   7.997  1.00  0.00     0.006 C 
BRANCH   3   4
ATOM      4  C   UNL     1     -14.502  12.821   9.433  1.00  0.00     0.053 C 
BRANCH   4   5
ATOM      5  C   UNL     1     -14.629  14.023  10.315  1.00  0.00     0.041 C 
ATOM      6  O   UNL     1     -15.676  14.205  10.990  1.00  0.00    -0.550 OA
ATOM      7  O   UNL     1     -13.572  14.916  10.430  1.00  0.00    -0.550 OA
ENDBRANCH   4   5
ENDBRANCH   3   4
ENDBRANCH   2   3
ENDBRANCH   1   2
BRANCH   1   8
ATOM      8  C   UNL     1     -17.016  10.997   7.533  1.00  0.00     0.000 C 
BRANCH   8   9
ATOM      9  C   UNL     1     -17.020   9.902   8.606  1.00  0.00     0.006 C 
BRANCH   9  10
ATOM     10  C   UNL     1     -15.718   9.096   8.576  1.00  0.00     0.053 C 
BRANCH  10  11
ATOM     11  C   UNL     1     -15.927   7.741   9.174  1.00  0.00     0.041 C 
ATOM     12  O   UNL     1     -16.795   6.965   8.695  1.00  0.00    -0.550 OA
ATOM     13  O   UNL     1     -15.198   7.353  10.291  1.00  0.00    -0.550 OA
ENDBRANCH  10  11
ENDBRANCH   9  10
ENDBRANCH   8   9
ENDBRANCH   1   8
TORSDOF 8
ENDMDL
MODEL 6
REMARK VINA RESULT:    -2.976      1.651      5.213
REMARK INTER + INTRA:          -4.843
REMARK INTER:                  -4.503
REMARK INTRA:                  -0.341
REMARK UNBOUND:                -0.476
REMARK SMILES O=C([O-])CCCCCCCC(=O)[O-]
REMARK SMILES IDX 7 1 6 2 5 3 4 4 2 5 1 6 3 7 8 8 9 9 10 10 11 11 12 12 13 13
REMARK H PARENT
REMARK Flexibility Score: inf
ROOT
ATOM      1  C   UNL     1     -15.259  12.187   7.621  1.00  0.00     0.000 C 
ENDROOT
BRANCH   1   2
ATOM      2  C   UNL     1     -15.797  11.112   8.580  1.00  0.00     0.000 C 
BRANCH   2   3
ATOM      3  C   UNL     1     -15.319   9.699   8.213  1.00  0.00     0.006 C 
BRANCH   3   4
ATOM      4  C   UNL     1     -16.317   8.642   8.694  1.00  0.00     0.053 C 
BRANCH   4   5
ATOM      5  C   UNL     1     -15.931   8.136  10.049  1.00  0.00     0.041 C 
ATOM      6  O   UNL     1     -15.154   7.151  10.160  1.00  0.00    -0.550 OA
ATOM      7  O   UNL     1     -16.390   8.782  11.189  1.00  0.00    -0.550 OA
ENDBRANCH   4   5
ENDBRANCH   3   4
ENDBRANCH   2   3
ENDBRANCH   1   2
BRANCH   1   8
ATOM      8  C   UNL     1     -14.311  13.177   8.313  1.00  0.00     0.000 C 
BRANCH   8   9
ATOM      9  C   UNL     1     -14.497  13.145   9.835  1.00  0.00     0.006 C 
BRANCH   9  10
ATOM     10  C   UNL     1     -13.744  14.297  10.506  1.00  0.00     0.053 C 
BRANCH  10  11
ATOM     11  C   UNL     1     -13.718  14.111  11.991  1.00  0.00     0.041 C 
ATOM     12  O   UNL     1     -14.723  14.418  12.685  1.00  0.00    -0.550 OA
ATOM     13  O   UNL     1     -12.568  13.643  12.614  1.00  0.00    -0.550 OA
ENDBRANCH  10  11
ENDBRANCH   9  10
ENDBRANCH   8   9
ENDBRANCH   1   8
TORSDOF 8
ENDMDL
MODEL 7
REMARK VINA RESULT:    -2.719      3.264      4.427
REMARK INTER + INTRA:          -4.467
REMARK INTER:                  -4.017
REMARK INTRA:                  -0.449
REMARK UNBOUND:                -0.476
REMARK SMILES O=C([O-])CCCCCCCC(=O)[O-]
REMARK SMILES IDX 7 1 6 2 5 3 4 4 2 5 1 6 3 7 8 8 9 9 10 10 11 11 12 12 13 13
REMARK H PARENT
REMARK Flexibility Score: inf
ROOT
ATOM      1  C   UNL     1     -16.446  10.996  10.813  1.00  0.00     0.000 C 
ENDROOT
BRANCH   1   2
ATOM      2  C   UNL     1     -16.694  12.344  10.119  1.00  0.00     0.000 C 
BRANCH   2   3
ATOM      3  C   UNL     1     -15.398  13.128   9.867  1.00  0.00     0.006 C 
BRANCH   3   4
ATOM      4  C   UNL     1     -14.504  12.398   8.860  1.00  0.00     0.053 C 
BRANCH   4   5
ATOM      5  C   UNL     1     -14.400  13.179   7.588  1.00  0.00     0.041 C 
ATOM      6  O   UNL     1     -13.324  13.760   7.287  1.00  0.00    -0.550 OA
ATOM      7  O   UNL     1     -15.476  13.224   6.710  1.00  0.00    -0.550 OA
ENDBRANCH   4   5
ENDBRANCH   3   4
ENDBRANCH   2   3
ENDBRANCH   1   2
BRANCH   1   8
ATOM      8  C   UNL     1     -17.080   9.816  10.060  1.00  0.00     0.000 C 
BRANCH   8   9
ATOM      9  C   UNL     1     -16.025   9.045   9.258  1.00  0.00     0.006 C 
BRANCH   9  10
ATOM     10  C   UNL     1     -16.325   7.544   9.255  1.00  0.00     0.053 C 
BRANCH  10  11
ATOM     11  C   UNL     1     -15.905   6.923  10.550  1.00  0.00     0.041 C 
ATOM     12  O   UNL     1     -14.687   6.695  10.777  1.00  0.00    -0.550 OA
ATOM     13  O   UNL     1     -16.861   6.553  11.488  1.00  0.00    -0.550 OA
ENDBRANCH  10  11
ENDBRANCH   9  10
ENDBRANCH   8   9
ENDBRANCH   1   8
TORSDOF 8
ENDMDL
MODEL 8
REMARK VINA RESULT:    -2.699      2.558      5.354
REMARK INTER + INTRA:          -4.437
REMARK INTER:                  -4.039
REMARK INTRA:                  -0.398
REMARK UNBOUND:                -0.476
REMARK SMILES O=C([O-])CCCCCCCC(=O)[O-]
REMARK SMILES IDX 7 1 6 2 5 3 4 4 2 5 1 6 3 7 8 8 9 9 10 10 11 11 12 12 13 13
REMARK H PARENT
REMARK Flexibility Score: inf
ROOT
ATOM      1  C   UNL     1     -15.669  10.390   7.996  1.00  0.00     0.000 C 
ENDROOT
BRANCH   1   2
ATOM      2  C   UNL     1     -17.018   9.661   8.093  1.00  0.00     0.000 C 
BRANCH   2   3
ATOM      3  C   UNL     1     -16.887   8.248   8.681  1.00  0.00     0.006 C 
BRANCH   3   4
ATOM      4  C   UNL     1     -15.538   8.069   9.382  1.00  0.00     0.053 C 
BRANCH   4   5
ATOM      5  C   UNL     1     -15.614   6.971  10.395  1.00  0.00     0.041 C 
ATOM      6  O   UNL     1     -16.699   6.358  10.584  1.00  0.00    -0.550 OA
ATOM      7  O   UNL     1     -14.477   6.589  11.095  1.00  0.00    -0.550 OA
ENDBRANCH   4   5
ENDBRANCH   3   4
ENDBRANCH   2   3
ENDBRANCH   1   2
BRANCH   1   8
ATOM      8  C   UNL     1     -15.784  11.763   7.319  1.00  0.00     0.000 C 
BRANCH   8   9
ATOM      9  C   UNL     1     -15.055  12.840   8.131  1.00  0.00     0.006 C 
BRANCH   9  10
ATOM     10  C   UNL     1     -15.237  12.613   9.634  1.00  0.00     0.053 C 
BRANCH  10  11
ATOM     11  C   UNL     1     -14.285  13.465  10.412  1.00  0.00     0.041 C 
ATOM     12  O   UNL     1     -13.789  14.498   9.891  1.00  0.00    -0.550 OA
ATOM     13  O   UNL     1     -13.905  13.092  11.695  1.00  0.00    -0.550 OA
ENDBRANCH  10  11
ENDBRANCH   9  10
ENDBRANCH   8   9
ENDBRANCH   1   8
TORSDOF 8
ENDMDL
MODEL 9
REMARK VINA RESULT:    -1.547      1.453      2.284
REMARK INTER + INTRA:          -2.747
REMARK INTER:                  -2.335
REMARK INTRA:                  -0.412
REMARK UNBOUND:                -0.476
REMARK SMILES O=C([O-])CCCCCCCC(=O)[O-]
REMARK SMILES IDX 7 1 6 2 5 3 4 4 2 5 1 6 3 7 8 8 9 9 10 10 11 11 12 12 13 13
REMARK H PARENT
REMARK Flexibility Score: inf
ROOT
ATOM      1  C   UNL     1     -16.558  12.961  10.111  1.00  0.00     0.000 C 
ENDROOT
BRANCH   1   2
ATOM      2  C   UNL     1     -17.019  14.078  11.061  1.00  0.00     0.000 C 
BRANCH   2   3
ATOM      3  C   UNL     1     -16.373  13.978  12.451  1.00  0.00     0.006 C 
BRANCH   3   4
ATOM      4  C   UNL     1     -14.918  14.455  12.415  1.00  0.00     0.053 C 
BRANCH   4   5
ATOM      5  C   UNL     1     -13.995  13.355  12.832  1.00  0.00     0.041 C 
ATOM      6  O   UNL     1     -14.446  12.201  13.058  1.00  0.00    -0.550 OA
ATOM      7  O   UNL     1     -12.629  13.589  12.923  1.00  0.00    -0.550 OA
ENDBRANCH   4   5
ENDBRANCH   3   4
ENDBRANCH   2   3
ENDBRANCH   1   2
BRANCH   1   8
ATOM      8  C   UNL     1     -17.125  13.117   8.692  1.00  0.00     0.000 C 
BRANCH   8   9
ATOM      9  C   UNL     1     -16.103  12.672   7.640  1.00  0.00     0.006 C 
BRANCH   9  10
ATOM     10  C   UNL     1     -15.146  11.622   8.211  1.00  0.00     0.053 C 
BRANCH  10  11
ATOM     11  C   UNL     1     -15.622  10.243   7.877  1.00  0.00     0.041 C 
ATOM     12  O   UNL     1     -15.234   9.257   8.557  1.00  0.00    -0.550 OA
ATOM     13  O   UNL     1     -16.456  10.041   6.784  1.00  0.00    -0.550 OA
ENDBRANCH  10  11
ENDBRANCH   9  10
ENDBRANCH   8   9
ENDBRANCH   1   8
TORSDOF 8
ENDMDL
