MODEL 1
REMARK VINA RESULT:    -5.126      0.000      0.000
REMARK INTER + INTRA:          -7.871
REMARK INTER:                  -6.925
REMARK INTRA:                  -0.946
REMARK UNBOUND:                -0.946
REMARK SMILES CC(=O)CCC=C(C)CCC=C(C)C
REMARK SMILES IDX 7 1 6 2 8 3 9 4 10 5 11 6 13 7 12 8 14 9 5 10 4 11 2 12 3 13
REMARK SMILES IDX 1 14
REMARK H PARENT
REMARK Flexibility Score: inf
ROOT
ATOM      1  C   UNL     1      -2.514 -13.719  -8.435  1.00  0.00    -0.077 C 
ATOM      2  C   UNL     1      -1.947 -13.884  -7.220  1.00  0.00    -0.028 C 
ATOM      3  C   UNL     1      -3.249 -14.847  -9.121  1.00  0.00     0.039 C 
ENDROOT
BRANCH   1   4
ATOM      4  C   UNL     1      -2.411 -12.374  -9.125  1.00  0.00     0.034 C 
BRANCH   4   5
ATOM      5  C   UNL     1      -3.747 -11.616  -9.107  1.00  0.00     0.032 C 
BRANCH   5   6
ATOM      6  C   UNL     1      -4.444 -11.737  -7.771  1.00  0.00    -0.028 C 
ATOM      7  C   UNL     1      -6.402 -12.984  -8.712  1.00  0.00     0.039 C 
ATOM      8  C   UNL     1      -5.620 -12.372  -7.574  1.00  0.00    -0.080 C 
ATOM      9  C   UNL     1      -6.167 -12.447  -6.172  1.00  0.00     0.039 C 
ENDBRANCH   5   6
ENDBRANCH   4   5
ENDBRANCH   1   4
BRANCH   2  10
ATOM     10  C   UNL     1      -2.011 -15.183  -6.449  1.00  0.00     0.035 C 
BRANCH  10  11
ATOM     11  C   UNL     1      -3.104 -15.163  -5.374  1.00  0.00     0.079 C 
BRANCH  11  12
ATOM     12  C   UNL     1      -3.825 -16.483  -5.288  1.00  0.00     0.130 C 
ATOM     13  O   UNL     1      -4.737 -16.623  -4.487  1.00  0.00    -0.300 OA
ATOM     14  C   UNL     1      -3.468 -17.620  -6.197  1.00  0.00     0.087 C 
ENDBRANCH  11  12
ENDBRANCH  10  11
ENDBRANCH   2  10
TORSDOF 6
ENDMDL
MODEL 2
REMARK VINA RESULT:    -4.982      1.006      1.495
REMARK INTER + INTRA:          -7.676
REMARK INTER:                  -7.411
REMARK INTRA:                  -0.265
REMARK UNBOUND:                -0.946
REMARK SMILES CC(=O)CCC=C(C)CCC=C(C)C
REMARK SMILES IDX 7 1 6 2 8 3 9 4 10 5 11 6 13 7 12 8 14 9 5 10 4 11 2 12 3 13
REMARK SMILES IDX 1 14
REMARK H PARENT
REMARK Flexibility Score: inf
ROOT
ATOM      1  C   UNL     1      -2.358 -13.134  -7.554  1.00  0.00    -0.077 C 
ATOM      2  C   UNL     1      -2.627 -13.668  -6.342  1.00  0.00    -0.028 C 
ATOM      3  C   UNL     1      -1.858 -13.987  -8.696  1.00  0.00     0.039 C 
ENDROOT
BRANCH   1   4
ATOM      4  C   UNL     1      -2.561 -11.649  -7.771  1.00  0.00     0.034 C 
BRANCH   4   5
ATOM      5  C   UNL     1      -3.776 -11.362  -8.667  1.00  0.00     0.032 C 
BRANCH   5   6
ATOM      6  C   UNL     1      -4.450 -12.634  -9.125  1.00  0.00    -0.028 C 
ATOM      7  C   UNL     1      -6.072 -12.664  -7.216  1.00  0.00     0.039 C 
ATOM      8  C   UNL     1      -5.499 -13.214  -8.501  1.00  0.00    -0.080 C 
ATOM      9  C   UNL     1      -6.092 -14.459  -9.105  1.00  0.00     0.039 C 
ENDBRANCH   5   6
ENDBRANCH   4   5
ENDBRANCH   1   4
BRANCH   2  10
ATOM     10  C   UNL     1      -2.470 -15.140  -6.035  1.00  0.00     0.035 C 
BRANCH  10  11
ATOM     11  C   UNL     1      -3.697 -15.954  -6.462  1.00  0.00     0.079 C 
BRANCH  11  12
ATOM     12  C   UNL     1      -4.039 -17.019  -5.454  1.00  0.00     0.130 C 
ATOM     13  O   UNL     1      -4.501 -16.700  -4.370  1.00  0.00    -0.300 OA
ATOM     14  C   UNL     1      -3.856 -18.473  -5.773  1.00  0.00     0.087 C 
ENDBRANCH  11  12
ENDBRANCH  10  11
ENDBRANCH   2  10
TORSDOF 6
ENDMDL
MODEL 3
REMARK VINA RESULT:    -4.486      1.801      4.493
REMARK INTER + INTRA:          -7.005
REMARK INTER:                  -6.193
REMARK INTRA:                  -0.813
REMARK UNBOUND:                -0.946
REMARK SMILES CC(=O)CCC=C(C)CCC=C(C)C
REMARK SMILES IDX 7 1 6 2 8 3 9 4 10 5 11 6 13 7 12 8 14 9 5 10 4 11 2 12 3 13
REMARK SMILES IDX 1 14
REMARK H PARENT
REMARK Flexibility Score: inf
ROOT
ATOM      1  C   UNL     1      -2.231 -13.360  -7.782  1.00  0.00    -0.077 C 
ATOM      2  C   UNL     1      -2.960 -12.227  -7.671  1.00  0.00    -0.028 C 
ATOM      3  C   UNL     1      -1.976 -14.004  -9.124  1.00  0.00     0.039 C 
ENDROOT
BRANCH   1   4
ATOM      4  C   UNL     1      -1.657 -13.997  -6.533  1.00  0.00     0.034 C 
BRANCH   4   5
ATOM      5  C   UNL     1      -2.746 -14.309  -5.496  1.00  0.00     0.032 C 
BRANCH   5   6
ATOM      6  C   UNL     1      -2.894 -15.795  -5.266  1.00  0.00    -0.028 C 
ATOM      7  C   UNL     1      -4.272 -16.151  -7.328  1.00  0.00     0.039 C 
ATOM      8  C   UNL     1      -3.550 -16.639  -6.093  1.00  0.00    -0.080 C 
ATOM      9  C   UNL     1      -3.572 -18.105  -5.751  1.00  0.00     0.039 C 
ENDBRANCH   5   6
ENDBRANCH   4   5
ENDBRANCH   1   4
BRANCH   2  10
ATOM     10  C   UNL     1      -3.559 -11.512  -8.861  1.00  0.00     0.035 C 
BRANCH  10  11
ATOM     11  C   UNL     1      -5.084 -11.389  -8.753  1.00  0.00     0.079 C 
BRANCH  11  12
ATOM     12  C   UNL     1      -5.713 -12.662  -8.252  1.00  0.00     0.130 C 
ATOM     13  O   UNL     1      -5.966 -13.561  -9.038  1.00  0.00    -0.300 OA
ATOM     14  C   UNL     1      -6.001 -12.860  -6.794  1.00  0.00     0.087 C 
ENDBRANCH  11  12
ENDBRANCH  10  11
ENDBRANCH   2  10
TORSDOF 6
ENDMDL
MODEL 4
REMARK VINA RESULT:    -4.149      1.131      3.000
REMARK INTER + INTRA:          -6.551
REMARK INTER:                  -6.237
REMARK INTRA:                  -0.315
REMARK UNBOUND:                -0.946
REMARK SMILES CC(=O)CCC=C(C)CCC=C(C)C
REMARK SMILES IDX 7 1 6 2 8 3 9 4 10 5 11 6 13 7 12 8 14 9 5 10 4 11 2 12 3 13
REMARK SMILES IDX 1 14
REMARK H PARENT
REMARK Flexibility Score: inf
ROOT
ATOM      1  C   UNL     1      -5.732 -13.022  -7.933  1.00  0.00    -0.077 C 
ATOM      2  C   UNL     1      -5.456 -13.371  -6.656  1.00  0.00    -0.028 C 
ATOM      3  C   UNL     1      -6.112 -14.057  -8.966  1.00  0.00     0.039 C 
ENDROOT
BRANCH   1   4
ATOM      4  C   UNL     1      -5.658 -11.564  -8.335  1.00  0.00     0.034 C 
BRANCH   4   5
ATOM      5  C   UNL     1      -4.209 -11.099  -8.546  1.00  0.00     0.032 C 
BRANCH   5   6
ATOM      6  C   UNL     1      -3.346 -12.196  -9.125  1.00  0.00    -0.028 C 
ATOM      7  C   UNL     1      -2.255 -12.730  -6.934  1.00  0.00     0.039 C 
ATOM      8  C   UNL     1      -2.486 -12.954  -8.410  1.00  0.00    -0.080 C 
ATOM      9  C   UNL     1      -1.727 -14.042  -9.123  1.00  0.00     0.039 C 
ENDBRANCH   5   6
ENDBRANCH   4   5
ENDBRANCH   1   4
BRANCH   2  10
ATOM     10  C   UNL     1      -5.518 -14.796  -6.158  1.00  0.00     0.035 C 
BRANCH  10  11
ATOM     11  C   UNL     1      -4.154 -15.494  -6.231  1.00  0.00     0.079 C 
BRANCH  11  12
ATOM     12  C   UNL     1      -4.120 -16.741  -5.388  1.00  0.00     0.130 C 
ATOM     13  O   UNL     1      -4.521 -16.703  -4.235  1.00  0.00    -0.300 OA
ATOM     14  C   UNL     1      -3.634 -18.043  -5.952  1.00  0.00     0.087 C 
ENDBRANCH  11  12
ENDBRANCH  10  11
ENDBRANCH   2  10
TORSDOF 6
ENDMDL
MODEL 5
REMARK VINA RESULT:    -3.854      1.463      4.185
REMARK INTER + INTRA:          -6.152
REMARK INTER:                  -5.502
REMARK INTRA:                  -0.651
REMARK UNBOUND:                -0.946
REMARK SMILES CC(=O)CCC=C(C)CCC=C(C)C
REMARK SMILES IDX 7 1 6 2 8 3 9 4 10 5 11 6 13 7 12 8 14 9 5 10 4 11 2 12 3 13
REMARK SMILES IDX 1 14
REMARK H PARENT
REMARK Flexibility Score: inf
ROOT
ATOM      1  C   UNL     1      -2.901 -12.483  -8.413  1.00  0.00    -0.077 C 
ATOM      2  C   UNL     1      -4.046 -12.393  -9.125  1.00  0.00    -0.028 C 
ATOM      3  C   UNL     1      -2.628 -11.567  -7.243  1.00  0.00     0.039 C 
ENDROOT
BRANCH   1   4
ATOM      4  C   UNL     1      -1.870 -13.525  -8.795  1.00  0.00     0.034 C 
BRANCH   4   5
ATOM      5  C   UNL     1      -1.413 -14.352  -7.583  1.00  0.00     0.032 C 
BRANCH   5   6
ATOM      6  C   UNL     1      -2.406 -15.438  -7.237  1.00  0.00    -0.028 C 
ATOM      7  C   UNL     1      -2.624 -14.716  -4.848  1.00  0.00     0.039 C 
ATOM      8  C   UNL     1      -2.978 -15.596  -6.024  1.00  0.00    -0.080 C 
ATOM      9  C   UNL     1      -3.986 -16.702  -5.846  1.00  0.00     0.039 C 
ENDBRANCH   5   6
ENDBRANCH   4   5
ENDBRANCH   1   4
BRANCH   2  10
ATOM     10  C   UNL     1      -5.138 -11.397  -8.810  1.00  0.00     0.035 C 
BRANCH  10  11
ATOM     11  C   UNL     1      -6.299 -12.038  -8.039  1.00  0.00     0.079 C 
BRANCH  11  12
ATOM     12  C   UNL     1      -5.903 -13.354  -7.424  1.00  0.00     0.130 C 
ATOM     13  O   UNL     1      -5.654 -13.413  -6.230  1.00  0.00    -0.300 OA
ATOM     14  C   UNL     1      -5.843 -14.606  -8.248  1.00  0.00     0.087 C 
ENDBRANCH  11  12
ENDBRANCH  10  11
ENDBRANCH   2  10
TORSDOF 6
ENDMDL
MODEL 6
REMARK VINA RESULT:    -3.600      2.070      4.957
REMARK INTER + INTRA:          -5.809
REMARK INTER:                  -5.294
REMARK INTRA:                  -0.514
REMARK UNBOUND:                -0.946
REMARK SMILES CC(=O)CCC=C(C)CCC=C(C)C
REMARK SMILES IDX 7 1 6 2 8 3 9 4 10 5 11 6 13 7 12 8 14 9 5 10 4 11 2 12 3 13
REMARK SMILES IDX 1 14
REMARK H PARENT
REMARK Flexibility Score: inf
ROOT
ATOM      1  C   UNL     1      -2.909 -14.236  -7.631  1.00  0.00    -0.077 C 
ATOM      2  C   UNL     1      -4.246 -14.128  -7.463  1.00  0.00    -0.028 C 
ATOM      3  C   UNL     1      -2.310 -14.576  -8.975  1.00  0.00     0.039 C 
ENDROOT
BRANCH   1   4
ATOM      4  C   UNL     1      -1.993 -14.011  -6.446  1.00  0.00     0.034 C 
BRANCH   4   5
ATOM      5  C   UNL     1      -2.271 -15.005  -5.308  1.00  0.00     0.032 C 
BRANCH   5   6
ATOM      6  C   UNL     1      -2.509 -16.403  -5.829  1.00  0.00    -0.028 C 
ATOM      7  C   UNL     1      -4.729 -16.634  -4.691  1.00  0.00     0.039 C 
ATOM      8  C   UNL     1      -3.618 -17.135  -5.585  1.00  0.00    -0.080 C 
ATOM      9  C   UNL     1      -3.729 -18.499  -6.213  1.00  0.00     0.039 C 
ENDBRANCH   5   6
ENDBRANCH   4   5
ENDBRANCH   1   4
BRANCH   2  10
ATOM     10  C   UNL     1      -5.237 -14.319  -8.587  1.00  0.00     0.035 C 
BRANCH  10  11
ATOM     11  C   UNL     1      -6.222 -13.148  -8.695  1.00  0.00     0.079 C 
BRANCH  11  12
ATOM     12  C   UNL     1      -5.561 -11.832  -8.379  1.00  0.00     0.130 C 
ATOM     13  O   UNL     1      -6.004 -11.133  -7.481  1.00  0.00    -0.300 OA
ATOM     14  C   UNL     1      -4.341 -11.380  -9.125  1.00  0.00     0.087 C 
ENDBRANCH  11  12
ENDBRANCH  10  11
ENDBRANCH   2  10
TORSDOF 6
ENDMDL
MODEL 7
REMARK VINA RESULT:    -3.576      1.536      2.834
REMARK INTER + INTRA:          -5.776
REMARK INTER:                  -5.612
REMARK INTRA:                  -0.164
REMARK UNBOUND:                -0.946
REMARK SMILES CC(=O)CCC=C(C)CCC=C(C)C
REMARK SMILES IDX 7 1 6 2 8 3 9 4 10 5 11 6 13 7 12 8 14 9 5 10 4 11 2 12 3 13
REMARK SMILES IDX 1 14
REMARK H PARENT
REMARK Flexibility Score: inf
ROOT
ATOM      1  C   UNL     1      -4.256 -15.468  -8.373  1.00  0.00    -0.077 C 
ATOM      2  C   UNL     1      -4.200 -16.070  -7.165  1.00  0.00    -0.028 C 
ATOM      3  C   UNL     1      -3.001 -15.050  -9.103  1.00  0.00     0.039 C 
ENDROOT
BRANCH   1   4
ATOM      4  C   UNL     1      -5.605 -15.208  -9.010  1.00  0.00     0.034 C 
BRANCH   4   5
ATOM      5  C   UNL     1      -5.988 -13.721  -8.957  1.00  0.00     0.032 C 
BRANCH   5   6
ATOM      6  C   UNL     1      -4.776 -12.825  -9.068  1.00  0.00    -0.028 C 
ATOM      7  C   UNL     1      -5.640 -11.162  -7.406  1.00  0.00     0.039 C 
ATOM      8  C   UNL     1      -4.593 -11.690  -8.359  1.00  0.00    -0.080 C 
ATOM      9  C   UNL     1      -3.309 -10.926  -8.547  1.00  0.00     0.039 C 
ENDBRANCH   5   6
ENDBRANCH   4   5
ENDBRANCH   1   4
BRANCH   2  10
ATOM     10  C   UNL     1      -2.901 -16.385  -6.458  1.00  0.00     0.035 C 
BRANCH  10  11
ATOM     11  C   UNL     1      -2.657 -15.461  -5.259  1.00  0.00     0.079 C 
BRANCH  11  12
ATOM     12  C   UNL     1      -2.993 -14.029  -5.581  1.00  0.00     0.130 C 
ATOM     13  O   UNL     1      -4.070 -13.567  -5.235  1.00  0.00    -0.300 OA
ATOM     14  C   UNL     1      -2.010 -13.144  -6.288  1.00  0.00     0.087 C 
ENDBRANCH  11  12
ENDBRANCH  10  11
ENDBRANCH   2  10
TORSDOF 6
ENDMDL
MODEL 8
REMARK VINA RESULT:    -3.461      2.241      4.980
REMARK INTER + INTRA:          -5.622
REMARK INTER:                  -4.799
REMARK INTRA:                  -0.822
REMARK UNBOUND:                -0.946
REMARK SMILES CC(=O)CCC=C(C)CCC=C(C)C
REMARK SMILES IDX 7 1 6 2 8 3 9 4 10 5 11 6 13 7 12 8 14 9 5 10 4 11 2 12 3 13
REMARK SMILES IDX 1 14
REMARK H PARENT
REMARK Flexibility Score: inf
ROOT
ATOM      1  C   UNL     1      -5.575 -13.786  -8.146  1.00  0.00    -0.077 C 
ATOM      2  C   UNL     1      -5.187 -12.933  -9.119  1.00  0.00    -0.028 C 
ATOM      3  C   UNL     1      -5.867 -13.302  -6.745  1.00  0.00     0.039 C 
ENDROOT
BRANCH   1   4
ATOM      4  C   UNL     1      -5.721 -15.260  -8.467  1.00  0.00     0.034 C 
BRANCH   4   5
ATOM      5  C   UNL     1      -4.365 -15.982  -8.477  1.00  0.00     0.032 C 
BRANCH   5   6
ATOM      6  C   UNL     1      -3.445 -15.464  -7.396  1.00  0.00    -0.028 C 
ATOM      7  C   UNL     1      -3.703 -17.499  -5.960  1.00  0.00     0.039 C 
ATOM      8  C   UNL     1      -3.116 -16.144  -6.276  1.00  0.00    -0.080 C 
ATOM      9  C   UNL     1      -2.147 -15.511  -5.312  1.00  0.00     0.039 C 
ENDBRANCH   5   6
ENDBRANCH   4   5
ENDBRANCH   1   4
BRANCH   2  10
ATOM     10  C   UNL     1      -5.029 -11.446  -8.899  1.00  0.00     0.035 C 
BRANCH  10  11
ATOM     11  C   UNL     1      -3.572 -10.991  -9.051  1.00  0.00     0.079 C 
BRANCH  11  12
ATOM     12  C   UNL     1      -2.614 -11.962  -8.413  1.00  0.00     0.130 C 
ATOM     13  O   UNL     1      -1.934 -12.692  -9.117  1.00  0.00    -0.300 OA
ATOM     14  C   UNL     1      -2.453 -12.022  -6.923  1.00  0.00     0.087 C 
ENDBRANCH  11  12
ENDBRANCH  10  11
ENDBRANCH   2  10
TORSDOF 6
ENDMDL
MODEL 9
REMARK VINA RESULT:    -3.456      2.411      4.854
REMARK INTER + INTRA:          -5.614
REMARK INTER:                  -5.261
REMARK INTRA:                  -0.353
REMARK UNBOUND:                -0.946
REMARK SMILES CC(=O)CCC=C(C)CCC=C(C)C
REMARK SMILES IDX 7 1 6 2 8 3 9 4 10 5 11 6 13 7 12 8 14 9 5 10 4 11 2 12 3 13
REMARK SMILES IDX 1 14
REMARK H PARENT
REMARK Flexibility Score: inf
ROOT
ATOM      1  C   UNL     1      -4.412 -15.825  -7.269  1.00  0.00    -0.077 C 
ATOM      2  C   UNL     1      -5.247 -14.774  -7.119  1.00  0.00    -0.028 C 
ATOM      3  C   UNL     1      -4.137 -16.423  -8.629  1.00  0.00     0.039 C 
ENDROOT
BRANCH   1   4
ATOM      4  C   UNL     1      -3.737 -16.417  -6.049  1.00  0.00     0.034 C 
BRANCH   4   5
ATOM      5  C   UNL     1      -2.353 -15.797  -5.802  1.00  0.00     0.032 C 
BRANCH   5   6
ATOM      6  C   UNL     1      -2.404 -14.287  -5.806  1.00  0.00    -0.028 C 
ATOM      7  C   UNL     1      -1.506 -14.090  -8.136  1.00  0.00     0.039 C 
ATOM      8  C   UNL     1      -2.055 -13.509  -6.853  1.00  0.00    -0.080 C 
ATOM      9  C   UNL     1      -2.205 -12.016  -6.719  1.00  0.00     0.039 C 
ENDBRANCH   5   6
ENDBRANCH   4   5
ENDBRANCH   1   4
BRANCH   2  10
ATOM     10  C   UNL     1      -5.953 -14.107  -8.277  1.00  0.00     0.035 C 
BRANCH  10  11
ATOM     11  C   UNL     1      -4.998 -13.258  -9.125  1.00  0.00     0.079 C 
BRANCH  11  12
ATOM     12  C   UNL     1      -4.963 -11.826  -8.660  1.00  0.00     0.130 C 
ATOM     13  O   UNL     1      -4.134 -11.059  -9.125  1.00  0.00    -0.300 OA
ATOM     14  C   UNL     1      -5.957 -11.313  -7.661  1.00  0.00     0.087 C 
ENDBRANCH  11  12
ENDBRANCH  10  11
ENDBRANCH   2  10
TORSDOF 6
ENDMDL
