MODEL 1
REMARK VINA RESULT:    -5.536      0.000      0.000
REMARK INTER + INTRA:         -10.824
REMARK INTER:                  -9.742
REMARK INTRA:                  -1.081
REMARK UNBOUND:                -1.081
REMARK SMILES CCCCCCCCCCCCCCC(=O)[O-]
REMARK SMILES IDX 9 1 10 2 11 3 12 4 13 5 14 6 15 7 16 8 17 9 8 10 7 11 6 12
REMARK SMILES IDX 5 13 4 14 3 15 2 16 1 17
REMARK H PARENT
REMARK Flexibility Score: inf
ROOT
ATOM      1  C   UNL     1      88.355 324.722 197.308  1.00  0.00     0.000 C 
ENDROOT
BRANCH   1   2
ATOM      2  C   UNL     1      88.839 324.875 198.760  1.00  0.00     0.000 C 
BRANCH   2   3
ATOM      3  C   UNL     1      88.944 326.346 199.197  1.00  0.00     0.000 C 
BRANCH   3   4
ATOM      4  C   UNL     1      89.862 326.544 200.417  1.00  0.00     0.000 C 
BRANCH   4   5
ATOM      5  C   UNL     1      89.253 326.129 201.772  1.00  0.00     0.006 C 
BRANCH   5   6
ATOM      6  C   UNL     1      89.992 326.680 203.002  1.00  0.00     0.053 C 
BRANCH   6   7
ATOM      7  C   UNL     1      89.184 326.531 204.255  1.00  0.00     0.041 C 
ATOM      8  O   UNL     1      89.136 327.470 205.093  1.00  0.00    -0.550 OA
ATOM      9  O   UNL     1      88.513 325.342 204.514  1.00  0.00    -0.550 OA
ENDBRANCH   6   7
ENDBRANCH   5   6
ENDBRANCH   4   5
ENDBRANCH   3   4
ENDBRANCH   2   3
ENDBRANCH   1   2
BRANCH   1  10
ATOM     10  C   UNL     1      87.963 326.065 196.667  1.00  0.00     0.000 C 
BRANCH  10  11
ATOM     11  C   UNL     1      88.909 326.463 195.512  1.00  0.00    -0.000 C 
BRANCH  11  12
ATOM     12  C   UNL     1      88.184 326.701 194.174  1.00  0.00    -0.000 C 
BRANCH  12  13
ATOM     13  C   UNL     1      86.724 326.211 194.134  1.00  0.00    -0.000 C 
BRANCH  13  14
ATOM     14  C   UNL     1      86.473 324.985 193.233  1.00  0.00    -0.000 C 
BRANCH  14  15
ATOM     15  C   UNL     1      87.659 324.574 192.336  1.00  0.00    -0.000 C 
BRANCH  15  16
ATOM     16  C   UNL     1      88.238 323.179 192.627  1.00  0.00    -0.003 C 
ATOM     17  C   UNL     1      88.599 322.980 194.099  1.00  0.00     0.004 C 
ENDBRANCH  15  16
ENDBRANCH  14  15
ENDBRANCH  13  14
ENDBRANCH  12  13
ENDBRANCH  11  12
ENDBRANCH  10  11
ENDBRANCH   1  10
TORSDOF 13
ENDMDL
MODEL 2
REMARK VINA RESULT:    -5.525     19.291     20.567
REMARK INTER + INTRA:         -10.805
REMARK INTER:                  -9.759
REMARK INTRA:                  -1.046
REMARK UNBOUND:                -1.081
REMARK SMILES CCCCCCCCCCCCCCC(=O)[O-]
REMARK SMILES IDX 9 1 10 2 11 3 12 4 13 5 14 6 15 7 16 8 17 9 8 10 7 11 6 12
REMARK SMILES IDX 5 13 4 14 3 15 2 16 1 17
REMARK H PARENT
REMARK Flexibility Score: inf
ROOT
ATOM      1  C   UNL     1     103.466 311.580 194.665  1.00  0.00     0.000 C 
ENDROOT
BRANCH   1   2
ATOM      2  C   UNL     1     104.465 311.919 195.785  1.00  0.00     0.000 C 
BRANCH   2   3
ATOM      3  C   UNL     1     104.218 313.309 196.397  1.00  0.00     0.000 C 
BRANCH   3   4
ATOM      4  C   UNL     1     103.662 313.241 197.831  1.00  0.00     0.000 C 
BRANCH   4   5
ATOM      5  C   UNL     1     103.724 311.851 198.495  1.00  0.00     0.006 C 
BRANCH   5   6
ATOM      6  C   UNL     1     103.001 311.755 199.848  1.00  0.00     0.053 C 
BRANCH   6   7
ATOM      7  C   UNL     1     103.940 311.940 201.001  1.00  0.00     0.041 C 
ATOM      8  O   UNL     1     103.810 311.244 202.041  1.00  0.00    -0.550 OA
ATOM      9  O   UNL     1     104.938 312.905 200.938  1.00  0.00    -0.550 OA
ENDBRANCH   6   7
ENDBRANCH   5   6
ENDBRANCH   4   5
ENDBRANCH   3   4
ENDBRANCH   2   3
ENDBRANCH   1   2
BRANCH   1  10
ATOM     10  C   UNL     1     104.155 311.296 193.319  1.00  0.00     0.000 C 
BRANCH  10  11
ATOM     11  C   UNL     1     105.643 311.711 193.322  1.00  0.00    -0.000 C 
BRANCH  11  12
ATOM     12  C   UNL     1     105.940 312.953 192.461  1.00  0.00    -0.000 C 
BRANCH  12  13
ATOM     13  C   UNL     1     105.139 314.211 192.845  1.00  0.00    -0.000 C 
BRANCH  13  14
ATOM     14  C   UNL     1     103.920 314.507 191.947  1.00  0.00    -0.000 C 
BRANCH  14  15
ATOM     15  C   UNL     1     103.895 313.750 190.603  1.00  0.00    -0.000 C 
BRANCH  15  16
ATOM     16  C   UNL     1     103.599 314.625 189.372  1.00  0.00    -0.003 C 
ATOM     17  C   UNL     1     103.164 316.043 189.741  1.00  0.00     0.004 C 
ENDBRANCH  15  16
ENDBRANCH  14  15
ENDBRANCH  13  14
ENDBRANCH  12  13
ENDBRANCH  11  12
ENDBRANCH  10  11
ENDBRANCH   1  10
TORSDOF 13
ENDMDL
MODEL 3
REMARK VINA RESULT:    -5.519      6.592      9.431
REMARK INTER + INTRA:         -10.795
REMARK INTER:                  -9.156
REMARK INTRA:                  -1.638
REMARK UNBOUND:                -1.081
REMARK SMILES CCCCCCCCCCCCCCC(=O)[O-]
REMARK SMILES IDX 9 1 10 2 11 3 12 4 13 5 14 6 15 7 16 8 17 9 8 10 7 11 6 12
REMARK SMILES IDX 5 13 4 14 3 15 2 16 1 17
REMARK H PARENT
REMARK Flexibility Score: inf
ROOT
ATOM      1  C   UNL     1      88.117 325.602 193.134  1.00  0.00     0.000 C 
ENDROOT
BRANCH   1   2
ATOM      2  C   UNL     1      86.841 324.746 193.063  1.00  0.00     0.000 C 
BRANCH   2   3
ATOM      3  C   UNL     1      86.815 323.823 191.832  1.00  0.00     0.000 C 
BRANCH   3   4
ATOM      4  C   UNL     1      88.174 323.744 191.114  1.00  0.00     0.000 C 
BRANCH   4   5
ATOM      5  C   UNL     1      88.133 323.143 189.694  1.00  0.00     0.006 C 
BRANCH   5   6
ATOM      6  C   UNL     1      89.269 323.608 188.769  1.00  0.00     0.053 C 
BRANCH   6   7
ATOM      7  C   UNL     1      90.283 322.528 188.540  1.00  0.00     0.041 C 
ATOM      8  O   UNL     1      91.497 322.823 188.385  1.00  0.00    -0.550 OA
ATOM      9  O   UNL     1      89.882 321.200 188.465  1.00  0.00    -0.550 OA
ENDBRANCH   6   7
ENDBRANCH   5   6
ENDBRANCH   4   5
ENDBRANCH   3   4
ENDBRANCH   2   3
ENDBRANCH   1   2
BRANCH   1  10
ATOM     10  C   UNL     1      87.995 326.770 194.127  1.00  0.00     0.000 C 
BRANCH  10  11
ATOM     11  C   UNL     1      86.604 326.829 194.797  1.00  0.00    -0.000 C 
BRANCH  11  12
ATOM     12  C   UNL     1      86.624 326.471 196.295  1.00  0.00    -0.000 C 
BRANCH  12  13
ATOM     13  C   UNL     1      88.016 326.131 196.859  1.00  0.00    -0.000 C 
BRANCH  13  14
ATOM     14  C   UNL     1      88.261 324.633 197.128  1.00  0.00    -0.000 C 
BRANCH  14  15
ATOM     15  C   UNL     1      89.428 324.004 196.337  1.00  0.00    -0.000 C 
BRANCH  15  16
ATOM     16  C   UNL     1      89.027 322.854 195.397  1.00  0.00    -0.003 C 
ATOM     17  C   UNL     1      87.633 322.301 195.693  1.00  0.00     0.004 C 
ENDBRANCH  15  16
ENDBRANCH  14  15
ENDBRANCH  13  14
ENDBRANCH  12  13
ENDBRANCH  11  12
ENDBRANCH  10  11
ENDBRANCH   1  10
TORSDOF 13
ENDMDL
MODEL 4
REMARK VINA RESULT:    -5.513     19.219     20.529
REMARK INTER + INTRA:         -10.785
REMARK INTER:                  -9.474
REMARK INTRA:                  -1.311
REMARK UNBOUND:                -1.081
REMARK SMILES CCCCCCCCCCCCCCC(=O)[O-]
REMARK SMILES IDX 9 1 10 2 11 3 12 4 13 5 14 6 15 7 16 8 17 9 8 10 7 11 6 12
REMARK SMILES IDX 5 13 4 14 3 15 2 16 1 17
REMARK H PARENT
REMARK Flexibility Score: inf
ROOT
ATOM      1  C   UNL     1     104.431 311.909 195.789  1.00  0.00     0.000 C 
ENDROOT
BRANCH   1   2
ATOM      2  C   UNL     1     104.259 313.304 196.414  1.00  0.00     0.000 C 
BRANCH   2   3
ATOM      3  C   UNL     1     103.651 313.248 197.826  1.00  0.00     0.000 C 
BRANCH   3   4
ATOM      4  C   UNL     1     103.793 311.865 198.486  1.00  0.00     0.000 C 
BRANCH   4   5
ATOM      5  C   UNL     1     103.157 311.736 199.885  1.00  0.00     0.006 C 
BRANCH   5   6
ATOM      6  C   UNL     1     104.153 311.817 201.052  1.00  0.00     0.053 C 
BRANCH   6   7
ATOM      7  C   UNL     1     103.570 311.288 202.326  1.00  0.00     0.041 C 
ATOM      8  O   UNL     1     102.365 310.923 202.367  1.00  0.00    -0.550 OA
ATOM      9  O   UNL     1     104.347 311.230 203.477  1.00  0.00    -0.550 OA
ENDBRANCH   6   7
ENDBRANCH   5   6
ENDBRANCH   4   5
ENDBRANCH   3   4
ENDBRANCH   2   3
ENDBRANCH   1   2
BRANCH   1  10
ATOM     10  C   UNL     1     103.476 311.665 194.608  1.00  0.00     0.000 C 
BRANCH  10  11
ATOM     11  C   UNL     1     104.231 311.344 193.298  1.00  0.00    -0.000 C 
BRANCH  11  12
ATOM     12  C   UNL     1     105.566 312.098 193.154  1.00  0.00    -0.000 C 
BRANCH  12  13
ATOM     13  C   UNL     1     105.635 313.066 191.959  1.00  0.00    -0.000 C 
BRANCH  13  14
ATOM     14  C   UNL     1     104.267 313.504 191.395  1.00  0.00    -0.000 C 
BRANCH  14  15
ATOM     15  C   UNL     1     103.846 314.948 191.739  1.00  0.00    -0.000 C 
BRANCH  15  16
ATOM     16  C   UNL     1     103.494 315.185 193.218  1.00  0.00    -0.003 C 
ATOM     17  C   UNL     1     104.566 315.979 193.965  1.00  0.00     0.004 C 
ENDBRANCH  15  16
ENDBRANCH  14  15
ENDBRANCH  13  14
ENDBRANCH  12  13
ENDBRANCH  11  12
ENDBRANCH  10  11
ENDBRANCH   1  10
TORSDOF 13
ENDMDL
MODEL 5
REMARK VINA RESULT:    -5.510      5.943      9.961
REMARK INTER + INTRA:         -10.778
REMARK INTER:                 -10.099
REMARK INTRA:                  -0.679
REMARK UNBOUND:                -1.081
REMARK SMILES CCCCCCCCCCCCCCC(=O)[O-]
REMARK SMILES IDX 9 1 10 2 11 3 12 4 13 5 14 6 15 7 16 8 17 9 8 10 7 11 6 12
REMARK SMILES IDX 5 13 4 14 3 15 2 16 1 17
REMARK H PARENT
REMARK Flexibility Score: inf
ROOT
ATOM      1  C   UNL     1      87.780 325.058 193.122  1.00  0.00     0.000 C 
ENDROOT
BRANCH   1   2
ATOM      2  C   UNL     1      86.398 324.440 192.850  1.00  0.00     0.000 C 
BRANCH   2   3
ATOM      3  C   UNL     1      86.374 323.586 191.572  1.00  0.00     0.000 C 
BRANCH   3   4
ATOM      4  C   UNL     1      87.780 323.180 191.094  1.00  0.00     0.000 C 
BRANCH   4   5
ATOM      5  C   UNL     1      87.947 323.065 189.566  1.00  0.00     0.006 C 
BRANCH   5   6
ATOM      6  C   UNL     1      89.265 323.639 189.021  1.00  0.00     0.053 C 
BRANCH   6   7
ATOM      7  C   UNL     1      90.250 322.561 188.684  1.00  0.00     0.041 C 
ATOM      8  O   UNL     1      89.937 321.350 188.828  1.00  0.00    -0.550 OA
ATOM      9  O   UNL     1      91.525 322.895 188.245  1.00  0.00    -0.550 OA
ENDBRANCH   6   7
ENDBRANCH   5   6
ENDBRANCH   4   5
ENDBRANCH   3   4
ENDBRANCH   2   3
ENDBRANCH   1   2
BRANCH   1  10
ATOM     10  C   UNL     1      87.697 326.380 193.904  1.00  0.00     0.000 C 
BRANCH  10  11
ATOM     11  C   UNL     1      86.389 326.501 194.717  1.00  0.00    -0.000 C 
BRANCH  11  12
ATOM     12  C   UNL     1      86.609 326.527 196.241  1.00  0.00    -0.000 C 
BRANCH  12  13
ATOM     13  C   UNL     1      87.909 325.855 196.718  1.00  0.00    -0.000 C 
BRANCH  13  14
ATOM     14  C   UNL     1      88.628 326.577 197.877  1.00  0.00    -0.000 C 
BRANCH  14  15
ATOM     15  C   UNL     1      88.908 325.708 199.120  1.00  0.00    -0.000 C 
BRANCH  15  16
ATOM     16  C   UNL     1      89.582 326.448 200.289  1.00  0.00    -0.003 C 
ATOM     17  C   UNL     1      88.890 326.199 201.629  1.00  0.00     0.004 C 
ENDBRANCH  15  16
ENDBRANCH  14  15
ENDBRANCH  13  14
ENDBRANCH  12  13
ENDBRANCH  11  12
ENDBRANCH  10  11
ENDBRANCH   1  10
TORSDOF 13
ENDMDL
MODEL 6
REMARK VINA RESULT:    -5.479     19.091     20.516
REMARK INTER + INTRA:         -10.725
REMARK INTER:                  -9.353
REMARK INTRA:                  -1.372
REMARK UNBOUND:                -1.081
REMARK SMILES CCCCCCCCCCCCCCC(=O)[O-]
REMARK SMILES IDX 9 1 10 2 11 3 12 4 13 5 14 6 15 7 16 8 17 9 8 10 7 11 6 12
REMARK SMILES IDX 5 13 4 14 3 15 2 16 1 17
REMARK H PARENT
REMARK Flexibility Score: inf
ROOT
ATOM      1  C   UNL     1     103.394 311.811 194.685  1.00  0.00     0.000 C 
ENDROOT
BRANCH   1   2
ATOM      2  C   UNL     1     104.395 311.965 195.843  1.00  0.00     0.000 C 
BRANCH   2   3
ATOM      3  C   UNL     1     103.902 311.305 197.142  1.00  0.00     0.000 C 
BRANCH   3   4
ATOM      4  C   UNL     1     103.806 312.295 198.317  1.00  0.00     0.000 C 
BRANCH   4   5
ATOM      5  C   UNL     1     103.271 311.699 199.636  1.00  0.00     0.006 C 
BRANCH   5   6
ATOM      6  C   UNL     1     104.207 311.872 200.842  1.00  0.00     0.053 C 
BRANCH   6   7
ATOM      7  C   UNL     1     103.516 311.567 202.137  1.00  0.00     0.041 C 
ATOM      8  O   UNL     1     102.424 310.940 202.139  1.00  0.00    -0.550 OA
ATOM      9  O   UNL     1     104.061 312.005 203.337  1.00  0.00    -0.550 OA
ENDBRANCH   6   7
ENDBRANCH   5   6
ENDBRANCH   4   5
ENDBRANCH   3   4
ENDBRANCH   2   3
ENDBRANCH   1   2
BRANCH   1  10
ATOM     10  C   UNL     1     104.057 311.321 193.387  1.00  0.00     0.000 C 
BRANCH  10  11
ATOM     11  C   UNL     1     105.494 311.863 193.219  1.00  0.00    -0.000 C 
BRANCH  11  12
ATOM     12  C   UNL     1     105.622 312.947 192.132  1.00  0.00    -0.000 C 
BRANCH  12  13
ATOM     13  C   UNL     1     104.283 313.492 191.602  1.00  0.00    -0.000 C 
BRANCH  13  14
ATOM     14  C   UNL     1     103.799 314.794 192.273  1.00  0.00    -0.000 C 
BRANCH  14  15
ATOM     15  C   UNL     1     104.848 315.514 193.146  1.00  0.00    -0.000 C 
BRANCH  15  16
ATOM     16  C   UNL     1     104.545 315.515 194.654  1.00  0.00    -0.003 C 
ATOM     17  C   UNL     1     103.052 315.397 194.961  1.00  0.00     0.004 C 
ENDBRANCH  15  16
ENDBRANCH  14  15
ENDBRANCH  13  14
ENDBRANCH  12  13
ENDBRANCH  11  12
ENDBRANCH  10  11
ENDBRANCH   1  10
TORSDOF 13
ENDMDL
MODEL 7
REMARK VINA RESULT:    -5.467      1.670      2.565
REMARK INTER + INTRA:         -10.703
REMARK INTER:                  -9.789
REMARK INTRA:                  -0.914
REMARK UNBOUND:                -1.081
REMARK SMILES CCCCCCCCCCCCCCC(=O)[O-]
REMARK SMILES IDX 9 1 10 2 11 3 12 4 13 5 14 6 15 7 16 8 17 9 8 10 7 11 6 12
REMARK SMILES IDX 5 13 4 14 3 15 2 16 1 17
REMARK H PARENT
REMARK Flexibility Score: inf
ROOT
ATOM      1  C   UNL     1      88.861 326.488 195.882  1.00  0.00     0.000 C 
ENDROOT
BRANCH   1   2
ATOM      2  C   UNL     1      89.206 325.080 196.395  1.00  0.00     0.000 C 
BRANCH   2   3
ATOM      3  C   UNL     1      88.419 324.702 197.661  1.00  0.00     0.000 C 
BRANCH   3   4
ATOM      4  C   UNL     1      89.260 324.816 198.946  1.00  0.00     0.000 C 
BRANCH   4   5
ATOM      5  C   UNL     1      89.184 326.180 199.662  1.00  0.00     0.006 C 
BRANCH   5   6
ATOM      6  C   UNL     1      88.786 326.103 201.144  1.00  0.00     0.053 C 
BRANCH   6   7
ATOM      7  C   UNL     1      89.928 326.446 202.051  1.00  0.00     0.041 C 
ATOM      8  O   UNL     1      91.034 326.803 201.568  1.00  0.00    -0.550 OA
ATOM      9  O   UNL     1      89.780 326.339 203.429  1.00  0.00    -0.550 OA
ENDBRANCH   6   7
ENDBRANCH   5   6
ENDBRANCH   4   5
ENDBRANCH   3   4
ENDBRANCH   2   3
ENDBRANCH   1   2
BRANCH   1  10
ATOM     10  C   UNL     1      88.449 326.498 194.400  1.00  0.00     0.000 C 
BRANCH  10  11
ATOM     11  C   UNL     1      86.958 326.852 194.207  1.00  0.00    -0.000 C 
BRANCH  11  12
ATOM     12  C   UNL     1      86.027 325.626 194.203  1.00  0.00    -0.000 C 
BRANCH  12  13
ATOM     13  C   UNL     1      86.690 324.312 193.750  1.00  0.00    -0.000 C 
BRANCH  13  14
ATOM     14  C   UNL     1      86.549 323.997 192.246  1.00  0.00    -0.000 C 
BRANCH  14  15
ATOM     15  C   UNL     1      87.843 324.142 191.419  1.00  0.00    -0.000 C 
BRANCH  15  16
ATOM     16  C   UNL     1      87.925 323.234 190.180  1.00  0.00    -0.003 C 
ATOM     17  C   UNL     1      89.031 323.650 189.210  1.00  0.00     0.004 C 
ENDBRANCH  15  16
ENDBRANCH  14  15
ENDBRANCH  13  14
ENDBRANCH  12  13
ENDBRANCH  11  12
ENDBRANCH  10  11
ENDBRANCH   1  10
TORSDOF 13
ENDMDL
MODEL 8
REMARK VINA RESULT:    -5.437     19.823     20.569
REMARK INTER + INTRA:         -10.650
REMARK INTER:                  -9.951
REMARK INTRA:                  -0.699
REMARK UNBOUND:                -1.081
REMARK SMILES CCCCCCCCCCCCCCC(=O)[O-]
REMARK SMILES IDX 9 1 10 2 11 3 12 4 13 5 14 6 15 7 16 8 17 9 8 10 7 11 6 12
REMARK SMILES IDX 5 13 4 14 3 15 2 16 1 17
REMARK H PARENT
REMARK Flexibility Score: inf
ROOT
ATOM      1  C   UNL     1     103.927 313.110 197.476  1.00  0.00     0.000 C 
ENDROOT
BRANCH   1   2
ATOM      2  C   UNL     1     103.648 311.718 198.066  1.00  0.00     0.000 C 
BRANCH   2   3
ATOM      3  C   UNL     1     103.207 311.776 199.538  1.00  0.00     0.000 C 
BRANCH   3   4
ATOM      4  C   UNL     1     104.389 311.923 200.513  1.00  0.00     0.000 C 
BRANCH   4   5
ATOM      5  C   UNL     1     104.003 312.248 201.971  1.00  0.00     0.006 C 
BRANCH   5   6
ATOM      6  C   UNL     1     103.986 311.034 202.914  1.00  0.00     0.053 C 
BRANCH   6   7
ATOM      7  C   UNL     1     102.598 310.692 203.363  1.00  0.00     0.041 C 
ATOM      8  O   UNL     1     102.379 310.384 204.564  1.00  0.00    -0.550 OA
ATOM      9  O   UNL     1     101.552 310.680 202.448  1.00  0.00    -0.550 OA
ENDBRANCH   6   7
ENDBRANCH   5   6
ENDBRANCH   4   5
ENDBRANCH   3   4
ENDBRANCH   2   3
ENDBRANCH   1   2
BRANCH   1  10
ATOM     10  C   UNL     1     104.021 313.098 195.941  1.00  0.00     0.000 C 
BRANCH  10  11
ATOM     11  C   UNL     1     103.466 311.793 195.329  1.00  0.00    -0.000 C 
BRANCH  11  12
ATOM     12  C   UNL     1     103.866 311.582 193.857  1.00  0.00    -0.000 C 
BRANCH  12  13
ATOM     13  C   UNL     1     105.329 311.932 193.529  1.00  0.00    -0.000 C 
BRANCH  13  14
ATOM     14  C   UNL     1     105.514 312.964 192.397  1.00  0.00    -0.000 C 
BRANCH  14  15
ATOM     15  C   UNL     1     104.270 313.205 191.517  1.00  0.00    -0.000 C 
BRANCH  15  16
ATOM     16  C   UNL     1     104.234 314.568 190.805  1.00  0.00    -0.003 C 
ATOM     17  C   UNL     1     103.530 314.514 189.449  1.00  0.00     0.004 C 
ENDBRANCH  15  16
ENDBRANCH  14  15
ENDBRANCH  13  14
ENDBRANCH  12  13
ENDBRANCH  11  12
ENDBRANCH  10  11
ENDBRANCH   1  10
TORSDOF 13
ENDMDL
MODEL 9
REMARK VINA RESULT:    -5.366     19.101     20.463
REMARK INTER + INTRA:         -10.526
REMARK INTER:                  -8.928
REMARK INTRA:                  -1.599
REMARK UNBOUND:                -1.081
REMARK SMILES CCCCCCCCCCCCCCC(=O)[O-]
REMARK SMILES IDX 9 1 10 2 11 3 12 4 13 5 14 6 15 7 16 8 17 9 8 10 7 11 6 12
REMARK SMILES IDX 5 13 4 14 3 15 2 16 1 17
REMARK H PARENT
REMARK Flexibility Score: inf
ROOT
ATOM      1  C   UNL     1     103.148 313.345 195.548  1.00  0.00     0.000 C 
ENDROOT
BRANCH   1   2
ATOM      2  C   UNL     1     104.250 314.192 196.204  1.00  0.00     0.000 C 
BRANCH   2   3
ATOM      3  C   UNL     1     103.761 314.928 197.463  1.00  0.00     0.000 C 
BRANCH   3   4
ATOM      4  C   UNL     1     103.007 314.007 198.440  1.00  0.00     0.000 C 
BRANCH   4   5
ATOM      5  C   UNL     1     103.877 312.950 199.150  1.00  0.00     0.006 C 
BRANCH   5   6
ATOM      6  C   UNL     1     103.120 311.683 199.581  1.00  0.00     0.053 C 
BRANCH   6   7
ATOM      7  C   UNL     1     102.667 311.757 201.007  1.00  0.00     0.041 C 
ATOM      8  O   UNL     1     103.141 312.635 201.777  1.00  0.00    -0.550 OA
ATOM      9  O   UNL     1     101.749 310.837 201.495  1.00  0.00    -0.550 OA
ENDBRANCH   6   7
ENDBRANCH   5   6
ENDBRANCH   4   5
ENDBRANCH   3   4
ENDBRANCH   2   3
ENDBRANCH   1   2
BRANCH   1  10
ATOM     10  C   UNL     1     103.610 311.914 195.223  1.00  0.00     0.000 C 
BRANCH  10  11
ATOM     11  C   UNL     1     104.983 311.584 195.851  1.00  0.00    -0.000 C 
BRANCH  11  12
ATOM     12  C   UNL     1     106.121 311.467 194.820  1.00  0.00    -0.000 C 
BRANCH  12  13
ATOM     13  C   UNL     1     105.662 311.430 193.351  1.00  0.00    -0.000 C 
BRANCH  13  14
ATOM     14  C   UNL     1     106.125 312.626 192.494  1.00  0.00    -0.000 C 
BRANCH  14  15
ATOM     15  C   UNL     1     105.096 313.767 192.346  1.00  0.00    -0.000 C 
BRANCH  15  16
ATOM     16  C   UNL     1     103.903 313.449 191.428  1.00  0.00    -0.003 C 
ATOM     17  C   UNL     1     103.904 314.277 190.143  1.00  0.00     0.004 C 
ENDBRANCH  15  16
ENDBRANCH  14  15
ENDBRANCH  13  14
ENDBRANCH  12  13
ENDBRANCH  11  12
ENDBRANCH  10  11
ENDBRANCH   1  10
TORSDOF 13
ENDMDL
