MODEL 1
REMARK VINA RESULT:    -2.663      0.000      0.000
REMARK INTER + INTRA:          -3.479
REMARK INTER:                  -3.364
REMARK INTRA:                  -0.115
REMARK UNBOUND:                -0.115
REMARK SMILES CCCCC[C@H](C)O
REMARK SMILES IDX 4 1 3 2 2 3 1 4 5 5 6 6 7 7 8 8
REMARK H PARENT 8 9
REMARK Flexibility Score: inf
ROOT
ATOM      1  C   UNL     1     116.121 113.857 107.969  1.00  0.00     0.003 C 
ENDROOT
BRANCH   1   2
ATOM      2  C   UNL     1     114.688 114.234 108.374  1.00  0.00    -0.000 C 
BRANCH   2   3
ATOM      3  C   UNL     1     113.664 113.154 107.993  1.00  0.00    -0.003 C 
ATOM      4  C   UNL     1     112.958 113.449 106.669  1.00  0.00     0.004 C 
ENDBRANCH   2   3
ENDBRANCH   1   2
BRANCH   1   5
ATOM      5  C   UNL     1     117.072 113.944 109.176  1.00  0.00     0.031 C 
BRANCH   5   6
ATOM      6  C   UNL     1     118.356 114.752 108.893  1.00  0.00     0.111 C 
ATOM      7  C   UNL     1     118.056 116.167 108.393  1.00  0.00     0.038 C 
BRANCH   6   8
ATOM      8  O   UNL     1     119.166 114.090 107.956  1.00  0.00    -0.393 OA
ATOM      9  H   UNL     1     120.107 114.237 108.238  1.00  0.00     0.210 HD
ENDBRANCH   6   8
ENDBRANCH   5   6
ENDBRANCH   1   5
TORSDOF 5
ENDMDL
MODEL 2
REMARK VINA RESULT:    -2.661     13.166     15.651
REMARK INTER + INTRA:          -3.477
REMARK INTER:                  -3.360
REMARK INTRA:                  -0.117
REMARK UNBOUND:                -0.115
REMARK SMILES CCCCC[C@H](C)O
REMARK SMILES IDX 4 1 3 2 2 3 1 4 5 5 6 6 7 7 8 8
REMARK H PARENT 8 9
REMARK Flexibility Score: inf
ROOT
ATOM      1  C   UNL     1     104.023 106.180 107.984  1.00  0.00     0.003 C 
ENDROOT
BRANCH   1   2
ATOM      2  C   UNL     1     105.454 105.772 108.370  1.00  0.00    -0.000 C 
BRANCH   2   3
ATOM      3  C   UNL     1     106.489 106.852 108.024  1.00  0.00    -0.003 C 
ATOM      4  C   UNL     1     107.115 106.651 106.643  1.00  0.00     0.004 C 
ENDBRANCH   2   3
ENDBRANCH   1   2
BRANCH   1   5
ATOM      5  C   UNL     1     103.076 106.064 109.191  1.00  0.00     0.031 C 
BRANCH   5   6
ATOM      6  C   UNL     1     101.795 105.256 108.894  1.00  0.00     0.111 C 
ATOM      7  C   UNL     1     102.100 103.871 108.318  1.00  0.00     0.038 C 
BRANCH   6   8
ATOM      8  O   UNL     1     100.958 105.954 108.009  1.00  0.00    -0.393 OA
ATOM      9  H   UNL     1     101.548 106.379 107.334  1.00  0.00     0.210 HD
ENDBRANCH   6   8
ENDBRANCH   5   6
ENDBRANCH   1   5
TORSDOF 5
ENDMDL
MODEL 3
REMARK VINA RESULT:    -2.607      9.958     11.038
REMARK INTER + INTRA:          -3.408
REMARK INTER:                  -3.282
REMARK INTRA:                  -0.126
REMARK UNBOUND:                -0.115
REMARK SMILES CCCCC[C@H](C)O
REMARK SMILES IDX 4 1 3 2 2 3 1 4 5 5 6 6 7 7 8 8
REMARK H PARENT 8 9
REMARK Flexibility Score: inf
ROOT
ATOM      1  C   UNL     1     114.723 104.289 108.763  1.00  0.00     0.003 C 
ENDROOT
BRANCH   1   2
ATOM      2  C   UNL     1     113.737 105.048 107.861  1.00  0.00    -0.000 C 
BRANCH   2   3
ATOM      3  C   UNL     1     114.049 106.550 107.778  1.00  0.00    -0.003 C 
ATOM      4  C   UNL     1     113.424 107.217 106.552  1.00  0.00     0.004 C 
ENDBRANCH   2   3
ENDBRANCH   1   2
BRANCH   1   5
ATOM      5  C   UNL     1     114.084 103.002 109.311  1.00  0.00     0.031 C 
BRANCH   5   6
ATOM      6  C   UNL     1     114.822 101.716 108.883  1.00  0.00     0.111 C 
ATOM      7  C   UNL     1     116.218 102.004 108.323  1.00  0.00     0.038 C 
BRANCH   6   8
ATOM      8  O   UNL     1     114.076 101.006 107.929  1.00  0.00    -0.393 OA
ATOM      9  H   UNL     1     113.722 101.675 107.287  1.00  0.00     0.210 HD
ENDBRANCH   6   8
ENDBRANCH   5   6
ENDBRANCH   1   5
TORSDOF 5
ENDMDL
MODEL 4
REMARK VINA RESULT:    -2.605      1.498      4.510
REMARK INTER + INTRA:          -3.406
REMARK INTER:                  -3.216
REMARK INTRA:                  -0.190
REMARK UNBOUND:                -0.115
REMARK SMILES CCCCC[C@H](C)O
REMARK SMILES IDX 4 1 3 2 2 3 1 4 5 5 6 6 7 7 8 8
REMARK H PARENT 8 9
REMARK Flexibility Score: inf
ROOT
ATOM      1  C   UNL     1     118.067 114.935 109.766  1.00  0.00     0.003 C 
ENDROOT
BRANCH   1   2
ATOM      2  C   UNL     1     117.601 116.292 109.217  1.00  0.00    -0.000 C 
BRANCH   2   3
ATOM      3  C   UNL     1     118.718 117.044 108.478  1.00  0.00    -0.003 C 
ATOM      4  C   UNL     1     119.499 117.991 109.390  1.00  0.00     0.004 C 
ENDBRANCH   2   3
ENDBRANCH   1   2
BRANCH   1   5
ATOM      5  C   UNL     1     117.269 113.783 109.130  1.00  0.00     0.031 C 
BRANCH   5   6
ATOM      6  C   UNL     1     116.260 114.251 108.059  1.00  0.00     0.111 C 
ATOM      7  C   UNL     1     114.862 113.667 108.283  1.00  0.00     0.038 C 
BRANCH   6   8
ATOM      8  O   UNL     1     116.704 113.912 106.772  1.00  0.00    -0.393 OA
ATOM      9  H   UNL     1     117.549 114.411 106.620  1.00  0.00     0.210 HD
ENDBRANCH   6   8
ENDBRANCH   5   6
ENDBRANCH   1   5
TORSDOF 5
ENDMDL
MODEL 5
REMARK VINA RESULT:    -2.603      9.448     11.003
REMARK INTER + INTRA:          -3.403
REMARK INTER:                  -3.279
REMARK INTRA:                  -0.125
REMARK UNBOUND:                -0.115
REMARK SMILES CCCCC[C@H](C)O
REMARK SMILES IDX 4 1 3 2 2 3 1 4 5 5 6 6 7 7 8 8
REMARK H PARENT 8 9
REMARK Flexibility Score: inf
ROOT
ATOM      1  C   UNL     1     106.291 116.068 107.957  1.00  0.00     0.003 C 
ENDROOT
BRANCH   1   2
ATOM      2  C   UNL     1     106.029 114.609 108.363  1.00  0.00    -0.000 C 
BRANCH   2   3
ATOM      3  C   UNL     1     106.472 113.609 107.285  1.00  0.00    -0.003 C 
ATOM      4  C   UNL     1     107.711 112.810 107.692  1.00  0.00     0.004 C 
ENDBRANCH   2   3
ENDBRANCH   1   2
BRANCH   1   5
ATOM      5  C   UNL     1     106.155 117.007 109.169  1.00  0.00     0.031 C 
BRANCH   5   6
ATOM      6  C   UNL     1     105.337 118.281 108.874  1.00  0.00     0.111 C 
ATOM      7  C   UNL     1     103.958 117.966 108.289  1.00  0.00     0.038 C 
BRANCH   6   8
ATOM      8  O   UNL     1     106.031 119.129 107.997  1.00  0.00    -0.393 OA
ATOM      9  H   UNL     1     106.651 118.555 107.475  1.00  0.00     0.210 HD
ENDBRANCH   6   8
ENDBRANCH   5   6
ENDBRANCH   1   5
TORSDOF 5
ENDMDL
MODEL 6
REMARK VINA RESULT:    -2.594      7.534      9.604
REMARK INTER + INTRA:          -3.392
REMARK INTER:                  -3.087
REMARK INTRA:                  -0.305
REMARK UNBOUND:                -0.115
REMARK SMILES CCCCC[C@H](C)O
REMARK SMILES IDX 4 1 3 2 2 3 1 4 5 5 6 6 7 7 8 8
REMARK H PARENT 8 9
REMARK Flexibility Score: inf
ROOT
ATOM      1  C   UNL     1     108.272 111.303 104.788  1.00  0.00     0.003 C 
ENDROOT
BRANCH   1   2
ATOM      2  C   UNL     1     109.265 112.350 104.259  1.00  0.00    -0.000 C 
BRANCH   2   3
ATOM      3  C   UNL     1     110.693 112.122 104.776  1.00  0.00    -0.003 C 
ATOM      4  C   UNL     1     110.792 112.201 106.299  1.00  0.00     0.004 C 
ENDBRANCH   2   3
ENDBRANCH   1   2
BRANCH   1   5
ATOM      5  C   UNL     1     106.924 111.955 105.141  1.00  0.00     0.031 C 
BRANCH   5   6
ATOM      6  C   UNL     1     106.930 112.683 106.502  1.00  0.00     0.111 C 
ATOM      7  C   UNL     1     107.324 111.758 107.656  1.00  0.00     0.038 C 
BRANCH   6   8
ATOM      8  O   UNL     1     105.674 113.251 106.770  1.00  0.00    -0.393 OA
ATOM      9  H   UNL     1     105.238 113.407 105.892  1.00  0.00     0.210 HD
ENDBRANCH   6   8
ENDBRANCH   5   6
ENDBRANCH   1   5
TORSDOF 5
ENDMDL
MODEL 7
REMARK VINA RESULT:    -2.584     11.568     13.884
REMARK INTER + INTRA:          -3.379
REMARK INTER:                  -3.277
REMARK INTRA:                  -0.102
REMARK UNBOUND:                -0.115
REMARK SMILES CCCCC[C@H](C)O
REMARK SMILES IDX 4 1 3 2 2 3 1 4 5 5 6 6 7 7 8 8
REMARK H PARENT 8 9
REMARK Flexibility Score: inf
ROOT
ATOM      1  C   UNL     1     106.232 106.238 107.430  1.00  0.00     0.003 C 
ENDROOT
BRANCH   1   2
ATOM      2  C   UNL     1     107.364 107.189 107.849  1.00  0.00    -0.000 C 
BRANCH   2   3
ATOM      3  C   UNL     1     108.338 107.489 106.701  1.00  0.00    -0.003 C 
ATOM      4  C   UNL     1     107.869 106.918 105.362  1.00  0.00     0.004 C 
ENDBRANCH   2   3
ENDBRANCH   1   2
BRANCH   1   5
ATOM      5  C   UNL     1     105.277 105.971 108.607  1.00  0.00     0.031 C 
BRANCH   5   6
ATOM      6  C   UNL     1     103.786 106.115 108.236  1.00  0.00     0.111 C 
ATOM      7  C   UNL     1     102.932 104.978 108.803  1.00  0.00     0.038 C 
BRANCH   6   8
ATOM      8  O   UNL     1     103.620 106.170 106.843  1.00  0.00    -0.393 OA
ATOM      9  H   UNL     1     102.814 105.633 106.630  1.00  0.00     0.210 HD
ENDBRANCH   6   8
ENDBRANCH   5   6
ENDBRANCH   1   5
TORSDOF 5
ENDMDL
MODEL 8
REMARK VINA RESULT:    -2.583      7.201      8.129
REMARK INTER + INTRA:          -3.378
REMARK INTER:                  -3.100
REMARK INTRA:                  -0.278
REMARK UNBOUND:                -0.115
REMARK SMILES CCCCC[C@H](C)O
REMARK SMILES IDX 4 1 3 2 2 3 1 4 5 5 6 6 7 7 8 8
REMARK H PARENT 8 9
REMARK Flexibility Score: inf
ROOT
ATOM      1  C   UNL     1     112.538 108.835 106.470  1.00  0.00     0.003 C 
ENDROOT
BRANCH   1   2
ATOM      2  C   UNL     1     111.508 108.093 105.603  1.00  0.00    -0.000 C 
BRANCH   2   3
ATOM      3  C   UNL     1     112.079 107.674 104.239  1.00  0.00    -0.003 C 
ATOM      4  C   UNL     1     113.439 108.309 103.946  1.00  0.00     0.004 C 
ENDBRANCH   2   3
ENDBRANCH   1   2
BRANCH   1   5
ATOM      5  C   UNL     1     112.829 108.052 107.763  1.00  0.00     0.031 C 
BRANCH   5   6
ATOM      6  C   UNL     1     113.373 106.630 107.514  1.00  0.00     0.111 C 
ATOM      7  C   UNL     1     113.500 105.820 108.807  1.00  0.00     0.038 C 
BRANCH   6   8
ATOM      8  O   UNL     1     114.620 106.678 106.871  1.00  0.00    -0.393 OA
ATOM      9  H   UNL     1     114.995 107.581 107.040  1.00  0.00     0.210 HD
ENDBRANCH   6   8
ENDBRANCH   5   6
ENDBRANCH   1   5
TORSDOF 5
ENDMDL
MODEL 9
REMARK VINA RESULT:    -2.576      7.807      8.971
REMARK INTER + INTRA:          -3.369
REMARK INTER:                  -3.214
REMARK INTRA:                  -0.155
REMARK UNBOUND:                -0.115
REMARK SMILES CCCCC[C@H](C)O
REMARK SMILES IDX 4 1 3 2 2 3 1 4 5 5 6 6 7 7 8 8
REMARK H PARENT 8 9
REMARK Flexibility Score: inf
ROOT
ATOM      1  C   UNL     1     110.408 108.315 104.259  1.00  0.00     0.003 C 
ENDROOT
BRANCH   1   2
ATOM      2  C   UNL     1     109.590 108.158 105.551  1.00  0.00    -0.000 C 
BRANCH   2   3
ATOM      3  C   UNL     1     108.334 107.297 105.353  1.00  0.00    -0.003 C 
ATOM      4  C   UNL     1     108.259 106.670 103.961  1.00  0.00     0.004 C 
ENDBRANCH   2   3
ENDBRANCH   1   2
BRANCH   1   5
ATOM      5  C   UNL     1     111.810 108.873 104.563  1.00  0.00     0.031 C 
BRANCH   5   6
ATOM      6  C   UNL     1     112.893 107.781 104.696  1.00  0.00     0.111 C 
ATOM      7  C   UNL     1     113.367 107.605 106.141  1.00  0.00     0.038 C 
BRANCH   6   8
ATOM      8  O   UNL     1     113.995 108.069 103.876  1.00  0.00    -0.393 OA
ATOM      9  H   UNL     1     114.405 107.198 103.633  1.00  0.00     0.210 HD
ENDBRANCH   6   8
ENDBRANCH   5   6
ENDBRANCH   1   5
TORSDOF 5
ENDMDL
