MODEL 1
REMARK VINA RESULT:    -4.710      0.000      0.000
REMARK INTER + INTRA:          -6.328
REMARK INTER:                  -6.087
REMARK INTRA:                  -0.241
REMARK UNBOUND:                -0.241
REMARK SMILES CCO[C@H]1O[C@@H](CO)[C@H](O)[C@@H](O)[C@@H]1O
REMARK SMILES IDX 4 1 13 2 11 3 9 4 6 5 5 6 3 7 2 8 1 9 14 10 12 12 7 14 8 15
REMARK SMILES IDX 10 17
REMARK H PARENT 14 11 12 13 8 16 10 18
REMARK Flexibility Score: inf
ROOT
ATOM      1  C   UNL     1      15.376  24.718  52.821  1.00  0.00     0.281 C 
ATOM      2  C   UNL     1      16.371  25.101  51.703  1.00  0.00     0.202 C 
ATOM      3  C   UNL     1      15.683  25.930  50.606  1.00  0.00     0.179 C 
ATOM      4  C   UNL     1      14.368  25.272  50.148  1.00  0.00     0.177 C 
ATOM      5  C   UNL     1      13.498  24.776  51.336  1.00  0.00     0.178 C 
ATOM      6  O   UNL     1      14.233  24.043  52.312  1.00  0.00    -0.341 OA
ENDROOT
BRANCH   1   7
ATOM      7  O   UNL     1      14.985  25.859  53.572  1.00  0.00    -0.350 OA
BRANCH   7   8
ATOM      8  C   UNL     1      16.001  26.287  54.459  1.00  0.00     0.160 C 
ATOM      9  C   UNL     1      15.681  27.677  54.998  1.00  0.00     0.035 C 
ENDBRANCH   7   8
ENDBRANCH   1   7
BRANCH   2  10
ATOM     10  O   UNL     1      16.931  23.944  51.138  1.00  0.00    -0.385 OA
ATOM     11  H   UNL     1      17.601  23.599  51.786  1.00  0.00     0.211 HD
ENDBRANCH   2  10
BRANCH   3  12
ATOM     12  O   UNL     1      15.422  27.229  51.071  1.00  0.00    -0.387 OA
ATOM     13  H   UNL     1      15.715  27.857  50.359  1.00  0.00     0.211 HD
ENDBRANCH   3  12
BRANCH   5  14
ATOM     14  C   UNL     1      12.611  25.879  51.948  1.00  0.00     0.191 C 
BRANCH  14  15
ATOM     15  O   UNL     1      11.389  25.332  52.361  1.00  0.00    -0.394 OA
ATOM     16  H   UNL     1      10.776  25.407  51.585  1.00  0.00     0.210 HD
ENDBRANCH  14  15
ENDBRANCH   5  14
BRANCH   4  17
ATOM     17  O   UNL     1      14.631  24.228  49.241  1.00  0.00    -0.387 OA
ATOM     18  H   UNL     1      13.772  23.940  48.837  1.00  0.00     0.211 HD
ENDBRANCH   4  17
TORSDOF 7
ENDMDL
MODEL 2
REMARK VINA RESULT:    -4.644      1.823      3.776
REMARK INTER + INTRA:          -6.242
REMARK INTER:                  -5.791
REMARK INTRA:                  -0.451
REMARK UNBOUND:                -0.241
REMARK SMILES CCO[C@H]1O[C@@H](CO)[C@H](O)[C@@H](O)[C@@H]1O
REMARK SMILES IDX 4 1 13 2 11 3 9 4 6 5 5 6 3 7 2 8 1 9 14 10 12 12 7 14 8 15
REMARK SMILES IDX 10 17
REMARK H PARENT 14 11 12 13 8 16 10 18
REMARK Flexibility Score: inf
ROOT
ATOM      1  C   UNL     1      16.302  24.842  51.583  1.00  0.00     0.281 C 
ATOM      2  C   UNL     1      15.109  23.901  51.864  1.00  0.00     0.202 C 
ATOM      3  C   UNL     1      13.858  24.345  51.089  1.00  0.00     0.179 C 
ATOM      4  C   UNL     1      13.591  25.850  51.268  1.00  0.00     0.177 C 
ATOM      5  C   UNL     1      14.877  26.710  51.123  1.00  0.00     0.178 C 
ATOM      6  O   UNL     1      15.988  26.201  51.856  1.00  0.00    -0.341 OA
ENDROOT
BRANCH   1   7
ATOM      7  O   UNL     1      16.766  24.697  50.248  1.00  0.00    -0.350 OA
BRANCH   7   8
ATOM      8  C   UNL     1      18.031  24.066  50.187  1.00  0.00     0.160 C 
ATOM      9  C   UNL     1      19.112  24.998  50.721  1.00  0.00     0.035 C 
ENDBRANCH   7   8
ENDBRANCH   1   7
BRANCH   2  10
ATOM     10  O   UNL     1      14.828  23.875  53.239  1.00  0.00    -0.385 OA
ATOM     11  H   UNL     1      15.446  23.213  53.650  1.00  0.00     0.211 HD
ENDBRANCH   2  10
BRANCH   3  12
ATOM     12  O   UNL     1      14.003  24.052  49.723  1.00  0.00    -0.387 OA
ATOM     13  H   UNL     1      13.118  23.742  49.395  1.00  0.00     0.211 HD
ENDBRANCH   3  12
BRANCH   5  14
ATOM     14  C   UNL     1      15.223  27.053  49.660  1.00  0.00     0.191 C 
BRANCH  14  15
ATOM     15  O   UNL     1      16.499  27.625  49.593  1.00  0.00    -0.394 OA
ATOM     16  H   UNL     1      16.752  27.628  48.634  1.00  0.00     0.210 HD
ENDBRANCH  14  15
ENDBRANCH   5  14
BRANCH   4  17
ATOM     17  O   UNL     1      12.956  26.093  52.500  1.00  0.00    -0.387 OA
ATOM     18  H   UNL     1      13.653  26.268  53.184  1.00  0.00     0.211 HD
ENDBRANCH   4  17
TORSDOF 7
ENDMDL
MODEL 3
REMARK VINA RESULT:    -4.643      1.463      2.837
REMARK INTER + INTRA:          -6.241
REMARK INTER:                  -5.792
REMARK INTRA:                  -0.449
REMARK UNBOUND:                -0.241
REMARK SMILES CCO[C@H]1O[C@@H](CO)[C@H](O)[C@@H](O)[C@@H]1O
REMARK SMILES IDX 4 1 13 2 11 3 9 4 6 5 5 6 3 7 2 8 1 9 14 10 12 12 7 14 8 15
REMARK SMILES IDX 10 17
REMARK H PARENT 14 11 12 13 8 16 10 18
REMARK Flexibility Score: inf
ROOT
ATOM      1  C   UNL     1      15.205  25.883  52.708  1.00  0.00     0.281 C 
ATOM      2  C   UNL     1      15.186  24.343  52.587  1.00  0.00     0.202 C 
ATOM      3  C   UNL     1      15.918  23.877  51.318  1.00  0.00     0.179 C 
ATOM      4  C   UNL     1      15.448  24.660  50.080  1.00  0.00     0.177 C 
ATOM      5  C   UNL     1      15.346  26.189  50.338  1.00  0.00     0.178 C 
ATOM      6  O   UNL     1      14.676  26.517  51.552  1.00  0.00    -0.341 OA
ENDROOT
BRANCH   1   7
ATOM      7  O   UNL     1      16.515  26.360  52.981  1.00  0.00    -0.350 OA
BRANCH   7   8
ATOM      8  C   UNL     1      16.800  26.374  54.367  1.00  0.00     0.160 C 
ATOM      9  C   UNL     1      15.776  27.226  55.109  1.00  0.00     0.035 C 
ENDBRANCH   7   8
ENDBRANCH   1   7
BRANCH   2  10
ATOM     10  O   UNL     1      13.862  23.876  52.567  1.00  0.00    -0.385 OA
ATOM     11  H   UNL     1      13.848  23.019  53.069  1.00  0.00     0.211 HD
ENDBRANCH   2  10
BRANCH   3  12
ATOM     12  O   UNL     1      17.306  24.031  51.474  1.00  0.00    -0.387 OA
ATOM     13  H   UNL     1      17.464  24.967  51.765  1.00  0.00     0.211 HD
ENDBRANCH   3  12
BRANCH   5  14
ATOM     14  C   UNL     1      16.687  26.930  50.167  1.00  0.00     0.191 C 
BRANCH  14  15
ATOM     15  O   UNL     1      16.544  28.269  50.551  1.00  0.00    -0.394 OA
ATOM     16  H   UNL     1      16.973  28.349  51.442  1.00  0.00     0.210 HD
ENDBRANCH  14  15
ENDBRANCH   5  14
BRANCH   4  17
ATOM     17  O   UNL     1      14.227  24.143  49.606  1.00  0.00    -0.387 OA
ATOM     18  H   UNL     1      14.369  23.199  49.339  1.00  0.00     0.211 HD
ENDBRANCH   4  17
TORSDOF 7
ENDMDL
MODEL 4
REMARK VINA RESULT:    -4.643      1.650      3.382
REMARK INTER + INTRA:          -6.241
REMARK INTER:                  -6.057
REMARK INTRA:                  -0.183
REMARK UNBOUND:                -0.241
REMARK SMILES CCO[C@H]1O[C@@H](CO)[C@H](O)[C@@H](O)[C@@H]1O
REMARK SMILES IDX 4 1 13 2 11 3 9 4 6 5 5 6 3 7 2 8 1 9 14 10 12 12 7 14 8 15
REMARK SMILES IDX 10 17
REMARK H PARENT 14 11 12 13 8 16 10 18
REMARK Flexibility Score: inf
ROOT
ATOM      1  C   UNL     1      15.961  26.483  51.134  1.00  0.00     0.281 C 
ATOM      2  C   UNL     1      16.592  25.074  51.068  1.00  0.00     0.202 C 
ATOM      3  C   UNL     1      15.529  23.979  51.256  1.00  0.00     0.179 C 
ATOM      4  C   UNL     1      14.638  24.267  52.478  1.00  0.00     0.177 C 
ATOM      5  C   UNL     1      14.174  25.748  52.548  1.00  0.00     0.178 C 
ATOM      6  O   UNL     1      15.227  26.685  52.334  1.00  0.00    -0.341 OA
ENDROOT
BRANCH   1   7
ATOM      7  O   UNL     1      15.139  26.729  50.001  1.00  0.00    -0.350 OA
BRANCH   7   8
ATOM      8  C   UNL     1      15.893  27.121  48.869  1.00  0.00     0.160 C 
ATOM      9  C   UNL     1      15.032  27.945  47.920  1.00  0.00     0.035 C 
ENDBRANCH   7   8
ENDBRANCH   1   7
BRANCH   2  10
ATOM     10  O   UNL     1      17.584  24.943  52.053  1.00  0.00    -0.385 OA
ATOM     11  H   UNL     1      17.936  25.854  52.234  1.00  0.00     0.211 HD
ENDBRANCH   2  10
BRANCH   3  12
ATOM     12  O   UNL     1      14.730  23.875  50.105  1.00  0.00    -0.387 OA
ATOM     13  H   UNL     1      15.324  23.582  49.364  1.00  0.00     0.211 HD
ENDBRANCH   3  12
BRANCH   5  14
ATOM     14  C   UNL     1      12.921  26.039  51.699  1.00  0.00     0.191 C 
BRANCH  14  15
ATOM     15  O   UNL     1      11.773  25.941  52.494  1.00  0.00    -0.394 OA
ATOM     16  H   UNL     1      11.456  26.870  52.639  1.00  0.00     0.210 HD
ENDBRANCH  14  15
ENDBRANCH   5  14
BRANCH   4  17
ATOM     17  O   UNL     1      15.292  23.883  53.664  1.00  0.00    -0.387 OA
ATOM     18  H   UNL     1      14.678  23.306  54.188  1.00  0.00     0.211 HD
ENDBRANCH   4  17
TORSDOF 7
ENDMDL
MODEL 5
REMARK VINA RESULT:    -4.579     10.431     12.256
REMARK INTER + INTRA:          -6.158
REMARK INTER:                  -5.955
REMARK INTRA:                  -0.204
REMARK UNBOUND:                -0.241
REMARK SMILES CCO[C@H]1O[C@@H](CO)[C@H](O)[C@@H](O)[C@@H]1O
REMARK SMILES IDX 4 1 13 2 11 3 9 4 6 5 5 6 3 7 2 8 1 9 14 10 12 12 7 14 8 15
REMARK SMILES IDX 10 17
REMARK H PARENT 14 11 12 13 8 16 10 18
REMARK Flexibility Score: inf
ROOT
ATOM      1  C   UNL     1      23.418  32.328  54.286  1.00  0.00     0.281 C 
ATOM      2  C   UNL     1      22.350  32.204  53.177  1.00  0.00     0.202 C 
ATOM      3  C   UNL     1      22.944  32.524  51.796  1.00  0.00     0.179 C 
ATOM      4  C   UNL     1      23.747  33.838  51.821  1.00  0.00     0.177 C 
ATOM      5  C   UNL     1      24.683  33.947  53.056  1.00  0.00     0.178 C 
ATOM      6  O   UNL     1      24.047  33.603  54.284  1.00  0.00    -0.341 OA
ENDROOT
BRANCH   1   7
ATOM      7  O   UNL     1      24.388  31.296  54.181  1.00  0.00    -0.350 OA
BRANCH   7   8
ATOM      8  C   UNL     1      23.909  30.061  54.680  1.00  0.00     0.160 C 
ATOM      9  C   UNL     1      24.662  29.676  55.948  1.00  0.00     0.035 C 
ENDBRANCH   7   8
ENDBRANCH   1   7
BRANCH   2  10
ATOM     10  O   UNL     1      21.276  33.070  53.441  1.00  0.00    -0.385 OA
ATOM     11  H   UNL     1      20.710  33.088  52.625  1.00  0.00     0.211 HD
ENDBRANCH   2  10
BRANCH   3  12
ATOM     12  O   UNL     1      23.773  31.474  51.368  1.00  0.00    -0.387 OA
ATOM     13  H   UNL     1      24.433  31.863  50.736  1.00  0.00     0.211 HD
ENDBRANCH   3  12
BRANCH   5  14
ATOM     14  C   UNL     1      26.041  33.244  52.859  1.00  0.00     0.191 C 
BRANCH  14  15
ATOM     15  O   UNL     1      27.077  34.079  53.295  1.00  0.00    -0.394 OA
ATOM     16  H   UNL     1      27.776  34.042  52.593  1.00  0.00     0.210 HD
ENDBRANCH  14  15
ENDBRANCH   5  14
BRANCH   4  17
ATOM     17  O   UNL     1      22.880  34.944  51.742  1.00  0.00    -0.387 OA
ATOM     18  H   UNL     1      21.966  34.614  51.544  1.00  0.00     0.211 HD
ENDBRANCH   4  17
TORSDOF 7
ENDMDL
MODEL 6
REMARK VINA RESULT:    -4.577      1.837      4.335
REMARK INTER + INTRA:          -6.156
REMARK INTER:                  -5.748
REMARK INTRA:                  -0.408
REMARK UNBOUND:                -0.241
REMARK SMILES CCO[C@H]1O[C@@H](CO)[C@H](O)[C@@H](O)[C@@H]1O
REMARK SMILES IDX 4 1 13 2 11 3 9 4 6 5 5 6 3 7 2 8 1 9 14 10 12 12 7 14 8 15
REMARK SMILES IDX 10 17
REMARK H PARENT 14 11 12 13 8 16 10 18
REMARK Flexibility Score: inf
ROOT
ATOM      1  C   UNL     1      14.559  26.721  51.544  1.00  0.00     0.281 C 
ATOM      2  C   UNL     1      15.172  28.139  51.563  1.00  0.00     0.202 C 
ATOM      3  C   UNL     1      16.356  28.220  52.541  1.00  0.00     0.179 C 
ATOM      4  C   UNL     1      15.993  27.619  53.911  1.00  0.00     0.177 C 
ATOM      5  C   UNL     1      15.240  26.265  53.794  1.00  0.00     0.178 C 
ATOM      6  O   UNL     1      14.179  26.285  52.842  1.00  0.00    -0.341 OA
ENDROOT
BRANCH   1   7
ATOM      7  O   UNL     1      15.447  25.787  50.946  1.00  0.00    -0.350 OA
BRANCH   7   8
ATOM      8  C   UNL     1      14.780  24.912  50.055  1.00  0.00     0.160 C 
ATOM      9  C   UNL     1      14.211  25.694  48.876  1.00  0.00     0.035 C 
ENDBRANCH   7   8
ENDBRANCH   1   7
BRANCH   2  10
ATOM     10  O   UNL     1      14.196  29.082  51.924  1.00  0.00    -0.385 OA
ATOM     11  H   UNL     1      13.660  28.680  52.658  1.00  0.00     0.211 HD
ENDBRANCH   2  10
BRANCH   3  12
ATOM     12  O   UNL     1      17.469  27.547  52.012  1.00  0.00    -0.387 OA
ATOM     13  H   UNL     1      18.279  27.985  52.386  1.00  0.00     0.211 HD
ENDBRANCH   3  12
BRANCH   5  14
ATOM     14  C   UNL     1      16.179  25.054  53.629  1.00  0.00     0.191 C 
BRANCH  14  15
ATOM     15  O   UNL     1      15.426  23.875  53.547  1.00  0.00    -0.394 OA
ATOM     16  H   UNL     1      15.809  23.255  54.219  1.00  0.00     0.210 HD
ENDBRANCH  14  15
ENDBRANCH   5  14
BRANCH   4  17
ATOM     17  O   UNL     1      15.256  28.545  54.674  1.00  0.00    -0.387 OA
ATOM     18  H   UNL     1      14.922  28.086  55.487  1.00  0.00     0.211 HD
ENDBRANCH   4  17
TORSDOF 7
ENDMDL
MODEL 7
REMARK VINA RESULT:    -4.565      1.822      3.654
REMARK INTER + INTRA:          -6.140
REMARK INTER:                  -5.694
REMARK INTRA:                  -0.446
REMARK UNBOUND:                -0.241
REMARK SMILES CCO[C@H]1O[C@@H](CO)[C@H](O)[C@@H](O)[C@@H]1O
REMARK SMILES IDX 4 1 13 2 11 3 9 4 6 5 5 6 3 7 2 8 1 9 14 10 12 12 7 14 8 15
REMARK SMILES IDX 10 17
REMARK H PARENT 14 11 12 13 8 16 10 18
REMARK Flexibility Score: inf
ROOT
ATOM      1  C   UNL     1      15.441  26.334  50.443  1.00  0.00     0.281 C 
ATOM      2  C   UNL     1      14.434  25.182  50.656  1.00  0.00     0.202 C 
ATOM      3  C   UNL     1      13.977  25.107  52.122  1.00  0.00     0.179 C 
ATOM      4  C   UNL     1      15.178  25.145  53.085  1.00  0.00     0.177 C 
ATOM      5  C   UNL     1      16.220  26.233  52.705  1.00  0.00     0.178 C 
ATOM      6  O   UNL     1      16.555  26.240  51.320  1.00  0.00    -0.341 OA
ENDROOT
BRANCH   1   7
ATOM      7  O   UNL     1      14.809  27.599  50.578  1.00  0.00    -0.350 OA
BRANCH   7   8
ATOM      8  C   UNL     1      15.350  28.563  49.694  1.00  0.00     0.160 C 
ATOM      9  C   UNL     1      15.032  29.970  50.188  1.00  0.00     0.035 C 
ENDBRANCH   7   8
ENDBRANCH   1   7
BRANCH   2  10
ATOM     10  O   UNL     1      15.011  23.959  50.278  1.00  0.00    -0.385 OA
ATOM     11  H   UNL     1      14.773  23.807  49.325  1.00  0.00     0.211 HD
ENDBRANCH   2  10
BRANCH   3  12
ATOM     12  O   UNL     1      13.105  26.168  52.415  1.00  0.00    -0.387 OA
ATOM     13  H   UNL     1      12.289  25.771  52.819  1.00  0.00     0.211 HD
ENDBRANCH   3  12
BRANCH   5  14
ATOM     14  C   UNL     1      15.871  27.632  53.250  1.00  0.00     0.191 C 
BRANCH  14  15
ATOM     15  O   UNL     1      15.016  27.515  54.353  1.00  0.00    -0.394 OA
ATOM     16  H   UNL     1      15.584  27.639  55.158  1.00  0.00     0.210 HD
ENDBRANCH  14  15
ENDBRANCH   5  14
BRANCH   4  17
ATOM     17  O   UNL     1      15.779  23.875  53.172  1.00  0.00    -0.387 OA
ATOM     18  H   UNL     1      15.532  23.356  52.364  1.00  0.00     0.211 HD
ENDBRANCH   4  17
TORSDOF 7
ENDMDL
MODEL 8
REMARK VINA RESULT:    -4.532      1.538      2.901
REMARK INTER + INTRA:          -6.097
REMARK INTER:                  -5.687
REMARK INTRA:                  -0.411
REMARK UNBOUND:                -0.241
REMARK SMILES CCO[C@H]1O[C@@H](CO)[C@H](O)[C@@H](O)[C@@H]1O
REMARK SMILES IDX 4 1 13 2 11 3 9 4 6 5 5 6 3 7 2 8 1 9 14 10 12 12 7 14 8 15
REMARK SMILES IDX 10 17
REMARK H PARENT 14 11 12 13 8 16 10 18
REMARK Flexibility Score: inf
ROOT
ATOM      1  C   UNL     1      15.865  27.554  51.983  1.00  0.00     0.281 C 
ATOM      2  C   UNL     1      14.585  27.436  51.125  1.00  0.00     0.202 C 
ATOM      3  C   UNL     1      13.888  26.085  51.351  1.00  0.00     0.179 C 
ATOM      4  C   UNL     1      14.884  24.916  51.248  1.00  0.00     0.177 C 
ATOM      5  C   UNL     1      16.209  25.185  52.013  1.00  0.00     0.178 C 
ATOM      6  O   UNL     1      16.761  26.474  51.759  1.00  0.00    -0.341 OA
ENDROOT
BRANCH   1   7
ATOM      7  O   UNL     1      15.549  27.659  53.363  1.00  0.00    -0.350 OA
BRANCH   7   8
ATOM      8  C   UNL     1      16.227  28.734  53.986  1.00  0.00     0.160 C 
ATOM      9  C   UNL     1      15.846  28.816  55.460  1.00  0.00     0.035 C 
ENDBRANCH   7   8
ENDBRANCH   1   7
BRANCH   2  10
ATOM     10  O   UNL     1      14.900  27.583  49.764  1.00  0.00    -0.385 OA
ATOM     11  H   UNL     1      14.194  27.110  49.250  1.00  0.00     0.211 HD
ENDBRANCH   2  10
BRANCH   3  12
ATOM     12  O   UNL     1      13.266  26.064  52.610  1.00  0.00    -0.387 OA
ATOM     13  H   UNL     1      13.660  26.804  53.142  1.00  0.00     0.211 HD
ENDBRANCH   3  12
BRANCH   5  14
ATOM     14  C   UNL     1      16.129  24.846  53.515  1.00  0.00     0.191 C 
BRANCH  14  15
ATOM     15  O   UNL     1      15.143  23.875  53.732  1.00  0.00    -0.394 OA
ATOM     16  H   UNL     1      14.686  23.745  52.862  1.00  0.00     0.210 HD
ENDBRANCH  14  15
ENDBRANCH   5  14
BRANCH   4  17
ATOM     17  O   UNL     1      15.132  24.600  49.899  1.00  0.00    -0.387 OA
ATOM     18  H   UNL     1      14.591  23.804  49.658  1.00  0.00     0.211 HD
ENDBRANCH   4  17
TORSDOF 7
ENDMDL
