MODEL 1
REMARK VINA RESULT:    -7.265      0.000      0.000
REMARK INTER + INTRA:          -9.335
REMARK INTER:                  -8.963
REMARK INTRA:                  -0.371
REMARK UNBOUND:                -0.371
REMARK SMILES Oc1cc(O)c2cc(O)c(-c3cc(O)c(O)c(O)c3)[o+]c2c1.[Cl-]
REMARK SMILES IDX 10 1 20 2 21 3 22 4 2 5 3 6 4 7 6 8 7 9 8 10 11 11 12 12
REMARK SMILES IDX 13 13 19 14 15 15 17 16 14 17 16 19 18 21 9 23 1 25 5 27
REMARK H PARENT 14 18 16 20 18 22 9 24 1 26 5 28
REMARK Flexibility Score: inf
ROOT
ATOM      1  C   UNL     1       3.782  -0.158 -23.629  1.00  0.00     0.402 A 
ATOM      2  O   UNL     1       2.478  -0.413 -23.715  1.00  0.00    -0.202 OA
ATOM      3  C   UNL     1       1.960  -1.626 -23.549  1.00  0.00     0.368 A 
ATOM      4  C   UNL     1       0.579  -1.810 -23.660  1.00  0.00     0.162 A 
ATOM      5  C   UNL     1       0.022  -3.084 -23.492  1.00  0.00     0.128 A 
ATOM      6  C   UNL     1       0.851  -4.176 -23.210  1.00  0.00     0.093 A 
ATOM      7  C   UNL     1       2.238  -4.006 -23.094  1.00  0.00     0.136 A 
ATOM      8  C   UNL     1       2.798  -2.726 -23.264  1.00  0.00     0.125 A 
ATOM      9  C   UNL     1       4.174  -2.496 -23.152  1.00  0.00     0.078 A 
ATOM     10  C   UNL     1       4.678  -1.202 -23.324  1.00  0.00     0.223 A 
ENDROOT
BRANCH   1  11
ATOM     11  C   UNL     1       4.240   1.234 -23.842  1.00  0.00     0.091 A 
ATOM     12  C   UNL     1       4.397   2.085 -22.737  1.00  0.00     0.068 A 
ATOM     13  C   UNL     1       4.808   3.411 -22.910  1.00  0.00     0.162 A 
ATOM     14  C   UNL     1       4.468   1.741 -25.133  1.00  0.00     0.068 A 
ATOM     15  C   UNL     1       5.056   3.907 -24.200  1.00  0.00     0.200 A 
ATOM     16  C   UNL     1       4.879   3.069 -25.315  1.00  0.00     0.162 A 
BRANCH  13  17
ATOM     17  O   UNL     1       4.967   4.220 -21.785  1.00  0.00    -0.504 OA
ATOM     18  H   UNL     1       4.268   4.271 -21.055  1.00  0.00     0.293 HD
ENDBRANCH  13  17
BRANCH  15  19
ATOM     19  O   UNL     1       5.469   5.229 -24.364  1.00  0.00    -0.502 OA
ATOM     20  H   UNL     1       5.164   5.971 -23.745  1.00  0.00     0.293 HD
ENDBRANCH  15  19
BRANCH  16  21
ATOM     21  O   UNL     1       5.108   3.559 -26.600  1.00  0.00    -0.504 OA
ATOM     22  H   UNL     1       5.413   4.513 -26.758  1.00  0.00     0.293 HD
ENDBRANCH  16  21
ENDBRANCH   1  11
BRANCH  10  23
ATOM     23  O   UNL     1       6.042  -0.957 -23.164  1.00  0.00    -0.500 OA
ATOM     24  H   UNL     1       6.735  -1.680 -23.323  1.00  0.00     0.294 HD
ENDBRANCH  10  23
BRANCH   5  25
ATOM     25  O   UNL     1      -1.353  -3.277 -23.601  1.00  0.00    -0.507 OA
ATOM     26  H   UNL     1      -1.782  -3.549 -24.477  1.00  0.00     0.293 HD
ENDBRANCH   5  25
BRANCH   7  27
ATOM     27  O   UNL     1       3.053  -5.102 -22.812  1.00  0.00    -0.507 OA
ATOM     28  H   UNL     1       2.933  -5.651 -21.968  1.00  0.00     0.293 HD
ENDBRANCH   7  27
TORSDOF 7
ENDMDL
MODEL 2
REMARK VINA RESULT:    -7.083      2.012      7.084
REMARK INTER + INTRA:          -9.111
REMARK INTER:                  -8.730
REMARK INTRA:                  -0.381
REMARK UNBOUND:                -0.371
REMARK SMILES Oc1cc(O)c2cc(O)c(-c3cc(O)c(O)c(O)c3)[o+]c2c1.[Cl-]
REMARK SMILES IDX 10 1 20 2 21 3 22 4 2 5 3 6 4 7 6 8 7 9 8 10 11 11 12 12
REMARK SMILES IDX 13 13 19 14 15 15 17 16 14 17 16 19 18 21 9 23 1 25 5 27
REMARK H PARENT 14 18 16 20 18 22 9 24 1 26 5 28
REMARK Flexibility Score: inf
ROOT
ATOM      1  C   UNL     1       4.435   0.935 -23.520  1.00  0.00     0.402 A 
ATOM      2  O   UNL     1       3.757   1.619 -24.440  1.00  0.00    -0.202 OA
ATOM      3  C   UNL     1       3.917   2.923 -24.642  1.00  0.00     0.368 A 
ATOM      4  C   UNL     1       3.162   3.568 -25.625  1.00  0.00     0.162 A 
ATOM      5  C   UNL     1       3.318   4.943 -25.845  1.00  0.00     0.128 A 
ATOM      6  C   UNL     1       4.234   5.672 -25.078  1.00  0.00     0.093 A 
ATOM      7  C   UNL     1       4.999   5.038 -24.089  1.00  0.00     0.136 A 
ATOM      8  C   UNL     1       4.842   3.657 -23.867  1.00  0.00     0.125 A 
ATOM      9  C   UNL     1       5.583   2.970 -22.900  1.00  0.00     0.078 A 
ATOM     10  C   UNL     1       5.393   1.596 -22.724  1.00  0.00     0.223 A 
ENDROOT
BRANCH   1  11
ATOM     11  C   UNL     1       4.163  -0.514 -23.382  1.00  0.00     0.091 A 
ATOM     12  C   UNL     1       4.758  -1.415 -24.279  1.00  0.00     0.068 A 
ATOM     13  C   UNL     1       4.504  -2.788 -24.186  1.00  0.00     0.162 A 
ATOM     14  C   UNL     1       3.277  -1.004 -22.408  1.00  0.00     0.068 A 
ATOM     15  C   UNL     1       3.634  -3.275 -23.197  1.00  0.00     0.200 A 
ATOM     16  C   UNL     1       3.016  -2.378 -22.309  1.00  0.00     0.162 A 
BRANCH  13  17
ATOM     17  O   UNL     1       5.127  -3.652 -25.086  1.00  0.00    -0.504 OA
ATOM     18  H   UNL     1       4.602  -4.220 -25.739  1.00  0.00     0.293 HD
ENDBRANCH  13  17
BRANCH  15  19
ATOM     19  O   UNL     1       3.388  -4.646 -23.109  1.00  0.00    -0.502 OA
ATOM     20  H   UNL     1       2.656  -5.098 -23.642  1.00  0.00     0.293 HD
ENDBRANCH  15  19
BRANCH  16  21
ATOM     21  O   UNL     1       2.139  -2.853 -21.334  1.00  0.00    -0.504 OA
ATOM     22  H   UNL     1       1.521  -2.231 -20.826  1.00  0.00     0.293 HD
ENDBRANCH  16  21
ENDBRANCH   1  11
BRANCH  10  23
ATOM     23  O   UNL     1       6.165   0.896 -21.797  1.00  0.00    -0.500 OA
ATOM     24  H   UNL     1       6.979   1.313 -21.361  1.00  0.00     0.294 HD
ENDBRANCH  10  23
BRANCH   5  25
ATOM     25  O   UNL     1       2.570   5.594 -26.823  1.00  0.00    -0.507 OA
ATOM     26  H   UNL     1       2.912   6.431 -27.282  1.00  0.00     0.293 HD
ENDBRANCH   5  25
BRANCH   7  27
ATOM     27  O   UNL     1       5.909   5.776 -23.332  1.00  0.00    -0.507 OA
ATOM     28  H   UNL     1       6.354   5.388 -22.509  1.00  0.00     0.293 HD
ENDBRANCH   7  27
TORSDOF 7
ENDMDL
MODEL 3
REMARK VINA RESULT:    -6.797      2.084      7.260
REMARK INTER + INTRA:          -8.758
REMARK INTER:                  -8.406
REMARK INTRA:                  -0.353
REMARK UNBOUND:                -0.371
REMARK SMILES Oc1cc(O)c2cc(O)c(-c3cc(O)c(O)c(O)c3)[o+]c2c1.[Cl-]
REMARK SMILES IDX 10 1 20 2 21 3 22 4 2 5 3 6 4 7 6 8 7 9 8 10 11 11 12 12
REMARK SMILES IDX 13 13 19 14 15 15 17 16 14 17 16 19 18 21 9 23 1 25 5 27
REMARK H PARENT 14 18 16 20 18 22 9 24 1 26 5 28
REMARK Flexibility Score: inf
ROOT
ATOM      1  C   UNL     1       3.799   1.008 -24.359  1.00  0.00     0.402 A 
ATOM      2  O   UNL     1       4.490   1.822 -23.562  1.00  0.00    -0.202 OA
ATOM      3  C   UNL     1       4.598   3.130 -23.775  1.00  0.00     0.368 A 
ATOM      4  C   UNL     1       5.346   3.914 -22.892  1.00  0.00     0.162 A 
ATOM      5  C   UNL     1       5.472   5.292 -23.108  1.00  0.00     0.128 A 
ATOM      6  C   UNL     1       4.845   5.886 -24.209  1.00  0.00     0.093 A 
ATOM      7  C   UNL     1       4.090   5.112 -25.103  1.00  0.00     0.136 A 
ATOM      8  C   UNL     1       3.965   3.726 -24.887  1.00  0.00     0.125 A 
ATOM      9  C   UNL     1       3.218   2.906 -25.739  1.00  0.00     0.078 A 
ATOM     10  C   UNL     1       3.120   1.536 -25.476  1.00  0.00     0.223 A 
ENDROOT
BRANCH   1  11
ATOM     11  C   UNL     1       3.758  -0.434 -24.023  1.00  0.00     0.091 A 
ATOM     12  C   UNL     1       2.974  -0.868 -22.943  1.00  0.00     0.068 A 
ATOM     13  C   UNL     1       2.932  -2.221 -22.590  1.00  0.00     0.162 A 
ATOM     14  C   UNL     1       4.532  -1.372 -24.727  1.00  0.00     0.068 A 
ATOM     15  C   UNL     1       3.691  -3.158 -23.310  1.00  0.00     0.200 A 
ATOM     16  C   UNL     1       4.497  -2.729 -24.378  1.00  0.00     0.162 A 
BRANCH  13  17
ATOM     17  O   UNL     1       2.128  -2.614 -21.520  1.00  0.00    -0.504 OA
ATOM     18  H   UNL     1       2.511  -2.826 -20.608  1.00  0.00     0.293 HD
ENDBRANCH  13  17
BRANCH  15  19
ATOM     19  O   UNL     1       3.641  -4.506 -22.953  1.00  0.00    -0.502 OA
ATOM     20  H   UNL     1       3.109  -5.186 -23.484  1.00  0.00     0.293 HD
ENDBRANCH  15  19
BRANCH  16  21
ATOM     21  O   UNL     1       5.265  -3.652 -25.087  1.00  0.00    -0.504 OA
ATOM     22  H   UNL     1       5.377  -4.608 -24.767  1.00  0.00     0.293 HD
ENDBRANCH  16  21
ENDBRANCH   1  11
BRANCH  10  23
ATOM     23  O   UNL     1       2.337   0.722 -26.293  1.00  0.00    -0.500 OA
ATOM     24  H   UNL     1       2.191  -0.259 -26.084  1.00  0.00     0.294 HD
ENDBRANCH  10  23
BRANCH   5  25
ATOM     25  O   UNL     1       6.215   6.082 -22.233  1.00  0.00    -0.507 OA
ATOM     26  H   UNL     1       5.832   6.401 -21.352  1.00  0.00     0.293 HD
ENDBRANCH   5  25
BRANCH   7  27
ATOM     27  O   UNL     1       3.470   5.716 -26.196  1.00  0.00    -0.507 OA
ATOM     28  H   UNL     1       2.549   5.432 -26.509  1.00  0.00     0.293 HD
ENDBRANCH   7  27
TORSDOF 7
ENDMDL
MODEL 4
REMARK VINA RESULT:    -6.782      2.071      7.430
REMARK INTER + INTRA:          -8.740
REMARK INTER:                  -8.439
REMARK INTRA:                  -0.301
REMARK UNBOUND:                -0.371
REMARK SMILES Oc1cc(O)c2cc(O)c(-c3cc(O)c(O)c(O)c3)[o+]c2c1.[Cl-]
REMARK SMILES IDX 10 1 20 2 21 3 22 4 2 5 3 6 4 7 6 8 7 9 8 10 11 11 12 12
REMARK SMILES IDX 13 13 19 14 15 15 17 16 14 17 16 19 18 21 9 23 1 25 5 27
REMARK H PARENT 14 18 16 20 18 22 9 24 1 26 5 28
REMARK Flexibility Score: inf
ROOT
ATOM      1  C   UNL     1       3.845   0.999 -24.250  1.00  0.00     0.402 A 
ATOM      2  O   UNL     1       4.502   1.832 -23.446  1.00  0.00    -0.202 OA
ATOM      3  C   UNL     1       4.622   3.134 -23.687  1.00  0.00     0.368 A 
ATOM      4  C   UNL     1       5.334   3.940 -22.794  1.00  0.00     0.162 A 
ATOM      5  C   UNL     1       5.472   5.312 -23.040  1.00  0.00     0.128 A 
ATOM      6  C   UNL     1       4.893   5.878 -24.181  1.00  0.00     0.093 A 
ATOM      7  C   UNL     1       4.175   5.082 -25.086  1.00  0.00     0.136 A 
ATOM      8  C   UNL     1       4.038   3.702 -24.840  1.00  0.00     0.125 A 
ATOM      9  C   UNL     1       3.326   2.861 -25.702  1.00  0.00     0.078 A 
ATOM     10  C   UNL     1       3.214   1.499 -25.408  1.00  0.00     0.223 A 
ENDROOT
BRANCH   1  11
ATOM     11  C   UNL     1       3.786  -0.433 -23.879  1.00  0.00     0.091 A 
ATOM     12  C   UNL     1       4.513  -1.370 -24.631  1.00  0.00     0.068 A 
ATOM     13  C   UNL     1       4.461  -2.732 -24.317  1.00  0.00     0.162 A 
ATOM     14  C   UNL     1       2.974  -0.885 -22.826  1.00  0.00     0.068 A 
ATOM     15  C   UNL     1       3.664  -3.177 -23.249  1.00  0.00     0.200 A 
ATOM     16  C   UNL     1       2.915  -2.249 -22.506  1.00  0.00     0.162 A 
BRANCH  13  17
ATOM     17  O   UNL     1       5.210  -3.629 -25.078  1.00  0.00    -0.504 OA
ATOM     18  H   UNL     1       4.944  -3.892 -26.018  1.00  0.00     0.293 HD
ENDBRANCH  13  17
BRANCH  15  19
ATOM     19  O   UNL     1       3.620  -4.537 -22.941  1.00  0.00    -0.502 OA
ATOM     20  H   UNL     1       4.312  -4.978 -22.347  1.00  0.00     0.293 HD
ENDBRANCH  15  19
BRANCH  16  21
ATOM     21  O   UNL     1       2.109  -2.685 -21.454  1.00  0.00    -0.504 OA
ATOM     22  H   UNL     1       2.345  -3.508 -20.910  1.00  0.00     0.293 HD
ENDBRANCH  16  21
ENDBRANCH   1  11
BRANCH  10  23
ATOM     23  O   UNL     1       2.464   0.664 -26.236  1.00  0.00    -0.500 OA
ATOM     24  H   UNL     1       1.941  -0.121 -25.867  1.00  0.00     0.294 HD
ENDBRANCH  10  23
BRANCH   5  25
ATOM     25  O   UNL     1       6.179   6.124 -22.155  1.00  0.00    -0.507 OA
ATOM     26  H   UNL     1       6.610   5.746 -21.320  1.00  0.00     0.293 HD
ENDBRANCH   5  25
BRANCH   7  27
ATOM     27  O   UNL     1       3.603   5.658 -26.220  1.00  0.00    -0.507 OA
ATOM     28  H   UNL     1       3.784   6.622 -26.474  1.00  0.00     0.293 HD
ENDBRANCH   7  27
TORSDOF 7
ENDMDL
MODEL 5
REMARK VINA RESULT:    -6.717      1.147      7.219
REMARK INTER + INTRA:          -8.660
REMARK INTER:                  -8.301
REMARK INTRA:                  -0.359
REMARK UNBOUND:                -0.371
REMARK SMILES Oc1cc(O)c2cc(O)c(-c3cc(O)c(O)c(O)c3)[o+]c2c1.[Cl-]
REMARK SMILES IDX 10 1 20 2 21 3 22 4 2 5 3 6 4 7 6 8 7 9 8 10 11 11 12 12
REMARK SMILES IDX 13 13 19 14 15 15 17 16 14 17 16 19 18 21 9 23 1 25 5 27
REMARK H PARENT 14 18 16 20 18 22 9 24 1 26 5 28
REMARK Flexibility Score: inf
ROOT
ATOM      1  C   UNL     1       3.006  -0.281 -24.418  1.00  0.00     0.402 A 
ATOM      2  O   UNL     1       3.395   0.545 -23.449  1.00  0.00    -0.202 OA
ATOM      3  C   UNL     1       3.991   1.711 -23.681  1.00  0.00     0.368 A 
ATOM      4  C   UNL     1       4.372   2.519 -22.606  1.00  0.00     0.162 A 
ATOM      5  C   UNL     1       5.005   3.747 -22.837  1.00  0.00     0.128 A 
ATOM      6  C   UNL     1       5.254   4.167 -24.149  1.00  0.00     0.093 A 
ATOM      7  C   UNL     1       4.876   3.367 -25.238  1.00  0.00     0.136 A 
ATOM      8  C   UNL     1       4.241   2.132 -25.005  1.00  0.00     0.125 A 
ATOM      9  C   UNL     1       3.834   1.298 -26.051  1.00  0.00     0.078 A 
ATOM     10  C   UNL     1       3.201   0.083 -25.766  1.00  0.00     0.223 A 
ENDROOT
BRANCH   1  11
ATOM     11  C   UNL     1       2.360  -1.557 -24.034  1.00  0.00     0.091 A 
ATOM     12  C   UNL     1       0.959  -1.640 -24.009  1.00  0.00     0.068 A 
ATOM     13  C   UNL     1       0.320  -2.826 -23.631  1.00  0.00     0.162 A 
ATOM     14  C   UNL     1       3.118  -2.673 -23.640  1.00  0.00     0.068 A 
ATOM     15  C   UNL     1       1.082  -3.945 -23.258  1.00  0.00     0.200 A 
ATOM     16  C   UNL     1       2.485  -3.864 -23.258  1.00  0.00     0.162 A 
BRANCH  13  17
ATOM     17  O   UNL     1      -1.074  -2.872 -23.634  1.00  0.00    -0.504 OA
ATOM     18  H   UNL     1      -1.636  -2.224 -23.097  1.00  0.00     0.293 HD
ENDBRANCH  13  17
BRANCH  15  19
ATOM     19  O   UNL     1       0.438  -5.125 -22.885  1.00  0.00    -0.502 OA
ATOM     20  H   UNL     1      -0.571  -5.194 -22.827  1.00  0.00     0.293 HD
ENDBRANCH  15  19
BRANCH  16  21
ATOM     21  O   UNL     1       3.248  -4.967 -22.874  1.00  0.00    -0.504 OA
ATOM     22  H   UNL     1       3.679  -5.579 -23.558  1.00  0.00     0.293 HD
ENDBRANCH  16  21
ENDBRANCH   1  11
BRANCH  10  23
ATOM     23  O   UNL     1       2.748  -0.730 -26.804  1.00  0.00    -0.500 OA
ATOM     24  H   UNL     1       2.137  -0.374 -27.530  1.00  0.00     0.294 HD
ENDBRANCH  10  23
BRANCH   5  25
ATOM     25  O   UNL     1       5.389   4.559 -21.773  1.00  0.00    -0.507 OA
ATOM     26  H   UNL     1       6.214   4.354 -21.221  1.00  0.00     0.293 HD
ENDBRANCH   5  25
BRANCH   7  27
ATOM     27  O   UNL     1       5.129   3.798 -26.540  1.00  0.00    -0.507 OA
ATOM     28  H   UNL     1       4.609   4.560 -26.958  1.00  0.00     0.293 HD
ENDBRANCH   7  27
TORSDOF 7
ENDMDL
MODEL 6
REMARK VINA RESULT:    -6.620      1.990      2.865
REMARK INTER + INTRA:          -8.539
REMARK INTER:                  -8.186
REMARK INTRA:                  -0.353
REMARK UNBOUND:                -0.371
REMARK SMILES Oc1cc(O)c2cc(O)c(-c3cc(O)c(O)c(O)c3)[o+]c2c1.[Cl-]
REMARK SMILES IDX 10 1 20 2 21 3 22 4 2 5 3 6 4 7 6 8 7 9 8 10 11 11 12 12
REMARK SMILES IDX 13 13 19 14 15 15 17 16 14 17 16 19 18 21 9 23 1 25 5 27
REMARK H PARENT 14 18 16 20 18 22 9 24 1 26 5 28
REMARK Flexibility Score: inf
ROOT
ATOM      1  C   UNL     1       4.317   1.312 -24.067  1.00  0.00     0.402 A 
ATOM      2  O   UNL     1       3.634   0.656 -23.130  1.00  0.00    -0.202 OA
ATOM      3  C   UNL     1       3.509  -0.667 -23.113  1.00  0.00     0.368 A 
ATOM      4  C   UNL     1       2.770  -1.278 -22.096  1.00  0.00     0.162 A 
ATOM      5  C   UNL     1       2.627  -2.672 -22.068  1.00  0.00     0.128 A 
ATOM      6  C   UNL     1       3.227  -3.453 -23.061  1.00  0.00     0.093 A 
ATOM      7  C   UNL     1       3.973  -2.854 -24.087  1.00  0.00     0.136 A 
ATOM      8  C   UNL     1       4.115  -1.454 -24.115  1.00  0.00     0.125 A 
ATOM      9  C   UNL     1       4.854  -0.802 -25.109  1.00  0.00     0.078 A 
ATOM     10  C   UNL     1       4.970   0.591 -25.087  1.00  0.00     0.223 A 
ENDROOT
BRANCH   1  11
ATOM     11  C   UNL     1       4.378   2.789 -23.985  1.00  0.00     0.091 A 
ATOM     12  C   UNL     1       3.556   3.560 -24.821  1.00  0.00     0.068 A 
ATOM     13  C   UNL     1       3.607   4.958 -24.781  1.00  0.00     0.162 A 
ATOM     14  C   UNL     1       5.283   3.439 -23.128  1.00  0.00     0.068 A 
ATOM     15  C   UNL     1       4.498   5.603 -23.907  1.00  0.00     0.200 A 
ATOM     16  C   UNL     1       5.341   4.839 -23.083  1.00  0.00     0.162 A 
BRANCH  13  17
ATOM     17  O   UNL     1       2.762   5.688 -25.617  1.00  0.00    -0.504 OA
ATOM     18  H   UNL     1       2.561   5.399 -26.566  1.00  0.00     0.293 HD
ENDBRANCH  13  17
BRANCH  15  19
ATOM     19  O   UNL     1       4.540   6.997 -23.871  1.00  0.00    -0.502 OA
ATOM     20  H   UNL     1       5.405   7.514 -23.971  1.00  0.00     0.293 HD
ENDBRANCH  15  19
BRANCH  16  21
ATOM     21  O   UNL     1       6.239   5.473 -22.224  1.00  0.00    -0.504 OA
ATOM     22  H   UNL     1       5.965   5.769 -21.294  1.00  0.00     0.293 HD
ENDBRANCH  16  21
ENDBRANCH   1  11
BRANCH  10  23
ATOM     23  O   UNL     1       5.746   1.243 -26.046  1.00  0.00    -0.500 OA
ATOM     24  H   UNL     1       6.714   1.486 -25.870  1.00  0.00     0.294 HD
ENDBRANCH  10  23
BRANCH   5  25
ATOM     25  O   UNL     1       1.893  -3.289 -21.059  1.00  0.00    -0.507 OA
ATOM     26  H   UNL     1       1.092  -3.874 -21.268  1.00  0.00     0.293 HD
ENDBRANCH   5  25
BRANCH   7  27
ATOM     27  O   UNL     1       4.566  -3.645 -25.071  1.00  0.00    -0.507 OA
ATOM     28  H   UNL     1       5.541  -3.915 -25.019  1.00  0.00     0.293 HD
ENDBRANCH   7  27
TORSDOF 7
ENDMDL
MODEL 7
REMARK VINA RESULT:    -6.589      1.994      2.455
REMARK INTER + INTRA:          -8.502
REMARK INTER:                  -8.122
REMARK INTRA:                  -0.380
REMARK UNBOUND:                -0.371
REMARK SMILES Oc1cc(O)c2cc(O)c(-c3cc(O)c(O)c(O)c3)[o+]c2c1.[Cl-]
REMARK SMILES IDX 10 1 20 2 21 3 22 4 2 5 3 6 4 7 6 8 7 9 8 10 11 11 12 12
REMARK SMILES IDX 13 13 19 14 15 15 17 16 14 17 16 19 18 21 9 23 1 25 5 27
REMARK H PARENT 14 18 16 20 18 22 9 24 1 26 5 28
REMARK Flexibility Score: inf
ROOT
ATOM      1  C   UNL     1       4.304   1.303 -24.106  1.00  0.00     0.402 A 
ATOM      2  O   UNL     1       3.613   0.673 -23.157  1.00  0.00    -0.202 OA
ATOM      3  C   UNL     1       3.485  -0.649 -23.106  1.00  0.00     0.368 A 
ATOM      4  C   UNL     1       2.738  -1.232 -22.079  1.00  0.00     0.162 A 
ATOM      5  C   UNL     1       2.591  -2.624 -22.016  1.00  0.00     0.128 A 
ATOM      6  C   UNL     1       3.196  -3.433 -22.985  1.00  0.00     0.093 A 
ATOM      7  C   UNL     1       3.950  -2.862 -24.021  1.00  0.00     0.136 A 
ATOM      8  C   UNL     1       4.096  -1.463 -24.084  1.00  0.00     0.125 A 
ATOM      9  C   UNL     1       4.843  -0.839 -25.089  1.00  0.00     0.078 A 
ATOM     10  C   UNL     1       4.962   0.555 -25.103  1.00  0.00     0.223 A 
ENDROOT
BRANCH   1  11
ATOM     11  C   UNL     1       4.368   2.782 -24.062  1.00  0.00     0.091 A 
ATOM     12  C   UNL     1       5.264   3.407 -23.181  1.00  0.00     0.068 A 
ATOM     13  C   UNL     1       5.332   4.802 -23.103  1.00  0.00     0.162 A 
ATOM     14  C   UNL     1       3.511   3.576 -24.843  1.00  0.00     0.068 A 
ATOM     15  C   UNL     1       4.488   5.592 -23.901  1.00  0.00     0.200 A 
ATOM     16  C   UNL     1       3.572   4.974 -24.769  1.00  0.00     0.162 A 
BRANCH  13  17
ATOM     17  O   UNL     1       6.247   5.385 -22.226  1.00  0.00    -0.504 OA
ATOM     18  H   UNL     1       6.238   5.194 -21.232  1.00  0.00     0.293 HD
ENDBRANCH  13  17
BRANCH  15  19
ATOM     19  O   UNL     1       4.565   6.983 -23.820  1.00  0.00    -0.502 OA
ATOM     20  H   UNL     1       3.989   7.519 -23.182  1.00  0.00     0.293 HD
ENDBRANCH  15  19
BRANCH  16  21
ATOM     21  O   UNL     1       2.721   5.752 -25.554  1.00  0.00    -0.504 OA
ATOM     22  H   UNL     1       2.813   5.789 -26.563  1.00  0.00     0.293 HD
ENDBRANCH  16  21
ENDBRANCH   1  11
BRANCH  10  23
ATOM     23  O   UNL     1       5.746   1.179 -26.072  1.00  0.00    -0.500 OA
ATOM     24  H   UNL     1       5.569   1.054 -27.062  1.00  0.00     0.294 HD
ENDBRANCH  10  23
BRANCH   5  25
ATOM     25  O   UNL     1       1.849  -3.214 -20.996  1.00  0.00    -0.507 OA
ATOM     26  H   UNL     1       1.247  -2.665 -20.394  1.00  0.00     0.293 HD
ENDBRANCH   5  25
BRANCH   7  27
ATOM     27  O   UNL     1       4.549  -3.679 -24.979  1.00  0.00    -0.507 OA
ATOM     28  H   UNL     1       4.316  -4.662 -25.060  1.00  0.00     0.293 HD
ENDBRANCH   7  27
TORSDOF 7
ENDMDL
MODEL 8
REMARK VINA RESULT:    -6.262      2.255      7.123
REMARK INTER + INTRA:          -8.097
REMARK INTER:                  -8.205
REMARK INTRA:                   0.107
REMARK UNBOUND:                -0.371
REMARK SMILES Oc1cc(O)c2cc(O)c(-c3cc(O)c(O)c(O)c3)[o+]c2c1.[Cl-]
REMARK SMILES IDX 10 1 20 2 21 3 22 4 2 5 3 6 4 7 6 8 7 9 8 10 11 11 12 12
REMARK SMILES IDX 13 13 19 14 15 15 17 16 14 17 16 19 18 21 9 23 1 25 5 27
REMARK H PARENT 14 18 16 20 18 22 9 24 1 26 5 28
REMARK Flexibility Score: inf
ROOT
ATOM      1  C   UNL     1       3.358  -0.538 -25.491  1.00  0.00     0.402 A 
ATOM      2  O   UNL     1       2.942   0.720 -25.361  1.00  0.00    -0.202 OA
ATOM      3  C   UNL     1       3.553   1.751 -25.936  1.00  0.00     0.368 A 
ATOM      4  C   UNL     1       3.055   3.043 -25.746  1.00  0.00     0.162 A 
ATOM      5  C   UNL     1       3.692   4.139 -26.343  1.00  0.00     0.128 A 
ATOM      6  C   UNL     1       4.830   3.939 -27.133  1.00  0.00     0.093 A 
ATOM      7  C   UNL     1       5.340   2.648 -27.334  1.00  0.00     0.136 A 
ATOM      8  C   UNL     1       4.700   1.547 -26.734  1.00  0.00     0.125 A 
ATOM      9  C   UNL     1       5.159   0.236 -26.905  1.00  0.00     0.078 A 
ATOM     10  C   UNL     1       4.483  -0.823 -26.291  1.00  0.00     0.223 A 
ENDROOT
BRANCH   1  11
ATOM     11  C   UNL     1       2.599  -1.603 -24.795  1.00  0.00     0.091 A 
ATOM     12  C   UNL     1       3.292  -2.680 -24.220  1.00  0.00     0.068 A 
ATOM     13  C   UNL     1       2.601  -3.710 -23.574  1.00  0.00     0.162 A 
ATOM     14  C   UNL     1       1.195  -1.589 -24.746  1.00  0.00     0.068 A 
ATOM     15  C   UNL     1       1.198  -3.681 -23.509  1.00  0.00     0.200 A 
ATOM     16  C   UNL     1       0.495  -2.619 -24.102  1.00  0.00     0.162 A 
BRANCH  13  17
ATOM     17  O   UNL     1       3.327  -4.755 -23.002  1.00  0.00    -0.504 OA
ATOM     18  H   UNL     1       4.313  -4.891 -23.187  1.00  0.00     0.293 HD
ENDBRANCH  13  17
BRANCH  15  19
ATOM     19  O   UNL     1       0.516  -4.711 -22.860  1.00  0.00    -0.502 OA
ATOM     20  H   UNL     1      -0.419  -4.591 -22.490  1.00  0.00     0.293 HD
ENDBRANCH  15  19
BRANCH  16  21
ATOM     21  O   UNL     1      -0.899  -2.591 -24.053  1.00  0.00    -0.504 OA
ATOM     22  H   UNL     1      -1.414  -3.055 -23.314  1.00  0.00     0.293 HD
ENDBRANCH  16  21
ENDBRANCH   1  11
BRANCH  10  23
ATOM     23  O   UNL     1       4.905  -2.136 -26.500  1.00  0.00    -0.500 OA
ATOM     24  H   UNL     1       5.746  -2.500 -26.065  1.00  0.00     0.294 HD
ENDBRANCH  10  23
BRANCH   5  25
ATOM     25  O   UNL     1       3.204   5.430 -26.159  1.00  0.00    -0.507 OA
ATOM     26  H   UNL     1       3.738   6.244 -26.440  1.00  0.00     0.293 HD
ENDBRANCH   5  25
BRANCH   7  27
ATOM     27  O   UNL     1       6.474   2.462 -28.125  1.00  0.00    -0.507 OA
ATOM     28  H   UNL     1       7.348   2.135 -27.731  1.00  0.00     0.293 HD
ENDBRANCH   7  27
TORSDOF 7
ENDMDL
MODEL 9
REMARK VINA RESULT:    -5.854      1.579      2.458
REMARK INTER + INTRA:          -7.595
REMARK INTER:                  -7.621
REMARK INTRA:                   0.026
REMARK UNBOUND:                -0.371
REMARK SMILES Oc1cc(O)c2cc(O)c(-c3cc(O)c(O)c(O)c3)[o+]c2c1.[Cl-]
REMARK SMILES IDX 10 1 20 2 21 3 22 4 2 5 3 6 4 7 6 8 7 9 8 10 11 11 12 12
REMARK SMILES IDX 13 13 19 14 15 15 17 16 14 17 16 19 18 21 9 23 1 25 5 27
REMARK H PARENT 14 18 16 20 18 22 9 24 1 26 5 28
REMARK Flexibility Score: inf
ROOT
ATOM      1  C   UNL     1       3.001  -0.117 -24.768  1.00  0.00     0.402 A 
ATOM      2  O   UNL     1       1.788  -0.633 -24.579  1.00  0.00    -0.202 OA
ATOM      3  C   UNL     1       1.584  -1.852 -24.090  1.00  0.00     0.368 A 
ATOM      4  C   UNL     1       0.277  -2.322 -23.927  1.00  0.00     0.162 A 
ATOM      5  C   UNL     1       0.048  -3.606 -23.417  1.00  0.00     0.128 A 
ATOM      6  C   UNL     1       1.131  -4.421 -23.069  1.00  0.00     0.093 A 
ATOM      7  C   UNL     1       2.448  -3.964 -23.226  1.00  0.00     0.136 A 
ATOM      8  C   UNL     1       2.677  -2.673 -23.740  1.00  0.00     0.125 A 
ATOM      9  C   UNL     1       3.968  -2.161 -23.911  1.00  0.00     0.078 A 
ATOM     10  C   UNL     1       4.141  -0.869 -24.419  1.00  0.00     0.223 A 
ENDROOT
BRANCH   1  11
ATOM     11  C   UNL     1       3.102   1.250 -25.327  1.00  0.00     0.091 A 
ATOM     12  C   UNL     1       2.337   1.593 -26.453  1.00  0.00     0.068 A 
ATOM     13  C   UNL     1       2.427   2.870 -27.016  1.00  0.00     0.162 A 
ATOM     14  C   UNL     1       3.990   2.198 -24.791  1.00  0.00     0.068 A 
ATOM     15  C   UNL     1       3.301   3.821 -26.463  1.00  0.00     0.200 A 
ATOM     16  C   UNL     1       4.088   3.479 -25.350  1.00  0.00     0.162 A 
BRANCH  13  17
ATOM     17  O   UNL     1       1.639   3.176 -28.125  1.00  0.00    -0.504 OA
ATOM     18  H   UNL     1       1.797   2.755 -29.032  1.00  0.00     0.293 HD
ENDBRANCH  13  17
BRANCH  15  19
ATOM     19  O   UNL     1       3.383   5.094 -27.028  1.00  0.00    -0.502 OA
ATOM     20  H   UNL     1       4.023   5.799 -26.682  1.00  0.00     0.293 HD
ENDBRANCH  15  19
BRANCH  16  21
ATOM     21  O   UNL     1       4.969   4.413 -24.805  1.00  0.00    -0.504 OA
ATOM     22  H   UNL     1       5.868   4.608 -25.231  1.00  0.00     0.293 HD
ENDBRANCH  16  21
ENDBRANCH   1  11
BRANCH  10  23
ATOM     23  O   UNL     1       5.423  -0.334 -24.545  1.00  0.00    -0.500 OA
ATOM     24  H   UNL     1       5.730   0.450 -23.980  1.00  0.00     0.294 HD
ENDBRANCH  10  23
BRANCH   5  25
ATOM     25  O   UNL     1      -1.250  -4.082 -23.250  1.00  0.00    -0.507 OA
ATOM     26  H   UNL     1      -1.726  -4.022 -22.358  1.00  0.00     0.293 HD
ENDBRANCH   5  25
BRANCH   7  27
ATOM     27  O   UNL     1       3.518  -4.786 -22.876  1.00  0.00    -0.507 OA
ATOM     28  H   UNL     1       3.373  -5.704 -22.472  1.00  0.00     0.293 HD
ENDBRANCH   7  27
TORSDOF 7
ENDMDL
