MODEL 1
REMARK VINA RESULT:    30.444      0.000      0.000
REMARK INTER + INTRA:          36.400
REMARK INTER:                  36.673
REMARK INTRA:                  -0.273
REMARK UNBOUND:                -0.273
REMARK SMILES O=c1c(O)c(-c2ccc(O)c(O)c2)oc2cc(O)cc(O)c12
REMARK SMILES IDX 5 1 3 2 2 3 1 4 22 5 20 6 19 7 17 8 16 9 15 10 14 11 6 12
REMARK SMILES IDX 7 13 8 14 9 15 13 16 11 17 10 18 12 20 4 22 21 24 18 26
REMARK H PARENT 10 19 12 21 4 23 21 25 18 27
REMARK Flexibility Score: inf
ROOT
ATOM      1  C   UNL     1      20.197 -12.592 -15.622  1.00  0.00     0.180 A 
ATOM      2  C   UNL     1      21.349 -12.133 -14.953  1.00  0.00     0.208 A 
ATOM      3  C   UNL     1      22.483 -11.797 -15.707  1.00  0.00     0.238 A 
ATOM      4  O   UNL     1      23.516 -11.374 -15.120  1.00  0.00    -0.285 OA
ATOM      5  C   UNL     1      22.456 -11.943 -17.110  1.00  0.00     0.111 A 
ATOM      6  C   UNL     1      23.558 -11.630 -17.942  1.00  0.00     0.134 A 
ATOM      7  C   UNL     1      23.455 -11.812 -19.330  1.00  0.00     0.093 A 
ATOM      8  C   UNL     1      22.274 -12.300 -19.899  1.00  0.00     0.123 A 
ATOM      9  C   UNL     1      21.185 -12.610 -19.082  1.00  0.00     0.094 A 
ATOM     10  C   UNL     1      21.267 -12.434 -17.697  1.00  0.00     0.146 A 
ATOM     11  O   UNL     1      20.213 -12.732 -16.944  1.00  0.00    -0.452 OA
ENDROOT
BRANCH   1  12
ATOM     12  C   UNL     1      18.956 -12.949 -14.898  1.00  0.00     0.025 A 
ATOM     13  C   UNL     1      18.130 -11.930 -14.400  1.00  0.00     0.016 A 
ATOM     14  C   UNL     1      16.965 -12.243 -13.696  1.00  0.00     0.051 A 
ATOM     15  C   UNL     1      16.618 -13.579 -13.465  1.00  0.00     0.157 A 
ATOM     16  C   UNL     1      18.614 -14.290 -14.647  1.00  0.00     0.062 A 
ATOM     17  C   UNL     1      17.446 -14.605 -13.938  1.00  0.00     0.158 A 
BRANCH  15  18
ATOM     18  O   UNL     1      15.456 -13.897 -12.764  1.00  0.00    -0.504 OA
ATOM     19  H   UNL     1      14.963 -14.769 -12.923  1.00  0.00     0.293 HD
ENDBRANCH  15  18
BRANCH  17  20
ATOM     20  O   UNL     1      17.105 -15.934 -13.695  1.00  0.00    -0.504 OA
ATOM     21  H   UNL     1      16.922 -16.271 -12.757  1.00  0.00     0.293 HD
ENDBRANCH  17  20
ENDBRANCH   1  12
BRANCH   2  22
ATOM     22  O   UNL     1      21.366 -12.044 -13.559  1.00  0.00    -0.502 OA
ATOM     23  H   UNL     1      21.562 -11.177 -13.073  1.00  0.00     0.293 HD
ENDBRANCH   2  22
BRANCH   6  24
ATOM     24  O   UNL     1      24.749 -11.143 -17.404  1.00  0.00    -0.507 OA
ATOM     25  H   UNL     1      25.061 -11.401 -16.475  1.00  0.00     0.293 HD
ENDBRANCH   6  24
BRANCH   8  26
ATOM     26  O   UNL     1      22.171 -12.483 -21.276  1.00  0.00    -0.508 OA
ATOM     27  H   UNL     1      21.666 -11.827 -21.862  1.00  0.00     0.293 HD
ENDBRANCH   8  26
TORSDOF 6
ENDMDL
MODEL 2
REMARK VINA RESULT:    30.560      1.352      3.187
REMARK INTER + INTRA:          36.541
REMARK INTER:                  36.798
REMARK INTRA:                  -0.257
REMARK UNBOUND:                -0.273
REMARK SMILES O=c1c(O)c(-c2ccc(O)c(O)c2)oc2cc(O)cc(O)c12
REMARK SMILES IDX 5 1 3 2 2 3 1 4 22 5 20 6 19 7 17 8 16 9 15 10 14 11 6 12
REMARK SMILES IDX 7 13 8 14 9 15 13 16 11 17 10 18 12 20 4 22 21 24 18 26
REMARK H PARENT 10 19 12 21 4 23 21 25 18 27
REMARK Flexibility Score: inf
ROOT
ATOM      1  C   UNL     1      20.025 -12.623 -16.301  1.00  0.00     0.180 A 
ATOM      2  C   UNL     1      19.927 -13.047 -17.641  1.00  0.00     0.208 A 
ATOM      3  C   UNL     1      21.011 -12.825 -18.503  1.00  0.00     0.238 A 
ATOM      4  O   UNL     1      20.939 -13.211 -19.702  1.00  0.00    -0.285 OA
ATOM      5  C   UNL     1      22.162 -12.168 -18.022  1.00  0.00     0.111 A 
ATOM      6  C   UNL     1      23.295 -11.902 -18.828  1.00  0.00     0.134 A 
ATOM      7  C   UNL     1      24.399 -11.233 -18.276  1.00  0.00     0.093 A 
ATOM      8  C   UNL     1      24.390 -10.827 -16.938  1.00  0.00     0.123 A 
ATOM      9  C   UNL     1      23.275 -11.087 -16.140  1.00  0.00     0.094 A 
ATOM     10  C   UNL     1      22.166 -11.753 -16.670  1.00  0.00     0.146 A 
ATOM     11  O   UNL     1      21.120 -11.993 -15.886  1.00  0.00    -0.452 OA
ENDROOT
BRANCH   1  12
ATOM     12  C   UNL     1      18.932 -12.838 -15.325  1.00  0.00     0.025 A 
ATOM     13  C   UNL     1      18.709 -14.124 -14.811  1.00  0.00     0.016 A 
ATOM     14  C   UNL     1      17.670 -14.354 -13.906  1.00  0.00     0.051 A 
ATOM     15  C   UNL     1      16.830 -13.305 -13.515  1.00  0.00     0.157 A 
ATOM     16  C   UNL     1      18.074 -11.791 -14.945  1.00  0.00     0.062 A 
ATOM     17  C   UNL     1      17.029 -12.021 -14.038  1.00  0.00     0.158 A 
BRANCH  15  18
ATOM     18  O   UNL     1      15.794 -13.529 -12.610  1.00  0.00    -0.504 OA
ATOM     19  H   UNL     1      14.953 -14.026 -12.880  1.00  0.00     0.293 HD
ENDBRANCH  15  18
BRANCH  17  20
ATOM     20  O   UNL     1      16.183 -10.982 -13.657  1.00  0.00    -0.504 OA
ATOM     21  H   UNL     1      15.250 -10.890 -14.043  1.00  0.00     0.293 HD
ENDBRANCH  17  20
ENDBRANCH   1  12
BRANCH   2  22
ATOM     22  O   UNL     1      18.757 -13.652 -18.105  1.00  0.00    -0.502 OA
ATOM     23  H   UNL     1      17.837 -13.365 -17.794  1.00  0.00     0.293 HD
ENDBRANCH   2  22
BRANCH   6  24
ATOM     24  O   UNL     1      23.334 -12.294 -20.167  1.00  0.00    -0.507 OA
ATOM     25  H   UNL     1      23.995 -12.985 -20.501  1.00  0.00     0.293 HD
ENDBRANCH   6  24
BRANCH   8  26
ATOM     26  O   UNL     1      25.485 -10.161 -16.390  1.00  0.00    -0.508 OA
ATOM     27  H   UNL     1      26.433 -10.494 -16.532  1.00  0.00     0.293 HD
ENDBRANCH   8  26
TORSDOF 6
ENDMDL
MODEL 3
REMARK VINA RESULT:    32.183      4.758      7.429
REMARK INTER + INTRA:          38.496
REMARK INTER:                  38.778
REMARK INTRA:                  -0.282
REMARK UNBOUND:                -0.273
REMARK SMILES O=c1c(O)c(-c2ccc(O)c(O)c2)oc2cc(O)cc(O)c12
REMARK SMILES IDX 5 1 3 2 2 3 1 4 22 5 20 6 19 7 17 8 16 9 15 10 14 11 6 12
REMARK SMILES IDX 7 13 8 14 9 15 13 16 11 17 10 18 12 20 4 22 21 24 18 26
REMARK H PARENT 10 19 12 21 4 23 21 25 18 27
REMARK Flexibility Score: inf
ROOT
ATOM      1  C   UNL     1      22.519  -8.236 -18.416  1.00  0.00     0.180 A 
ATOM      2  C   UNL     1      23.279  -8.516 -17.263  1.00  0.00     0.208 A 
ATOM      3  C   UNL     1      23.569  -9.852 -16.950  1.00  0.00     0.238 A 
ATOM      4  O   UNL     1      24.259 -10.114 -15.927  1.00  0.00    -0.285 OA
ATOM      5  C   UNL     1      23.080 -10.884 -17.777  1.00  0.00     0.111 A 
ATOM      6  C   UNL     1      23.324 -12.256 -17.528  1.00  0.00     0.134 A 
ATOM      7  C   UNL     1      22.793 -13.225 -18.395  1.00  0.00     0.093 A 
ATOM      8  C   UNL     1      22.026 -12.847 -19.502  1.00  0.00     0.123 A 
ATOM      9  C   UNL     1      21.783 -11.495 -19.750  1.00  0.00     0.094 A 
ATOM     10  C   UNL     1      22.304 -10.516 -18.900  1.00  0.00     0.146 A 
ATOM     11  O   UNL     1      22.062  -9.236 -19.164  1.00  0.00    -0.452 OA
ENDROOT
BRANCH   1  12
ATOM     12  C   UNL     1      22.188  -6.852 -18.823  1.00  0.00     0.025 A 
ATOM     13  C   UNL     1      20.875  -6.381 -18.667  1.00  0.00     0.016 A 
ATOM     14  C   UNL     1      20.535  -5.086 -19.064  1.00  0.00     0.051 A 
ATOM     15  C   UNL     1      21.498  -4.248 -19.638  1.00  0.00     0.157 A 
ATOM     16  C   UNL     1      23.148  -6.014 -19.418  1.00  0.00     0.062 A 
ATOM     17  C   UNL     1      22.807  -4.714 -19.819  1.00  0.00     0.158 A 
BRANCH  15  18
ATOM     18  O   UNL     1      21.165  -2.954 -20.033  1.00  0.00    -0.504 OA
ATOM     19  H   UNL     1      21.207  -2.669 -21.005  1.00  0.00     0.293 HD
ENDBRANCH  15  18
BRANCH  17  20
ATOM     20  O   UNL     1      23.761  -3.883 -20.403  1.00  0.00    -0.504 OA
ATOM     21  H   UNL     1      24.172  -4.099 -21.304  1.00  0.00     0.293 HD
ENDBRANCH  17  20
ENDBRANCH   1  12
BRANCH   2  22
ATOM     22  O   UNL     1      23.710  -7.478 -16.434  1.00  0.00    -0.502 OA
ATOM     23  H   UNL     1      23.590  -7.500 -15.428  1.00  0.00     0.293 HD
ENDBRANCH   2  22
BRANCH   6  24
ATOM     24  O   UNL     1      24.085 -12.665 -16.432  1.00  0.00    -0.507 OA
ATOM     25  H   UNL     1      25.064 -12.420 -16.342  1.00  0.00     0.293 HD
ENDBRANCH   6  24
BRANCH   8  26
ATOM     26  O   UNL     1      21.498 -13.808 -20.361  1.00  0.00    -0.508 OA
ATOM     27  H   UNL     1      21.328 -14.759 -20.053  1.00  0.00     0.293 HD
ENDBRANCH   8  26
TORSDOF 6
ENDMDL
MODEL 4
REMARK VINA RESULT:    32.942      4.878      8.070
REMARK INTER + INTRA:          39.410
REMARK INTER:                  39.687
REMARK INTRA:                  -0.277
REMARK UNBOUND:                -0.273
REMARK SMILES O=c1c(O)c(-c2ccc(O)c(O)c2)oc2cc(O)cc(O)c12
REMARK SMILES IDX 5 1 3 2 2 3 1 4 22 5 20 6 19 7 17 8 16 9 15 10 14 11 6 12
REMARK SMILES IDX 7 13 8 14 9 15 13 16 11 17 10 18 12 20 4 22 21 24 18 26
REMARK H PARENT 10 19 12 21 4 23 21 25 18 27
REMARK Flexibility Score: inf
ROOT
ATOM      1  C   UNL     1      22.179  -8.119 -19.010  1.00  0.00     0.180 A 
ATOM      2  C   UNL     1      21.698  -9.055 -19.947  1.00  0.00     0.208 A 
ATOM      3  C   UNL     1      21.950 -10.418 -19.735  1.00  0.00     0.238 A 
ATOM      4  O   UNL     1      21.515 -11.266 -20.561  1.00  0.00    -0.285 OA
ATOM      5  C   UNL     1      22.693 -10.822 -18.607  1.00  0.00     0.111 A 
ATOM      6  C   UNL     1      22.995 -12.176 -18.322  1.00  0.00     0.134 A 
ATOM      7  C   UNL     1      23.748 -12.497 -17.182  1.00  0.00     0.093 A 
ATOM      8  C   UNL     1      24.205 -11.490 -16.324  1.00  0.00     0.123 A 
ATOM      9  C   UNL     1      23.910 -10.154 -16.601  1.00  0.00     0.094 A 
ATOM     10  C   UNL     1      23.160  -9.815 -17.730  1.00  0.00     0.146 A 
ATOM     11  O   UNL     1      22.889  -8.536 -17.965  1.00  0.00    -0.452 OA
ENDROOT
BRANCH   1  12
ATOM     12  C   UNL     1      21.938  -6.665 -19.154  1.00  0.00     0.025 A 
ATOM     13  C   UNL     1      20.672  -6.142 -18.850  1.00  0.00     0.016 A 
ATOM     14  C   UNL     1      20.415  -4.777 -18.999  1.00  0.00     0.051 A 
ATOM     15  C   UNL     1      21.415  -3.918 -19.470  1.00  0.00     0.157 A 
ATOM     16  C   UNL     1      22.934  -5.803 -19.646  1.00  0.00     0.062 A 
ATOM     17  C   UNL     1      22.677  -4.433 -19.798  1.00  0.00     0.158 A 
BRANCH  15  18
ATOM     18  O   UNL     1      21.165  -2.555 -19.618  1.00  0.00    -0.504 OA
ATOM     19  H   UNL     1      20.899  -1.977 -18.830  1.00  0.00     0.293 HD
ENDBRANCH  15  18
BRANCH  17  20
ATOM     20  O   UNL     1      23.666  -3.578 -20.280  1.00  0.00    -0.504 OA
ATOM     21  H   UNL     1      24.592  -3.917 -20.513  1.00  0.00     0.293 HD
ENDBRANCH  17  20
ENDBRANCH   1  12
BRANCH   2  22
ATOM     22  O   UNL     1      21.007  -8.624 -21.082  1.00  0.00    -0.502 OA
ATOM     23  H   UNL     1      20.048  -8.891 -21.267  1.00  0.00     0.293 HD
ENDBRANCH   2  22
BRANCH   6  24
ATOM     24  O   UNL     1      22.554 -13.202 -19.160  1.00  0.00    -0.507 OA
ATOM     25  H   UNL     1      23.187 -13.907 -19.518  1.00  0.00     0.293 HD
ENDBRANCH   6  24
BRANCH   8  26
ATOM     26  O   UNL     1      24.955 -11.808 -15.194  1.00  0.00    -0.508 OA
ATOM     27  H   UNL     1      25.623 -11.154 -14.800  1.00  0.00     0.293 HD
ENDBRANCH   8  26
TORSDOF 6
ENDMDL
