MODEL 1
REMARK VINA RESULT:    -7.400      0.000      0.000
REMARK INTER + INTRA:          -9.144
REMARK INTER:                  -8.914
REMARK INTRA:                  -0.230
REMARK UNBOUND:                -0.230
REMARK SMILES O=c1c(O)c(-c2ccc(O)c(O)c2)oc2cc(O)cc(O)c12
REMARK SMILES IDX 5 1 3 2 2 3 1 4 22 5 20 6 19 7 17 8 16 9 15 10 14 11 6 12
REMARK SMILES IDX 7 13 8 14 9 15 13 16 11 17 10 18 12 20 4 22 21 24 18 26
REMARK H PARENT 10 19 12 21 4 23 21 25 18 27
REMARK Flexibility Score: inf
ROOT
ATOM      1  C   UNL     1      32.153  -0.246  10.160  1.00  0.00     0.180 A 
ATOM      2  C   UNL     1      31.615  -0.163  11.457  1.00  0.00     0.208 A 
ATOM      3  C   UNL     1      32.488  -0.082  12.553  1.00  0.00     0.238 A 
ATOM      4  O   UNL     1      32.000   0.045  13.706  1.00  0.00    -0.285 OA
ATOM      5  C   UNL     1      33.887  -0.100  12.342  1.00  0.00     0.111 A 
ATOM      6  C   UNL     1      34.865  -0.064  13.381  1.00  0.00     0.134 A 
ATOM      7  C   UNL     1      36.222   0.045  13.051  1.00  0.00     0.093 A 
ATOM      8  C   UNL     1      36.640   0.054  11.721  1.00  0.00     0.123 A 
ATOM      9  C   UNL     1      35.697  -0.042  10.696  1.00  0.00     0.094 A 
ATOM     10  C   UNL     1      34.334  -0.115  10.994  1.00  0.00     0.146 A 
ATOM     11  O   UNL     1      33.469  -0.194   9.990  1.00  0.00    -0.452 OA
ENDROOT
BRANCH   1  12
ATOM     12  C   UNL     1      31.297  -0.358   8.957  1.00  0.00     0.025 A 
ATOM     13  C   UNL     1      30.545  -1.518   8.701  1.00  0.00     0.016 A 
ATOM     14  C   UNL     1      29.763  -1.611   7.546  1.00  0.00     0.051 A 
ATOM     15  C   UNL     1      29.730  -0.560   6.626  1.00  0.00     0.157 A 
ATOM     16  C   UNL     1      31.278   0.689   8.021  1.00  0.00     0.062 A 
ATOM     17  C   UNL     1      30.494   0.596   6.862  1.00  0.00     0.158 A 
BRANCH  15  18
ATOM     18  O   UNL     1      28.940  -0.681   5.485  1.00  0.00    -0.504 OA
ATOM     19  H   UNL     1      29.231  -0.314   4.586  1.00  0.00     0.293 HD
ENDBRANCH  15  18
BRANCH  17  20
ATOM     20  O   UNL     1      30.472   1.646   5.946  1.00  0.00    -0.504 OA
ATOM     21  H   UNL     1      29.601   2.018   5.585  1.00  0.00     0.293 HD
ENDBRANCH  17  20
ENDBRANCH   1  12
BRANCH   2  22
ATOM     22  O   UNL     1      30.230  -0.125  11.641  1.00  0.00    -0.502 OA
ATOM     23  H   UNL     1      29.721   0.742  11.766  1.00  0.00     0.293 HD
ENDBRANCH   2  22
BRANCH   6  24
ATOM     24  O   UNL     1      34.560  -0.160  14.743  1.00  0.00    -0.507 OA
ATOM     25  H   UNL     1      34.935  -0.858  15.367  1.00  0.00     0.293 HD
ENDBRANCH   6  24
BRANCH   8  26
ATOM     26  O   UNL     1      37.999   0.148  11.429  1.00  0.00    -0.508 OA
ATOM     27  H   UNL     1      38.397  -0.293  10.608  1.00  0.00     0.293 HD
ENDBRANCH   8  26
TORSDOF 6
ENDMDL
MODEL 2
REMARK VINA RESULT:    -7.376      1.767      3.171
REMARK INTER + INTRA:          -9.116
REMARK INTER:                  -8.883
REMARK INTRA:                  -0.233
REMARK UNBOUND:                -0.230
REMARK SMILES O=c1c(O)c(-c2ccc(O)c(O)c2)oc2cc(O)cc(O)c12
REMARK SMILES IDX 5 1 3 2 2 3 1 4 22 5 20 6 19 7 17 8 16 9 15 10 14 11 6 12
REMARK SMILES IDX 7 13 8 14 9 15 13 16 11 17 10 18 12 20 4 22 21 24 18 26
REMARK H PARENT 10 19 12 21 4 23 21 25 18 27
REMARK Flexibility Score: inf
ROOT
ATOM      1  C   UNL     1      33.216  -0.720   9.706  1.00  0.00     0.180 A 
ATOM      2  C   UNL     1      34.309  -1.561   9.436  1.00  0.00     0.208 A 
ATOM      3  C   UNL     1      35.489  -1.407  10.181  1.00  0.00     0.238 A 
ATOM      4  O   UNL     1      36.445  -2.199   9.970  1.00  0.00    -0.285 OA
ATOM      5  C   UNL     1      35.568  -0.403  11.176  1.00  0.00     0.111 A 
ATOM      6  C   UNL     1      36.727  -0.131  11.963  1.00  0.00     0.134 A 
ATOM      7  C   UNL     1      36.650   0.798  13.008  1.00  0.00     0.093 A 
ATOM      8  C   UNL     1      35.477   1.512  13.252  1.00  0.00     0.123 A 
ATOM      9  C   UNL     1      34.355   1.296  12.450  1.00  0.00     0.094 A 
ATOM     10  C   UNL     1      34.390   0.350  11.423  1.00  0.00     0.146 A 
ATOM     11  O   UNL     1      33.298   0.168  10.690  1.00  0.00    -0.452 OA
ENDROOT
BRANCH   1  12
ATOM     12  C   UNL     1      31.948  -0.806   8.947  1.00  0.00     0.025 A 
ATOM     13  C   UNL     1      31.877  -0.424   7.596  1.00  0.00     0.016 A 
ATOM     14  C   UNL     1      30.664  -0.491   6.906  1.00  0.00     0.051 A 
ATOM     15  C   UNL     1      29.504  -0.924   7.554  1.00  0.00     0.157 A 
ATOM     16  C   UNL     1      30.777  -1.221   9.601  1.00  0.00     0.062 A 
ATOM     17  C   UNL     1      29.559  -1.289   8.910  1.00  0.00     0.158 A 
BRANCH  15  18
ATOM     18  O   UNL     1      28.308  -0.981   6.840  1.00  0.00    -0.504 OA
ATOM     19  H   UNL     1      28.244  -0.686   5.873  1.00  0.00     0.293 HD
ENDBRANCH  15  18
BRANCH  17  20
ATOM     20  O   UNL     1      28.404  -1.715   9.565  1.00  0.00    -0.504 OA
ATOM     21  H   UNL     1      28.373  -1.817  10.573  1.00  0.00     0.293 HD
ENDBRANCH  17  20
ENDBRANCH   1  12
BRANCH   2  22
ATOM     22  O   UNL     1      34.203  -2.560   8.464  1.00  0.00    -0.502 OA
ATOM     23  H   UNL     1      33.311  -2.940   8.169  1.00  0.00     0.293 HD
ENDBRANCH   2  22
BRANCH   6  24
ATOM     24  O   UNL     1      37.976  -0.721  11.744  1.00  0.00    -0.507 OA
ATOM     25  H   UNL     1      38.380  -1.441  12.323  1.00  0.00     0.293 HD
ENDBRANCH   6  24
BRANCH   8  26
ATOM     26  O   UNL     1      35.440   2.439  14.291  1.00  0.00    -0.508 OA
ATOM     27  H   UNL     1      35.042   3.363  14.163  1.00  0.00     0.293 HD
ENDBRANCH   8  26
TORSDOF 6
ENDMDL
MODEL 3
REMARK VINA RESULT:    -7.371      1.364      1.391
REMARK INTER + INTRA:          -9.110
REMARK INTER:                  -8.866
REMARK INTRA:                  -0.244
REMARK UNBOUND:                -0.230
REMARK SMILES O=c1c(O)c(-c2ccc(O)c(O)c2)oc2cc(O)cc(O)c12
REMARK SMILES IDX 5 1 3 2 2 3 1 4 22 5 20 6 19 7 17 8 16 9 15 10 14 11 6 12
REMARK SMILES IDX 7 13 8 14 9 15 13 16 11 17 10 18 12 20 4 22 21 24 18 26
REMARK H PARENT 10 19 12 21 4 23 21 25 18 27
REMARK Flexibility Score: inf
ROOT
ATOM      1  C   UNL     1      32.366  -0.836   9.742  1.00  0.00     0.180 A 
ATOM      2  C   UNL     1      31.902  -1.521  10.879  1.00  0.00     0.208 A 
ATOM      3  C   UNL     1      32.782  -1.732  11.953  1.00  0.00     0.238 A 
ATOM      4  O   UNL     1      32.345  -2.299  12.988  1.00  0.00    -0.285 OA
ATOM      5  C   UNL     1      34.117  -1.271  11.871  1.00  0.00     0.111 A 
ATOM      6  C   UNL     1      35.105  -1.465  12.882  1.00  0.00     0.134 A 
ATOM      7  C   UNL     1      36.358  -0.852  12.751  1.00  0.00     0.093 A 
ATOM      8  C   UNL     1      36.680  -0.107  11.618  1.00  0.00     0.123 A 
ATOM      9  C   UNL     1      35.741   0.040  10.595  1.00  0.00     0.094 A 
ATOM     10  C   UNL     1      34.471  -0.530  10.713  1.00  0.00     0.146 A 
ATOM     11  O   UNL     1      33.604  -0.357   9.722  1.00  0.00    -0.452 OA
ENDROOT
BRANCH   1  12
ATOM     12  C   UNL     1      31.506  -0.596   8.560  1.00  0.00     0.025 A 
ATOM     13  C   UNL     1      31.709  -1.290   7.355  1.00  0.00     0.016 A 
ATOM     14  C   UNL     1      30.900  -1.030   6.246  1.00  0.00     0.051 A 
ATOM     15  C   UNL     1      29.889  -0.067   6.317  1.00  0.00     0.157 A 
ATOM     16  C   UNL     1      30.502   0.385   8.623  1.00  0.00     0.062 A 
ATOM     17  C   UNL     1      29.690   0.646   7.511  1.00  0.00     0.158 A 
BRANCH  15  18
ATOM     18  O   UNL     1      29.098   0.169   5.194  1.00  0.00    -0.504 OA
ATOM     19  H   UNL     1      28.558   1.020   5.085  1.00  0.00     0.293 HD
ENDBRANCH  15  18
BRANCH  17  20
ATOM     20  O   UNL     1      28.688   1.613   7.587  1.00  0.00    -0.504 OA
ATOM     21  H   UNL     1      28.601   2.226   8.389  1.00  0.00     0.293 HD
ENDBRANCH  17  20
ENDBRANCH   1  12
BRANCH   2  22
ATOM     22  O   UNL     1      30.574  -1.949  10.948  1.00  0.00    -0.502 OA
ATOM     23  H   UNL     1      30.232  -2.750  10.430  1.00  0.00     0.293 HD
ENDBRANCH   2  22
BRANCH   6  24
ATOM     24  O   UNL     1      34.919  -2.267  14.012  1.00  0.00    -0.507 OA
ATOM     25  H   UNL     1      34.190  -2.133  14.697  1.00  0.00     0.293 HD
ENDBRANCH   6  24
BRANCH   8  26
ATOM     26  O   UNL     1      37.940   0.477  11.514  1.00  0.00    -0.508 OA
ATOM     27  H   UNL     1      38.464   0.758  12.335  1.00  0.00     0.293 HD
ENDBRANCH   8  26
TORSDOF 6
ENDMDL
MODEL 4
REMARK VINA RESULT:    -7.257      1.544      6.656
REMARK INTER + INTRA:          -8.973
REMARK INTER:                  -8.652
REMARK INTRA:                  -0.320
REMARK UNBOUND:                -0.230
REMARK SMILES O=c1c(O)c(-c2ccc(O)c(O)c2)oc2cc(O)cc(O)c12
REMARK SMILES IDX 5 1 3 2 2 3 1 4 22 5 20 6 19 7 17 8 16 9 15 10 14 11 6 12
REMARK SMILES IDX 7 13 8 14 9 15 13 16 11 17 10 18 12 20 4 22 21 24 18 26
REMARK H PARENT 10 19 12 21 4 23 21 25 18 27
REMARK Flexibility Score: inf
ROOT
ATOM      1  C   UNL     1      33.112  -0.697  10.263  1.00  0.00     0.180 A 
ATOM      2  C   UNL     1      32.170  -1.163  11.197  1.00  0.00     0.208 A 
ATOM      3  C   UNL     1      30.852  -1.399  10.775  1.00  0.00     0.238 A 
ATOM      4  O   UNL     1      30.027  -1.867  11.603  1.00  0.00    -0.285 OA
ATOM      5  C   UNL     1      30.487  -1.151   9.431  1.00  0.00     0.111 A 
ATOM      6  C   UNL     1      29.171  -1.316   8.904  1.00  0.00     0.134 A 
ATOM      7  C   UNL     1      28.954  -1.166   7.528  1.00  0.00     0.093 A 
ATOM      8  C   UNL     1      29.989  -0.794   6.671  1.00  0.00     0.123 A 
ATOM      9  C   UNL     1      31.268  -0.571   7.186  1.00  0.00     0.094 A 
ATOM     10  C   UNL     1      31.524  -0.748   8.548  1.00  0.00     0.146 A 
ATOM     11  O   UNL     1      32.756  -0.537   8.994  1.00  0.00    -0.452 OA
ENDROOT
BRANCH   1  12
ATOM     12  C   UNL     1      34.514  -0.402  10.638  1.00  0.00     0.025 A 
ATOM     13  C   UNL     1      34.871   0.820  11.233  1.00  0.00     0.016 A 
ATOM     14  C   UNL     1      36.204   1.086  11.556  1.00  0.00     0.051 A 
ATOM     15  C   UNL     1      37.200   0.146  11.278  1.00  0.00     0.157 A 
ATOM     16  C   UNL     1      35.520  -1.337  10.342  1.00  0.00     0.062 A 
ATOM     17  C   UNL     1      36.858  -1.072  10.665  1.00  0.00     0.158 A 
BRANCH  15  18
ATOM     18  O   UNL     1      38.521   0.439  11.613  1.00  0.00    -0.504 OA
ATOM     19  H   UNL     1      38.971   1.301  11.328  1.00  0.00     0.293 HD
ENDBRANCH  15  18
BRANCH  17  20
ATOM     20  O   UNL     1      37.848  -2.011  10.379  1.00  0.00    -0.504 OA
ATOM     21  H   UNL     1      37.895  -2.898  10.867  1.00  0.00     0.293 HD
ENDBRANCH  17  20
ENDBRANCH   1  12
BRANCH   2  22
ATOM     22  O   UNL     1      32.556  -1.423  12.515  1.00  0.00    -0.502 OA
ATOM     23  H   UNL     1      33.490  -1.731  12.758  1.00  0.00     0.293 HD
ENDBRANCH   2  22
BRANCH   6  24
ATOM     24  O   UNL     1      28.047  -1.598   9.685  1.00  0.00    -0.507 OA
ATOM     25  H   UNL     1      27.283  -0.958   9.844  1.00  0.00     0.293 HD
ENDBRANCH   6  24
BRANCH   8  26
ATOM     26  O   UNL     1      29.734  -0.639   5.311  1.00  0.00    -0.508 OA
ATOM     27  H   UNL     1      30.372  -0.994   4.608  1.00  0.00     0.293 HD
ENDBRANCH   8  26
TORSDOF 6
ENDMDL
MODEL 5
REMARK VINA RESULT:    -7.121      2.079      6.966
REMARK INTER + INTRA:          -8.808
REMARK INTER:                  -8.591
REMARK INTRA:                  -0.217
REMARK UNBOUND:                -0.230
REMARK SMILES O=c1c(O)c(-c2ccc(O)c(O)c2)oc2cc(O)cc(O)c12
REMARK SMILES IDX 5 1 3 2 2 3 1 4 22 5 20 6 19 7 17 8 16 9 15 10 14 11 6 12
REMARK SMILES IDX 7 13 8 14 9 15 13 16 11 17 10 18 12 20 4 22 21 24 18 26
REMARK H PARENT 10 19 12 21 4 23 21 25 18 27
REMARK Flexibility Score: inf
ROOT
ATOM      1  C   UNL     1      32.696  -0.555  11.733  1.00  0.00     0.180 A 
ATOM      2  C   UNL     1      33.590  -1.440  11.105  1.00  0.00     0.208 A 
ATOM      3  C   UNL     1      33.384  -1.775   9.757  1.00  0.00     0.238 A 
ATOM      4  O   UNL     1      34.218  -2.526   9.187  1.00  0.00    -0.285 OA
ATOM      5  C   UNL     1      32.279  -1.233   9.058  1.00  0.00     0.111 A 
ATOM      6  C   UNL     1      31.950  -1.535   7.702  1.00  0.00     0.134 A 
ATOM      7  C   UNL     1      30.909  -0.841   7.072  1.00  0.00     0.093 A 
ATOM      8  C   UNL     1      30.144   0.095   7.767  1.00  0.00     0.123 A 
ATOM      9  C   UNL     1      30.419   0.354   9.111  1.00  0.00     0.094 A 
ATOM     10  C   UNL     1      31.473  -0.296   9.756  1.00  0.00     0.146 A 
ATOM     11  O   UNL     1      31.707  -0.012  11.032  1.00  0.00    -0.452 OA
ENDROOT
BRANCH   1  12
ATOM     12  C   UNL     1      32.834  -0.174  13.157  1.00  0.00     0.025 A 
ATOM     13  C   UNL     1      31.910  -0.610  14.124  1.00  0.00     0.016 A 
ATOM     14  C   UNL     1      32.047  -0.218  15.457  1.00  0.00     0.051 A 
ATOM     15  C   UNL     1      33.093   0.623  15.845  1.00  0.00     0.157 A 
ATOM     16  C   UNL     1      33.873   0.687  13.546  1.00  0.00     0.062 A 
ATOM     17  C   UNL     1      34.011   1.081  14.884  1.00  0.00     0.158 A 
BRANCH  15  18
ATOM     18  O   UNL     1      33.204   0.996  17.184  1.00  0.00    -0.504 OA
ATOM     19  H   UNL     1      32.394   1.094  17.784  1.00  0.00     0.293 HD
ENDBRANCH  15  18
BRANCH  17  20
ATOM     20  O   UNL     1      35.053   1.926  15.262  1.00  0.00    -0.504 OA
ATOM     21  H   UNL     1      35.972   1.566  15.493  1.00  0.00     0.293 HD
ENDBRANCH  17  20
ENDBRANCH   1  12
BRANCH   2  22
ATOM     22  O   UNL     1      34.687  -1.946  11.807  1.00  0.00    -0.502 OA
ATOM     23  H   UNL     1      34.845  -1.746  12.788  1.00  0.00     0.293 HD
ENDBRANCH   2  22
BRANCH   6  24
ATOM     24  O   UNL     1      32.592  -2.519   6.944  1.00  0.00    -0.507 OA
ATOM     25  H   UNL     1      33.158  -2.337   6.129  1.00  0.00     0.293 HD
ENDBRANCH   6  24
BRANCH   8  26
ATOM     26  O   UNL     1      29.107   0.756   7.114  1.00  0.00    -0.508 OA
ATOM     27  H   UNL     1      28.775   1.662   7.425  1.00  0.00     0.293 HD
ENDBRANCH   8  26
TORSDOF 6
ENDMDL
MODEL 6
REMARK VINA RESULT:    -7.027      1.891      6.875
REMARK INTER + INTRA:          -8.695
REMARK INTER:                  -8.428
REMARK INTRA:                  -0.267
REMARK UNBOUND:                -0.230
REMARK SMILES O=c1c(O)c(-c2ccc(O)c(O)c2)oc2cc(O)cc(O)c12
REMARK SMILES IDX 5 1 3 2 2 3 1 4 22 5 20 6 19 7 17 8 16 9 15 10 14 11 6 12
REMARK SMILES IDX 7 13 8 14 9 15 13 16 11 17 10 18 12 20 4 22 21 24 18 26
REMARK H PARENT 10 19 12 21 4 23 21 25 18 27
REMARK Flexibility Score: inf
ROOT
ATOM      1  C   UNL     1      32.822  -0.192  12.000  1.00  0.00     0.180 A 
ATOM      2  C   UNL     1      31.526  -0.293  12.536  1.00  0.00     0.208 A 
ATOM      3  C   UNL     1      30.451  -0.560  11.674  1.00  0.00     0.238 A 
ATOM      4  O   UNL     1      29.301  -0.701  12.167  1.00  0.00    -0.285 OA
ATOM      5  C   UNL     1      30.682  -0.707  10.285  1.00  0.00     0.111 A 
ATOM      6  C   UNL     1      29.661  -0.938   9.314  1.00  0.00     0.134 A 
ATOM      7  C   UNL     1      30.019  -1.198   7.985  1.00  0.00     0.093 A 
ATOM      8  C   UNL     1      31.353  -1.169   7.579  1.00  0.00     0.123 A 
ATOM      9  C   UNL     1      32.354  -0.884   8.509  1.00  0.00     0.094 A 
ATOM     10  C   UNL     1      32.032  -0.657   9.849  1.00  0.00     0.146 A 
ATOM     11  O   UNL     1      33.015  -0.400  10.703  1.00  0.00    -0.452 OA
ENDROOT
BRANCH   1  12
ATOM     12  C   UNL     1      34.002   0.111  12.843  1.00  0.00     0.025 A 
ATOM     13  C   UNL     1      34.608   1.379  12.823  1.00  0.00     0.016 A 
ATOM     14  C   UNL     1      35.735   1.635  13.607  1.00  0.00     0.051 A 
ATOM     15  C   UNL     1      36.282   0.630  14.411  1.00  0.00     0.157 A 
ATOM     16  C   UNL     1      34.565  -0.903  13.635  1.00  0.00     0.062 A 
ATOM     17  C   UNL     1      35.696  -0.647  14.423  1.00  0.00     0.158 A 
BRANCH  15  18
ATOM     18  O   UNL     1      37.406   0.916  15.184  1.00  0.00    -0.504 OA
ATOM     19  H   UNL     1      37.613   0.414  16.039  1.00  0.00     0.293 HD
ENDBRANCH  15  18
BRANCH  17  20
ATOM     20  O   UNL     1      36.240  -1.656  15.216  1.00  0.00    -0.504 OA
ATOM     21  H   UNL     1      35.681  -2.154  15.899  1.00  0.00     0.293 HD
ENDBRANCH  17  20
ENDBRANCH   1  12
BRANCH   2  22
ATOM     22  O   UNL     1      31.323  -0.166  13.913  1.00  0.00    -0.502 OA
ATOM     23  H   UNL     1      30.520   0.312  14.303  1.00  0.00     0.293 HD
ENDBRANCH   2  22
BRANCH   6  24
ATOM     24  O   UNL     1      28.292  -0.898   9.595  1.00  0.00    -0.507 OA
ATOM     25  H   UNL     1      27.766  -1.659   9.997  1.00  0.00     0.293 HD
ENDBRANCH   6  24
BRANCH   8  26
ATOM     26  O   UNL     1      31.671  -1.417   6.246  1.00  0.00    -0.508 OA
ATOM     27  H   UNL     1      31.647  -2.354   5.860  1.00  0.00     0.293 HD
ENDBRANCH   8  26
TORSDOF 6
ENDMDL
MODEL 7
REMARK VINA RESULT:    -6.993      2.125      7.429
REMARK INTER + INTRA:          -8.655
REMARK INTER:                  -8.371
REMARK INTRA:                  -0.284
REMARK UNBOUND:                -0.230
REMARK SMILES O=c1c(O)c(-c2ccc(O)c(O)c2)oc2cc(O)cc(O)c12
REMARK SMILES IDX 5 1 3 2 2 3 1 4 22 5 20 6 19 7 17 8 16 9 15 10 14 11 6 12
REMARK SMILES IDX 7 13 8 14 9 15 13 16 11 17 10 18 12 20 4 22 21 24 18 26
REMARK H PARENT 10 19 12 21 4 23 21 25 18 27
REMARK Flexibility Score: inf
ROOT
ATOM      1  C   UNL     1      34.070  -0.900  11.180  1.00  0.00     0.180 A 
ATOM      2  C   UNL     1      34.455  -1.548   9.994  1.00  0.00     0.208 A 
ATOM      3  C   UNL     1      33.483  -1.813   9.016  1.00  0.00     0.238 A 
ATOM      4  O   UNL     1      33.844  -2.345   7.934  1.00  0.00    -0.285 OA
ATOM      5  C   UNL     1      32.136  -1.441   9.243  1.00  0.00     0.111 A 
ATOM      6  C   UNL     1      31.062  -1.697   8.339  1.00  0.00     0.134 A 
ATOM      7  C   UNL     1      29.792  -1.168   8.607  1.00  0.00     0.093 A 
ATOM      8  C   UNL     1      29.544  -0.451   9.776  1.00  0.00     0.123 A 
ATOM      9  C   UNL     1      30.573  -0.246  10.697  1.00  0.00     0.094 A 
ATOM     10  C   UNL     1      31.858  -0.730  10.439  1.00  0.00     0.146 A 
ATOM     11  O   UNL     1      32.812  -0.505  11.335  1.00  0.00    -0.452 OA
ENDROOT
BRANCH   1  12
ATOM     12  C   UNL     1      35.033  -0.609  12.268  1.00  0.00     0.025 A 
ATOM     13  C   UNL     1      35.927   0.473  12.183  1.00  0.00     0.016 A 
ATOM     14  C   UNL     1      36.842   0.714  13.210  1.00  0.00     0.051 A 
ATOM     15  C   UNL     1      36.890  -0.125  14.327  1.00  0.00     0.157 A 
ATOM     16  C   UNL     1      35.096  -1.462  13.382  1.00  0.00     0.062 A 
ATOM     17  C   UNL     1      36.015  -1.221  14.413  1.00  0.00     0.158 A 
BRANCH  15  18
ATOM     18  O   UNL     1      37.814   0.142  15.337  1.00  0.00    -0.504 OA
ATOM     19  H   UNL     1      38.700   0.595  15.149  1.00  0.00     0.293 HD
ENDBRANCH  15  18
BRANCH  17  20
ATOM     20  O   UNL     1      36.062  -2.066  15.521  1.00  0.00    -0.504 OA
ATOM     21  H   UNL     1      36.280  -3.051  15.428  1.00  0.00     0.293 HD
ENDBRANCH  17  20
ENDBRANCH   1  12
BRANCH   2  22
ATOM     22  O   UNL     1      35.794  -1.887   9.781  1.00  0.00    -0.502 OA
ATOM     23  H   UNL     1      36.393  -1.369   9.149  1.00  0.00     0.293 HD
ENDBRANCH   2  22
BRANCH   6  24
ATOM     24  O   UNL     1      31.180  -2.480   7.186  1.00  0.00    -0.507 OA
ATOM     25  H   UNL     1      31.746  -2.241   6.386  1.00  0.00     0.293 HD
ENDBRANCH   6  24
BRANCH   8  26
ATOM     26  O   UNL     1      28.266   0.047  10.018  1.00  0.00    -0.508 OA
ATOM     27  H   UNL     1      27.449  -0.342   9.562  1.00  0.00     0.293 HD
ENDBRANCH   8  26
TORSDOF 6
ENDMDL
MODEL 8
REMARK VINA RESULT:    -6.879      2.461      4.220
REMARK INTER + INTRA:          -8.516
REMARK INTER:                  -8.195
REMARK INTRA:                  -0.321
REMARK UNBOUND:                -0.230
REMARK SMILES O=c1c(O)c(-c2ccc(O)c(O)c2)oc2cc(O)cc(O)c12
REMARK SMILES IDX 5 1 3 2 2 3 1 4 22 5 20 6 19 7 17 8 16 9 15 10 14 11 6 12
REMARK SMILES IDX 7 13 8 14 9 15 13 16 11 17 10 18 12 20 4 22 21 24 18 26
REMARK H PARENT 10 19 12 21 4 23 21 25 18 27
REMARK Flexibility Score: inf
ROOT
ATOM      1  C   UNL     1      33.210  -0.108  11.906  1.00  0.00     0.180 A 
ATOM      2  C   UNL     1      34.223   0.829  12.172  1.00  0.00     0.208 A 
ATOM      3  C   UNL     1      34.483   1.192  13.504  1.00  0.00     0.238 A 
ATOM      4  O   UNL     1      35.427   1.991  13.739  1.00  0.00    -0.285 OA
ATOM      5  C   UNL     1      33.717   0.626  14.550  1.00  0.00     0.111 A 
ATOM      6  C   UNL     1      33.866   0.952  15.932  1.00  0.00     0.134 A 
ATOM      7  C   UNL     1      33.143   0.234  16.893  1.00  0.00     0.093 A 
ATOM      8  C   UNL     1      32.229  -0.751  16.520  1.00  0.00     0.123 A 
ATOM      9  C   UNL     1      32.031  -1.035  15.167  1.00  0.00     0.094 A 
ATOM     10  C   UNL     1      32.764  -0.362  14.187  1.00  0.00     0.146 A 
ATOM     11  O   UNL     1      32.553  -0.670  12.914  1.00  0.00    -0.452 OA
ENDROOT
BRANCH   1  12
ATOM     12  C   UNL     1      32.861  -0.521  10.527  1.00  0.00     0.025 A 
ATOM     13  C   UNL     1      31.815   0.097   9.820  1.00  0.00     0.016 A 
ATOM     14  C   UNL     1      31.489  -0.326   8.530  1.00  0.00     0.051 A 
ATOM     15  C   UNL     1      32.187  -1.379   7.931  1.00  0.00     0.157 A 
ATOM     16  C   UNL     1      33.548  -1.592   9.932  1.00  0.00     0.062 A 
ATOM     17  C   UNL     1      33.221  -2.018   8.637  1.00  0.00     0.158 A 
BRANCH  15  18
ATOM     18  O   UNL     1      31.839  -1.778   6.642  1.00  0.00    -0.504 OA
ATOM     19  H   UNL     1      32.147  -2.660   6.250  1.00  0.00     0.293 HD
ENDBRANCH  15  18
BRANCH  17  20
ATOM     20  O   UNL     1      33.917  -3.073   8.050  1.00  0.00    -0.504 OA
ATOM     21  H   UNL     1      34.657  -2.912   7.376  1.00  0.00     0.293 HD
ENDBRANCH  17  20
ENDBRANCH   1  12
BRANCH   2  22
ATOM     22  O   UNL     1      34.983   1.360  11.126  1.00  0.00    -0.502 OA
ATOM     23  H   UNL     1      35.942   1.662  11.248  1.00  0.00     0.293 HD
ENDBRANCH   2  22
BRANCH   6  24
ATOM     24  O   UNL     1      34.685   1.981  16.408  1.00  0.00    -0.507 OA
ATOM     25  H   UNL     1      34.711   2.297  17.365  1.00  0.00     0.293 HD
ENDBRANCH   6  24
BRANCH   8  26
ATOM     26  O   UNL     1      31.516  -1.434  17.501  1.00  0.00    -0.508 OA
ATOM     27  H   UNL     1      30.837  -0.964  18.089  1.00  0.00     0.293 HD
ENDBRANCH   8  26
TORSDOF 6
ENDMDL
MODEL 9
REMARK VINA RESULT:    -6.755      2.640      4.240
REMARK INTER + INTRA:          -8.368
REMARK INTER:                  -8.247
REMARK INTRA:                  -0.121
REMARK UNBOUND:                -0.230
REMARK SMILES O=c1c(O)c(-c2ccc(O)c(O)c2)oc2cc(O)cc(O)c12
REMARK SMILES IDX 5 1 3 2 2 3 1 4 22 5 20 6 19 7 17 8 16 9 15 10 14 11 6 12
REMARK SMILES IDX 7 13 8 14 9 15 13 16 11 17 10 18 12 20 4 22 21 24 18 26
REMARK H PARENT 10 19 12 21 4 23 21 25 18 27
REMARK Flexibility Score: inf
ROOT
ATOM      1  C   UNL     1      32.272   0.049  12.936  1.00  0.00     0.180 A 
ATOM      2  C   UNL     1      33.349   0.876  12.575  1.00  0.00     0.208 A 
ATOM      3  C   UNL     1      34.311   1.205  13.543  1.00  0.00     0.238 A 
ATOM      4  O   UNL     1      35.301   1.902  13.200  1.00  0.00    -0.285 OA
ATOM      5  C   UNL     1      34.175   0.717  14.865  1.00  0.00     0.111 A 
ATOM      6  C   UNL     1      35.067   1.020  15.937  1.00  0.00     0.134 A 
ATOM      7  C   UNL     1      34.908   0.376  17.171  1.00  0.00     0.093 A 
ATOM      8  C   UNL     1      33.853  -0.509  17.391  1.00  0.00     0.123 A 
ATOM      9  C   UNL     1      32.939  -0.766  16.368  1.00  0.00     0.094 A 
ATOM     10  C   UNL     1      33.092  -0.167  15.115  1.00  0.00     0.146 A 
ATOM     11  O   UNL     1      32.207  -0.447  14.166  1.00  0.00    -0.452 OA
ENDROOT
BRANCH   1  12
ATOM     12  C   UNL     1      31.206  -0.322  11.976  1.00  0.00     0.025 A 
ATOM     13  C   UNL     1      29.862   0.019  12.209  1.00  0.00     0.016 A 
ATOM     14  C   UNL     1      28.871  -0.363  11.302  1.00  0.00     0.051 A 
ATOM     15  C   UNL     1      29.200  -1.099  10.160  1.00  0.00     0.157 A 
ATOM     16  C   UNL     1      31.532  -1.079  10.839  1.00  0.00     0.062 A 
ATOM     17  C   UNL     1      30.538  -1.462   9.928  1.00  0.00     0.158 A 
BRANCH  15  18
ATOM     18  O   UNL     1      28.189  -1.464   9.273  1.00  0.00    -0.504 OA
ATOM     19  H   UNL     1      28.274  -2.266   8.660  1.00  0.00     0.293 HD
ENDBRANCH  15  18
BRANCH  17  20
ATOM     20  O   UNL     1      30.873  -2.203   8.796  1.00  0.00    -0.504 OA
ATOM     21  H   UNL     1      30.500  -1.974   7.882  1.00  0.00     0.293 HD
ENDBRANCH  17  20
ENDBRANCH   1  12
BRANCH   2  22
ATOM     22  O   UNL     1      33.477   1.330  11.259  1.00  0.00    -0.502 OA
ATOM     23  H   UNL     1      33.859   2.240  11.031  1.00  0.00     0.293 HD
ENDBRANCH   2  22
BRANCH   6  24
ATOM     24  O   UNL     1      36.100   1.958  15.852  1.00  0.00    -0.507 OA
ATOM     25  H   UNL     1      36.676   2.249  16.627  1.00  0.00     0.293 HD
ENDBRANCH   6  24
BRANCH   8  26
ATOM     26  O   UNL     1      33.717  -1.120  18.636  1.00  0.00    -0.508 OA
ATOM     27  H   UNL     1      33.198  -1.983  18.748  1.00  0.00     0.293 HD
ENDBRANCH   8  26
TORSDOF 6
ENDMDL
