MODEL 1
REMARK VINA RESULT:    -5.041      0.000      0.000
REMARK INTER + INTRA:         -11.765
REMARK INTER:                  -9.461
REMARK INTRA:                  -2.303
REMARK UNBOUND:                -2.303
REMARK SMILES CCCCCCCCC=CCCCCCCCC(=O)[O-]
REMARK SMILES IDX 10 1 9 2 11 3 12 4 13 5 14 6 15 7 16 8 17 9 18 10 19 11
REMARK SMILES IDX 20 12 8 13 7 14 6 15 5 16 4 17 3 18 2 19 1 20
REMARK H PARENT
REMARK Flexibility Score: inf
ROOT
ATOM      1  C   UNL     1       8.836  11.288   5.025  1.00  0.00    -0.031 C 
ATOM      2  C   UNL     1       9.141  11.221   6.330  1.00  0.00    -0.031 C 
ENDROOT
BRANCH   1   3
ATOM      3  C   UNL     1       9.893  11.146   3.964  1.00  0.00     0.027 C 
BRANCH   3   4
ATOM      4  C   UNL     1      11.232  10.713   4.580  1.00  0.00     0.004 C 
BRANCH   4   5
ATOM      5  C   UNL     1      12.432  11.499   4.023  1.00  0.00     0.000 C 
BRANCH   5   6
ATOM      6  C   UNL     1      12.083  12.546   2.950  1.00  0.00     0.000 C 
BRANCH   6   7
ATOM      7  C   UNL     1      12.978  13.795   3.017  1.00  0.00     0.000 C 
BRANCH   7   8
ATOM      8  C   UNL     1      14.119  13.758   1.988  1.00  0.00     0.006 C 
BRANCH   8   9
ATOM      9  C   UNL     1      15.382  13.077   2.534  1.00  0.00     0.053 C 
BRANCH   9  10
ATOM     10  C   UNL     1      16.398  14.102   2.929  1.00  0.00     0.041 C 
ATOM     11  O   UNL     1      16.254  15.304   2.582  1.00  0.00    -0.550 OA
ATOM     12  O   UNL     1      17.531  13.722   3.638  1.00  0.00    -0.550 OA
ENDBRANCH   9  10
ENDBRANCH   8   9
ENDBRANCH   7   8
ENDBRANCH   6   7
ENDBRANCH   5   6
ENDBRANCH   4   5
ENDBRANCH   3   4
ENDBRANCH   1   3
BRANCH   2  13
ATOM     13  C   UNL     1       8.100  11.427   7.397  1.00  0.00     0.027 C 
BRANCH  13  14
ATOM     14  C   UNL     1       7.064  12.481   6.979  1.00  0.00     0.004 C 
BRANCH  14  15
ATOM     15  C   UNL     1       7.380  13.913   7.459  1.00  0.00     0.000 C 
BRANCH  15  16
ATOM     16  C   UNL     1       7.990  14.836   6.388  1.00  0.00     0.000 C 
BRANCH  16  17
ATOM     17  C   UNL     1       9.390  15.348   6.767  1.00  0.00    -0.000 C 
BRANCH  17  18
ATOM     18  C   UNL     1      10.509  14.619   6.007  1.00  0.00    -0.000 C 
BRANCH  18  19
ATOM     19  C   UNL     1      11.264  13.615   6.892  1.00  0.00    -0.003 C 
ATOM     20  C   UNL     1      12.770  13.856   6.833  1.00  0.00     0.004 C 
ENDBRANCH  18  19
ENDBRANCH  17  18
ENDBRANCH  16  17
ENDBRANCH  15  16
ENDBRANCH  14  15
ENDBRANCH  13  14
ENDBRANCH   2  13
TORSDOF 15
ENDMDL
MODEL 2
REMARK VINA RESULT:    -5.035      1.231      3.028
REMARK INTER + INTRA:         -11.754
REMARK INTER:                  -9.089
REMARK INTRA:                  -2.666
REMARK UNBOUND:                -2.303
REMARK SMILES CCCCCCCCC=CCCCCCCCC(=O)[O-]
REMARK SMILES IDX 10 1 9 2 11 3 12 4 13 5 14 6 15 7 16 8 17 9 18 10 19 11
REMARK SMILES IDX 20 12 8 13 7 14 6 15 5 16 4 17 3 18 2 19 1 20
REMARK H PARENT
REMARK Flexibility Score: inf
ROOT
ATOM      1  C   UNL     1      12.115  13.419   6.221  1.00  0.00    -0.031 C 
ATOM      2  C   UNL     1      11.415  14.550   6.046  1.00  0.00    -0.031 C 
ENDROOT
BRANCH   1   3
ATOM      3  C   UNL     1      13.359  13.134   5.427  1.00  0.00     0.027 C 
BRANCH   3   4
ATOM      4  C   UNL     1      13.154  11.924   4.503  1.00  0.00     0.004 C 
BRANCH   4   5
ATOM      5  C   UNL     1      12.050  12.148   3.454  1.00  0.00     0.000 C 
BRANCH   5   6
ATOM      6  C   UNL     1      12.214  13.417   2.598  1.00  0.00     0.000 C 
BRANCH   6   7
ATOM      7  C   UNL     1      13.257  13.256   1.479  1.00  0.00     0.000 C 
BRANCH   7   8
ATOM      8  C   UNL     1      14.528  14.082   1.736  1.00  0.00     0.006 C 
BRANCH   8   9
ATOM      9  C   UNL     1      15.683  13.231   2.282  1.00  0.00     0.053 C 
BRANCH   9  10
ATOM     10  C   UNL     1      16.502  14.023   3.251  1.00  0.00     0.041 C 
ATOM     11  O   UNL     1      17.552  13.533   3.743  1.00  0.00    -0.550 OA
ATOM     12  O   UNL     1      16.079  15.285   3.652  1.00  0.00    -0.550 OA
ENDBRANCH   9  10
ENDBRANCH   8   9
ENDBRANCH   7   8
ENDBRANCH   6   7
ENDBRANCH   5   6
ENDBRANCH   4   5
ENDBRANCH   3   4
ENDBRANCH   1   3
BRANCH   2  13
ATOM     13  C   UNL     1      10.134  14.813   6.790  1.00  0.00     0.027 C 
BRANCH  13  14
ATOM     14  C   UNL     1       8.981  15.141   5.829  1.00  0.00     0.004 C 
BRANCH  14  15
ATOM     15  C   UNL     1       9.266  14.804   4.350  1.00  0.00     0.000 C 
BRANCH  15  16
ATOM     16  C   UNL     1       8.753  13.428   3.890  1.00  0.00     0.000 C 
BRANCH  16  17
ATOM     17  C   UNL     1       8.004  12.668   4.998  1.00  0.00    -0.000 C 
BRANCH  17  18
ATOM     18  C   UNL     1       8.372  11.177   5.042  1.00  0.00    -0.000 C 
BRANCH  18  19
ATOM     19  C   UNL     1       9.571  10.894   5.961  1.00  0.00    -0.003 C 
ATOM     20  C   UNL     1       9.243  11.237   7.411  1.00  0.00     0.004 C 
ENDBRANCH  18  19
ENDBRANCH  17  18
ENDBRANCH  16  17
ENDBRANCH  15  16
ENDBRANCH  14  15
ENDBRANCH  13  14
ENDBRANCH   2  13
TORSDOF 15
ENDMDL
MODEL 3
REMARK VINA RESULT:    -4.915      3.449      6.680
REMARK INTER + INTRA:         -11.528
REMARK INTER:                  -8.672
REMARK INTRA:                  -2.855
REMARK UNBOUND:                -2.303
REMARK SMILES CCCCCCCCC=CCCCCCCCC(=O)[O-]
REMARK SMILES IDX 10 1 9 2 11 3 12 4 13 5 14 6 15 7 16 8 17 9 18 10 19 11
REMARK SMILES IDX 20 12 8 13 7 14 6 15 5 16 4 17 3 18 2 19 1 20
REMARK H PARENT
REMARK Flexibility Score: inf
ROOT
ATOM      1  C   UNL     1      12.533  14.332   4.684  1.00  0.00    -0.031 C 
ATOM      2  C   UNL     1      13.165  15.514   4.735  1.00  0.00    -0.031 C 
ENDROOT
BRANCH   1   3
ATOM      3  C   UNL     1      13.083  13.117   5.378  1.00  0.00     0.027 C 
BRANCH   3   4
ATOM      4  C   UNL     1      12.795  11.845   4.566  1.00  0.00     0.004 C 
BRANCH   4   5
ATOM      5  C   UNL     1      11.682  12.038   3.520  1.00  0.00     0.000 C 
BRANCH   5   6
ATOM      6  C   UNL     1      10.464  11.113   3.688  1.00  0.00     0.000 C 
BRANCH   6   7
ATOM      7  C   UNL     1      10.436  10.398   5.050  1.00  0.00     0.000 C 
BRANCH   7   8
ATOM      8  C   UNL     1       9.162  10.708   5.852  1.00  0.00     0.006 C 
BRANCH   8   9
ATOM      9  C   UNL     1       9.074  12.181   6.273  1.00  0.00     0.053 C 
BRANCH   9  10
ATOM     10  C   UNL     1       7.852  12.819   5.692  1.00  0.00     0.041 C 
ATOM     11  O   UNL     1       6.807  12.933   6.384  1.00  0.00    -0.550 OA
ATOM     12  O   UNL     1       7.850  13.241   4.368  1.00  0.00    -0.550 OA
ENDBRANCH   9  10
ENDBRANCH   8   9
ENDBRANCH   7   8
ENDBRANCH   6   7
ENDBRANCH   5   6
ENDBRANCH   4   5
ENDBRANCH   3   4
ENDBRANCH   1   3
BRANCH   2  13
ATOM     13  C   UNL     1      12.656  16.718   3.989  1.00  0.00     0.027 C 
BRANCH  13  14
ATOM     14  C   UNL     1      11.921  16.314   2.702  1.00  0.00     0.004 C 
BRANCH  14  15
ATOM     15  C   UNL     1      12.846  16.046   1.496  1.00  0.00     0.000 C 
BRANCH  15  16
ATOM     16  C   UNL     1      12.552  14.742   0.731  1.00  0.00     0.000 C 
BRANCH  16  17
ATOM     17  C   UNL     1      13.654  13.684   0.909  1.00  0.00    -0.000 C 
BRANCH  17  18
ATOM     18  C   UNL     1      14.837  14.200   1.743  1.00  0.00    -0.000 C 
BRANCH  18  19
ATOM     19  C   UNL     1      15.582  13.070   2.470  1.00  0.00    -0.003 C 
ATOM     20  C   UNL     1      16.448  13.621   3.599  1.00  0.00     0.004 C 
ENDBRANCH  18  19
ENDBRANCH  17  18
ENDBRANCH  16  17
ENDBRANCH  15  16
ENDBRANCH  14  15
ENDBRANCH  13  14
ENDBRANCH   2  13
TORSDOF 15
ENDMDL
MODEL 4
REMARK VINA RESULT:    -4.914      3.155      6.519
REMARK INTER + INTRA:         -11.527
REMARK INTER:                  -8.860
REMARK INTRA:                  -2.666
REMARK UNBOUND:                -2.303
REMARK SMILES CCCCCCCCC=CCCCCCCCC(=O)[O-]
REMARK SMILES IDX 10 1 9 2 11 3 12 4 13 5 14 6 15 7 16 8 17 9 18 10 19 11
REMARK SMILES IDX 20 12 8 13 7 14 6 15 5 16 4 17 3 18 2 19 1 20
REMARK H PARENT
REMARK Flexibility Score: inf
ROOT
ATOM      1  C   UNL     1      12.237  12.435   4.653  1.00  0.00    -0.031 C 
ATOM      2  C   UNL     1      13.532  12.128   4.487  1.00  0.00    -0.031 C 
ENDROOT
BRANCH   1   3
ATOM      3  C   UNL     1      11.149  11.623   4.008  1.00  0.00     0.027 C 
BRANCH   3   4
ATOM      4  C   UNL     1      10.996  10.262   4.703  1.00  0.00     0.004 C 
BRANCH   4   5
ATOM      5  C   UNL     1       9.644  10.100   5.420  1.00  0.00     0.000 C 
BRANCH   5   6
ATOM      6  C   UNL     1       8.899  11.416   5.707  1.00  0.00     0.000 C 
BRANCH   6   7
ATOM      7  C   UNL     1       8.982  11.842   7.183  1.00  0.00     0.000 C 
BRANCH   7   8
ATOM      8  C   UNL     1       9.821  13.114   7.383  1.00  0.00     0.006 C 
BRANCH   8   9
ATOM      9  C   UNL     1       9.485  14.208   6.360  1.00  0.00     0.053 C 
BRANCH   9  10
ATOM     10  C   UNL     1       8.951  15.422   7.052  1.00  0.00     0.041 C 
ATOM     11  O   UNL     1       7.936  15.335   7.792  1.00  0.00    -0.550 OA
ATOM     12  O   UNL     1       9.542  16.661   6.840  1.00  0.00    -0.550 OA
ENDBRANCH   9  10
ENDBRANCH   8   9
ENDBRANCH   7   8
ENDBRANCH   6   7
ENDBRANCH   5   6
ENDBRANCH   4   5
ENDBRANCH   3   4
ENDBRANCH   1   3
BRANCH   2  13
ATOM     13  C   UNL     1      14.629  12.973   5.075  1.00  0.00     0.027 C 
BRANCH  13  14
ATOM     14  C   UNL     1      15.514  13.589   3.981  1.00  0.00     0.004 C 
BRANCH  14  15
ATOM     15  C   UNL     1      15.204  13.092   2.553  1.00  0.00     0.000 C 
BRANCH  15  16
ATOM     16  C   UNL     1      14.600  14.153   1.615  1.00  0.00     0.000 C 
BRANCH  16  17
ATOM     17  C   UNL     1      13.169  13.810   1.167  1.00  0.00    -0.000 C 
BRANCH  17  18
ATOM     18  C   UNL     1      12.115  14.721   1.814  1.00  0.00    -0.000 C 
BRANCH  18  19
ATOM     19  C   UNL     1      12.742  15.895   2.581  1.00  0.00    -0.003 C 
ATOM     20  C   UNL     1      12.231  15.945   4.019  1.00  0.00     0.004 C 
ENDBRANCH  18  19
ENDBRANCH  17  18
ENDBRANCH  16  17
ENDBRANCH  15  16
ENDBRANCH  14  15
ENDBRANCH  13  14
ENDBRANCH   2  13
TORSDOF 15
ENDMDL
MODEL 5
REMARK VINA RESULT:    -4.896      1.380      2.447
REMARK INTER + INTRA:         -11.493
REMARK INTER:                  -8.878
REMARK INTRA:                  -2.614
REMARK UNBOUND:                -2.303
REMARK SMILES CCCCCCCCC=CCCCCCCCC(=O)[O-]
REMARK SMILES IDX 10 1 9 2 11 3 12 4 13 5 14 6 15 7 16 8 17 9 18 10 19 11
REMARK SMILES IDX 20 12 8 13 7 14 6 15 5 16 4 17 3 18 2 19 1 20
REMARK H PARENT
REMARK Flexibility Score: inf
ROOT
ATOM      1  C   UNL     1      11.955  11.693   4.723  1.00  0.00    -0.031 C 
ATOM      2  C   UNL     1      10.852  11.192   4.148  1.00  0.00    -0.031 C 
ENDROOT
BRANCH   1   3
ATOM      3  C   UNL     1      12.966  12.476   3.932  1.00  0.00     0.027 C 
BRANCH   3   4
ATOM      4  C   UNL     1      12.272  13.405   2.925  1.00  0.00     0.004 C 
BRANCH   4   5
ATOM      5  C   UNL     1      12.835  13.274   1.498  1.00  0.00     0.000 C 
BRANCH   5   6
ATOM      6  C   UNL     1      13.317  14.591   0.865  1.00  0.00     0.000 C 
BRANCH   6   7
ATOM      7  C   UNL     1      13.713  15.649   1.909  1.00  0.00     0.000 C 
BRANCH   7   8
ATOM      8  C   UNL     1      15.233  15.727   2.122  1.00  0.00     0.006 C 
BRANCH   8   9
ATOM      9  C   UNL     1      15.677  15.078   3.441  1.00  0.00     0.053 C 
BRANCH   9  10
ATOM     10  C   UNL     1      16.492  13.853   3.171  1.00  0.00     0.041 C 
ATOM     11  O   UNL     1      16.074  12.977   2.368  1.00  0.00    -0.550 OA
ATOM     12  O   UNL     1      17.691  13.652   3.844  1.00  0.00    -0.550 OA
ENDBRANCH   9  10
ENDBRANCH   8   9
ENDBRANCH   7   8
ENDBRANCH   6   7
ENDBRANCH   5   6
ENDBRANCH   4   5
ENDBRANCH   3   4
ENDBRANCH   1   3
BRANCH   2  13
ATOM     13  C   UNL     1       9.868  10.352   4.918  1.00  0.00     0.027 C 
BRANCH  13  14
ATOM     14  C   UNL     1       9.113  11.186   5.964  1.00  0.00     0.004 C 
BRANCH  14  15
ATOM     15  C   UNL     1       8.108  12.197   5.371  1.00  0.00     0.000 C 
BRANCH  15  16
ATOM     16  C   UNL     1       8.174  13.608   5.981  1.00  0.00     0.000 C 
BRANCH  16  17
ATOM     17  C   UNL     1       9.543  13.927   6.605  1.00  0.00    -0.000 C 
BRANCH  17  18
ATOM     18  C   UNL     1      10.357  14.922   5.764  1.00  0.00    -0.000 C 
BRANCH  18  19
ATOM     19  C   UNL     1      11.782  15.120   6.301  1.00  0.00    -0.003 C 
ATOM     20  C   UNL     1      12.552  16.129   5.454  1.00  0.00     0.004 C 
ENDBRANCH  18  19
ENDBRANCH  17  18
ENDBRANCH  16  17
ENDBRANCH  15  16
ENDBRANCH  14  15
ENDBRANCH  13  14
ENDBRANCH   2  13
TORSDOF 15
ENDMDL
MODEL 6
REMARK VINA RESULT:    -4.865      1.657      4.281
REMARK INTER + INTRA:         -11.434
REMARK INTER:                  -8.745
REMARK INTRA:                  -2.689
REMARK UNBOUND:                -2.303
REMARK SMILES CCCCCCCCC=CCCCCCCCC(=O)[O-]
REMARK SMILES IDX 10 1 9 2 11 3 12 4 13 5 14 6 15 7 16 8 17 9 18 10 19 11
REMARK SMILES IDX 20 12 8 13 7 14 6 15 5 16 4 17 3 18 2 19 1 20
REMARK H PARENT
REMARK Flexibility Score: inf
ROOT
ATOM      1  C   UNL     1      11.745  14.950   4.350  1.00  0.00    -0.031 C 
ATOM      2  C   UNL     1      12.764  14.400   5.028  1.00  0.00    -0.031 C 
ENDROOT
BRANCH   1   3
ATOM      3  C   UNL     1      11.832  16.345   3.798  1.00  0.00     0.027 C 
BRANCH   3   4
ATOM      4  C   UNL     1      11.360  16.387   2.337  1.00  0.00     0.004 C 
BRANCH   4   5
ATOM      5  C   UNL     1      11.375  15.004   1.660  1.00  0.00     0.000 C 
BRANCH   5   6
ATOM      6  C   UNL     1      12.427  14.836   0.548  1.00  0.00     0.000 C 
BRANCH   6   7
ATOM      7  C   UNL     1      13.575  13.892   0.946  1.00  0.00     0.000 C 
BRANCH   7   8
ATOM      8  C   UNL     1      14.623  14.582   1.835  1.00  0.00     0.006 C 
BRANCH   8   9
ATOM      9  C   UNL     1      15.501  13.579   2.596  1.00  0.00     0.053 C 
BRANCH   9  10
ATOM     10  C   UNL     1      16.718  14.258   3.139  1.00  0.00     0.041 C 
ATOM     11  O   UNL     1      17.611  13.588   3.722  1.00  0.00    -0.550 OA
ATOM     12  O   UNL     1      16.845  15.638   3.046  1.00  0.00    -0.550 OA
ENDBRANCH   9  10
ENDBRANCH   8   9
ENDBRANCH   7   8
ENDBRANCH   6   7
ENDBRANCH   5   6
ENDBRANCH   4   5
ENDBRANCH   3   4
ENDBRANCH   1   3
BRANCH   2  13
ATOM     13  C   UNL     1      12.660  13.029   5.640  1.00  0.00     0.027 C 
BRANCH  13  14
ATOM     14  C   UNL     1      12.898  11.927   4.595  1.00  0.00     0.004 C 
BRANCH  14  15
ATOM     15  C   UNL     1      11.620  11.435   3.884  1.00  0.00     0.000 C 
BRANCH  15  16
ATOM     16  C   UNL     1      10.814  10.376   4.658  1.00  0.00     0.000 C 
BRANCH  16  17
ATOM     17  C   UNL     1       9.359  10.804   4.914  1.00  0.00    -0.000 C 
BRANCH  17  18
ATOM     18  C   UNL     1       9.242  11.865   6.019  1.00  0.00    -0.000 C 
BRANCH  18  19
ATOM     19  C   UNL     1       8.595  13.165   5.521  1.00  0.00    -0.003 C 
ATOM     20  C   UNL     1       8.370  13.123   4.012  1.00  0.00     0.004 C 
ENDBRANCH  18  19
ENDBRANCH  17  18
ENDBRANCH  16  17
ENDBRANCH  15  16
ENDBRANCH  14  15
ENDBRANCH  13  14
ENDBRANCH   2  13
TORSDOF 15
ENDMDL
MODEL 7
REMARK VINA RESULT:    -4.854      0.886      3.079
REMARK INTER + INTRA:         -11.414
REMARK INTER:                  -8.977
REMARK INTRA:                  -2.436
REMARK UNBOUND:                -2.303
REMARK SMILES CCCCCCCCC=CCCCCCCCC(=O)[O-]
REMARK SMILES IDX 10 1 9 2 11 3 12 4 13 5 14 6 15 7 16 8 17 9 18 10 19 11
REMARK SMILES IDX 20 12 8 13 7 14 6 15 5 16 4 17 3 18 2 19 1 20
REMARK H PARENT
REMARK Flexibility Score: inf
ROOT
ATOM      1  C   UNL     1       9.881  15.016   6.651  1.00  0.00    -0.031 C 
ATOM      2  C   UNL     1       8.823  15.357   5.900  1.00  0.00    -0.031 C 
ENDROOT
BRANCH   1   3
ATOM      3  C   UNL     1      11.287  15.309   6.206  1.00  0.00     0.027 C 
BRANCH   3   4
ATOM      4  C   UNL     1      11.746  14.301   5.142  1.00  0.00     0.004 C 
BRANCH   4   5
ATOM      5  C   UNL     1      12.453  13.073   5.742  1.00  0.00     0.000 C 
BRANCH   5   6
ATOM      6  C   UNL     1      13.367  12.308   4.768  1.00  0.00     0.000 C 
BRANCH   6   7
ATOM      7  C   UNL     1      12.994  12.534   3.292  1.00  0.00     0.000 C 
BRANCH   7   8
ATOM      8  C   UNL     1      14.017  13.411   2.553  1.00  0.00     0.006 C 
BRANCH   8   9
ATOM      9  C   UNL     1      15.466  13.026   2.877  1.00  0.00     0.053 C 
BRANCH   9  10
ATOM     10  C   UNL     1      16.233  14.224   3.342  1.00  0.00     0.041 C 
ATOM     11  O   UNL     1      15.624  15.267   3.697  1.00  0.00    -0.550 OA
ATOM     12  O   UNL     1      17.622  14.207   3.335  1.00  0.00    -0.550 OA
ENDBRANCH   9  10
ENDBRANCH   8   9
ENDBRANCH   7   8
ENDBRANCH   6   7
ENDBRANCH   5   6
ENDBRANCH   4   5
ENDBRANCH   3   4
ENDBRANCH   1   3
BRANCH   2  13
ATOM     13  C   UNL     1       7.417  15.009   6.307  1.00  0.00     0.027 C 
BRANCH  13  14
ATOM     14  C   UNL     1       7.398  14.070   7.524  1.00  0.00     0.004 C 
BRANCH  14  15
ATOM     15  C   UNL     1       7.056  12.603   7.193  1.00  0.00     0.000 C 
BRANCH  15  16
ATOM     16  C   UNL     1       8.118  11.576   7.626  1.00  0.00     0.000 C 
BRANCH  16  17
ATOM     17  C   UNL     1       9.267  11.442   6.612  1.00  0.00    -0.000 C 
BRANCH  17  18
ATOM     18  C   UNL     1       8.804  11.664   5.164  1.00  0.00    -0.000 C 
BRANCH  18  19
ATOM     19  C   UNL     1       9.723  10.980   4.140  1.00  0.00    -0.003 C 
ATOM     20  C   UNL     1      10.470   9.808   4.772  1.00  0.00     0.004 C 
ENDBRANCH  18  19
ENDBRANCH  17  18
ENDBRANCH  16  17
ENDBRANCH  15  16
ENDBRANCH  14  15
ENDBRANCH  13  14
ENDBRANCH   2  13
TORSDOF 15
ENDMDL
MODEL 8
REMARK VINA RESULT:    -4.813      1.543      3.220
REMARK INTER + INTRA:         -11.337
REMARK INTER:                  -9.040
REMARK INTRA:                  -2.297
REMARK UNBOUND:                -2.303
REMARK SMILES CCCCCCCCC=CCCCCCCCC(=O)[O-]
REMARK SMILES IDX 10 1 9 2 11 3 12 4 13 5 14 6 15 7 16 8 17 9 18 10 19 11
REMARK SMILES IDX 20 12 8 13 7 14 6 15 5 16 4 17 3 18 2 19 1 20
REMARK H PARENT
REMARK Flexibility Score: inf
ROOT
ATOM      1  C   UNL     1       9.093  14.891   4.571  1.00  0.00    -0.031 C 
ATOM      2  C   UNL     1       8.548  13.676   4.410  1.00  0.00    -0.031 C 
ENDROOT
BRANCH   1   3
ATOM      3  C   UNL     1       9.763  15.607   3.432  1.00  0.00     0.027 C 
BRANCH   3   4
ATOM      4  C   UNL     1      10.551  14.623   2.554  1.00  0.00     0.004 C 
BRANCH   4   5
ATOM      5  C   UNL     1      12.002  15.071   2.302  1.00  0.00     0.000 C 
BRANCH   5   6
ATOM      6  C   UNL     1      12.554  14.731   0.906  1.00  0.00     0.000 C 
BRANCH   6   7
ATOM      7  C   UNL     1      13.974  14.140   0.950  1.00  0.00     0.000 C 
BRANCH   7   8
ATOM      8  C   UNL     1      14.238  13.337   2.234  1.00  0.00     0.006 C 
BRANCH   8   9
ATOM      9  C   UNL     1      15.733  13.086   2.474  1.00  0.00     0.053 C 
BRANCH   9  10
ATOM     10  C   UNL     1      16.358  14.263   3.154  1.00  0.00     0.041 C 
ATOM     11  O   UNL     1      17.611  14.369   3.213  1.00  0.00    -0.550 OA
ATOM     12  O   UNL     1      15.558  15.218   3.767  1.00  0.00    -0.550 OA
ENDBRANCH   9  10
ENDBRANCH   8   9
ENDBRANCH   7   8
ENDBRANCH   6   7
ENDBRANCH   5   6
ENDBRANCH   4   5
ENDBRANCH   3   4
ENDBRANCH   1   3
BRANCH   2  13
ATOM     13  C   UNL     1       7.933  12.925   5.561  1.00  0.00     0.027 C 
BRANCH  13  14
ATOM     14  C   UNL     1       8.094  11.406   5.392  1.00  0.00     0.004 C 
BRANCH  14  15
ATOM     15  C   UNL     1       9.439  10.845   5.900  1.00  0.00     0.000 C 
BRANCH  15  16
ATOM     16  C   UNL     1      10.298  10.152   4.828  1.00  0.00     0.000 C 
BRANCH  16  17
ATOM     17  C   UNL     1      11.040  11.148   3.920  1.00  0.00    -0.000 C 
BRANCH  17  18
ATOM     18  C   UNL     1      12.346  11.657   4.549  1.00  0.00    -0.000 C 
BRANCH  18  19
ATOM     19  C   UNL     1      12.141  12.933   5.381  1.00  0.00    -0.003 C 
ATOM     20  C   UNL     1      13.462  13.421   5.970  1.00  0.00     0.004 C 
ENDBRANCH  18  19
ENDBRANCH  17  18
ENDBRANCH  16  17
ENDBRANCH  15  16
ENDBRANCH  14  15
ENDBRANCH  13  14
ENDBRANCH   2  13
TORSDOF 15
ENDMDL
MODEL 9
REMARK VINA RESULT:    -4.770      3.939      6.811
REMARK INTER + INTRA:         -11.256
REMARK INTER:                  -8.627
REMARK INTRA:                  -2.630
REMARK UNBOUND:                -2.303
REMARK SMILES CCCCCCCCC=CCCCCCCCC(=O)[O-]
REMARK SMILES IDX 10 1 9 2 11 3 12 4 13 5 14 6 15 7 16 8 17 9 18 10 19 11
REMARK SMILES IDX 20 12 8 13 7 14 6 15 5 16 4 17 3 18 2 19 1 20
REMARK H PARENT
REMARK Flexibility Score: inf
ROOT
ATOM      1  C   UNL     1      10.547  13.877   4.084  1.00  0.00    -0.031 C 
ATOM      2  C   UNL     1      10.891  15.033   4.670  1.00  0.00    -0.031 C 
ENDROOT
BRANCH   1   3
ATOM      3  C   UNL     1       9.133  13.609   3.648  1.00  0.00     0.027 C 
BRANCH   3   4
ATOM      4  C   UNL     1       8.847  12.100   3.616  1.00  0.00     0.004 C 
BRANCH   4   5
ATOM      5  C   UNL     1      10.114  11.243   3.790  1.00  0.00     0.000 C 
BRANCH   5   6
ATOM      6  C   UNL     1      10.149  10.386   5.068  1.00  0.00     0.000 C 
BRANCH   6   7
ATOM      7  C   UNL     1       9.105  10.821   6.111  1.00  0.00     0.000 C 
BRANCH   7   8
ATOM      8  C   UNL     1       9.668  11.836   7.119  1.00  0.00     0.006 C 
BRANCH   8   9
ATOM      9  C   UNL     1       8.587  12.772   7.677  1.00  0.00     0.053 C 
BRANCH   9  10
ATOM     10  C   UNL     1       7.239  12.129   7.579  1.00  0.00     0.041 C 
ATOM     11  O   UNL     1       6.444  12.462   6.661  1.00  0.00    -0.550 OA
ATOM     12  O   UNL     1       6.840  11.200   8.532  1.00  0.00    -0.550 OA
ENDBRANCH   9  10
ENDBRANCH   8   9
ENDBRANCH   7   8
ENDBRANCH   6   7
ENDBRANCH   5   6
ENDBRANCH   4   5
ENDBRANCH   3   4
ENDBRANCH   1   3
BRANCH   2  13
ATOM     13  C   UNL     1      12.289  15.283   5.169  1.00  0.00     0.027 C 
BRANCH  13  14
ATOM     14  C   UNL     1      13.053  13.968   5.387  1.00  0.00     0.004 C 
BRANCH  14  15
ATOM     15  C   UNL     1      14.173  13.702   4.358  1.00  0.00     0.000 C 
BRANCH  15  16
ATOM     16  C   UNL     1      13.809  12.697   3.251  1.00  0.00     0.000 C 
BRANCH  16  17
ATOM     17  C   UNL     1      13.515  13.375   1.902  1.00  0.00    -0.000 C 
BRANCH  17  18
ATOM     18  C   UNL     1      14.078  14.802   1.825  1.00  0.00    -0.000 C 
BRANCH  18  19
ATOM     19  C   UNL     1      12.987  15.851   1.557  1.00  0.00    -0.003 C 
ATOM     20  C   UNL     1      11.805  15.236   0.814  1.00  0.00     0.004 C 
ENDBRANCH  18  19
ENDBRANCH  17  18
ENDBRANCH  16  17
ENDBRANCH  15  16
ENDBRANCH  14  15
ENDBRANCH  13  14
ENDBRANCH   2  13
TORSDOF 15
ENDMDL
