MODEL 1
REMARK VINA RESULT:    -7.007      0.000      0.000
REMARK INTER + INTRA:          -8.514
REMARK INTER:                  -8.236
REMARK INTRA:                  -0.278
REMARK UNBOUND:                -0.278
REMARK SMILES O=c1c(O)c(-c2ccc(O)cc2)oc2cc(O)cc(O)c12
REMARK SMILES IDX 5 1 3 2 2 3 1 4 21 5 19 6 18 7 16 8 15 9 14 10 13 11 6 12
REMARK SMILES IDX 7 13 8 14 9 15 12 16 11 17 10 18 4 20 20 22 17 24
REMARK H PARENT 10 19 4 21 20 23 17 25
REMARK Flexibility Score: inf
ROOT
ATOM      1  C   UNL     1     -13.261 -29.546 -12.109  1.00  0.00     0.180 A 
ATOM      2  C   UNL     1     -13.555 -30.717 -12.829  1.00  0.00     0.208 A 
ATOM      3  C   UNL     1     -13.121 -31.954 -12.327  1.00  0.00     0.238 A 
ATOM      4  O   UNL     1     -13.434 -33.002 -12.948  1.00  0.00    -0.285 OA
ATOM      5  C   UNL     1     -12.384 -32.004 -11.118  1.00  0.00     0.111 A 
ATOM      6  C   UNL     1     -11.860 -33.198 -10.538  1.00  0.00     0.134 A 
ATOM      7  C   UNL     1     -11.260 -33.145  -9.273  1.00  0.00     0.093 A 
ATOM      8  C   UNL     1     -11.107 -31.931  -8.599  1.00  0.00     0.123 A 
ATOM      9  C   UNL     1     -11.562 -30.752  -9.184  1.00  0.00     0.094 A 
ATOM     10  C   UNL     1     -12.198 -30.777 -10.428  1.00  0.00     0.146 A 
ATOM     11  O   UNL     1     -12.625 -29.633 -10.946  1.00  0.00    -0.452 OA
ENDROOT
BRANCH   1  12
ATOM     12  C   UNL     1     -13.663 -28.204 -12.587  1.00  0.00     0.021 A 
ATOM     13  C   UNL     1     -14.776 -27.569 -12.011  1.00  0.00     0.016 A 
ATOM     14  C   UNL     1     -15.160 -26.292 -12.431  1.00  0.00     0.047 A 
ATOM     15  C   UNL     1     -14.426 -25.628 -13.423  1.00  0.00     0.115 A 
ATOM     16  C   UNL     1     -12.920 -27.522 -13.568  1.00  0.00     0.016 A 
ATOM     17  C   UNL     1     -13.306 -26.245 -13.986  1.00  0.00     0.047 A 
BRANCH  15  18
ATOM     18  O   UNL     1     -14.799 -24.356 -13.851  1.00  0.00    -0.508 OA
ATOM     19  H   UNL     1     -14.453 -23.967 -14.721  1.00  0.00     0.293 HD
ENDBRANCH  15  18
ENDBRANCH   1  12
BRANCH   2  20
ATOM     20  O   UNL     1     -14.302 -30.647 -14.009  1.00  0.00    -0.502 OA
ATOM     21  H   UNL     1     -15.182 -30.148 -14.067  1.00  0.00     0.293 HD
ENDBRANCH   2  20
BRANCH   6  22
ATOM     22  O   UNL     1     -11.879 -34.445 -11.169  1.00  0.00    -0.507 OA
ATOM     23  H   UNL     1     -11.821 -35.331 -10.692  1.00  0.00     0.293 HD
ENDBRANCH   6  22
BRANCH   8  24
ATOM     24  O   UNL     1     -10.495 -31.886  -7.348  1.00  0.00    -0.508 OA
ATOM     25  H   UNL     1      -9.615 -32.354  -7.171  1.00  0.00     0.293 HD
ENDBRANCH   8  24
TORSDOF 5
ENDMDL
MODEL 2
REMARK VINA RESULT:    -6.891      3.736      5.095
REMARK INTER + INTRA:          -8.377
REMARK INTER:                  -8.111
REMARK INTRA:                  -0.266
REMARK UNBOUND:                -0.278
REMARK SMILES O=c1c(O)c(-c2ccc(O)cc2)oc2cc(O)cc(O)c12
REMARK SMILES IDX 5 1 3 2 2 3 1 4 21 5 19 6 18 7 16 8 15 9 14 10 13 11 6 12
REMARK SMILES IDX 7 13 8 14 9 15 12 16 11 17 10 18 4 20 20 22 17 24
REMARK H PARENT 10 19 4 21 20 23 17 25
REMARK Flexibility Score: inf
ROOT
ATOM      1  C   UNL     1     -12.926 -27.595  -9.606  1.00  0.00     0.180 A 
ATOM      2  C   UNL     1     -13.699 -27.107 -10.673  1.00  0.00     0.208 A 
ATOM      3  C   UNL     1     -14.415 -28.015 -11.468  1.00  0.00     0.238 A 
ATOM      4  O   UNL     1     -15.149 -27.568 -12.387  1.00  0.00    -0.285 OA
ATOM      5  C   UNL     1     -14.337 -29.403 -11.196  1.00  0.00     0.111 A 
ATOM      6  C   UNL     1     -14.989 -30.417 -11.961  1.00  0.00     0.134 A 
ATOM      7  C   UNL     1     -14.947 -31.747 -11.523  1.00  0.00     0.093 A 
ATOM      8  C   UNL     1     -14.222 -32.107 -10.384  1.00  0.00     0.123 A 
ATOM      9  C   UNL     1     -13.534 -31.133  -9.664  1.00  0.00     0.094 A 
ATOM     10  C   UNL     1     -13.587 -29.793 -10.055  1.00  0.00     0.146 A 
ATOM     11  O   UNL     1     -12.925 -28.896  -9.336  1.00  0.00    -0.452 OA
ENDROOT
BRANCH   1  12
ATOM     12  C   UNL     1     -12.124 -26.701  -8.740  1.00  0.00     0.021 A 
ATOM     13  C   UNL     1     -12.744 -26.039  -7.666  1.00  0.00     0.016 A 
ATOM     14  C   UNL     1     -12.001 -25.208  -6.822  1.00  0.00     0.047 A 
ATOM     15  C   UNL     1     -10.626 -25.042  -7.032  1.00  0.00     0.115 A 
ATOM     16  C   UNL     1     -10.739 -26.544  -8.931  1.00  0.00     0.016 A 
ATOM     17  C   UNL     1      -9.998 -25.713  -8.084  1.00  0.00     0.047 A 
BRANCH  15  18
ATOM     18  O   UNL     1      -9.875 -24.216  -6.197  1.00  0.00    -0.508 OA
ATOM     19  H   UNL     1      -9.547 -23.308  -6.507  1.00  0.00     0.293 HD
ENDBRANCH  15  18
ENDBRANCH   1  12
BRANCH   2  20
ATOM     20  O   UNL     1     -13.780 -25.732 -10.911  1.00  0.00    -0.502 OA
ATOM     21  H   UNL     1     -14.605 -25.295 -11.305  1.00  0.00     0.293 HD
ENDBRANCH   2  20
BRANCH   6  22
ATOM     22  O   UNL     1     -15.660 -30.176 -13.163  1.00  0.00    -0.507 OA
ATOM     23  H   UNL     1     -15.959 -30.891 -13.807  1.00  0.00     0.293 HD
ENDBRANCH   6  22
BRANCH   8  24
ATOM     24  O   UNL     1     -14.174 -33.435  -9.964  1.00  0.00    -0.508 OA
ATOM     25  H   UNL     1     -14.634 -34.172 -10.484  1.00  0.00     0.293 HD
ENDBRANCH   8  24
TORSDOF 5
ENDMDL
MODEL 3
REMARK VINA RESULT:    -6.583      2.637      5.783
REMARK INTER + INTRA:          -8.015
REMARK INTER:                  -7.715
REMARK INTRA:                  -0.300
REMARK UNBOUND:                -0.278
REMARK SMILES O=c1c(O)c(-c2ccc(O)cc2)oc2cc(O)cc(O)c12
REMARK SMILES IDX 5 1 3 2 2 3 1 4 21 5 19 6 18 7 16 8 15 9 14 10 13 11 6 12
REMARK SMILES IDX 7 13 8 14 9 15 12 16 11 17 10 18 4 20 20 22 17 24
REMARK H PARENT 10 19 4 21 20 23 17 25
REMARK Flexibility Score: inf
ROOT
ATOM      1  C   UNL     1     -13.774 -30.385 -11.992  1.00  0.00     0.180 A 
ATOM      2  C   UNL     1     -13.832 -29.128 -12.619  1.00  0.00     0.208 A 
ATOM      3  C   UNL     1     -14.047 -27.984 -11.836  1.00  0.00     0.238 A 
ATOM      4  O   UNL     1     -14.044 -26.858 -12.396  1.00  0.00    -0.285 OA
ATOM      5  C   UNL     1     -14.218 -28.111 -10.436  1.00  0.00     0.111 A 
ATOM      6  C   UNL     1     -14.482 -27.024  -9.550  1.00  0.00     0.134 A 
ATOM      7  C   UNL     1     -14.502 -27.249  -8.167  1.00  0.00     0.093 A 
ATOM      8  C   UNL     1     -14.335 -28.533  -7.644  1.00  0.00     0.123 A 
ATOM      9  C   UNL     1     -14.136 -29.611  -8.505  1.00  0.00     0.094 A 
ATOM     10  C   UNL     1     -14.073 -29.412  -9.886  1.00  0.00     0.146 A 
ATOM     11  O   UNL     1     -13.872 -30.464 -10.670  1.00  0.00    -0.452 OA
ENDROOT
BRANCH   1  12
ATOM     12  C   UNL     1     -13.575 -31.638 -12.754  1.00  0.00     0.021 A 
ATOM     13  C   UNL     1     -12.277 -32.152 -12.916  1.00  0.00     0.016 A 
ATOM     14  C   UNL     1     -12.068 -33.345 -13.613  1.00  0.00     0.047 A 
ATOM     15  C   UNL     1     -13.157 -34.050 -14.142  1.00  0.00     0.115 A 
ATOM     16  C   UNL     1     -14.664 -32.363 -13.272  1.00  0.00     0.016 A 
ATOM     17  C   UNL     1     -14.453 -33.557 -13.967  1.00  0.00     0.047 A 
BRANCH  15  18
ATOM     18  O   UNL     1     -12.962 -35.241 -14.839  1.00  0.00    -0.508 OA
ATOM     19  H   UNL     1     -12.047 -35.509 -15.182  1.00  0.00     0.293 HD
ENDBRANCH  15  18
ENDBRANCH   1  12
BRANCH   2  20
ATOM     20  O   UNL     1     -13.639 -29.023 -14.000  1.00  0.00    -0.502 OA
ATOM     21  H   UNL     1     -12.771 -29.288 -14.450  1.00  0.00     0.293 HD
ENDBRANCH   2  20
BRANCH   6  22
ATOM     22  O   UNL     1     -14.755 -25.720  -9.974  1.00  0.00    -0.507 OA
ATOM     23  H   UNL     1     -14.121 -24.941  -9.884  1.00  0.00     0.293 HD
ENDBRANCH   6  22
BRANCH   8  24
ATOM     24  O   UNL     1     -14.372 -28.750  -6.268  1.00  0.00    -0.508 OA
ATOM     25  H   UNL     1     -14.784 -29.588  -5.875  1.00  0.00     0.293 HD
ENDBRANCH   8  24
TORSDOF 5
ENDMDL
MODEL 4
REMARK VINA RESULT:    -6.545      1.353      3.239
REMARK INTER + INTRA:          -7.971
REMARK INTER:                  -7.677
REMARK INTRA:                  -0.293
REMARK UNBOUND:                -0.278
REMARK SMILES O=c1c(O)c(-c2ccc(O)cc2)oc2cc(O)cc(O)c12
REMARK SMILES IDX 5 1 3 2 2 3 1 4 21 5 19 6 18 7 16 8 15 9 14 10 13 11 6 12
REMARK SMILES IDX 7 13 8 14 9 15 12 16 11 17 10 18 4 20 20 22 17 24
REMARK H PARENT 10 19 4 21 20 23 17 25
REMARK Flexibility Score: inf
ROOT
ATOM      1  C   UNL     1     -13.073 -29.668 -11.901  1.00  0.00     0.180 A 
ATOM      2  C   UNL     1     -12.637 -29.939 -10.593  1.00  0.00     0.208 A 
ATOM      3  C   UNL     1     -12.177 -31.227 -10.281  1.00  0.00     0.238 A 
ATOM      4  O   UNL     1     -11.737 -31.448  -9.123  1.00  0.00    -0.285 OA
ATOM      5  C   UNL     1     -12.173 -32.235 -11.276  1.00  0.00     0.111 A 
ATOM      6  C   UNL     1     -11.765 -33.585 -11.061  1.00  0.00     0.134 A 
ATOM      7  C   UNL     1     -11.679 -34.463 -12.149  1.00  0.00     0.093 A 
ATOM      8  C   UNL     1     -12.048 -34.055 -13.434  1.00  0.00     0.123 A 
ATOM      9  C   UNL     1     -12.504 -32.755 -13.644  1.00  0.00     0.094 A 
ATOM     10  C   UNL     1     -12.566 -31.846 -12.584  1.00  0.00     0.146 A 
ATOM     11  O   UNL     1     -12.996 -30.615 -12.829  1.00  0.00    -0.452 OA
ENDROOT
BRANCH   1  12
ATOM     12  C   UNL     1     -13.596 -28.341 -12.300  1.00  0.00     0.021 A 
ATOM     13  C   UNL     1     -12.747 -27.430 -12.951  1.00  0.00     0.016 A 
ATOM     14  C   UNL     1     -13.224 -26.180 -13.355  1.00  0.00     0.047 A 
ATOM     15  C   UNL     1     -14.563 -25.833 -13.129  1.00  0.00     0.115 A 
ATOM     16  C   UNL     1     -14.943 -27.991 -12.094  1.00  0.00     0.016 A 
ATOM     17  C   UNL     1     -15.419 -26.741 -12.501  1.00  0.00     0.047 A 
BRANCH  15  18
ATOM     18  O   UNL     1     -15.051 -24.590 -13.527  1.00  0.00    -0.508 OA
ATOM     19  H   UNL     1     -15.159 -23.827 -12.868  1.00  0.00     0.293 HD
ENDBRANCH  15  18
ENDBRANCH   1  12
BRANCH   2  20
ATOM     20  O   UNL     1     -12.629 -28.924  -9.631  1.00  0.00    -0.502 OA
ATOM     21  H   UNL     1     -13.310 -28.174  -9.625  1.00  0.00     0.293 HD
ENDBRANCH   2  20
BRANCH   6  22
ATOM     22  O   UNL     1     -11.465 -34.118  -9.804  1.00  0.00    -0.507 OA
ATOM     23  H   UNL     1     -11.766 -35.023  -9.476  1.00  0.00     0.293 HD
ENDBRANCH   6  22
BRANCH   8  24
ATOM     24  O   UNL     1     -11.973 -34.939 -14.508  1.00  0.00    -0.508 OA
ATOM     25  H   UNL     1     -12.799 -35.393 -14.879  1.00  0.00     0.293 HD
ENDBRANCH   8  24
TORSDOF 5
ENDMDL
MODEL 5
REMARK VINA RESULT:    -6.537      2.331      6.489
REMARK INTER + INTRA:          -7.962
REMARK INTER:                  -7.666
REMARK INTRA:                  -0.296
REMARK UNBOUND:                -0.278
REMARK SMILES O=c1c(O)c(-c2ccc(O)cc2)oc2cc(O)cc(O)c12
REMARK SMILES IDX 5 1 3 2 2 3 1 4 21 5 19 6 18 7 16 8 15 9 14 10 13 11 6 12
REMARK SMILES IDX 7 13 8 14 9 15 12 16 11 17 10 18 4 20 20 22 17 24
REMARK H PARENT 10 19 4 21 20 23 17 25
REMARK Flexibility Score: inf
ROOT
ATOM      1  C   UNL     1     -13.769 -30.785 -12.262  1.00  0.00     0.180 A 
ATOM      2  C   UNL     1     -13.982 -30.739 -10.873  1.00  0.00     0.208 A 
ATOM      3  C   UNL     1     -14.209 -29.498 -10.259  1.00  0.00     0.238 A 
ATOM      4  O   UNL     1     -14.453 -29.470  -9.025  1.00  0.00    -0.285 OA
ATOM      5  C   UNL     1     -14.206 -28.315 -11.038  1.00  0.00     0.111 A 
ATOM      6  C   UNL     1     -14.386 -27.000 -10.514  1.00  0.00     0.134 A 
ATOM      7  C   UNL     1     -14.495 -25.915 -11.394  1.00  0.00     0.093 A 
ATOM      8  C   UNL     1     -14.364 -26.092 -12.774  1.00  0.00     0.123 A 
ATOM      9  C   UNL     1     -14.129 -27.364 -13.290  1.00  0.00     0.094 A 
ATOM     10  C   UNL     1     -14.053 -28.470 -12.441  1.00  0.00     0.146 A 
ATOM     11  O   UNL     1     -13.837 -29.666 -12.975  1.00  0.00    -0.452 OA
ENDROOT
BRANCH   1  12
ATOM     12  C   UNL     1     -13.498 -32.053 -12.977  1.00  0.00     0.021 A 
ATOM     13  C   UNL     1     -14.566 -32.773 -13.539  1.00  0.00     0.016 A 
ATOM     14  C   UNL     1     -14.331 -33.961 -14.237  1.00  0.00     0.047 A 
ATOM     15  C   UNL     1     -13.022 -34.435 -14.397  1.00  0.00     0.115 A 
ATOM     16  C   UNL     1     -12.186 -32.526 -13.159  1.00  0.00     0.016 A 
ATOM     17  C   UNL     1     -11.953 -33.713 -13.859  1.00  0.00     0.047 A 
BRANCH  15  18
ATOM     18  O   UNL     1     -12.774 -35.618 -15.090  1.00  0.00    -0.508 OA
ATOM     19  H   UNL     1     -12.787 -35.650 -16.104  1.00  0.00     0.293 HD
ENDBRANCH  15  18
ENDBRANCH   1  12
BRANCH   2  20
ATOM     20  O   UNL     1     -14.002 -31.921 -10.127  1.00  0.00    -0.502 OA
ATOM     21  H   UNL     1     -14.377 -32.789 -10.491  1.00  0.00     0.293 HD
ENDBRANCH   2  20
BRANCH   6  22
ATOM     22  O   UNL     1     -14.436 -26.704  -9.149  1.00  0.00    -0.507 OA
ATOM     23  H   UNL     1     -14.163 -27.337  -8.413  1.00  0.00     0.293 HD
ENDBRANCH   6  22
BRANCH   8  24
ATOM     24  O   UNL     1     -14.459 -25.005 -13.640  1.00  0.00    -0.508 OA
ATOM     25  H   UNL     1     -13.760 -24.271 -13.650  1.00  0.00     0.293 HD
ENDBRANCH   8  24
TORSDOF 5
ENDMDL
MODEL 6
REMARK VINA RESULT:    -6.479      2.384      3.039
REMARK INTER + INTRA:          -7.894
REMARK INTER:                  -7.743
REMARK INTRA:                  -0.151
REMARK UNBOUND:                -0.278
REMARK SMILES O=c1c(O)c(-c2ccc(O)cc2)oc2cc(O)cc(O)c12
REMARK SMILES IDX 5 1 3 2 2 3 1 4 21 5 19 6 18 7 16 8 15 9 14 10 13 11 6 12
REMARK SMILES IDX 7 13 8 14 9 15 12 16 11 17 10 18 4 20 20 22 17 24
REMARK H PARENT 10 19 4 21 20 23 17 25
REMARK Flexibility Score: inf
ROOT
ATOM      1  C   UNL     1     -13.695 -30.192 -11.103  1.00  0.00     0.180 A 
ATOM      2  C   UNL     1     -14.465 -30.616 -12.199  1.00  0.00     0.208 A 
ATOM      3  C   UNL     1     -14.134 -31.821 -12.840  1.00  0.00     0.238 A 
ATOM      4  O   UNL     1     -14.859 -32.222 -13.786  1.00  0.00    -0.285 OA
ATOM      5  C   UNL     1     -13.027 -32.579 -12.386  1.00  0.00     0.111 A 
ATOM      6  C   UNL     1     -12.576 -33.794 -12.984  1.00  0.00     0.134 A 
ATOM      7  C   UNL     1     -11.552 -34.527 -12.372  1.00  0.00     0.093 A 
ATOM      8  C   UNL     1     -10.918 -34.054 -11.220  1.00  0.00     0.123 A 
ATOM      9  C   UNL     1     -11.310 -32.840 -10.662  1.00  0.00     0.094 A 
ATOM     10  C   UNL     1     -12.354 -32.104 -11.229  1.00  0.00     0.146 A 
ATOM     11  O   UNL     1     -12.704 -30.957 -10.660  1.00  0.00    -0.452 OA
ENDROOT
BRANCH   1  12
ATOM     12  C   UNL     1     -13.967 -28.922 -10.393  1.00  0.00     0.021 A 
ATOM     13  C   UNL     1     -14.298 -28.949  -9.027  1.00  0.00     0.016 A 
ATOM     14  C   UNL     1     -14.537 -27.760  -8.332  1.00  0.00     0.047 A 
ATOM     15  C   UNL     1     -14.433 -26.528  -8.990  1.00  0.00     0.115 A 
ATOM     16  C   UNL     1     -13.845 -27.679 -11.040  1.00  0.00     0.016 A 
ATOM     17  C   UNL     1     -14.083 -26.491 -10.342  1.00  0.00     0.047 A 
BRANCH  15  18
ATOM     18  O   UNL     1     -14.669 -25.336  -8.307  1.00  0.00    -0.508 OA
ATOM     19  H   UNL     1     -14.929 -24.488  -8.798  1.00  0.00     0.293 HD
ENDBRANCH  15  18
ENDBRANCH   1  12
BRANCH   2  20
ATOM     20  O   UNL     1     -15.566 -29.864 -12.618  1.00  0.00    -0.502 OA
ATOM     21  H   UNL     1     -16.201 -30.184 -13.339  1.00  0.00     0.293 HD
ENDBRANCH   2  20
BRANCH   6  22
ATOM     22  O   UNL     1     -13.078 -34.305 -14.185  1.00  0.00    -0.507 OA
ATOM     23  H   UNL     1     -13.441 -35.237 -14.305  1.00  0.00     0.293 HD
ENDBRANCH   6  22
BRANCH   8  24
ATOM     24  O   UNL     1      -9.889 -34.783 -10.627  1.00  0.00    -0.508 OA
ATOM     25  H   UNL     1      -9.994 -35.766 -10.407  1.00  0.00     0.293 HD
ENDBRANCH   8  24
TORSDOF 5
ENDMDL
MODEL 7
REMARK VINA RESULT:    -6.301      2.833      4.579
REMARK INTER + INTRA:          -7.684
REMARK INTER:                  -7.398
REMARK INTRA:                  -0.286
REMARK UNBOUND:                -0.278
REMARK SMILES O=c1c(O)c(-c2ccc(O)cc2)oc2cc(O)cc(O)c12
REMARK SMILES IDX 5 1 3 2 2 3 1 4 21 5 19 6 18 7 16 8 15 9 14 10 13 11 6 12
REMARK SMILES IDX 7 13 8 14 9 15 12 16 11 17 10 18 4 20 20 22 17 24
REMARK H PARENT 10 19 4 21 20 23 17 25
REMARK Flexibility Score: inf
ROOT
ATOM      1  C   UNL     1     -13.120 -30.712 -11.211  1.00  0.00     0.180 A 
ATOM      2  C   UNL     1     -11.744 -30.966 -11.352  1.00  0.00     0.208 A 
ATOM      3  C   UNL     1     -11.326 -31.998 -12.206  1.00  0.00     0.238 A 
ATOM      4  O   UNL     1     -10.092 -32.185 -12.370  1.00  0.00    -0.285 OA
ATOM      5  C   UNL     1     -12.288 -32.774 -12.898  1.00  0.00     0.111 A 
ATOM      6  C   UNL     1     -11.979 -33.870 -13.758  1.00  0.00     0.134 A 
ATOM      7  C   UNL     1     -13.003 -34.483 -14.492  1.00  0.00     0.093 A 
ATOM      8  C   UNL     1     -14.333 -34.081 -14.345  1.00  0.00     0.123 A 
ATOM      9  C   UNL     1     -14.652 -33.051 -13.462  1.00  0.00     0.094 A 
ATOM     10  C   UNL     1     -13.648 -32.396 -12.745  1.00  0.00     0.146 A 
ATOM     11  O   UNL     1     -13.994 -31.414 -11.923  1.00  0.00    -0.452 OA
ENDROOT
BRANCH   1  12
ATOM     12  C   UNL     1     -13.638 -29.658 -10.310  1.00  0.00     0.021 A 
ATOM     13  C   UNL     1     -13.840 -29.947  -8.950  1.00  0.00     0.016 A 
ATOM     14  C   UNL     1     -14.307 -28.961  -8.076  1.00  0.00     0.047 A 
ATOM     15  C   UNL     1     -14.562 -27.667  -8.550  1.00  0.00     0.115 A 
ATOM     16  C   UNL     1     -13.878 -28.351 -10.772  1.00  0.00     0.016 A 
ATOM     17  C   UNL     1     -14.344 -27.365  -9.896  1.00  0.00     0.047 A 
BRANCH  15  18
ATOM     18  O   UNL     1     -15.029 -26.675  -7.689  1.00  0.00    -0.508 OA
ATOM     19  H   UNL     1     -15.528 -26.905  -6.838  1.00  0.00     0.293 HD
ENDBRANCH  15  18
ENDBRANCH   1  12
BRANCH   2  20
ATOM     20  O   UNL     1     -10.811 -30.174 -10.677  1.00  0.00    -0.502 OA
ATOM     21  H   UNL     1     -10.059 -30.570 -10.125  1.00  0.00     0.293 HD
ENDBRANCH   2  20
BRANCH   6  22
ATOM     22  O   UNL     1     -10.697 -34.409 -13.905  1.00  0.00    -0.507 OA
ATOM     23  H   UNL     1     -10.053 -34.168 -14.641  1.00  0.00     0.293 HD
ENDBRANCH   6  22
BRANCH   8  24
ATOM     24  O   UNL     1     -15.347 -34.706 -15.067  1.00  0.00    -0.508 OA
ATOM     25  H   UNL     1     -15.334 -35.703 -15.246  1.00  0.00     0.293 HD
ENDBRANCH   8  24
TORSDOF 5
ENDMDL
MODEL 8
REMARK VINA RESULT:    -6.253      3.461      5.370
REMARK INTER + INTRA:          -7.628
REMARK INTER:                  -7.363
REMARK INTRA:                  -0.266
REMARK UNBOUND:                -0.278
REMARK SMILES O=c1c(O)c(-c2ccc(O)cc2)oc2cc(O)cc(O)c12
REMARK SMILES IDX 5 1 3 2 2 3 1 4 21 5 19 6 18 7 16 8 15 9 14 10 13 11 6 12
REMARK SMILES IDX 7 13 8 14 9 15 12 16 11 17 10 18 4 20 20 22 17 24
REMARK H PARENT 10 19 4 21 20 23 17 25
REMARK Flexibility Score: inf
ROOT
ATOM      1  C   UNL     1     -12.193 -28.722  -8.853  1.00  0.00     0.180 A 
ATOM      2  C   UNL     1     -11.738 -30.001  -8.492  1.00  0.00     0.208 A 
ATOM      3  C   UNL     1     -12.355 -31.129  -9.055  1.00  0.00     0.238 A 
ATOM      4  O   UNL     1     -11.908 -32.270  -8.770  1.00  0.00    -0.285 OA
ATOM      5  C   UNL     1     -13.431 -30.964  -9.961  1.00  0.00     0.111 A 
ATOM      6  C   UNL     1     -14.156 -32.036 -10.562  1.00  0.00     0.134 A 
ATOM      7  C   UNL     1     -15.116 -31.756 -11.544  1.00  0.00     0.093 A 
ATOM      8  C   UNL     1     -15.421 -30.439 -11.897  1.00  0.00     0.123 A 
ATOM      9  C   UNL     1     -14.760 -29.383 -11.273  1.00  0.00     0.094 A 
ATOM     10  C   UNL     1     -13.772 -29.632 -10.317  1.00  0.00     0.146 A 
ATOM     11  O   UNL     1     -13.160 -28.598  -9.754  1.00  0.00    -0.452 OA
ENDROOT
BRANCH   1  12
ATOM     12  C   UNL     1     -11.609 -27.487  -8.281  1.00  0.00     0.021 A 
ATOM     13  C   UNL     1     -10.432 -26.957  -8.837  1.00  0.00     0.016 A 
ATOM     14  C   UNL     1      -9.875 -25.780  -8.328  1.00  0.00     0.047 A 
ATOM     15  C   UNL     1     -10.498 -25.109  -7.267  1.00  0.00     0.115 A 
ATOM     16  C   UNL     1     -12.238 -26.796  -7.230  1.00  0.00     0.016 A 
ATOM     17  C   UNL     1     -11.680 -25.618  -6.723  1.00  0.00     0.047 A 
BRANCH  15  18
ATOM     18  O   UNL     1      -9.953 -23.935  -6.751  1.00  0.00    -0.508 OA
ATOM     19  H   UNL     1      -9.397 -23.938  -5.902  1.00  0.00     0.293 HD
ENDBRANCH  15  18
ENDBRANCH   1  12
BRANCH   2  20
ATOM     20  O   UNL     1     -10.660 -30.142  -7.612  1.00  0.00    -0.502 OA
ATOM     21  H   UNL     1     -10.569 -30.933  -6.985  1.00  0.00     0.293 HD
ENDBRANCH   2  20
BRANCH   6  22
ATOM     22  O   UNL     1     -13.994 -33.380 -10.213  1.00  0.00    -0.507 OA
ATOM     23  H   UNL     1     -14.750 -34.025 -10.043  1.00  0.00     0.293 HD
ENDBRANCH   6  22
BRANCH   8  24
ATOM     24  O   UNL     1     -16.388 -30.170 -12.864  1.00  0.00    -0.508 OA
ATOM     25  H   UNL     1     -17.052 -29.413 -12.753  1.00  0.00     0.293 HD
ENDBRANCH   8  24
TORSDOF 5
ENDMDL
MODEL 9
REMARK VINA RESULT:    -6.237      2.277      6.867
REMARK INTER + INTRA:          -7.609
REMARK INTER:                  -7.487
REMARK INTRA:                  -0.122
REMARK UNBOUND:                -0.278
REMARK SMILES O=c1c(O)c(-c2ccc(O)cc2)oc2cc(O)cc(O)c12
REMARK SMILES IDX 5 1 3 2 2 3 1 4 21 5 19 6 18 7 16 8 15 9 14 10 13 11 6 12
REMARK SMILES IDX 7 13 8 14 9 15 12 16 11 17 10 18 4 20 20 22 17 24
REMARK H PARENT 10 19 4 21 20 23 17 25
REMARK Flexibility Score: inf
ROOT
ATOM      1  C   UNL     1     -11.950 -31.479 -11.918  1.00  0.00     0.180 A 
ATOM      2  C   UNL     1     -11.087 -30.760 -11.073  1.00  0.00     0.208 A 
ATOM      3  C   UNL     1     -11.388 -29.423 -10.770  1.00  0.00     0.238 A 
ATOM      4  O   UNL     1     -10.641 -28.801  -9.971  1.00  0.00    -0.285 OA
ATOM      5  C   UNL     1     -12.540 -28.816 -11.328  1.00  0.00     0.111 A 
ATOM      6  C   UNL     1     -12.920 -27.456 -11.121  1.00  0.00     0.134 A 
ATOM      7  C   UNL     1     -14.149 -27.000 -11.615  1.00  0.00     0.093 A 
ATOM      8  C   UNL     1     -14.979 -27.837 -12.365  1.00  0.00     0.123 A 
ATOM      9  C   UNL     1     -14.589 -29.149 -12.623  1.00  0.00     0.094 A 
ATOM     10  C   UNL     1     -13.387 -29.644 -12.111  1.00  0.00     0.146 A 
ATOM     11  O   UNL     1     -13.057 -30.903 -12.372  1.00  0.00    -0.452 OA
ENDROOT
BRANCH   1  12
ATOM     12  C   UNL     1     -11.686 -32.885 -12.302  1.00  0.00     0.021 A 
ATOM     13  C   UNL     1     -11.380 -33.191 -13.639  1.00  0.00     0.016 A 
ATOM     14  C   UNL     1     -11.105 -34.507 -14.020  1.00  0.00     0.047 A 
ATOM     15  C   UNL     1     -11.116 -35.532 -13.065  1.00  0.00     0.115 A 
ATOM     16  C   UNL     1     -11.675 -33.917 -11.346  1.00  0.00     0.016 A 
ATOM     17  C   UNL     1     -11.398 -35.233 -11.730  1.00  0.00     0.047 A 
BRANCH  15  18
ATOM     18  O   UNL     1     -10.844 -36.849 -13.433  1.00  0.00    -0.508 OA
ATOM     19  H   UNL     1     -10.290 -37.459 -12.842  1.00  0.00     0.293 HD
ENDBRANCH  15  18
ENDBRANCH   1  12
BRANCH   2  20
ATOM     20  O   UNL     1      -9.967 -31.384 -10.516  1.00  0.00    -0.502 OA
ATOM     21  H   UNL     1      -9.632 -31.170  -9.585  1.00  0.00     0.293 HD
ENDBRANCH   2  20
BRANCH   6  22
ATOM     22  O   UNL     1     -12.121 -26.514 -10.467  1.00  0.00    -0.507 OA
ATOM     23  H   UNL     1     -12.337 -26.098  -9.575  1.00  0.00     0.293 HD
ENDBRANCH   6  22
BRANCH   8  24
ATOM     24  O   UNL     1     -16.193 -27.370 -12.865  1.00  0.00    -0.508 OA
ATOM     25  H   UNL     1     -17.074 -27.610 -12.428  1.00  0.00     0.293 HD
ENDBRANCH   8  24
TORSDOF 5
ENDMDL
