MODEL 1
REMARK VINA RESULT:    -5.302      0.000      0.000
REMARK INTER + INTRA:         -11.167
REMARK INTER:                  -9.641
REMARK INTRA:                  -1.526
REMARK UNBOUND:                -1.526
REMARK SMILES CCCCCCCCCCCCCCCC(=O)[O-]
REMARK SMILES IDX 9 1 10 2 11 3 12 4 13 5 14 6 15 7 16 8 17 9 18 10 8 11 7 12
REMARK SMILES IDX 6 13 5 14 4 15 3 16 2 17 1 18
REMARK H PARENT
REMARK Flexibility Score: inf
ROOT
ATOM      1  C   UNL     1      72.647   2.243  -2.157  1.00  0.00     0.000 C 
ENDROOT
BRANCH   1   2
ATOM      2  C   UNL     1      71.651   3.315  -2.626  1.00  0.00     0.000 C 
BRANCH   2   3
ATOM      3  C   UNL     1      70.265   3.158  -1.984  1.00  0.00     0.000 C 
BRANCH   3   4
ATOM      4  C   UNL     1      69.617   1.829  -2.395  1.00  0.00     0.000 C 
BRANCH   4   5
ATOM      5  C   UNL     1      69.796   1.571  -3.898  1.00  0.00     0.000 C 
BRANCH   5   6
ATOM      6  C   UNL     1      69.772   0.075  -4.249  1.00  0.00     0.006 C 
BRANCH   6   7
ATOM      7  C   UNL     1      70.794  -0.737  -3.442  1.00  0.00     0.053 C 
BRANCH   7   8
ATOM      8  C   UNL     1      70.816  -2.159  -3.909  1.00  0.00     0.041 C 
ATOM      9  O   UNL     1      71.796  -2.900  -3.636  1.00  0.00    -0.550 OA
ATOM     10  O   UNL     1      69.773  -2.652  -4.684  1.00  0.00    -0.550 OA
ENDBRANCH   7   8
ENDBRANCH   6   7
ENDBRANCH   5   6
ENDBRANCH   4   5
ENDBRANCH   3   4
ENDBRANCH   2   3
ENDBRANCH   1   2
BRANCH   1  11
ATOM     11  C   UNL     1      72.873   2.269  -0.638  1.00  0.00     0.000 C 
BRANCH  11  12
ATOM     12  C   UNL     1      73.232   0.874  -0.113  1.00  0.00    -0.000 C 
BRANCH  12  13
ATOM     13  C   UNL     1      72.314   0.471   1.051  1.00  0.00    -0.000 C 
BRANCH  13  14
ATOM     14  C   UNL     1      70.824   0.510   0.674  1.00  0.00    -0.000 C 
BRANCH  14  15
ATOM     15  C   UNL     1      69.907   0.102   1.837  1.00  0.00    -0.000 C 
BRANCH  15  16
ATOM     16  C   UNL     1      70.637   0.228   3.182  1.00  0.00    -0.000 C 
BRANCH  16  17
ATOM     17  C   UNL     1      70.232   1.493   3.956  1.00  0.00    -0.003 C 
ATOM     18  C   UNL     1      71.238   2.633   3.796  1.00  0.00     0.004 C 
ENDBRANCH  16  17
ENDBRANCH  15  16
ENDBRANCH  14  15
ENDBRANCH  13  14
ENDBRANCH  12  13
ENDBRANCH  11  12
ENDBRANCH   1  11
TORSDOF 14
ENDMDL
MODEL 2
REMARK VINA RESULT:    -5.248      1.045      2.015
REMARK INTER + INTRA:         -11.069
REMARK INTER:                  -9.968
REMARK INTRA:                  -1.101
REMARK UNBOUND:                -1.526
REMARK SMILES CCCCCCCCCCCCCCCC(=O)[O-]
REMARK SMILES IDX 9 1 10 2 11 3 12 4 13 5 14 6 15 7 16 8 17 9 18 10 8 11 7 12
REMARK SMILES IDX 6 13 5 14 4 15 3 16 2 17 1 18
REMARK H PARENT
REMARK Flexibility Score: inf
ROOT
ATOM      1  C   UNL     1      72.693   1.956  -0.544  1.00  0.00     0.000 C 
ENDROOT
BRANCH   1   2
ATOM      2  C   UNL     1      72.295   2.236  -2.001  1.00  0.00     0.000 C 
BRANCH   2   3
ATOM      3  C   UNL     1      70.892   2.850  -2.125  1.00  0.00     0.000 C 
BRANCH   3   4
ATOM      4  C   UNL     1      69.853   1.779  -2.480  1.00  0.00     0.000 C 
BRANCH   4   5
ATOM      5  C   UNL     1      69.804   1.541  -3.996  1.00  0.00     0.000 C 
BRANCH   5   6
ATOM      6  C   UNL     1      69.757   0.048  -4.359  1.00  0.00     0.006 C 
BRANCH   6   7
ATOM      7  C   UNL     1      70.737  -0.792  -3.530  1.00  0.00     0.053 C 
BRANCH   7   8
ATOM      8  C   UNL     1      70.748  -2.209  -4.013  1.00  0.00     0.041 C 
ATOM      9  O   UNL     1      69.775  -2.661  -4.671  1.00  0.00    -0.550 OA
ATOM     10  O   UNL     1      71.814  -3.043  -3.696  1.00  0.00    -0.550 OA
ENDBRANCH   7   8
ENDBRANCH   6   7
ENDBRANCH   5   6
ENDBRANCH   4   5
ENDBRANCH   3   4
ENDBRANCH   2   3
ENDBRANCH   1   2
BRANCH   1  11
ATOM     11  C   UNL     1      72.399   0.510  -0.117  1.00  0.00     0.000 C 
BRANCH  11  12
ATOM     12  C   UNL     1      71.021   0.405   0.549  1.00  0.00    -0.000 C 
BRANCH  12  13
ATOM     13  C   UNL     1      71.145  -0.113   1.990  1.00  0.00    -0.000 C 
BRANCH  13  14
ATOM     14  C   UNL     1      70.706   0.926   3.035  1.00  0.00    -0.000 C 
BRANCH  14  15
ATOM     15  C   UNL     1      71.541   2.215   2.977  1.00  0.00    -0.000 C 
BRANCH  15  16
ATOM     16  C   UNL     1      71.076   3.216   4.045  1.00  0.00    -0.000 C 
BRANCH  16  17
ATOM     17  C   UNL     1      71.309   4.677   3.625  1.00  0.00    -0.003 C 
ATOM     18  C   UNL     1      70.278   5.636   4.219  1.00  0.00     0.004 C 
ENDBRANCH  16  17
ENDBRANCH  15  16
ENDBRANCH  14  15
ENDBRANCH  13  14
ENDBRANCH  12  13
ENDBRANCH  11  12
ENDBRANCH   1  11
TORSDOF 14
ENDMDL
MODEL 3
REMARK VINA RESULT:    -5.203      3.364      6.556
REMARK INTER + INTRA:         -10.988
REMARK INTER:                  -9.493
REMARK INTRA:                  -1.495
REMARK UNBOUND:                -1.526
REMARK SMILES CCCCCCCCCCCCCCCC(=O)[O-]
REMARK SMILES IDX 9 1 10 2 11 3 12 4 13 5 14 6 15 7 16 8 17 9 18 10 8 11 7 12
REMARK SMILES IDX 6 13 5 14 4 15 3 16 2 17 1 18
REMARK H PARENT
REMARK Flexibility Score: inf
ROOT
ATOM      1  C   UNL     1      72.763   2.317  -2.159  1.00  0.00     0.000 C 
ENDROOT
BRANCH   1   2
ATOM      2  C   UNL     1      72.888   2.338  -0.628  1.00  0.00     0.000 C 
BRANCH   2   3
ATOM      3  C   UNL     1      73.066   0.935  -0.028  1.00  0.00     0.000 C 
BRANCH   3   4
ATOM      4  C   UNL     1      71.814   0.505   0.746  1.00  0.00     0.000 C 
BRANCH   4   5
ATOM      5  C   UNL     1      72.188  -0.070   2.121  1.00  0.00     0.000 C 
BRANCH   5   6
ATOM      6  C   UNL     1      70.957  -0.486   2.943  1.00  0.00     0.006 C 
BRANCH   6   7
ATOM      7  C   UNL     1      69.828   0.551   2.880  1.00  0.00     0.053 C 
BRANCH   7   8
ATOM      8  C   UNL     1      69.870   1.441   4.083  1.00  0.00     0.041 C 
ATOM      9  O   UNL     1      69.048   1.277   5.021  1.00  0.00    -0.550 OA
ATOM     10  O   UNL     1      70.789   2.482   4.146  1.00  0.00    -0.550 OA
ENDBRANCH   7   8
ENDBRANCH   6   7
ENDBRANCH   5   6
ENDBRANCH   4   5
ENDBRANCH   3   4
ENDBRANCH   2   3
ENDBRANCH   1   2
BRANCH   1  11
ATOM     11  C   UNL     1      71.689   3.285  -2.679  1.00  0.00     0.000 C 
BRANCH  11  12
ATOM     12  C   UNL     1      70.344   3.035  -1.988  1.00  0.00    -0.000 C 
BRANCH  12  13
ATOM     13  C   UNL     1      69.825   1.621  -2.290  1.00  0.00    -0.000 C 
BRANCH  13  14
ATOM     14  C   UNL     1      69.570   1.388  -3.788  1.00  0.00    -0.000 C 
BRANCH  14  15
ATOM     15  C   UNL     1      70.237   0.107  -4.312  1.00  0.00    -0.000 C 
BRANCH  15  16
ATOM     16  C   UNL     1      70.983  -0.623  -3.185  1.00  0.00    -0.000 C 
BRANCH  16  17
ATOM     17  C   UNL     1      71.210  -2.111  -3.496  1.00  0.00    -0.003 C 
ATOM     18  C   UNL     1      70.168  -2.681  -4.457  1.00  0.00     0.004 C 
ENDBRANCH  16  17
ENDBRANCH  15  16
ENDBRANCH  14  15
ENDBRANCH  13  14
ENDBRANCH  12  13
ENDBRANCH  11  12
ENDBRANCH   1  11
TORSDOF 14
ENDMDL
MODEL 4
REMARK VINA RESULT:    -4.675     12.013     14.659
REMARK INTER + INTRA:         -10.027
REMARK INTER:                  -8.842
REMARK INTRA:                  -1.185
REMARK UNBOUND:                -1.526
REMARK SMILES CCCCCCCCCCCCCCCC(=O)[O-]
REMARK SMILES IDX 9 1 10 2 11 3 12 4 13 5 14 6 15 7 16 8 17 9 18 10 8 11 7 12
REMARK SMILES IDX 6 13 5 14 4 15 3 16 2 17 1 18
REMARK H PARENT
REMARK Flexibility Score: inf
ROOT
ATOM      1  C   UNL     1      83.930   1.300   0.921  1.00  0.00     0.000 C 
ENDROOT
BRANCH   1   2
ATOM      2  C   UNL     1      85.299   0.873   1.472  1.00  0.00     0.000 C 
BRANCH   2   3
ATOM      3  C   UNL     1      86.351   1.988   1.373  1.00  0.00     0.000 C 
BRANCH   3   4
ATOM      4  C   UNL     1      86.919   2.332   2.756  1.00  0.00     0.000 C 
BRANCH   4   5
ATOM      5  C   UNL     1      86.255   1.484   3.850  1.00  0.00     0.000 C 
BRANCH   5   6
ATOM      6  C   UNL     1      86.372   2.118   5.245  1.00  0.00     0.006 C 
BRANCH   6   7
ATOM      7  C   UNL     1      85.018   2.236   5.956  1.00  0.00     0.053 C 
BRANCH   7   8
ATOM      8  C   UNL     1      85.118   1.720   7.357  1.00  0.00     0.041 C 
ATOM      9  O   UNL     1      86.242   1.609   7.913  1.00  0.00    -0.550 OA
ATOM     10  O   UNL     1      83.973   1.319   8.034  1.00  0.00    -0.550 OA
ENDBRANCH   7   8
ENDBRANCH   6   7
ENDBRANCH   5   6
ENDBRANCH   4   5
ENDBRANCH   3   4
ENDBRANCH   2   3
ENDBRANCH   1   2
BRANCH   1  11
ATOM     11  C   UNL     1      84.043   2.156  -0.350  1.00  0.00     0.000 C 
BRANCH  11  12
ATOM     12  C   UNL     1      82.680   2.303  -1.036  1.00  0.00    -0.000 C 
BRANCH  12  13
ATOM     13  C   UNL     1      82.082   3.695  -0.778  1.00  0.00    -0.000 C 
BRANCH  13  14
ATOM     14  C   UNL     1      80.594   3.640  -0.393  1.00  0.00    -0.000 C 
BRANCH  14  15
ATOM     15  C   UNL     1      80.235   2.381   0.410  1.00  0.00    -0.000 C 
BRANCH  15  16
ATOM     16  C   UNL     1      78.931   1.755  -0.108  1.00  0.00    -0.000 C 
BRANCH  16  17
ATOM     17  C   UNL     1      79.107   0.283  -0.517  1.00  0.00    -0.003 C 
ATOM     18  C   UNL     1      80.394  -0.333   0.028  1.00  0.00     0.004 C 
ENDBRANCH  16  17
ENDBRANCH  15  16
ENDBRANCH  14  15
ENDBRANCH  13  14
ENDBRANCH  12  13
ENDBRANCH  11  12
ENDBRANCH   1  11
TORSDOF 14
ENDMDL
MODEL 5
REMARK VINA RESULT:    -4.668      3.923      7.324
REMARK INTER + INTRA:         -10.015
REMARK INTER:                  -8.607
REMARK INTRA:                  -1.408
REMARK UNBOUND:                -1.526
REMARK SMILES CCCCCCCCCCCCCCCC(=O)[O-]
REMARK SMILES IDX 9 1 10 2 11 3 12 4 13 5 14 6 15 7 16 8 17 9 18 10 8 11 7 12
REMARK SMILES IDX 6 13 5 14 4 15 3 16 2 17 1 18
REMARK H PARENT
REMARK Flexibility Score: inf
ROOT
ATOM      1  C   UNL     1      70.497   0.933  -0.211  1.00  0.00     0.000 C 
ENDROOT
BRANCH   1   2
ATOM      2  C   UNL     1      71.970   1.253   0.085  1.00  0.00     0.000 C 
BRANCH   2   3
ATOM      3  C   UNL     1      72.370   0.920   1.530  1.00  0.00     0.000 C 
BRANCH   3   4
ATOM      4  C   UNL     1      71.209   0.258   2.283  1.00  0.00     0.000 C 
BRANCH   4   5
ATOM      5  C   UNL     1      70.613   1.215   3.327  1.00  0.00     0.000 C 
BRANCH   5   6
ATOM      6  C   UNL     1      71.386   2.540   3.425  1.00  0.00     0.006 C 
BRANCH   6   7
ATOM      7  C   UNL     1      70.794   3.492   4.473  1.00  0.00     0.053 C 
BRANCH   7   8
ATOM      8  C   UNL     1      70.868   4.907   3.992  1.00  0.00     0.041 C 
ATOM      9  O   UNL     1      71.817   5.276   3.252  1.00  0.00    -0.550 OA
ATOM     10  O   UNL     1      69.913   5.830   4.400  1.00  0.00    -0.550 OA
ENDBRANCH   7   8
ENDBRANCH   6   7
ENDBRANCH   5   6
ENDBRANCH   4   5
ENDBRANCH   3   4
ENDBRANCH   2   3
ENDBRANCH   1   2
BRANCH   1  11
ATOM     11  C   UNL     1      69.819   2.009  -1.073  1.00  0.00     0.000 C 
BRANCH  11  12
ATOM     12  C   UNL     1      70.853   2.785  -1.897  1.00  0.00    -0.000 C 
BRANCH  12  13
ATOM     13  C   UNL     1      70.879   2.293  -3.352  1.00  0.00    -0.000 C 
BRANCH  13  14
ATOM     14  C   UNL     1      69.551   1.652  -3.786  1.00  0.00    -0.000 C 
BRANCH  14  15
ATOM     15  C   UNL     1      69.743   0.279  -4.448  1.00  0.00    -0.000 C 
BRANCH  15  16
ATOM     16  C   UNL     1      71.146  -0.277  -4.159  1.00  0.00    -0.000 C 
BRANCH  16  17
ATOM     17  C   UNL     1      71.121  -1.462  -3.180  1.00  0.00    -0.003 C 
ATOM     18  C   UNL     1      71.193  -2.815  -3.887  1.00  0.00     0.004 C 
ENDBRANCH  16  17
ENDBRANCH  15  16
ENDBRANCH  14  15
ENDBRANCH  13  14
ENDBRANCH  12  13
ENDBRANCH  11  12
ENDBRANCH   1  11
TORSDOF 14
ENDMDL
MODEL 6
REMARK VINA RESULT:    -4.476     13.870     15.458
REMARK INTER + INTRA:          -9.665
REMARK INTER:                  -7.872
REMARK INTRA:                  -1.793
REMARK UNBOUND:                -1.526
REMARK SMILES CCCCCCCCCCCCCCCC(=O)[O-]
REMARK SMILES IDX 9 1 10 2 11 3 12 4 13 5 14 6 15 7 16 8 17 9 18 10 8 11 7 12
REMARK SMILES IDX 6 13 5 14 4 15 3 16 2 17 1 18
REMARK H PARENT
REMARK Flexibility Score: inf
ROOT
ATOM      1  C   UNL     1      82.408  -2.010  -7.918  1.00  0.00     0.000 C 
ENDROOT
BRANCH   1   2
ATOM      2  C   UNL     1      81.469  -0.895  -8.403  1.00  0.00     0.000 C 
BRANCH   2   3
ATOM      3  C   UNL     1      81.947  -0.244  -9.710  1.00  0.00     0.000 C 
BRANCH   3   4
ATOM      4  C   UNL     1      82.673   1.079  -9.432  1.00  0.00     0.000 C 
BRANCH   4   5
ATOM      5  C   UNL     1      84.186   0.933  -9.652  1.00  0.00     0.000 C 
BRANCH   5   6
ATOM      6  C   UNL     1      84.965   0.789  -8.335  1.00  0.00     0.006 C 
BRANCH   6   7
ATOM      7  C   UNL     1      84.383   1.654  -7.208  1.00  0.00     0.053 C 
BRANCH   7   8
ATOM      8  C   UNL     1      85.194   2.899  -7.034  1.00  0.00     0.041 C 
ATOM      9  O   UNL     1      85.894   3.061  -6.001  1.00  0.00    -0.550 OA
ATOM     10  O   UNL     1      85.142   3.902  -7.995  1.00  0.00    -0.550 OA
ENDBRANCH   7   8
ENDBRANCH   6   7
ENDBRANCH   5   6
ENDBRANCH   4   5
ENDBRANCH   3   4
ENDBRANCH   2   3
ENDBRANCH   1   2
BRANCH   1  11
ATOM     11  C   UNL     1      83.061  -2.780  -9.076  1.00  0.00     0.000 C 
BRANCH  11  12
ATOM     12  C   UNL     1      84.455  -3.283  -8.682  1.00  0.00    -0.000 C 
BRANCH  12  13
ATOM     13  C   UNL     1      84.943  -2.601  -7.395  1.00  0.00    -0.000 C 
BRANCH  13  14
ATOM     14  C   UNL     1      85.480  -3.602  -6.359  1.00  0.00    -0.000 C 
BRANCH  14  15
ATOM     15  C   UNL     1      84.635  -4.882  -6.275  1.00  0.00    -0.000 C 
BRANCH  15  16
ATOM     16  C   UNL     1      83.747  -4.872  -5.021  1.00  0.00    -0.000 C 
BRANCH  16  17
ATOM     17  C   UNL     1      84.240  -5.850  -3.943  1.00  0.00    -0.003 C 
ATOM     18  C   UNL     1      84.892  -5.142  -2.755  1.00  0.00     0.004 C 
ENDBRANCH  16  17
ENDBRANCH  15  16
ENDBRANCH  14  15
ENDBRANCH  13  14
ENDBRANCH  12  13
ENDBRANCH  11  12
ENDBRANCH   1  11
TORSDOF 14
ENDMDL
MODEL 7
REMARK VINA RESULT:    -4.472     12.532     15.301
REMARK INTER + INTRA:          -9.658
REMARK INTER:                  -8.984
REMARK INTRA:                  -0.674
REMARK UNBOUND:                -1.526
REMARK SMILES CCCCCCCCCCCCCCCC(=O)[O-]
REMARK SMILES IDX 9 1 10 2 11 3 12 4 13 5 14 6 15 7 16 8 17 9 18 10 8 11 7 12
REMARK SMILES IDX 6 13 5 14 4 15 3 16 2 17 1 18
REMARK H PARENT
REMARK Flexibility Score: inf
ROOT
ATOM      1  C   UNL     1      85.468   1.335   2.308  1.00  0.00     0.000 C 
ENDROOT
BRANCH   1   2
ATOM      2  C   UNL     1      86.537   0.829   3.289  1.00  0.00     0.000 C 
BRANCH   2   3
ATOM      3  C   UNL     1      86.251   1.239   4.741  1.00  0.00     0.000 C 
BRANCH   3   4
ATOM      4  C   UNL     1      86.558   0.088   5.707  1.00  0.00     0.000 C 
BRANCH   4   5
ATOM      5  C   UNL     1      85.918   0.337   7.081  1.00  0.00     0.000 C 
BRANCH   5   6
ATOM      6  C   UNL     1      84.785   1.374   7.027  1.00  0.00     0.006 C 
BRANCH   6   7
ATOM      7  C   UNL     1      83.688   1.104   8.065  1.00  0.00     0.053 C 
BRANCH   7   8
ATOM      8  C   UNL     1      83.321   2.369   8.777  1.00  0.00     0.041 C 
ATOM      9  O   UNL     1      83.999   3.414   8.602  1.00  0.00    -0.550 OA
ATOM     10  O   UNL     1      82.255   2.380   9.669  1.00  0.00    -0.550 OA
ENDBRANCH   7   8
ENDBRANCH   6   7
ENDBRANCH   5   6
ENDBRANCH   4   5
ENDBRANCH   3   4
ENDBRANCH   2   3
ENDBRANCH   1   2
BRANCH   1  11
ATOM     11  C   UNL     1      86.020   1.550   0.890  1.00  0.00     0.000 C 
BRANCH  11  12
ATOM     12  C   UNL     1      84.885   1.823  -0.104  1.00  0.00    -0.000 C 
BRANCH  12  13
ATOM     13  C   UNL     1      83.514   1.592   0.550  1.00  0.00    -0.000 C 
BRANCH  13  14
ATOM     14  C   UNL     1      82.362   1.588  -0.469  1.00  0.00    -0.000 C 
BRANCH  14  15
ATOM     15  C   UNL     1      81.299   2.655  -0.168  1.00  0.00    -0.000 C 
BRANCH  15  16
ATOM     16  C   UNL     1      79.939   2.006   0.126  1.00  0.00    -0.000 C 
BRANCH  16  17
ATOM     17  C   UNL     1      79.901   0.517  -0.255  1.00  0.00    -0.003 C 
ATOM     18  C   UNL     1      78.483   0.009  -0.514  1.00  0.00     0.004 C 
ENDBRANCH  16  17
ENDBRANCH  15  16
ENDBRANCH  14  15
ENDBRANCH  13  14
ENDBRANCH  12  13
ENDBRANCH  11  12
ENDBRANCH   1  11
TORSDOF 14
ENDMDL
MODEL 8
REMARK VINA RESULT:    -4.442     11.955     13.578
REMARK INTER + INTRA:          -9.603
REMARK INTER:                  -8.901
REMARK INTRA:                  -0.702
REMARK UNBOUND:                -1.526
REMARK SMILES CCCCCCCCCCCCCCCC(=O)[O-]
REMARK SMILES IDX 9 1 10 2 11 3 12 4 13 5 14 6 15 7 16 8 17 9 18 10 8 11 7 12
REMARK SMILES IDX 6 13 5 14 4 15 3 16 2 17 1 18
REMARK H PARENT
REMARK Flexibility Score: inf
ROOT
ATOM      1  C   UNL     1      85.771   2.939  -2.096  1.00  0.00     0.000 C 
ENDROOT
BRANCH   1   2
ATOM      2  C   UNL     1      86.214   2.070  -3.283  1.00  0.00     0.000 C 
BRANCH   2   3
ATOM      3  C   UNL     1      86.444   2.888  -4.563  1.00  0.00     0.000 C 
BRANCH   3   4
ATOM      4  C   UNL     1      85.775   2.219  -5.770  1.00  0.00     0.000 C 
BRANCH   4   5
ATOM      5  C   UNL     1      86.081   2.987  -7.065  1.00  0.00     0.000 C 
BRANCH   5   6
ATOM      6  C   UNL     1      85.762   2.171  -8.327  1.00  0.00     0.006 C 
BRANCH   6   7
ATOM      7  C   UNL     1      84.954   0.903  -8.021  1.00  0.00     0.053 C 
BRANCH   7   8
ATOM      8  C   UNL     1      83.784   0.793  -8.947  1.00  0.00     0.041 C 
ATOM      9  O   UNL     1      82.711   1.397  -8.686  1.00  0.00    -0.550 OA
ATOM     10  O   UNL     1      83.864  -0.013 -10.076  1.00  0.00    -0.550 OA
ENDBRANCH   7   8
ENDBRANCH   6   7
ENDBRANCH   5   6
ENDBRANCH   4   5
ENDBRANCH   3   4
ENDBRANCH   2   3
ENDBRANCH   1   2
BRANCH   1  11
ATOM     11  C   UNL     1      84.696   2.261  -1.233  1.00  0.00     0.000 C 
BRANCH  11  12
ATOM     12  C   UNL     1      85.307   1.679   0.047  1.00  0.00    -0.000 C 
BRANCH  12  13
ATOM     13  C   UNL     1      84.210   1.260   1.038  1.00  0.00    -0.000 C 
BRANCH  13  14
ATOM     14  C   UNL     1      82.801   1.662   0.571  1.00  0.00    -0.000 C 
BRANCH  14  15
ATOM     15  C   UNL     1      81.865   0.455   0.403  1.00  0.00    -0.000 C 
BRANCH  15  16
ATOM     16  C   UNL     1      80.443   0.911   0.043  1.00  0.00    -0.000 C 
BRANCH  16  17
ATOM     17  C   UNL     1      80.295   2.441   0.049  1.00  0.00    -0.003 C 
ATOM     18  C   UNL     1      78.898   2.899   0.464  1.00  0.00     0.004 C 
ENDBRANCH  16  17
ENDBRANCH  15  16
ENDBRANCH  14  15
ENDBRANCH  13  14
ENDBRANCH  12  13
ENDBRANCH  11  12
ENDBRANCH   1  11
TORSDOF 14
ENDMDL
MODEL 9
REMARK VINA RESULT:    -4.332     13.062     15.883
REMARK INTER + INTRA:          -9.403
REMARK INTER:                  -8.814
REMARK INTRA:                  -0.589
REMARK UNBOUND:                -1.526
REMARK SMILES CCCCCCCCCCCCCCCC(=O)[O-]
REMARK SMILES IDX 9 1 10 2 11 3 12 4 13 5 14 6 15 7 16 8 17 9 18 10 8 11 7 12
REMARK SMILES IDX 6 13 5 14 4 15 3 16 2 17 1 18
REMARK H PARENT
REMARK Flexibility Score: inf
ROOT
ATOM      1  C   UNL     1      85.985   1.609   3.898  1.00  0.00     0.000 C 
ENDROOT
BRANCH   1   2
ATOM      2  C   UNL     1      86.970   2.067   4.985  1.00  0.00     0.000 C 
BRANCH   2   3
ATOM      3  C   UNL     1      86.538   1.638   6.395  1.00  0.00     0.000 C 
BRANCH   3   4
ATOM      4  C   UNL     1      85.014   1.717   6.550  1.00  0.00     0.000 C 
BRANCH   4   5
ATOM      5  C   UNL     1      84.552   1.001   7.828  1.00  0.00     0.000 C 
BRANCH   5   6
ATOM      6  C   UNL     1      83.300   1.643   8.447  1.00  0.00     0.006 C 
BRANCH   6   7
ATOM      7  C   UNL     1      83.626   2.517   9.666  1.00  0.00     0.053 C 
BRANCH   7   8
ATOM      8  C   UNL     1      82.881   3.812   9.593  1.00  0.00     0.041 C 
ATOM      9  O   UNL     1      83.358   4.848  10.125  1.00  0.00    -0.550 OA
ATOM     10  O   UNL     1      81.637   3.865   8.976  1.00  0.00    -0.550 OA
ENDBRANCH   7   8
ENDBRANCH   6   7
ENDBRANCH   5   6
ENDBRANCH   4   5
ENDBRANCH   3   4
ENDBRANCH   2   3
ENDBRANCH   1   2
BRANCH   1  11
ATOM     11  C   UNL     1      86.592   1.664   2.488  1.00  0.00     0.000 C 
BRANCH  11  12
ATOM     12  C   UNL     1      85.802   0.780   1.516  1.00  0.00    -0.000 C 
BRANCH  12  13
ATOM     13  C   UNL     1      84.929   1.633   0.583  1.00  0.00    -0.000 C 
BRANCH  13  14
ATOM     14  C   UNL     1      83.425   1.431   0.826  1.00  0.00    -0.000 C 
BRANCH  14  15
ATOM     15  C   UNL     1      82.565   1.878  -0.367  1.00  0.00    -0.000 C 
BRANCH  15  16
ATOM     16  C   UNL     1      81.070   1.800  -0.024  1.00  0.00    -0.000 C 
BRANCH  16  17
ATOM     17  C   UNL     1      80.418   3.187   0.093  1.00  0.00    -0.003 C 
ATOM     18  C   UNL     1      81.118   4.244  -0.761  1.00  0.00     0.004 C 
ENDBRANCH  16  17
ENDBRANCH  15  16
ENDBRANCH  14  15
ENDBRANCH  13  14
ENDBRANCH  12  13
ENDBRANCH  11  12
ENDBRANCH   1  11
TORSDOF 14
ENDMDL
