MODEL 1
REMARK VINA RESULT:    -5.836      0.000      0.000
REMARK INTER + INTRA:          -7.078
REMARK INTER:                  -6.860
REMARK INTRA:                  -0.218
REMARK UNBOUND:                -0.218
REMARK SMILES O=c1c(O)c(-c2ccc(O)c(O)c2)oc2cc(O)ccc12
REMARK SMILES IDX 5 1 3 2 2 3 1 4 21 5 15 6 14 7 16 8 17 9 19 10 20 11 6 12
REMARK SMILES IDX 7 13 8 14 9 15 13 16 11 17 10 18 12 20 4 22 18 24
REMARK H PARENT 10 19 12 21 4 23 18 25
REMARK Flexibility Score: inf
ROOT
ATOM      1  C   UNL     1     -20.551  -2.210   7.623  1.00  0.00     0.180 A 
ATOM      2  C   UNL     1     -20.869  -1.064   6.864  1.00  0.00     0.208 A 
ATOM      3  C   UNL     1     -20.234  -0.875   5.627  1.00  0.00     0.235 A 
ATOM      4  O   UNL     1     -20.509   0.136   4.924  1.00  0.00    -0.285 OA
ATOM      5  C   UNL     1     -19.288  -1.815   5.186  1.00  0.00     0.069 A 
ATOM      6  C   UNL     1     -19.009  -2.923   6.015  1.00  0.00     0.142 A 
ATOM      7  O   UNL     1     -19.638  -3.069   7.176  1.00  0.00    -0.452 OA
ATOM      8  C   UNL     1     -18.066  -3.876   5.615  1.00  0.00     0.094 A 
ATOM      9  C   UNL     1     -17.398  -3.738   4.393  1.00  0.00     0.119 A 
ATOM     10  C   UNL     1     -17.674  -2.641   3.567  1.00  0.00     0.047 A 
ATOM     11  C   UNL     1     -18.614  -1.682   3.958  1.00  0.00     0.020 A 
ENDROOT
BRANCH   1  12
ATOM     12  C   UNL     1     -21.192  -2.489   8.929  1.00  0.00     0.025 A 
ATOM     13  C   UNL     1     -22.147  -3.513   9.024  1.00  0.00     0.016 A 
ATOM     14  C   UNL     1     -22.779  -3.781  10.240  1.00  0.00     0.051 A 
ATOM     15  C   UNL     1     -22.480  -3.022  11.376  1.00  0.00     0.157 A 
ATOM     16  C   UNL     1     -20.906  -1.714  10.066  1.00  0.00     0.062 A 
ATOM     17  C   UNL     1     -21.542  -1.980  11.288  1.00  0.00     0.158 A 
BRANCH  15  18
ATOM     18  O   UNL     1     -23.125  -3.315  12.576  1.00  0.00    -0.504 OA
ATOM     19  H   UNL     1     -24.134  -3.372  12.645  1.00  0.00     0.293 HD
ENDBRANCH  15  18
BRANCH  17  20
ATOM     20  O   UNL     1     -21.247  -1.210  12.414  1.00  0.00    -0.504 OA
ATOM     21  H   UNL     1     -21.977  -0.852  13.017  1.00  0.00     0.293 HD
ENDBRANCH  17  20
ENDBRANCH   1  12
BRANCH   2  22
ATOM     22  O   UNL     1     -21.777  -0.121   7.352  1.00  0.00    -0.502 OA
ATOM     23  H   UNL     1     -22.725  -0.052   7.004  1.00  0.00     0.293 HD
ENDBRANCH   2  22
BRANCH   9  24
ATOM     24  O   UNL     1     -16.463  -4.697   4.011  1.00  0.00    -0.508 OA
ATOM     25  H   UNL     1     -15.510  -4.674   4.356  1.00  0.00     0.293 HD
ENDBRANCH   9  24
TORSDOF 5
ENDMDL
MODEL 2
REMARK VINA RESULT:    -5.631      2.512      4.438
REMARK INTER + INTRA:          -6.837
REMARK INTER:                  -6.568
REMARK INTRA:                  -0.269
REMARK UNBOUND:                -0.218
REMARK SMILES O=c1c(O)c(-c2ccc(O)c(O)c2)oc2cc(O)ccc12
REMARK SMILES IDX 5 1 3 2 2 3 1 4 21 5 15 6 14 7 16 8 17 9 19 10 20 11 6 12
REMARK SMILES IDX 7 13 8 14 9 15 13 16 11 17 10 18 12 20 4 22 18 24
REMARK H PARENT 10 19 12 21 4 23 18 25
REMARK Flexibility Score: inf
ROOT
ATOM      1  C   UNL     1     -21.802  -1.351   6.585  1.00  0.00     0.180 A 
ATOM      2  C   UNL     1     -21.229  -1.853   5.398  1.00  0.00     0.208 A 
ATOM      3  C   UNL     1     -21.124  -1.003   4.286  1.00  0.00     0.235 A 
ATOM      4  O   UNL     1     -20.605  -1.426   3.216  1.00  0.00    -0.285 OA
ATOM      5  C   UNL     1     -21.608   0.312   4.374  1.00  0.00     0.069 A 
ATOM      6  C   UNL     1     -22.190   0.731   5.590  1.00  0.00     0.142 A 
ATOM      7  O   UNL     1     -22.262  -0.102   6.623  1.00  0.00    -0.452 OA
ATOM      8  C   UNL     1     -22.692   2.031   5.715  1.00  0.00     0.094 A 
ATOM      9  C   UNL     1     -22.620   2.921   4.638  1.00  0.00     0.119 A 
ATOM     10  C   UNL     1     -22.042   2.509   3.429  1.00  0.00     0.047 A 
ATOM     11  C   UNL     1     -21.537   1.212   3.295  1.00  0.00     0.020 A 
ENDROOT
BRANCH   1  12
ATOM     12  C   UNL     1     -21.931  -2.178   7.807  1.00  0.00     0.025 A 
ATOM     13  C   UNL     1     -22.966  -3.122   7.895  1.00  0.00     0.016 A 
ATOM     14  C   UNL     1     -23.119  -3.899   9.045  1.00  0.00     0.051 A 
ATOM     15  C   UNL     1     -22.252  -3.736  10.130  1.00  0.00     0.157 A 
ATOM     16  C   UNL     1     -21.072  -2.000   8.906  1.00  0.00     0.062 A 
ATOM     17  C   UNL     1     -21.226  -2.779  10.063  1.00  0.00     0.158 A 
BRANCH  15  18
ATOM     18  O   UNL     1     -22.428  -4.528  11.264  1.00  0.00    -0.504 OA
ATOM     19  H   UNL     1     -21.689  -4.669  11.941  1.00  0.00     0.293 HD
ENDBRANCH  15  18
BRANCH  17  20
ATOM     20  O   UNL     1     -20.366  -2.601  11.147  1.00  0.00    -0.504 OA
ATOM     21  H   UNL     1     -19.753  -3.341  11.465  1.00  0.00     0.293 HD
ENDBRANCH  17  20
ENDBRANCH   1  12
BRANCH   2  22
ATOM     22  O   UNL     1     -20.801  -3.181   5.325  1.00  0.00    -0.502 OA
ATOM     23  H   UNL     1     -20.136  -3.573   5.980  1.00  0.00     0.293 HD
ENDBRANCH   2  22
BRANCH   9  24
ATOM     24  O   UNL     1     -23.125   4.212   4.779  1.00  0.00    -0.508 OA
ATOM     25  H   UNL     1     -23.359   4.591   5.689  1.00  0.00     0.293 HD
ENDBRANCH   9  24
TORSDOF 5
ENDMDL
MODEL 3
REMARK VINA RESULT:    -5.561      1.544      2.835
REMARK INTER + INTRA:          -6.754
REMARK INTER:                  -6.618
REMARK INTRA:                  -0.136
REMARK UNBOUND:                -0.218
REMARK SMILES O=c1c(O)c(-c2ccc(O)c(O)c2)oc2cc(O)ccc12
REMARK SMILES IDX 5 1 3 2 2 3 1 4 21 5 15 6 14 7 16 8 17 9 19 10 20 11 6 12
REMARK SMILES IDX 7 13 8 14 9 15 13 16 11 17 10 18 12 20 4 22 18 24
REMARK H PARENT 10 19 12 21 4 23 18 25
REMARK Flexibility Score: inf
ROOT
ATOM      1  C   UNL     1     -20.417  -3.482   8.144  1.00  0.00     0.180 A 
ATOM      2  C   UNL     1     -20.037  -4.793   7.790  1.00  0.00     0.208 A 
ATOM      3  C   UNL     1     -19.385  -5.001   6.565  1.00  0.00     0.235 A 
ATOM      4  O   UNL     1     -19.026  -6.164   6.231  1.00  0.00    -0.285 OA
ATOM      5  C   UNL     1     -19.147  -3.908   5.716  1.00  0.00     0.069 A 
ATOM      6  C   UNL     1     -19.579  -2.631   6.132  1.00  0.00     0.142 A 
ATOM      7  O   UNL     1     -20.185  -2.475   7.304  1.00  0.00    -0.452 OA
ATOM      8  C   UNL     1     -19.368  -1.518   5.310  1.00  0.00     0.094 A 
ATOM      9  C   UNL     1     -18.727  -1.665   4.075  1.00  0.00     0.119 A 
ATOM     10  C   UNL     1     -18.295  -2.932   3.659  1.00  0.00     0.047 A 
ATOM     11  C   UNL     1     -18.502  -4.050   4.473  1.00  0.00     0.020 A 
ENDROOT
BRANCH   1  12
ATOM     12  C   UNL     1     -21.091  -3.178   9.427  1.00  0.00     0.025 A 
ATOM     13  C   UNL     1     -22.371  -3.700   9.674  1.00  0.00     0.016 A 
ATOM     14  C   UNL     1     -23.034  -3.410  10.869  1.00  0.00     0.051 A 
ATOM     15  C   UNL     1     -22.439  -2.584  11.827  1.00  0.00     0.157 A 
ATOM     16  C   UNL     1     -20.502  -2.331  10.382  1.00  0.00     0.062 A 
ATOM     17  C   UNL     1     -21.169  -2.037  11.581  1.00  0.00     0.158 A 
BRANCH  15  18
ATOM     18  O   UNL     1     -23.125  -2.315  13.011  1.00  0.00    -0.504 OA
ATOM     19  H   UNL     1     -22.642  -2.115  13.878  1.00  0.00     0.293 HD
ENDBRANCH  15  18
BRANCH  17  20
ATOM     20  O   UNL     1     -20.574  -1.202  12.527  1.00  0.00    -0.504 OA
ATOM     21  H   UNL     1     -20.352  -0.236  12.316  1.00  0.00     0.293 HD
ENDBRANCH  17  20
ENDBRANCH   1  12
BRANCH   2  22
ATOM     22  O   UNL     1     -20.332  -5.868   8.633  1.00  0.00    -0.502 OA
ATOM     23  H   UNL     1     -19.648  -6.577   8.866  1.00  0.00     0.293 HD
ENDBRANCH   2  22
BRANCH   9  24
ATOM     24  O   UNL     1     -18.526  -0.547   3.269  1.00  0.00    -0.508 OA
ATOM     25  H   UNL     1     -17.595  -0.205   3.063  1.00  0.00     0.293 HD
ENDBRANCH   9  24
TORSDOF 5
ENDMDL
MODEL 4
REMARK VINA RESULT:    -5.532      1.153      2.915
REMARK INTER + INTRA:          -6.720
REMARK INTER:                  -6.432
REMARK INTRA:                  -0.288
REMARK UNBOUND:                -0.218
REMARK SMILES O=c1c(O)c(-c2ccc(O)c(O)c2)oc2cc(O)ccc12
REMARK SMILES IDX 5 1 3 2 2 3 1 4 21 5 15 6 14 7 16 8 17 9 19 10 20 11 6 12
REMARK SMILES IDX 7 13 8 14 9 15 13 16 11 17 10 18 12 20 4 22 18 24
REMARK H PARENT 10 19 12 21 4 23 18 25
REMARK Flexibility Score: inf
ROOT
ATOM      1  C   UNL     1     -20.479  -2.570   7.724  1.00  0.00     0.180 A 
ATOM      2  C   UNL     1     -19.400  -3.384   7.318  1.00  0.00     0.208 A 
ATOM      3  C   UNL     1     -18.814  -3.152   6.064  1.00  0.00     0.235 A 
ATOM      4  O   UNL     1     -17.841  -3.859   5.683  1.00  0.00    -0.285 OA
ATOM      5  C   UNL     1     -19.324  -2.136   5.240  1.00  0.00     0.069 A 
ATOM      6  C   UNL     1     -20.421  -1.382   5.710  1.00  0.00     0.142 A 
ATOM      7  O   UNL     1     -20.942  -1.627   6.907  1.00  0.00    -0.452 OA
ATOM      8  C   UNL     1     -20.964  -0.367   4.915  1.00  0.00     0.094 A 
ATOM      9  C   UNL     1     -20.424  -0.094   3.653  1.00  0.00     0.119 A 
ATOM     10  C   UNL     1     -19.334  -0.839   3.184  1.00  0.00     0.047 A 
ATOM     11  C   UNL     1     -18.785  -1.856   3.972  1.00  0.00     0.020 A 
ENDROOT
BRANCH   1  12
ATOM     12  C   UNL     1     -21.138  -2.740   9.040  1.00  0.00     0.025 A 
ATOM     13  C   UNL     1     -22.109  -3.740   9.201  1.00  0.00     0.016 A 
ATOM     14  C   UNL     1     -22.759  -3.905  10.426  1.00  0.00     0.051 A 
ATOM     15  C   UNL     1     -22.462  -3.065  11.504  1.00  0.00     0.157 A 
ATOM     16  C   UNL     1     -20.855  -1.882  10.117  1.00  0.00     0.062 A 
ATOM     17  C   UNL     1     -21.508  -2.045  11.348  1.00  0.00     0.158 A 
BRANCH  15  18
ATOM     18  O   UNL     1     -23.125  -3.256  12.715  1.00  0.00    -0.504 OA
ATOM     19  H   UNL     1     -22.634  -3.264  13.601  1.00  0.00     0.293 HD
ENDBRANCH  15  18
BRANCH  17  20
ATOM     20  O   UNL     1     -21.216  -1.195  12.414  1.00  0.00    -0.504 OA
ATOM     21  H   UNL     1     -20.273  -0.869  12.590  1.00  0.00     0.293 HD
ENDBRANCH  17  20
ENDBRANCH   1  12
BRANCH   2  22
ATOM     22  O   UNL     1     -18.946  -4.420   8.138  1.00  0.00    -0.502 OA
ATOM     23  H   UNL     1     -17.981  -4.728   8.138  1.00  0.00     0.293 HD
ENDBRANCH   2  22
BRANCH   9  24
ATOM     24  O   UNL     1     -20.978   0.921   2.875  1.00  0.00    -0.508 OA
ATOM     25  H   UNL     1     -21.878   1.328   3.099  1.00  0.00     0.293 HD
ENDBRANCH   9  24
TORSDOF 5
ENDMDL
MODEL 5
REMARK VINA RESULT:    -5.522      1.588      6.949
REMARK INTER + INTRA:          -6.709
REMARK INTER:                  -6.459
REMARK INTRA:                  -0.250
REMARK UNBOUND:                -0.218
REMARK SMILES O=c1c(O)c(-c2ccc(O)c(O)c2)oc2cc(O)ccc12
REMARK SMILES IDX 5 1 3 2 2 3 1 4 21 5 15 6 14 7 16 8 17 9 19 10 20 11 6 12
REMARK SMILES IDX 7 13 8 14 9 15 13 16 11 17 10 18 12 20 4 22 18 24
REMARK H PARENT 10 19 12 21 4 23 18 25
REMARK Flexibility Score: inf
ROOT
ATOM      1  C   UNL     1     -20.344  -3.437   7.141  1.00  0.00     0.180 A 
ATOM      2  C   UNL     1     -21.339  -4.435   7.082  1.00  0.00     0.208 A 
ATOM      3  C   UNL     1     -22.191  -4.606   8.184  1.00  0.00     0.235 A 
ATOM      4  O   UNL     1     -23.096  -5.484   8.152  1.00  0.00    -0.285 OA
ATOM      5  C   UNL     1     -22.019  -3.799   9.321  1.00  0.00     0.069 A 
ATOM      6  C   UNL     1     -20.984  -2.839   9.310  1.00  0.00     0.142 A 
ATOM      7  O   UNL     1     -20.205  -2.703   8.242  1.00  0.00    -0.452 OA
ATOM      8  C   UNL     1     -20.775  -2.022  10.427  1.00  0.00     0.094 A 
ATOM      9  C   UNL     1     -21.589  -2.151  11.557  1.00  0.00     0.119 A 
ATOM     10  C   UNL     1     -22.619  -3.102  11.571  1.00  0.00     0.047 A 
ATOM     11  C   UNL     1     -22.835  -3.923  10.460  1.00  0.00     0.020 A 
ENDROOT
BRANCH   1  12
ATOM     12  C   UNL     1     -19.419  -3.183   6.011  1.00  0.00     0.025 A 
ATOM     13  C   UNL     1     -18.356  -4.069   5.777  1.00  0.00     0.016 A 
ATOM     14  C   UNL     1     -17.460  -3.837   4.731  1.00  0.00     0.051 A 
ATOM     15  C   UNL     1     -17.601  -2.712   3.913  1.00  0.00     0.157 A 
ATOM     16  C   UNL     1     -19.549  -2.041   5.202  1.00  0.00     0.062 A 
ATOM     17  C   UNL     1     -18.648  -1.806   4.152  1.00  0.00     0.158 A 
BRANCH  15  18
ATOM     18  O   UNL     1     -16.693  -2.510   2.875  1.00  0.00    -0.504 OA
ATOM     19  H   UNL     1     -16.979  -2.146   1.974  1.00  0.00     0.293 HD
ENDBRANCH  15  18
BRANCH  17  20
ATOM     20  O   UNL     1     -18.788  -0.674   3.349  1.00  0.00    -0.504 OA
ATOM     21  H   UNL     1     -19.581  -0.051   3.444  1.00  0.00     0.293 HD
ENDBRANCH  17  20
ENDBRANCH   1  12
BRANCH   2  22
ATOM     22  O   UNL     1     -21.454  -5.256   5.957  1.00  0.00    -0.502 OA
ATOM     23  H   UNL     1     -20.826  -6.031   5.786  1.00  0.00     0.293 HD
ENDBRANCH   2  22
BRANCH   9  24
ATOM     24  O   UNL     1     -21.366  -1.330  12.660  1.00  0.00    -0.508 OA
ATOM     25  H   UNL     1     -22.058  -0.655  12.965  1.00  0.00     0.293 HD
ENDBRANCH   9  24
TORSDOF 5
ENDMDL
MODEL 6
REMARK VINA RESULT:    -5.424     12.818     15.889
REMARK INTER + INTRA:          -6.593
REMARK INTER:                  -6.277
REMARK INTRA:                  -0.316
REMARK UNBOUND:                -0.218
REMARK SMILES O=c1c(O)c(-c2ccc(O)c(O)c2)oc2cc(O)ccc12
REMARK SMILES IDX 5 1 3 2 2 3 1 4 21 5 15 6 14 7 16 8 17 9 19 10 20 11 6 12
REMARK SMILES IDX 7 13 8 14 9 15 13 16 11 17 10 18 12 20 4 22 18 24
REMARK H PARENT 10 19 12 21 4 23 18 25
REMARK Flexibility Score: inf
ROOT
ATOM      1  C   UNL     1     -19.343 -10.854  20.857  1.00  0.00     0.180 A 
ATOM      2  C   UNL     1     -18.770  -9.819  21.625  1.00  0.00     0.208 A 
ATOM      3  C   UNL     1     -17.878  -8.931  21.005  1.00  0.00     0.235 A 
ATOM      4  O   UNL     1     -17.360  -7.990  21.669  1.00  0.00    -0.285 OA
ATOM      5  C   UNL     1     -17.563  -9.104  19.648  1.00  0.00     0.069 A 
ATOM      6  C   UNL     1     -18.160 -10.179  18.954  1.00  0.00     0.142 A 
ATOM      7  O   UNL     1     -19.007 -10.992  19.576  1.00  0.00    -0.452 OA
ATOM      8  C   UNL     1     -17.864 -10.391  17.603  1.00  0.00     0.094 A 
ATOM      9  C   UNL     1     -16.978  -9.541  16.933  1.00  0.00     0.119 A 
ATOM     10  C   UNL     1     -16.384  -8.472  17.618  1.00  0.00     0.047 A 
ATOM     11  C   UNL     1     -16.673  -8.252  18.969  1.00  0.00     0.020 A 
ENDROOT
BRANCH   1  12
ATOM     12  C   UNL     1     -20.307 -11.819  21.434  1.00  0.00     0.025 A 
ATOM     13  C   UNL     1     -21.672 -11.495  21.466  1.00  0.00     0.016 A 
ATOM     14  C   UNL     1     -22.597 -12.380  22.024  1.00  0.00     0.051 A 
ATOM     15  C   UNL     1     -22.173 -13.595  22.571  1.00  0.00     0.157 A 
ATOM     16  C   UNL     1     -19.879 -13.031  22.002  1.00  0.00     0.062 A 
ATOM     17  C   UNL     1     -20.806 -13.921  22.565  1.00  0.00     0.158 A 
BRANCH  15  18
ATOM     18  O   UNL     1     -23.119 -14.460  23.118  1.00  0.00    -0.504 OA
ATOM     19  H   UNL     1     -23.550 -15.199  22.575  1.00  0.00     0.293 HD
ENDBRANCH  15  18
BRANCH  17  20
ATOM     20  O   UNL     1     -20.373 -15.125  23.121  1.00  0.00    -0.504 OA
ATOM     21  H   UNL     1     -20.549 -15.355  24.091  1.00  0.00     0.293 HD
ENDBRANCH  17  20
ENDBRANCH   1  12
BRANCH   2  22
ATOM     22  O   UNL     1     -19.064  -9.701  22.986  1.00  0.00    -0.502 OA
ATOM     23  H   UNL     1     -19.979  -9.425  23.321  1.00  0.00     0.293 HD
ENDBRANCH   2  22
BRANCH   9  24
ATOM     24  O   UNL     1     -16.695  -9.767  15.588  1.00  0.00    -0.508 OA
ATOM     25  H   UNL     1     -16.301  -9.041  15.001  1.00  0.00     0.293 HD
ENDBRANCH   9  24
TORSDOF 5
ENDMDL
MODEL 7
REMARK VINA RESULT:    -5.171      3.143      6.877
REMARK INTER + INTRA:          -6.296
REMARK INTER:                  -5.978
REMARK INTRA:                  -0.317
REMARK UNBOUND:                -0.218
REMARK SMILES O=c1c(O)c(-c2ccc(O)c(O)c2)oc2cc(O)ccc12
REMARK SMILES IDX 5 1 3 2 2 3 1 4 21 5 15 6 14 7 16 8 17 9 19 10 20 11 6 12
REMARK SMILES IDX 7 13 8 14 9 15 13 16 11 17 10 18 12 20 4 22 18 24
REMARK H PARENT 10 19 12 21 4 23 18 25
REMARK Flexibility Score: inf
ROOT
ATOM      1  C   UNL     1     -18.553  -2.989   5.029  1.00  0.00     0.180 A 
ATOM      2  C   UNL     1     -18.666  -2.787   6.421  1.00  0.00     0.208 A 
ATOM      3  C   UNL     1     -19.467  -1.735   6.889  1.00  0.00     0.235 A 
ATOM      4  O   UNL     1     -19.593  -1.540   8.129  1.00  0.00    -0.285 OA
ATOM      5  C   UNL     1     -20.117  -0.899   5.966  1.00  0.00     0.069 A 
ATOM      6  C   UNL     1     -19.935  -1.152   4.590  1.00  0.00     0.142 A 
ATOM      7  O   UNL     1     -19.175  -2.165   4.188  1.00  0.00    -0.452 OA
ATOM      8  C   UNL     1     -20.558  -0.336   3.639  1.00  0.00     0.094 A 
ATOM      9  C   UNL     1     -21.365   0.731   4.046  1.00  0.00     0.119 A 
ATOM     10  C   UNL     1     -21.550   0.985   5.412  1.00  0.00     0.047 A 
ATOM     11  C   UNL     1     -20.931   0.175   6.370  1.00  0.00     0.020 A 
ENDROOT
BRANCH   1  12
ATOM     12  C   UNL     1     -17.742  -4.089   4.458  1.00  0.00     0.025 A 
ATOM     13  C   UNL     1     -18.331  -5.347   4.257  1.00  0.00     0.016 A 
ATOM     14  C   UNL     1     -17.581  -6.405   3.739  1.00  0.00     0.051 A 
ATOM     15  C   UNL     1     -16.229  -6.228   3.428  1.00  0.00     0.157 A 
ATOM     16  C   UNL     1     -16.378  -3.917   4.164  1.00  0.00     0.062 A 
ATOM     17  C   UNL     1     -15.623  -4.979   3.645  1.00  0.00     0.158 A 
BRANCH  15  18
ATOM     18  O   UNL     1     -15.506  -7.302   2.909  1.00  0.00    -0.504 OA
ATOM     19  H   UNL     1     -15.957  -8.072   2.430  1.00  0.00     0.293 HD
ENDBRANCH  15  18
BRANCH  17  20
ATOM     20  O   UNL     1     -14.271  -4.799   3.350  1.00  0.00    -0.504 OA
ATOM     21  H   UNL     1     -13.724  -5.525   2.905  1.00  0.00     0.293 HD
ENDBRANCH  17  20
ENDBRANCH   1  12
BRANCH   2  22
ATOM     22  O   UNL     1     -17.967  -3.604   7.314  1.00  0.00    -0.502 OA
ATOM     23  H   UNL     1     -18.411  -4.366   7.811  1.00  0.00     0.293 HD
ENDBRANCH   2  22
BRANCH   9  24
ATOM     24  O   UNL     1     -21.978   1.533   3.086  1.00  0.00    -0.508 OA
ATOM     25  H   UNL     1     -22.820   1.236   2.608  1.00  0.00     0.293 HD
ENDBRANCH   9  24
TORSDOF 5
ENDMDL
MODEL 8
REMARK VINA RESULT:    -5.075      3.898      5.537
REMARK INTER + INTRA:          -6.183
REMARK INTER:                  -5.869
REMARK INTRA:                  -0.314
REMARK UNBOUND:                -0.218
REMARK SMILES O=c1c(O)c(-c2ccc(O)c(O)c2)oc2cc(O)ccc12
REMARK SMILES IDX 5 1 3 2 2 3 1 4 21 5 15 6 14 7 16 8 17 9 19 10 20 11 6 12
REMARK SMILES IDX 7 13 8 14 9 15 13 16 11 17 10 18 12 20 4 22 18 24
REMARK H PARENT 10 19 12 21 4 23 18 25
REMARK Flexibility Score: inf
ROOT
ATOM      1  C   UNL     1     -21.304  -4.959   6.931  1.00  0.00     0.180 A 
ATOM      2  C   UNL     1     -21.981  -5.710   7.914  1.00  0.00     0.208 A 
ATOM      3  C   UNL     1     -22.173  -7.084   7.702  1.00  0.00     0.235 A 
ATOM      4  O   UNL     1     -22.765  -7.781   8.571  1.00  0.00    -0.285 OA
ATOM      5  C   UNL     1     -21.707  -7.670   6.513  1.00  0.00     0.069 A 
ATOM      6  C   UNL     1     -21.061  -6.845   5.568  1.00  0.00     0.142 A 
ATOM      7  O   UNL     1     -20.892  -5.550   5.812  1.00  0.00    -0.452 OA
ATOM      8  C   UNL     1     -20.592  -7.389   4.368  1.00  0.00     0.094 A 
ATOM      9  C   UNL     1     -20.759  -8.752   4.099  1.00  0.00     0.119 A 
ATOM     10  C   UNL     1     -21.399  -9.575   5.035  1.00  0.00     0.047 A 
ATOM     11  C   UNL     1     -21.872  -9.040   6.237  1.00  0.00     0.020 A 
ENDROOT
BRANCH   1  12
ATOM     12  C   UNL     1     -21.046  -3.508   7.091  1.00  0.00     0.025 A 
ATOM     13  C   UNL     1     -22.017  -2.585   6.673  1.00  0.00     0.016 A 
ATOM     14  C   UNL     1     -21.787  -1.213   6.794  1.00  0.00     0.051 A 
ATOM     15  C   UNL     1     -20.581  -0.741   7.319  1.00  0.00     0.157 A 
ATOM     16  C   UNL     1     -19.825  -3.033   7.599  1.00  0.00     0.062 A 
ATOM     17  C   UNL     1     -19.592  -1.655   7.720  1.00  0.00     0.158 A 
BRANCH  15  18
ATOM     18  O   UNL     1     -20.381   0.634   7.431  1.00  0.00    -0.504 OA
ATOM     19  H   UNL     1     -20.154   1.074   8.315  1.00  0.00     0.293 HD
ENDBRANCH  15  18
BRANCH  17  20
ATOM     20  O   UNL     1     -18.380  -1.192   8.233  1.00  0.00    -0.504 OA
ATOM     21  H   UNL     1     -18.345  -0.566   9.028  1.00  0.00     0.293 HD
ENDBRANCH  17  20
ENDBRANCH   1  12
BRANCH   2  22
ATOM     22  O   UNL     1     -22.476  -5.090   9.064  1.00  0.00    -0.502 OA
ATOM     23  H   UNL     1     -21.908  -4.479   9.638  1.00  0.00     0.293 HD
ENDBRANCH   2  22
BRANCH   9  24
ATOM     24  O   UNL     1     -20.285  -9.277   2.898  1.00  0.00    -0.508 OA
ATOM     25  H   UNL     1     -20.346 -10.267   2.694  1.00  0.00     0.293 HD
ENDBRANCH   9  24
TORSDOF 5
ENDMDL
