MODEL 1
REMARK VINA RESULT:    -4.934      0.000      0.000
REMARK INTER + INTRA:          -5.591
REMARK INTER:                  -5.367
REMARK INTRA:                  -0.224
REMARK UNBOUND:                -0.224
REMARK SMILES C=C1C[C@@]2(O)O[C@@]3(C[C@@H]2C(C)C)[C@H](C)CC[C@@H]13
REMARK SMILES IDX 14 1 13 2 15 3 16 4 17 5 7 6 8 7 9 8 4 9 6 10 3 11 2 12 1 13
REMARK SMILES IDX 10 14 11 15 12 16 5 17
REMARK H PARENT 5 18
REMARK Flexibility Score: inf
ROOT
ATOM      1  C   UNL     1     -11.938  14.249  -9.222  1.00  0.00     0.011 C 
ATOM      2  C   UNL     1     -12.220  15.754  -9.041  1.00  0.00     0.019 C 
ATOM      3  C   UNL     1     -13.125  16.266 -10.166  1.00  0.00     0.007 C 
ATOM      4  C   UNL     1     -12.207  16.823 -11.258  1.00  0.00     0.011 C 
ATOM      5  C   UNL     1     -10.786  16.871 -10.675  1.00  0.00     0.047 C 
ATOM      6  C   UNL     1     -10.963  16.634  -9.155  1.00  0.00     0.081 C 
ATOM      7  C   UNL     1      -9.715  16.085  -8.473  1.00  0.00     0.046 C 
ATOM      8  C   UNL     1      -8.869  17.335  -8.264  1.00  0.00     0.054 C 
ATOM      9  C   UNL     1      -9.921  18.477  -8.482  1.00  0.00     0.173 C 
ATOM     10  O   UNL     1     -11.192  17.867  -8.522  1.00  0.00    -0.342 OA
ATOM     11  C   UNL     1      -9.716  19.150  -9.866  1.00  0.00     0.096 C 
ATOM     12  C   UNL     1     -10.076  18.188 -10.983  1.00  0.00    -0.066 C 
ATOM     13  C   UNL     1      -9.767  18.501 -12.250  1.00  0.00     0.008 C 
ENDROOT
BRANCH   8  14
ATOM     14  C   UNL     1      -8.093  17.354  -6.905  1.00  0.00    -0.009 C 
ATOM     15  C   UNL     1      -8.426  16.124  -6.035  1.00  0.00     0.008 C 
ATOM     16  C   UNL     1      -6.571  17.365  -7.140  1.00  0.00     0.008 C 
ENDBRANCH   8  14
BRANCH   9  17
ATOM     17  O   UNL     1      -9.925  19.413  -7.426  1.00  0.00    -0.365 OA
ATOM     18  H   UNL     1     -10.806  19.866  -7.388  1.00  0.00     0.214 HD
ENDBRANCH   9  17
TORSDOF 2
ENDMDL
MODEL 2
REMARK VINA RESULT:    -4.400      2.671      4.582
REMARK INTER + INTRA:          -5.010
REMARK INTER:                  -4.855
REMARK INTRA:                  -0.155
REMARK UNBOUND:                -0.224
REMARK SMILES C=C1C[C@@]2(O)O[C@@]3(C[C@@H]2C(C)C)[C@H](C)CC[C@@H]13
REMARK SMILES IDX 14 1 13 2 15 3 16 4 17 5 7 6 8 7 9 8 4 9 6 10 3 11 2 12 1 13
REMARK SMILES IDX 10 14 11 15 12 16 5 17
REMARK H PARENT 5 18
REMARK Flexibility Score: inf
ROOT
ATOM      1  C   UNL     1     -11.682  15.622 -10.084  1.00  0.00     0.011 C 
ATOM      2  C   UNL     1     -11.000  14.390  -9.455  1.00  0.00     0.019 C 
ATOM      3  C   UNL     1     -11.982  13.217  -9.383  1.00  0.00     0.007 C 
ATOM      4  C   UNL     1     -12.626  13.259  -7.994  1.00  0.00     0.011 C 
ATOM      5  C   UNL     1     -11.847  14.292  -7.165  1.00  0.00     0.047 C 
ATOM      6  C   UNL     1     -10.575  14.601  -7.992  1.00  0.00     0.081 C 
ATOM      7  C   UNL     1      -9.956  15.959  -7.679  1.00  0.00     0.046 C 
ATOM      8  C   UNL     1      -9.163  15.681  -6.406  1.00  0.00     0.054 C 
ATOM      9  C   UNL     1      -9.105  14.114  -6.399  1.00  0.00     0.173 C 
ATOM     10  O   UNL     1      -9.572  13.676  -7.654  1.00  0.00    -0.342 OA
ATOM     11  C   UNL     1     -10.086  13.538  -5.342  1.00  0.00     0.096 C 
ATOM     12  C   UNL     1     -11.524  13.786  -5.760  1.00  0.00    -0.066 C 
ATOM     13  C   UNL     1     -12.515  13.558  -4.887  1.00  0.00     0.008 C 
ENDROOT
BRANCH   8  14
ATOM     14  C   UNL     1      -7.790  16.428  -6.342  1.00  0.00    -0.009 C 
ATOM     15  C   UNL     1      -7.834  17.780  -7.083  1.00  0.00     0.008 C 
ATOM     16  C   UNL     1      -7.382  16.706  -4.882  1.00  0.00     0.008 C 
ENDBRANCH   8  14
BRANCH   9  17
ATOM     17  O   UNL     1      -7.792  13.625  -6.232  1.00  0.00    -0.365 OA
ATOM     18  H   UNL     1      -7.757  13.029  -5.441  1.00  0.00     0.214 HD
ENDBRANCH   9  17
TORSDOF 2
ENDMDL
MODEL 3
REMARK VINA RESULT:    -4.169      1.872      3.794
REMARK INTER + INTRA:          -4.758
REMARK INTER:                  -4.547
REMARK INTRA:                  -0.211
REMARK UNBOUND:                -0.224
REMARK SMILES C=C1C[C@@]2(O)O[C@@]3(C[C@@H]2C(C)C)[C@H](C)CC[C@@H]13
REMARK SMILES IDX 14 1 13 2 15 3 16 4 17 5 7 6 8 7 9 8 4 9 6 10 3 11 2 12 1 13
REMARK SMILES IDX 10 14 11 15 12 16 5 17
REMARK H PARENT 5 18
REMARK Flexibility Score: inf
ROOT
ATOM      1  C   UNL     1      -9.712  22.037  -8.363  1.00  0.00     0.011 C 
ATOM      2  C   UNL     1      -9.588  21.014  -9.509  1.00  0.00     0.019 C 
ATOM      3  C   UNL     1     -10.660  21.270 -10.572  1.00  0.00     0.007 C 
ATOM      4  C   UNL     1     -11.851  20.369 -10.230  1.00  0.00     0.011 C 
ATOM      5  C   UNL     1     -11.388  19.406  -9.126  1.00  0.00     0.047 C 
ATOM      6  C   UNL     1      -9.848  19.562  -9.070  1.00  0.00     0.081 C 
ATOM      7  C   UNL     1      -9.241  19.165  -7.729  1.00  0.00     0.046 C 
ATOM      8  C   UNL     1      -9.167  17.645  -7.832  1.00  0.00     0.054 C 
ATOM      9  C   UNL     1      -9.358  17.417  -9.371  1.00  0.00     0.173 C 
ATOM     10  O   UNL     1      -9.263  18.678  -9.992  1.00  0.00    -0.342 OA
ATOM     11  C   UNL     1     -10.787  16.888  -9.669  1.00  0.00     0.096 C 
ATOM     12  C   UNL     1     -11.820  17.965  -9.393  1.00  0.00    -0.066 C 
ATOM     13  C   UNL     1     -13.122  17.645  -9.383  1.00  0.00     0.008 C 
ENDROOT
BRANCH   8  14
ATOM     14  C   UNL     1      -7.878  17.032  -7.191  1.00  0.00    -0.009 C 
ATOM     15  C   UNL     1      -7.166  18.031  -6.257  1.00  0.00     0.008 C 
ATOM     16  C   UNL     1      -8.217  15.776  -6.365  1.00  0.00     0.008 C 
ENDBRANCH   8  14
BRANCH   9  17
ATOM     17  O   UNL     1      -8.355  16.589  -9.920  1.00  0.00    -0.365 OA
ATOM     18  H   UNL     1      -7.934  16.055  -9.198  1.00  0.00     0.214 HD
ENDBRANCH   9  17
TORSDOF 2
ENDMDL
MODEL 4
REMARK VINA RESULT:    -3.928      1.834      3.860
REMARK INTER + INTRA:          -4.497
REMARK INTER:                  -4.266
REMARK INTRA:                  -0.231
REMARK UNBOUND:                -0.224
REMARK SMILES C=C1C[C@@]2(O)O[C@@]3(C[C@@H]2C(C)C)[C@H](C)CC[C@@H]13
REMARK SMILES IDX 14 1 13 2 15 3 16 4 17 5 7 6 8 7 9 8 4 9 6 10 3 11 2 12 1 13
REMARK SMILES IDX 10 14 11 15 12 16 5 17
REMARK H PARENT 5 18
REMARK Flexibility Score: inf
ROOT
ATOM      1  C   UNL     1     -13.125  14.824  -9.715  1.00  0.00     0.011 C 
ATOM      2  C   UNL     1     -11.739  15.312 -10.184  1.00  0.00     0.019 C 
ATOM      3  C   UNL     1     -10.707  14.188 -10.053  1.00  0.00     0.007 C 
ATOM      4  C   UNL     1     -10.030  14.360  -8.690  1.00  0.00     0.011 C 
ATOM      5  C   UNL     1     -10.479  15.719  -8.130  1.00  0.00     0.047 C 
ATOM      6  C   UNL     1     -11.159  16.443  -9.317  1.00  0.00     0.081 C 
ATOM      7  C   UNL     1     -12.153  17.517  -8.890  1.00  0.00     0.046 C 
ATOM      8  C   UNL     1     -11.250  18.704  -8.575  1.00  0.00     0.054 C 
ATOM      9  C   UNL     1      -9.905  18.276  -9.257  1.00  0.00     0.173 C 
ATOM     10  O   UNL     1     -10.183  17.143 -10.048  1.00  0.00    -0.342 OA
ATOM     11  C   UNL     1      -8.874  17.820  -8.188  1.00  0.00     0.096 C 
ATOM     12  C   UNL     1      -9.316  16.518  -7.544  1.00  0.00    -0.066 C 
ATOM     13  C   UNL     1      -8.678  16.070  -6.454  1.00  0.00     0.008 C 
ENDROOT
BRANCH   8  14
ATOM     14  C   UNL     1     -11.844  20.084  -9.013  1.00  0.00    -0.009 C 
ATOM     15  C   UNL     1     -12.884  19.931 -10.142  1.00  0.00     0.008 C 
ATOM     16  C   UNL     1     -12.535  20.788  -7.830  1.00  0.00     0.008 C 
ENDBRANCH   8  14
BRANCH   9  17
ATOM     17  O   UNL     1      -9.388  19.278 -10.105  1.00  0.00    -0.365 OA
ATOM     18  H   UNL     1      -8.398  19.279 -10.053  1.00  0.00     0.214 HD
ENDBRANCH   9  17
TORSDOF 2
ENDMDL
MODEL 5
REMARK VINA RESULT:    -3.894      1.839      3.835
REMARK INTER + INTRA:          -4.459
REMARK INTER:                  -4.907
REMARK INTRA:                   0.447
REMARK UNBOUND:                -0.224
REMARK SMILES C=C1C[C@@]2(O)O[C@@]3(C[C@@H]2C(C)C)[C@H](C)CC[C@@H]13
REMARK SMILES IDX 14 1 13 2 15 3 16 4 17 5 7 6 8 7 9 8 4 9 6 10 3 11 2 12 1 13
REMARK SMILES IDX 10 14 11 15 12 16 5 17
REMARK H PARENT 5 18
REMARK Flexibility Score: inf
ROOT
ATOM      1  C   UNL     1     -13.125  20.330  -8.350  1.00  0.00     0.011 C 
ATOM      2  C   UNL     1     -11.656  19.931  -8.104  1.00  0.00     0.019 C 
ATOM      3  C   UNL     1     -10.718  21.068  -8.518  1.00  0.00     0.007 C 
ATOM      4  C   UNL     1     -10.291  20.790  -9.963  1.00  0.00     0.011 C 
ATOM      5  C   UNL     1     -10.769  19.372 -10.311  1.00  0.00     0.047 C 
ATOM      6  C   UNL     1     -11.189  18.741  -8.960  1.00  0.00     0.081 C 
ATOM      7  C   UNL     1     -12.192  17.603  -9.102  1.00  0.00     0.046 C 
ATOM      8  C   UNL     1     -11.306  16.419  -9.474  1.00  0.00     0.054 C 
ATOM      9  C   UNL     1      -9.882  16.950  -9.091  1.00  0.00     0.173 C 
ATOM     10  O   UNL     1     -10.066  18.143  -8.364  1.00  0.00    -0.342 OA
ATOM     11  C   UNL     1      -9.083  17.334 -10.366  1.00  0.00     0.096 C 
ATOM     12  C   UNL     1      -9.694  18.556 -11.028  1.00  0.00    -0.066 C 
ATOM     13  C   UNL     1      -9.285  18.919 -12.252  1.00  0.00     0.008 C 
ENDROOT
BRANCH   8  14
ATOM     14  C   UNL     1     -11.746  15.070  -8.816  1.00  0.00    -0.009 C 
ATOM     15  C   UNL     1     -13.122  14.598  -9.330  1.00  0.00     0.008 C 
ATOM     16  C   UNL     1     -10.726  13.954  -9.112  1.00  0.00     0.008 C 
ENDBRANCH   8  14
BRANCH   9  17
ATOM     17  O   UNL     1      -9.175  16.048  -8.268  1.00  0.00    -0.365 OA
ATOM     18  H   UNL     1      -9.581  16.035  -7.364  1.00  0.00     0.214 HD
ENDBRANCH   9  17
TORSDOF 2
ENDMDL
MODEL 6
REMARK VINA RESULT:    -3.735      2.682      5.574
REMARK INTER + INTRA:          -4.287
REMARK INTER:                  -4.081
REMARK INTRA:                  -0.206
REMARK UNBOUND:                -0.224
REMARK SMILES C=C1C[C@@]2(O)O[C@@]3(C[C@@H]2C(C)C)[C@H](C)CC[C@@H]13
REMARK SMILES IDX 14 1 13 2 15 3 16 4 17 5 7 6 8 7 9 8 4 9 6 10 3 11 2 12 1 13
REMARK SMILES IDX 10 14 11 15 12 16 5 17
REMARK H PARENT 5 18
REMARK Flexibility Score: inf
ROOT
ATOM      1  C   UNL     1     -10.394  23.305 -10.291  1.00  0.00     0.011 C 
ATOM      2  C   UNL     1     -11.157  21.984 -10.514  1.00  0.00     0.019 C 
ATOM      3  C   UNL     1     -11.974  21.623  -9.270  1.00  0.00     0.007 C 
ATOM      4  C   UNL     1     -11.106  20.690  -8.422  1.00  0.00     0.011 C 
ATOM      5  C   UNL     1      -9.890  20.300  -9.276  1.00  0.00     0.047 C 
ATOM      6  C   UNL     1     -10.236  20.767 -10.712  1.00  0.00     0.081 C 
ATOM      7  C   UNL     1      -9.012  21.007 -11.589  1.00  0.00     0.046 C 
ATOM      8  C   UNL     1      -8.645  19.599 -12.045  1.00  0.00     0.054 C 
ATOM      9  C   UNL     1      -9.949  18.799 -11.702  1.00  0.00     0.173 C 
ATOM     10  O   UNL     1     -10.940  19.745 -11.370  1.00  0.00    -0.342 OA
ATOM     11  C   UNL     1      -9.734  17.928 -10.434  1.00  0.00     0.096 C 
ATOM     12  C   UNL     1      -9.584  18.805  -9.205  1.00  0.00    -0.066 C 
ATOM     13  C   UNL     1      -9.180  18.259  -8.049  1.00  0.00     0.008 C 
ENDROOT
BRANCH   8  14
ATOM     14  C   UNL     1      -8.154  19.525 -13.529  1.00  0.00    -0.009 C 
ATOM     15  C   UNL     1      -7.656  20.892 -14.041  1.00  0.00     0.008 C 
ATOM     16  C   UNL     1      -6.996  18.518 -13.676  1.00  0.00     0.008 C 
ENDBRANCH   8  14
BRANCH   9  17
ATOM     17  O   UNL     1     -10.421  18.045 -12.797  1.00  0.00    -0.365 OA
ATOM     18  H   UNL     1      -9.722  18.004 -13.498  1.00  0.00     0.214 HD
ENDBRANCH   9  17
TORSDOF 2
ENDMDL
MODEL 7
REMARK VINA RESULT:    -3.664      3.122      5.313
REMARK INTER + INTRA:          -4.209
REMARK INTER:                  -4.005
REMARK INTRA:                  -0.203
REMARK UNBOUND:                -0.224
REMARK SMILES C=C1C[C@@]2(O)O[C@@]3(C[C@@H]2C(C)C)[C@H](C)CC[C@@H]13
REMARK SMILES IDX 14 1 13 2 15 3 16 4 17 5 7 6 8 7 9 8 4 9 6 10 3 11 2 12 1 13
REMARK SMILES IDX 10 14 11 15 12 16 5 17
REMARK H PARENT 5 18
REMARK Flexibility Score: inf
ROOT
ATOM      1  C   UNL     1      -8.244  23.197  -8.146  1.00  0.00     0.011 C 
ATOM      2  C   UNL     1      -8.430  22.668  -9.582  1.00  0.00     0.019 C 
ATOM      3  C   UNL     1      -8.993  23.767 -10.487  1.00  0.00     0.007 C 
ATOM      4  C   UNL     1     -10.515  23.602 -10.495  1.00  0.00     0.011 C 
ATOM      5  C   UNL     1     -10.830  22.265  -9.807  1.00  0.00     0.047 C 
ATOM      6  C   UNL     1      -9.467  21.537  -9.693  1.00  0.00     0.081 C 
ATOM      7  C   UNL     1      -9.422  20.495  -8.581  1.00  0.00     0.046 C 
ATOM      8  C   UNL     1     -10.106  19.292  -9.220  1.00  0.00     0.054 C 
ATOM      9  C   UNL     1     -10.078  19.676 -10.740  1.00  0.00     0.173 C 
ATOM     10  O   UNL     1      -9.240  20.801 -10.868  1.00  0.00    -0.342 OA
ATOM     11  C   UNL     1     -11.487  20.124 -11.214  1.00  0.00     0.096 C 
ATOM     12  C   UNL     1     -11.867  21.447 -10.575  1.00  0.00    -0.066 C 
ATOM     13  C   UNL     1     -13.125  21.898 -10.686  1.00  0.00     0.008 C 
ENDROOT
BRANCH   8  14
ATOM     14  C   UNL     1      -9.458  17.920  -8.837  1.00  0.00    -0.009 C 
ATOM     15  C   UNL     1      -8.655  18.008  -7.523  1.00  0.00     0.008 C 
ATOM     16  C   UNL     1     -10.536  16.833  -8.656  1.00  0.00     0.008 C 
ENDBRANCH   8  14
BRANCH   9  17
ATOM     17  O   UNL     1      -9.545  18.646 -11.545  1.00  0.00    -0.365 OA
ATOM     18  H   UNL     1      -9.435  18.975 -12.474  1.00  0.00     0.214 HD
ENDBRANCH   9  17
TORSDOF 2
ENDMDL
MODEL 8
REMARK VINA RESULT:    -3.649      3.394      4.431
REMARK INTER + INTRA:          -4.193
REMARK INTER:                  -3.965
REMARK INTRA:                  -0.228
REMARK UNBOUND:                -0.224
REMARK SMILES C=C1C[C@@]2(O)O[C@@]3(C[C@@H]2C(C)C)[C@H](C)CC[C@@H]13
REMARK SMILES IDX 14 1 13 2 15 3 16 4 17 5 7 6 8 7 9 8 4 9 6 10 3 11 2 12 1 13
REMARK SMILES IDX 10 14 11 15 12 16 5 17
REMARK H PARENT 5 18
REMARK Flexibility Score: inf
ROOT
ATOM      1  C   UNL     1     -12.072  17.657  -8.846  1.00  0.00     0.011 C 
ATOM      2  C   UNL     1     -12.512  18.855  -9.712  1.00  0.00     0.019 C 
ATOM      3  C   UNL     1     -12.314  18.540 -11.197  1.00  0.00     0.007 C 
ATOM      4  C   UNL     1     -10.936  19.082 -11.589  1.00  0.00     0.011 C 
ATOM      5  C   UNL     1     -10.433  19.932 -10.412  1.00  0.00     0.047 C 
ATOM      6  C   UNL     1     -11.664  20.119  -9.491  1.00  0.00     0.081 C 
ATOM      7  C   UNL     1     -11.302  20.420  -8.040  1.00  0.00     0.046 C 
ATOM      8  C   UNL     1     -10.996  21.913  -8.074  1.00  0.00     0.054 C 
ATOM      9  C   UNL     1     -11.621  22.340  -9.447  1.00  0.00     0.173 C 
ATOM     10  O   UNL     1     -12.385  21.250  -9.911  1.00  0.00    -0.342 OA
ATOM     11  C   UNL     1     -10.507  22.574 -10.503  1.00  0.00     0.096 C 
ATOM     12  C   UNL     1      -9.837  21.263 -10.869  1.00  0.00    -0.066 C 
ATOM     13  C   UNL     1      -8.714  21.276 -11.600  1.00  0.00     0.008 C 
ENDROOT
BRANCH   8  14
ATOM     14  C   UNL     1     -11.496  22.689  -6.811  1.00  0.00    -0.009 C 
ATOM     15  C   UNL     1     -12.434  21.829  -5.939  1.00  0.00     0.008 C 
ATOM     16  C   UNL     1     -10.311  23.131  -5.930  1.00  0.00     0.008 C 
ENDBRANCH   8  14
BRANCH   9  17
ATOM     17  O   UNL     1     -12.484  23.450  -9.323  1.00  0.00    -0.365 OA
ATOM     18  H   UNL     1     -13.384  23.141  -9.046  1.00  0.00     0.214 HD
ENDBRANCH   9  17
TORSDOF 2
ENDMDL
MODEL 9
REMARK VINA RESULT:    -3.520      3.258      5.542
REMARK INTER + INTRA:          -4.052
REMARK INTER:                  -3.851
REMARK INTRA:                  -0.202
REMARK UNBOUND:                -0.224
REMARK SMILES C=C1C[C@@]2(O)O[C@@]3(C[C@@H]2C(C)C)[C@H](C)CC[C@@H]13
REMARK SMILES IDX 14 1 13 2 15 3 16 4 17 5 7 6 8 7 9 8 4 9 6 10 3 11 2 12 1 13
REMARK SMILES IDX 10 14 11 15 12 16 5 17
REMARK H PARENT 5 18
REMARK Flexibility Score: inf
ROOT
ATOM      1  C   UNL     1      -8.646  22.615 -11.087  1.00  0.00     0.011 C 
ATOM      2  C   UNL     1     -10.139  22.436 -10.746  1.00  0.00     0.019 C 
ATOM      3  C   UNL     1     -10.784  23.792 -10.447  1.00  0.00     0.007 C 
ATOM      4  C   UNL     1     -10.718  23.992  -8.929  1.00  0.00     0.011 C 
ATOM      5  C   UNL     1     -10.269  22.657  -8.316  1.00  0.00     0.047 C 
ATOM      6  C   UNL     1     -10.385  21.623  -9.463  1.00  0.00     0.081 C 
ATOM      7  C   UNL     1      -9.490  20.402  -9.279  1.00  0.00     0.046 C 
ATOM      8  C   UNL     1     -10.292  19.541  -8.310  1.00  0.00     0.054 C 
ATOM      9  C   UNL     1     -11.713  20.198  -8.396  1.00  0.00     0.173 C 
ATOM     10  O   UNL     1     -11.689  21.099  -9.479  1.00  0.00    -0.342 OA
ATOM     11  C   UNL     1     -11.998  21.047  -7.127  1.00  0.00     0.096 C 
ATOM     12  C   UNL     1     -11.101  22.270  -7.094  1.00  0.00    -0.066 C 
ATOM     13  C   UNL     1     -11.040  23.015  -5.981  1.00  0.00     0.008 C 
ENDROOT
BRANCH   8  14
ATOM     14  C   UNL     1     -10.215  18.008  -8.614  1.00  0.00    -0.009 C 
ATOM     15  C   UNL     1     -10.043  17.727 -10.121  1.00  0.00     0.008 C 
ATOM     16  C   UNL     1      -9.028  17.360  -7.877  1.00  0.00     0.008 C 
ENDBRANCH   8  14
BRANCH   9  17
ATOM     17  O   UNL     1     -12.729  19.251  -8.646  1.00  0.00    -0.365 OA
ATOM     18  H   UNL     1     -12.473  18.378  -8.253  1.00  0.00     0.214 HD
ENDBRANCH   9  17
TORSDOF 2
ENDMDL
