MODEL 1
REMARK VINA RESULT:    -4.455      0.000      0.000
REMARK INTER + INTRA:          -5.209
REMARK INTER:                  -5.106
REMARK INTRA:                  -0.103
REMARK UNBOUND:                -0.103
REMARK SMILES COc1cc(C(=O)[O-])ccc1O
REMARK SMILES IDX 5 1 9 2 4 3 10 4 3 5 11 6 6 7 7 8 8 9 2 10 1 11 12 12
REMARK H PARENT 12 13
REMARK Flexibility Score: inf
ROOT
ATOM      1  C   UNL     1     -34.760  -8.813  -8.270  1.00  0.00     0.001 A 
ATOM      2  C   UNL     1     -35.377  -8.271  -7.131  1.00  0.00     0.014 A 
ATOM      3  C   UNL     1     -35.079 -10.128  -8.658  1.00  0.00     0.060 A 
ATOM      4  C   UNL     1     -36.291  -9.025  -6.395  1.00  0.00     0.051 A 
ATOM      5  C   UNL     1     -36.001 -10.893  -7.918  1.00  0.00     0.161 A 
ATOM      6  C   UNL     1     -36.605 -10.333  -6.783  1.00  0.00     0.157 A 
ENDROOT
BRANCH   1   7
ATOM      7  C   UNL     1     -33.791  -8.009  -9.047  1.00  0.00     0.072 C 
ATOM      8  O   UNL     1     -33.397  -6.891  -8.620  1.00  0.00    -0.545 OA
ATOM      9  O   UNL     1     -33.302  -8.476 -10.262  1.00  0.00    -0.545 OA
ENDBRANCH   1   7
BRANCH   5  10
ATOM     10  O   UNL     1     -36.342 -12.207  -8.275  1.00  0.00    -0.493 OA
ATOM     11  C   UNL     1     -37.182 -12.554  -9.370  1.00  0.00     0.278 C 
ENDBRANCH   5  10
BRANCH   6  12
ATOM     12  O   UNL     1     -37.519 -11.085  -6.046  1.00  0.00    -0.504 OA
ATOM     13  H   UNL     1     -38.056 -11.831  -6.470  1.00  0.00     0.293 HD
ENDBRANCH   6  12
TORSDOF 3
ENDMDL
MODEL 2
REMARK VINA RESULT:    -4.455      2.481      4.712
REMARK INTER + INTRA:          -5.209
REMARK INTER:                  -5.123
REMARK INTRA:                  -0.086
REMARK UNBOUND:                -0.103
REMARK SMILES COc1cc(C(=O)[O-])ccc1O
REMARK SMILES IDX 5 1 9 2 4 3 10 4 3 5 11 6 6 7 7 8 8 9 2 10 1 11 12 12
REMARK H PARENT 12 13
REMARK Flexibility Score: inf
ROOT
ATOM      1  C   UNL     1     -36.508 -13.248  -9.554  1.00  0.00     0.001 A 
ATOM      2  C   UNL     1     -37.092 -14.180  -8.680  1.00  0.00     0.014 A 
ATOM      3  C   UNL     1     -36.447 -11.896  -9.169  1.00  0.00     0.060 A 
ATOM      4  C   UNL     1     -37.604 -13.769  -7.448  1.00  0.00     0.051 A 
ATOM      5  C   UNL     1     -36.963 -11.477  -7.927  1.00  0.00     0.161 A 
ATOM      6  C   UNL     1     -37.542 -12.423  -7.069  1.00  0.00     0.157 A 
ENDROOT
BRANCH   1   7
ATOM      7  C   UNL     1     -35.966 -13.689 -10.859  1.00  0.00     0.072 C 
ATOM      8  O   UNL     1     -36.200 -14.849 -11.291  1.00  0.00    -0.545 OA
ATOM      9  O   UNL     1     -35.191 -12.828 -11.626  1.00  0.00    -0.545 OA
ENDBRANCH   1   7
BRANCH   5  10
ATOM     10  O   UNL     1     -36.919 -10.137  -7.511  1.00  0.00    -0.493 OA
ATOM     11  C   UNL     1     -35.858  -9.234  -7.805  1.00  0.00     0.278 C 
ENDBRANCH   5  10
BRANCH   6  12
ATOM     12  O   UNL     1     -38.054 -12.015  -5.838  1.00  0.00    -0.504 OA
ATOM     13  H   UNL     1     -37.447 -11.776  -5.064  1.00  0.00     0.293 HD
ENDBRANCH   6  12
TORSDOF 3
ENDMDL
MODEL 3
REMARK VINA RESULT:    -4.420      1.317      3.026
REMARK INTER + INTRA:          -5.170
REMARK INTER:                  -5.088
REMARK INTRA:                  -0.082
REMARK UNBOUND:                -0.103
REMARK SMILES COc1cc(C(=O)[O-])ccc1O
REMARK SMILES IDX 5 1 9 2 4 3 10 4 3 5 11 6 6 7 7 8 8 9 2 10 1 11 12 12
REMARK H PARENT 12 13
REMARK Flexibility Score: inf
ROOT
ATOM      1  C   UNL     1     -34.742  -9.856  -9.014  1.00  0.00     0.001 A 
ATOM      2  C   UNL     1     -35.347 -11.120  -9.092  1.00  0.00     0.014 A 
ATOM      3  C   UNL     1     -35.064  -9.010  -7.936  1.00  0.00     0.060 A 
ATOM      4  C   UNL     1     -36.254 -11.532  -8.114  1.00  0.00     0.051 A 
ATOM      5  C   UNL     1     -35.978  -9.421  -6.947  1.00  0.00     0.161 A 
ATOM      6  C   UNL     1     -36.572 -10.688  -7.043  1.00  0.00     0.157 A 
ENDROOT
BRANCH   1   7
ATOM      7  C   UNL     1     -33.781  -9.424 -10.054  1.00  0.00     0.072 C 
ATOM      8  O   UNL     1     -33.583 -10.132 -11.077  1.00  0.00    -0.545 OA
ATOM      9  O   UNL     1     -33.083  -8.230  -9.916  1.00  0.00    -0.545 OA
ENDBRANCH   1   7
BRANCH   5  10
ATOM     10  O   UNL     1     -36.323  -8.604  -5.859  1.00  0.00    -0.493 OA
ATOM     11  C   UNL     1     -35.875  -7.264  -5.682  1.00  0.00     0.278 C 
ENDBRANCH   5  10
BRANCH   6  12
ATOM     12  O   UNL     1     -37.478 -11.101  -6.068  1.00  0.00    -0.504 OA
ATOM     13  H   UNL     1     -38.471 -10.925  -6.158  1.00  0.00     0.293 HD
ENDBRANCH   6  12
TORSDOF 3
ENDMDL
MODEL 4
REMARK VINA RESULT:    -4.403      3.697      4.956
REMARK INTER + INTRA:          -5.150
REMARK INTER:                  -5.064
REMARK INTRA:                  -0.086
REMARK UNBOUND:                -0.103
REMARK SMILES COc1cc(C(=O)[O-])ccc1O
REMARK SMILES IDX 5 1 9 2 4 3 10 4 3 5 11 6 6 7 7 8 8 9 2 10 1 11 12 12
REMARK H PARENT 12 13
REMARK Flexibility Score: inf
ROOT
ATOM      1  C   UNL     1     -36.484 -13.590  -9.537  1.00  0.00     0.001 A 
ATOM      2  C   UNL     1     -36.356 -12.213  -9.294  1.00  0.00     0.014 A 
ATOM      3  C   UNL     1     -37.113 -14.399  -8.572  1.00  0.00     0.060 A 
ATOM      4  C   UNL     1     -36.844 -11.656  -8.111  1.00  0.00     0.051 A 
ATOM      5  C   UNL     1     -37.607 -13.840  -7.377  1.00  0.00     0.161 A 
ATOM      6  C   UNL     1     -37.468 -12.463  -7.153  1.00  0.00     0.157 A 
ENDROOT
BRANCH   1   7
ATOM      7  C   UNL     1     -35.965 -14.177 -10.793  1.00  0.00     0.072 C 
ATOM      8  O   UNL     1     -36.142 -15.398 -11.051  1.00  0.00    -0.545 OA
ATOM      9  O   UNL     1     -35.274 -13.389 -11.706  1.00  0.00    -0.545 OA
ENDBRANCH   1   7
BRANCH   5  10
ATOM     10  O   UNL     1     -38.238 -14.616  -6.392  1.00  0.00    -0.493 OA
ATOM     11  C   UNL     1     -39.040 -15.762  -6.658  1.00  0.00     0.278 C 
ENDBRANCH   5  10
BRANCH   6  12
ATOM     12  O   UNL     1     -37.955 -11.904  -5.972  1.00  0.00    -0.504 OA
ATOM     13  H   UNL     1     -38.080 -12.458  -5.135  1.00  0.00     0.293 HD
ENDBRANCH   6  12
TORSDOF 3
ENDMDL
MODEL 5
REMARK VINA RESULT:    -4.400      4.391      7.018
REMARK INTER + INTRA:          -5.147
REMARK INTER:                  -5.064
REMARK INTRA:                  -0.082
REMARK UNBOUND:                -0.103
REMARK SMILES COc1cc(C(=O)[O-])ccc1O
REMARK SMILES IDX 5 1 9 2 4 3 10 4 3 5 11 6 6 7 7 8 8 9 2 10 1 11 12 12
REMARK H PARENT 12 13
REMARK Flexibility Score: inf
ROOT
ATOM      1  C   UNL     1     -37.225 -16.256  -8.481  1.00  0.00     0.001 A 
ATOM      2  C   UNL     1     -38.028 -17.114  -7.712  1.00  0.00     0.014 A 
ATOM      3  C   UNL     1     -37.138 -14.898  -8.122  1.00  0.00     0.060 A 
ATOM      4  C   UNL     1     -38.728 -16.627  -6.608  1.00  0.00     0.051 A 
ATOM      5  C   UNL     1     -37.844 -14.402  -7.009  1.00  0.00     0.161 A 
ATOM      6  C   UNL     1     -38.640 -15.275  -6.254  1.00  0.00     0.157 A 
ENDROOT
BRANCH   1   7
ATOM      7  C   UNL     1     -36.484 -16.778  -9.651  1.00  0.00     0.072 C 
ATOM      8  O   UNL     1     -35.872 -17.877  -9.584  1.00  0.00    -0.545 OA
ATOM      9  O   UNL     1     -36.453 -16.061 -10.842  1.00  0.00    -0.545 OA
ENDBRANCH   1   7
BRANCH   5  10
ATOM     10  O   UNL     1     -37.781 -13.054  -6.622  1.00  0.00    -0.493 OA
ATOM     11  C   UNL     1     -37.659 -11.959  -7.524  1.00  0.00     0.278 C 
ENDBRANCH   5  10
BRANCH   6  12
ATOM     12  O   UNL     1     -39.341 -14.791  -5.151  1.00  0.00    -0.504 OA
ATOM     13  H   UNL     1     -39.901 -13.950  -5.206  1.00  0.00     0.293 HD
ENDBRANCH   6  12
TORSDOF 3
ENDMDL
MODEL 6
REMARK VINA RESULT:    -4.301     10.833     11.218
REMARK INTER + INTRA:          -5.033
REMARK INTER:                  -4.930
REMARK INTRA:                  -0.103
REMARK UNBOUND:                -0.103
REMARK SMILES COc1cc(C(=O)[O-])ccc1O
REMARK SMILES IDX 5 1 9 2 4 3 10 4 3 5 11 6 6 7 7 8 8 9 2 10 1 11 12 12
REMARK H PARENT 12 13
REMARK Flexibility Score: inf
ROOT
ATOM      1  C   UNL     1     -26.792 -12.465  -1.447  1.00  0.00     0.001 A 
ATOM      2  C   UNL     1     -26.115 -12.198  -0.246  1.00  0.00     0.014 A 
ATOM      3  C   UNL     1     -28.036 -11.849  -1.682  1.00  0.00     0.060 A 
ATOM      4  C   UNL     1     -26.668 -11.335   0.701  1.00  0.00     0.051 A 
ATOM      5  C   UNL     1     -28.598 -10.977  -0.728  1.00  0.00     0.161 A 
ATOM      6  C   UNL     1     -27.906 -10.725   0.465  1.00  0.00     0.157 A 
ENDROOT
BRANCH   1   7
ATOM      7  C   UNL     1     -26.201 -13.380  -2.449  1.00  0.00     0.072 C 
ATOM      8  O   UNL     1     -25.334 -14.229  -2.109  1.00  0.00    -0.545 OA
ATOM      9  O   UNL     1     -26.595 -13.317  -3.781  1.00  0.00    -0.545 OA
ENDBRANCH   1   7
BRANCH   5  10
ATOM     10  O   UNL     1     -29.836 -10.346  -0.928  1.00  0.00    -0.493 OA
ATOM     11  C   UNL     1     -31.100 -10.986  -0.786  1.00  0.00     0.278 C 
ENDBRANCH   5  10
BRANCH   6  12
ATOM     12  O   UNL     1     -28.456  -9.863   1.413  1.00  0.00    -0.504 OA
ATOM     13  H   UNL     1     -28.338  -8.860   1.348  1.00  0.00     0.293 HD
ENDBRANCH   6  12
TORSDOF 3
ENDMDL
MODEL 7
REMARK VINA RESULT:    -4.283     11.555     12.126
REMARK INTER + INTRA:          -5.012
REMARK INTER:                  -4.916
REMARK INTRA:                  -0.096
REMARK UNBOUND:                -0.103
REMARK SMILES COc1cc(C(=O)[O-])ccc1O
REMARK SMILES IDX 5 1 9 2 4 3 10 4 3 5 11 6 6 7 7 8 8 9 2 10 1 11 12 12
REMARK H PARENT 12 13
REMARK Flexibility Score: inf
ROOT
ATOM      1  C   UNL     1     -26.680 -13.237  -2.546  1.00  0.00     0.001 A 
ATOM      2  C   UNL     1     -25.703 -14.137  -2.089  1.00  0.00     0.014 A 
ATOM      3  C   UNL     1     -27.021 -12.132  -1.743  1.00  0.00     0.060 A 
ATOM      4  C   UNL     1     -25.080 -13.938  -0.856  1.00  0.00     0.051 A 
ATOM      5  C   UNL     1     -26.394 -11.928  -0.498  1.00  0.00     0.161 A 
ATOM      6  C   UNL     1     -25.422 -12.838  -0.060  1.00  0.00     0.157 A 
ENDROOT
BRANCH   1   7
ATOM      7  C   UNL     1     -27.338 -13.452  -3.854  1.00  0.00     0.072 C 
ATOM      8  O   UNL     1     -26.783 -13.075  -4.921  1.00  0.00    -0.545 OA
ATOM      9  O   UNL     1     -28.579 -14.075  -3.925  1.00  0.00    -0.545 OA
ENDBRANCH   1   7
BRANCH   5  10
ATOM     10  O   UNL     1     -26.709 -10.838   0.329  1.00  0.00    -0.493 OA
ATOM     11  C   UNL     1     -27.913 -10.715   1.079  1.00  0.00     0.278 C 
ENDBRANCH   5  10
BRANCH   6  12
ATOM     12  O   UNL     1     -24.798 -12.641   1.171  1.00  0.00    -0.504 OA
ATOM     13  H   UNL     1     -24.113 -13.296   1.529  1.00  0.00     0.293 HD
ENDBRANCH   6  12
TORSDOF 3
ENDMDL
MODEL 8
REMARK VINA RESULT:    -4.251     10.577     11.179
REMARK INTER + INTRA:          -4.976
REMARK INTER:                  -4.898
REMARK INTRA:                  -0.078
REMARK UNBOUND:                -0.103
REMARK SMILES COc1cc(C(=O)[O-])ccc1O
REMARK SMILES IDX 5 1 9 2 4 3 10 4 3 5 11 6 6 7 7 8 8 9 2 10 1 11 12 12
REMARK H PARENT 12 13
REMARK Flexibility Score: inf
ROOT
ATOM      1  C   UNL     1     -27.986 -12.494  -2.336  1.00  0.00     0.001 A 
ATOM      2  C   UNL     1     -29.223 -11.948  -1.956  1.00  0.00     0.014 A 
ATOM      3  C   UNL     1     -26.847 -12.211  -1.559  1.00  0.00     0.060 A 
ATOM      4  C   UNL     1     -29.320 -11.136  -0.825  1.00  0.00     0.051 A 
ATOM      5  C   UNL     1     -26.940 -11.392  -0.417  1.00  0.00     0.161 A 
ATOM      6  C   UNL     1     -28.185 -10.856  -0.055  1.00  0.00     0.157 A 
ENDROOT
BRANCH   1   7
ATOM      7  C   UNL     1     -27.888 -13.354  -3.536  1.00  0.00     0.072 C 
ATOM      8  O   UNL     1     -28.644 -14.354  -3.672  1.00  0.00    -0.545 OA
ATOM      9  O   UNL     1     -26.961 -13.072  -4.532  1.00  0.00    -0.545 OA
ENDBRANCH   1   7
BRANCH   5  10
ATOM     10  O   UNL     1     -25.826 -11.087   0.380  1.00  0.00    -0.493 OA
ATOM     11  C   UNL     1     -24.472 -11.272  -0.021  1.00  0.00     0.278 C 
ENDBRANCH   5  10
BRANCH   6  12
ATOM     12  O   UNL     1     -28.284 -10.045   1.074  1.00  0.00    -0.504 OA
ATOM     13  H   UNL     1     -28.897  -9.239   1.096  1.00  0.00     0.293 HD
ENDBRANCH   6  12
TORSDOF 3
ENDMDL
MODEL 9
REMARK VINA RESULT:    -4.244      1.551      4.770
REMARK INTER + INTRA:          -4.968
REMARK INTER:                  -4.890
REMARK INTRA:                  -0.077
REMARK UNBOUND:                -0.103
REMARK SMILES COc1cc(C(=O)[O-])ccc1O
REMARK SMILES IDX 5 1 9 2 4 3 10 4 3 5 11 6 6 7 7 8 8 9 2 10 1 11 12 12
REMARK H PARENT 12 13
REMARK Flexibility Score: inf
ROOT
ATOM      1  C   UNL     1     -36.414 -10.884  -7.832  1.00  0.00     0.001 A 
ATOM      2  C   UNL     1     -35.188 -10.965  -8.511  1.00  0.00     0.014 A 
ATOM      3  C   UNL     1     -36.769  -9.675  -7.204  1.00  0.00     0.060 A 
ATOM      4  C   UNL     1     -34.334  -9.863  -8.563  1.00  0.00     0.051 A 
ATOM      5  C   UNL     1     -35.910  -8.560  -7.253  1.00  0.00     0.161 A 
ATOM      6  C   UNL     1     -34.689  -8.662  -7.936  1.00  0.00     0.157 A 
ENDROOT
BRANCH   1   7
ATOM      7  C   UNL     1     -37.317 -12.056  -7.781  1.00  0.00     0.072 C 
ATOM      8  O   UNL     1     -37.769 -12.470  -6.679  1.00  0.00    -0.545 OA
ATOM      9  O   UNL     1     -37.680 -12.717  -8.948  1.00  0.00    -0.545 OA
ENDBRANCH   1   7
BRANCH   5  10
ATOM     10  O   UNL     1     -36.230  -7.339  -6.639  1.00  0.00    -0.493 OA
ATOM     11  C   UNL     1     -35.915  -7.007  -5.290  1.00  0.00     0.278 C 
ENDBRANCH   5  10
BRANCH   6  12
ATOM     12  O   UNL     1     -33.834  -7.562  -7.989  1.00  0.00    -0.504 OA
ATOM     13  H   UNL     1     -33.321  -7.250  -7.174  1.00  0.00     0.293 HD
ENDBRANCH   6  12
TORSDOF 3
ENDMDL
