MODEL 1
REMARK VINA RESULT:    -6.098      0.000      0.000
REMARK INTER + INTRA:          -7.698
REMARK INTER:                  -7.346
REMARK INTRA:                  -0.351
REMARK UNBOUND:                -0.351
REMARK SMILES O=c1c(O)c(-c2ccc(O)cc2O)oc2cc(O)cc(O)c12
REMARK SMILES IDX 5 1 3 2 2 3 1 4 22 5 20 6 19 7 17 8 16 9 15 10 14 11 6 12
REMARK SMILES IDX 8 13 7 14 9 15 11 16 12 17 10 18 13 20 4 22 21 24 18 26
REMARK H PARENT 10 19 13 21 4 23 21 25 18 27
REMARK Flexibility Score: inf
ROOT
ATOM      1  C   UNL     1     156.799  -7.531  24.454  1.00  0.00     0.184 A 
ATOM      2  C   UNL     1     155.783  -6.629  24.800  1.00  0.00     0.208 A 
ATOM      3  C   UNL     1     154.977  -6.905  25.915  1.00  0.00     0.238 A 
ATOM      4  O   UNL     1     154.102  -6.066  26.253  1.00  0.00    -0.285 OA
ATOM      5  C   UNL     1     155.190  -8.092  26.659  1.00  0.00     0.111 A 
ATOM      6  C   UNL     1     154.407  -8.494  27.783  1.00  0.00     0.134 A 
ATOM      7  C   UNL     1     154.788  -9.622  28.522  1.00  0.00     0.093 A 
ATOM      8  C   UNL     1     155.882 -10.396  28.140  1.00  0.00     0.123 A 
ATOM      9  C   UNL     1     156.619 -10.046  27.009  1.00  0.00     0.094 A 
ATOM     10  C   UNL     1     156.285  -8.907  26.272  1.00  0.00     0.146 A 
ATOM     11  O   UNL     1     157.018  -8.602  25.208  1.00  0.00    -0.451 OA
ENDROOT
BRANCH   1  12
ATOM     12  C   UNL     1     157.672  -7.307  23.282  1.00  0.00     0.063 A 
ATOM     13  C   UNL     1     157.889  -7.023  20.878  1.00  0.00     0.047 A 
ATOM     14  C   UNL     1     157.094  -7.239  22.005  1.00  0.00     0.020 A 
ATOM     15  C   UNL     1     159.270  -6.858  21.012  1.00  0.00     0.119 A 
ATOM     16  C   UNL     1     159.855  -6.901  22.284  1.00  0.00     0.093 A 
ATOM     17  C   UNL     1     159.062  -7.112  23.423  1.00  0.00     0.130 A 
BRANCH  15  18
ATOM     18  O   UNL     1     160.051  -6.648  19.878  1.00  0.00    -0.508 OA
ATOM     19  H   UNL     1     160.514  -7.416  19.405  1.00  0.00     0.293 HD
ENDBRANCH  15  18
BRANCH  17  20
ATOM     20  O   UNL     1     159.649  -7.105  24.688  1.00  0.00    -0.507 OA
ATOM     21  H   UNL     1     159.381  -7.772  25.403  1.00  0.00     0.293 HD
ENDBRANCH  17  20
ENDBRANCH   1  12
BRANCH   2  22
ATOM     22  O   UNL     1     155.607  -5.456  24.059  1.00  0.00    -0.502 OA
ATOM     23  H   UNL     1     154.728  -4.954  24.038  1.00  0.00     0.293 HD
ENDBRANCH   2  22
BRANCH   6  24
ATOM     24  O   UNL     1     153.241  -7.844  28.196  1.00  0.00    -0.507 OA
ATOM     25  H   UNL     1     152.739  -8.050  29.047  1.00  0.00     0.293 HD
ENDBRANCH   6  24
BRANCH   8  26
ATOM     26  O   UNL     1     156.224 -11.520  28.889  1.00  0.00    -0.508 OA
ATOM     27  H   UNL     1     156.501 -11.446  29.861  1.00  0.00     0.293 HD
ENDBRANCH   8  26
TORSDOF 6
ENDMDL
MODEL 2
REMARK VINA RESULT:    -5.901      1.478      7.104
REMARK INTER + INTRA:          -7.459
REMARK INTER:                  -7.038
REMARK INTRA:                  -0.422
REMARK UNBOUND:                -0.351
REMARK SMILES O=c1c(O)c(-c2ccc(O)cc2O)oc2cc(O)cc(O)c12
REMARK SMILES IDX 5 1 3 2 2 3 1 4 22 5 20 6 19 7 17 8 16 9 15 10 14 11 6 12
REMARK SMILES IDX 8 13 7 14 9 15 11 16 12 17 10 18 13 20 4 22 21 24 18 26
REMARK H PARENT 10 19 13 21 4 23 21 25 18 27
REMARK Flexibility Score: inf
ROOT
ATOM      1  C   UNL     1     157.076  -7.601  23.901  1.00  0.00     0.184 A 
ATOM      2  C   UNL     1     158.456  -7.377  24.014  1.00  0.00     0.208 A 
ATOM      3  C   UNL     1     159.196  -7.086  22.858  1.00  0.00     0.238 A 
ATOM      4  O   UNL     1     160.424  -6.833  22.972  1.00  0.00    -0.285 OA
ATOM      5  C   UNL     1     158.546  -7.041  21.600  1.00  0.00     0.111 A 
ATOM      6  C   UNL     1     159.203  -6.796  20.357  1.00  0.00     0.134 A 
ATOM      7  C   UNL     1     158.442  -6.644  19.191  1.00  0.00     0.093 A 
ATOM      8  C   UNL     1     157.056  -6.793  19.212  1.00  0.00     0.123 A 
ATOM      9  C   UNL     1     156.408  -7.092  20.411  1.00  0.00     0.094 A 
ATOM     10  C   UNL     1     157.137  -7.213  21.597  1.00  0.00     0.146 A 
ATOM     11  O   UNL     1     156.482  -7.487  22.719  1.00  0.00    -0.451 OA
ENDROOT
BRANCH   1  12
ATOM     12  C   UNL     1     156.242  -7.928  25.077  1.00  0.00     0.063 A 
ATOM     13  C   UNL     1     155.582  -9.540  26.772  1.00  0.00     0.047 A 
ATOM     14  C   UNL     1     156.351  -9.201  25.657  1.00  0.00     0.020 A 
ATOM     15  C   UNL     1     154.704  -8.607  27.331  1.00  0.00     0.119 A 
ATOM     16  C   UNL     1     154.605  -7.325  26.775  1.00  0.00     0.093 A 
ATOM     17  C   UNL     1     155.379  -6.975  25.658  1.00  0.00     0.130 A 
BRANCH  15  18
ATOM     18  O   UNL     1     153.940  -8.962  28.441  1.00  0.00    -0.508 OA
ATOM     19  H   UNL     1     153.764  -9.932  28.674  1.00  0.00     0.293 HD
ENDBRANCH  15  18
BRANCH  17  20
ATOM     20  O   UNL     1     155.307  -5.681  25.142  1.00  0.00    -0.507 OA
ATOM     21  H   UNL     1     155.333  -5.504  24.145  1.00  0.00     0.293 HD
ENDBRANCH  17  20
ENDBRANCH   1  12
BRANCH   2  22
ATOM     22  O   UNL     1     159.069  -7.411  25.270  1.00  0.00    -0.502 OA
ATOM     23  H   UNL     1     159.820  -8.053  25.491  1.00  0.00     0.293 HD
ENDBRANCH   2  22
BRANCH   6  24
ATOM     24  O   UNL     1     160.591  -6.720  20.209  1.00  0.00    -0.507 OA
ATOM     25  H   UNL     1     161.150  -7.381  19.690  1.00  0.00     0.293 HD
ENDBRANCH   6  24
BRANCH   8  26
ATOM     26  O   UNL     1     156.331  -6.652  18.031  1.00  0.00    -0.508 OA
ATOM     27  H   UNL     1     156.781  -6.400  17.159  1.00  0.00     0.293 HD
ENDBRANCH   8  26
TORSDOF 6
ENDMDL
MODEL 3
REMARK VINA RESULT:    -5.893      1.555      6.719
REMARK INTER + INTRA:          -7.450
REMARK INTER:                  -7.161
REMARK INTRA:                  -0.288
REMARK UNBOUND:                -0.351
REMARK SMILES O=c1c(O)c(-c2ccc(O)cc2O)oc2cc(O)cc(O)c12
REMARK SMILES IDX 5 1 3 2 2 3 1 4 22 5 20 6 19 7 17 8 16 9 15 10 14 11 6 12
REMARK SMILES IDX 8 13 7 14 9 15 11 16 12 17 10 18 13 20 4 22 21 24 18 26
REMARK H PARENT 10 19 13 21 4 23 21 25 18 27
REMARK Flexibility Score: inf
ROOT
ATOM      1  C   UNL     1     156.665  -7.470  23.827  1.00  0.00     0.184 A 
ATOM      2  C   UNL     1     155.948  -7.014  22.711  1.00  0.00     0.208 A 
ATOM      3  C   UNL     1     156.656  -6.579  21.580  1.00  0.00     0.238 A 
ATOM      4  O   UNL     1     156.008  -6.222  20.561  1.00  0.00    -0.285 OA
ATOM      5  C   UNL     1     158.073  -6.591  21.589  1.00  0.00     0.111 A 
ATOM      6  C   UNL     1     158.893  -6.134  20.514  1.00  0.00     0.134 A 
ATOM      7  C   UNL     1     160.280  -6.313  20.580  1.00  0.00     0.093 A 
ATOM      8  C   UNL     1     160.881  -6.871  21.707  1.00  0.00     0.123 A 
ATOM      9  C   UNL     1     160.094  -7.266  22.789  1.00  0.00     0.094 A 
ATOM     10  C   UNL     1     158.704  -7.134  22.738  1.00  0.00     0.146 A 
ATOM     11  O   UNL     1     157.990  -7.532  23.784  1.00  0.00    -0.451 OA
ENDROOT
BRANCH   1  12
ATOM     12  C   UNL     1     155.981  -7.927  25.056  1.00  0.00     0.063 A 
ATOM     13  C   UNL     1     155.487  -9.729  26.611  1.00  0.00     0.047 A 
ATOM     14  C   UNL     1     156.115  -9.266  25.453  1.00  0.00     0.020 A 
ATOM     15  C   UNL     1     154.728  -8.856  27.396  1.00  0.00     0.119 A 
ATOM     16  C   UNL     1     154.607  -7.512  27.023  1.00  0.00     0.093 A 
ATOM     17  C   UNL     1     155.240  -7.038  25.864  1.00  0.00     0.130 A 
BRANCH  15  18
ATOM     18  O   UNL     1     154.103  -9.334  28.546  1.00  0.00    -0.508 OA
ATOM     19  H   UNL     1     154.591  -9.379  29.433  1.00  0.00     0.293 HD
ENDBRANCH  15  18
BRANCH  17  20
ATOM     20  O   UNL     1     155.152  -5.687  25.528  1.00  0.00    -0.507 OA
ATOM     21  H   UNL     1     155.340  -4.957  26.206  1.00  0.00     0.293 HD
ENDBRANCH  17  20
ENDBRANCH   1  12
BRANCH   2  22
ATOM     22  O   UNL     1     154.551  -7.030  22.722  1.00  0.00    -0.502 OA
ATOM     23  H   UNL     1     154.005  -7.410  21.958  1.00  0.00     0.293 HD
ENDBRANCH   2  22
BRANCH   6  24
ATOM     24  O   UNL     1     158.403  -5.480  19.380  1.00  0.00    -0.507 OA
ATOM     25  H   UNL     1     157.875  -4.620  19.396  1.00  0.00     0.293 HD
ENDBRANCH   6  24
BRANCH   8  26
ATOM     26  O   UNL     1     162.266  -7.020  21.746  1.00  0.00    -0.508 OA
ATOM     27  H   UNL     1     162.778  -6.998  22.619  1.00  0.00     0.293 HD
ENDBRANCH   8  26
TORSDOF 6
ENDMDL
MODEL 4
REMARK VINA RESULT:    -5.694      1.978      6.890
REMARK INTER + INTRA:          -7.210
REMARK INTER:                  -6.796
REMARK INTRA:                  -0.415
REMARK UNBOUND:                -0.351
REMARK SMILES O=c1c(O)c(-c2ccc(O)cc2O)oc2cc(O)cc(O)c12
REMARK SMILES IDX 5 1 3 2 2 3 1 4 22 5 20 6 19 7 17 8 16 9 15 10 14 11 6 12
REMARK SMILES IDX 8 13 7 14 9 15 11 16 12 17 10 18 13 20 4 22 21 24 18 26
REMARK H PARENT 10 19 13 21 4 23 21 25 18 27
REMARK Flexibility Score: inf
ROOT
ATOM      1  C   UNL     1     157.051  -7.094  24.412  1.00  0.00     0.184 A 
ATOM      2  C   UNL     1     156.901  -7.460  23.067  1.00  0.00     0.208 A 
ATOM      3  C   UNL     1     157.689  -6.822  22.096  1.00  0.00     0.238 A 
ATOM      4  O   UNL     1     157.590  -7.192  20.897  1.00  0.00    -0.285 OA
ATOM      5  C   UNL     1     158.604  -5.813  22.486  1.00  0.00     0.111 A 
ATOM      6  C   UNL     1     159.424  -5.071  21.582  1.00  0.00     0.134 A 
ATOM      7  C   UNL     1     160.386  -4.189  22.089  1.00  0.00     0.093 A 
ATOM      8  C   UNL     1     160.514  -3.973  23.461  1.00  0.00     0.123 A 
ATOM      9  C   UNL     1     159.677  -4.648  24.350  1.00  0.00     0.094 A 
ATOM     10  C   UNL     1     158.732  -5.562  23.876  1.00  0.00     0.146 A 
ATOM     11  O   UNL     1     157.963  -6.192  24.756  1.00  0.00    -0.451 OA
ENDROOT
BRANCH   1  12
ATOM     12  C   UNL     1     156.241  -7.716  25.481  1.00  0.00     0.063 A 
ATOM     13  C   UNL     1     155.784  -9.648  26.884  1.00  0.00     0.047 A 
ATOM     14  C   UNL     1     156.526  -9.033  25.874  1.00  0.00     0.020 A 
ATOM     15  C   UNL     1     154.756  -8.950  27.526  1.00  0.00     0.119 A 
ATOM     16  C   UNL     1     154.479  -7.627  27.159  1.00  0.00     0.093 A 
ATOM     17  C   UNL     1     155.224  -7.000  26.149  1.00  0.00     0.130 A 
BRANCH  15  18
ATOM     18  O   UNL     1     154.021  -9.579  28.529  1.00  0.00    -0.508 OA
ATOM     19  H   UNL     1     153.945 -10.588  28.576  1.00  0.00     0.293 HD
ENDBRANCH  15  18
BRANCH  17  20
ATOM     20  O   UNL     1     154.971  -5.667  25.825  1.00  0.00    -0.507 OA
ATOM     21  H   UNL     1     155.647  -5.104  25.322  1.00  0.00     0.293 HD
ENDBRANCH  17  20
ENDBRANCH   1  12
BRANCH   2  22
ATOM     22  O   UNL     1     156.004  -8.471  22.712  1.00  0.00    -0.502 OA
ATOM     23  H   UNL     1     155.013  -8.300  22.589  1.00  0.00     0.293 HD
ENDBRANCH   2  22
BRANCH   6  24
ATOM     24  O   UNL     1     159.316  -5.143  20.191  1.00  0.00    -0.507 OA
ATOM     25  H   UNL     1     160.097  -5.106  19.552  1.00  0.00     0.293 HD
ENDBRANCH   6  24
BRANCH   8  26
ATOM     26  O   UNL     1     161.471  -3.076  23.930  1.00  0.00    -0.508 OA
ATOM     27  H   UNL     1     162.428  -3.101  23.600  1.00  0.00     0.293 HD
ENDBRANCH   8  26
TORSDOF 6
ENDMDL
MODEL 5
REMARK VINA RESULT:    -5.650      1.875      3.870
REMARK INTER + INTRA:          -7.158
REMARK INTER:                  -6.737
REMARK INTRA:                  -0.421
REMARK UNBOUND:                -0.351
REMARK SMILES O=c1c(O)c(-c2ccc(O)cc2O)oc2cc(O)cc(O)c12
REMARK SMILES IDX 5 1 3 2 2 3 1 4 22 5 20 6 19 7 17 8 16 9 15 10 14 11 6 12
REMARK SMILES IDX 8 13 7 14 9 15 11 16 12 17 10 18 13 20 4 22 21 24 18 26
REMARK H PARENT 10 19 13 21 4 23 21 25 18 27
REMARK Flexibility Score: inf
ROOT
ATOM      1  C   UNL     1     156.581  -6.950  25.029  1.00  0.00     0.184 A 
ATOM      2  C   UNL     1     156.250  -8.028  25.861  1.00  0.00     0.208 A 
ATOM      3  C   UNL     1     155.084  -7.955  26.640  1.00  0.00     0.238 A 
ATOM      4  O   UNL     1     154.763  -8.947  27.344  1.00  0.00    -0.285 OA
ATOM      5  C   UNL     1     154.276  -6.792  26.586  1.00  0.00     0.111 A 
ATOM      6  C   UNL     1     153.095  -6.592  27.363  1.00  0.00     0.134 A 
ATOM      7  C   UNL     1     152.302  -5.460  27.134  1.00  0.00     0.093 A 
ATOM      8  C   UNL     1     152.681  -4.491  26.205  1.00  0.00     0.123 A 
ATOM      9  C   UNL     1     153.864  -4.648  25.483  1.00  0.00     0.094 A 
ATOM     10  C   UNL     1     154.658  -5.784  25.663  1.00  0.00     0.146 A 
ATOM     11  O   UNL     1     155.770  -5.901  24.949  1.00  0.00    -0.451 OA
ENDROOT
BRANCH   1  12
ATOM     12  C   UNL     1     157.802  -6.957  24.195  1.00  0.00     0.063 A 
ATOM     13  C   UNL     1     160.225  -6.816  24.060  1.00  0.00     0.047 A 
ATOM     14  C   UNL     1     159.052  -6.808  24.816  1.00  0.00     0.020 A 
ATOM     15  C   UNL     1     160.167  -6.988  22.674  1.00  0.00     0.119 A 
ATOM     16  C   UNL     1     158.927  -7.162  22.046  1.00  0.00     0.093 A 
ATOM     17  C   UNL     1     157.744  -7.161  22.800  1.00  0.00     0.130 A 
BRANCH  15  18
ATOM     18  O   UNL     1     161.346  -6.989  21.932  1.00  0.00    -0.508 OA
ATOM     19  H   UNL     1     161.569  -6.236  21.291  1.00  0.00     0.293 HD
ENDBRANCH  15  18
BRANCH  17  20
ATOM     20  O   UNL     1     156.519  -7.383  22.170  1.00  0.00    -0.507 OA
ATOM     21  H   UNL     1     155.747  -7.828  22.652  1.00  0.00     0.293 HD
ENDBRANCH  17  20
ENDBRANCH   1  12
BRANCH   2  22
ATOM     22  O   UNL     1     157.056  -9.170  25.881  1.00  0.00    -0.502 OA
ATOM     23  H   UNL     1     156.892  -9.940  26.517  1.00  0.00     0.293 HD
ENDBRANCH   2  22
BRANCH   6  24
ATOM     24  O   UNL     1     152.673  -7.451  28.381  1.00  0.00    -0.507 OA
ATOM     25  H   UNL     1     151.795  -7.950  28.385  1.00  0.00     0.293 HD
ENDBRANCH   6  24
BRANCH   8  26
ATOM     26  O   UNL     1     151.877  -3.370  26.014  1.00  0.00    -0.508 OA
ATOM     27  H   UNL     1     151.412  -3.195  25.132  1.00  0.00     0.293 HD
ENDBRANCH   8  26
TORSDOF 6
ENDMDL
MODEL 6
REMARK VINA RESULT:    -5.419      2.175      7.097
REMARK INTER + INTRA:          -6.879
REMARK INTER:                  -6.487
REMARK INTRA:                  -0.392
REMARK UNBOUND:                -0.351
REMARK SMILES O=c1c(O)c(-c2ccc(O)cc2O)oc2cc(O)cc(O)c12
REMARK SMILES IDX 5 1 3 2 2 3 1 4 22 5 20 6 19 7 17 8 16 9 15 10 14 11 6 12
REMARK SMILES IDX 8 13 7 14 9 15 11 16 12 17 10 18 13 20 4 22 21 24 18 26
REMARK H PARENT 10 19 13 21 4 23 21 25 18 27
REMARK Flexibility Score: inf
ROOT
ATOM      1  C   UNL     1     157.979  -6.705  23.933  1.00  0.00     0.184 A 
ATOM      2  C   UNL     1     158.526  -5.628  24.646  1.00  0.00     0.208 A 
ATOM      3  C   UNL     1     159.484  -4.814  24.020  1.00  0.00     0.238 A 
ATOM      4  O   UNL     1     159.932  -3.818  24.645  1.00  0.00    -0.285 OA
ATOM      5  C   UNL     1     159.892  -5.102  22.695  1.00  0.00     0.111 A 
ATOM      6  C   UNL     1     160.885  -4.369  21.977  1.00  0.00     0.134 A 
ATOM      7  C   UNL     1     161.116  -4.660  20.626  1.00  0.00     0.093 A 
ATOM      8  C   UNL     1     160.439  -5.697  19.988  1.00  0.00     0.123 A 
ATOM      9  C   UNL     1     159.510  -6.459  20.696  1.00  0.00     0.094 A 
ATOM     10  C   UNL     1     159.231  -6.170  22.034  1.00  0.00     0.146 A 
ATOM     11  O   UNL     1     158.332  -6.911  22.670  1.00  0.00    -0.451 OA
ENDROOT
BRANCH   1  12
ATOM     12  C   UNL     1     156.979  -7.610  24.539  1.00  0.00     0.063 A 
ATOM     13  C   UNL     1     156.439  -9.284  26.217  1.00  0.00     0.047 A 
ATOM     14  C   UNL     1     157.360  -8.422  25.618  1.00  0.00     0.020 A 
ATOM     15  C   UNL     1     155.121  -9.335  25.755  1.00  0.00     0.119 A 
ATOM     16  C   UNL     1     154.723  -8.512  24.694  1.00  0.00     0.093 A 
ATOM     17  C   UNL     1     155.641  -7.639  24.091  1.00  0.00     0.130 A 
BRANCH  15  18
ATOM     18  O   UNL     1     154.214 -10.204  26.359  1.00  0.00    -0.508 OA
ATOM     19  H   UNL     1     154.522 -10.937  26.986  1.00  0.00     0.293 HD
ENDBRANCH  15  18
BRANCH  17  20
ATOM     20  O   UNL     1     155.222  -6.790  23.067  1.00  0.00    -0.507 OA
ATOM     21  H   UNL     1     154.280  -6.417  23.038  1.00  0.00     0.293 HD
ENDBRANCH  17  20
ENDBRANCH   1  12
BRANCH   2  22
ATOM     22  O   UNL     1     158.092  -5.357  25.947  1.00  0.00    -0.502 OA
ATOM     23  H   UNL     1     157.605  -4.503  26.190  1.00  0.00     0.293 HD
ENDBRANCH   2  22
BRANCH   6  24
ATOM     24  O   UNL     1     161.684  -3.372  22.545  1.00  0.00    -0.507 OA
ATOM     25  H   UNL     1     162.029  -3.384  23.493  1.00  0.00     0.293 HD
ENDBRANCH   6  24
BRANCH   8  26
ATOM     26  O   UNL     1     160.706  -5.970  18.647  1.00  0.00    -0.508 OA
ATOM     27  H   UNL     1     160.054  -5.717  17.915  1.00  0.00     0.293 HD
ENDBRANCH   8  26
TORSDOF 6
ENDMDL
MODEL 7
REMARK VINA RESULT:    -5.410      1.845      6.839
REMARK INTER + INTRA:          -6.868
REMARK INTER:                  -6.654
REMARK INTRA:                  -0.213
REMARK UNBOUND:                -0.351
REMARK SMILES O=c1c(O)c(-c2ccc(O)cc2O)oc2cc(O)cc(O)c12
REMARK SMILES IDX 5 1 3 2 2 3 1 4 22 5 20 6 19 7 17 8 16 9 15 10 14 11 6 12
REMARK SMILES IDX 8 13 7 14 9 15 11 16 12 17 10 18 13 20 4 22 21 24 18 26
REMARK H PARENT 10 19 13 21 4 23 21 25 18 27
REMARK Flexibility Score: inf
ROOT
ATOM      1  C   UNL     1     157.141  -6.252  25.021  1.00  0.00     0.184 A 
ATOM      2  C   UNL     1     158.044  -5.232  25.355  1.00  0.00     0.208 A 
ATOM      3  C   UNL     1     159.042  -4.879  24.433  1.00  0.00     0.238 A 
ATOM      4  O   UNL     1     159.816  -3.927  24.714  1.00  0.00    -0.285 OA
ATOM      5  C   UNL     1     159.133  -5.566  23.197  1.00  0.00     0.111 A 
ATOM      6  C   UNL     1     160.130  -5.320  22.206  1.00  0.00     0.134 A 
ATOM      7  C   UNL     1     160.046  -5.967  20.967  1.00  0.00     0.093 A 
ATOM      8  C   UNL     1     159.042  -6.898  20.708  1.00  0.00     0.123 A 
ATOM      9  C   UNL     1     158.097  -7.191  21.691  1.00  0.00     0.094 A 
ATOM     10  C   UNL     1     158.133  -6.535  22.924  1.00  0.00     0.146 A 
ATOM     11  O   UNL     1     157.208  -6.834  23.829  1.00  0.00    -0.451 OA
ENDROOT
BRANCH   1  12
ATOM     12  C   UNL     1     156.077  -6.683  25.953  1.00  0.00     0.063 A 
ATOM     13  C   UNL     1     154.191  -6.092  27.369  1.00  0.00     0.047 A 
ATOM     14  C   UNL     1     155.211  -5.719  26.491  1.00  0.00     0.020 A 
ATOM     15  C   UNL     1     154.014  -7.436  27.711  1.00  0.00     0.119 A 
ATOM     16  C   UNL     1     154.858  -8.410  27.161  1.00  0.00     0.093 A 
ATOM     17  C   UNL     1     155.881  -8.043  26.273  1.00  0.00     0.130 A 
BRANCH  15  18
ATOM     18  O   UNL     1     152.996  -7.793  28.592  1.00  0.00    -0.508 OA
ATOM     19  H   UNL     1     152.566  -8.709  28.560  1.00  0.00     0.293 HD
ENDBRANCH  15  18
BRANCH  17  20
ATOM     20  O   UNL     1     156.684  -9.027  25.696  1.00  0.00    -0.507 OA
ATOM     21  H   UNL     1     156.305  -9.924  25.412  1.00  0.00     0.293 HD
ENDBRANCH  17  20
ENDBRANCH   1  12
BRANCH   2  22
ATOM     22  O   UNL     1     157.920  -4.559  26.573  1.00  0.00    -0.502 OA
ATOM     23  H   UNL     1     157.197  -3.872  26.744  1.00  0.00     0.293 HD
ENDBRANCH   2  22
BRANCH   6  24
ATOM     24  O   UNL     1     161.229  -4.477  22.395  1.00  0.00    -0.507 OA
ATOM     25  H   UNL     1     161.236  -3.669  23.000  1.00  0.00     0.293 HD
ENDBRANCH   6  24
BRANCH   8  26
ATOM     26  O   UNL     1     158.997  -7.536  19.470  1.00  0.00    -0.508 OA
ATOM     27  H   UNL     1     159.395  -8.458  19.333  1.00  0.00     0.293 HD
ENDBRANCH   8  26
TORSDOF 6
ENDMDL
MODEL 8
REMARK VINA RESULT:    -5.393      1.526      1.836
REMARK INTER + INTRA:          -6.848
REMARK INTER:                  -6.431
REMARK INTRA:                  -0.417
REMARK UNBOUND:                -0.351
REMARK SMILES O=c1c(O)c(-c2ccc(O)cc2O)oc2cc(O)cc(O)c12
REMARK SMILES IDX 5 1 3 2 2 3 1 4 22 5 20 6 19 7 17 8 16 9 15 10 14 11 6 12
REMARK SMILES IDX 8 13 7 14 9 15 11 16 12 17 10 18 13 20 4 22 21 24 18 26
REMARK H PARENT 10 19 13 21 4 23 21 25 18 27
REMARK Flexibility Score: inf
ROOT
ATOM      1  C   UNL     1     157.669  -6.483  23.920  1.00  0.00     0.184 A 
ATOM      2  C   UNL     1     157.343  -5.312  24.619  1.00  0.00     0.208 A 
ATOM      3  C   UNL     1     156.431  -5.386  25.684  1.00  0.00     0.238 A 
ATOM      4  O   UNL     1     156.183  -4.342  26.342  1.00  0.00    -0.285 OA
ATOM      5  C   UNL     1     155.845  -6.631  26.022  1.00  0.00     0.111 A 
ATOM      6  C   UNL     1     154.878  -6.816  27.055  1.00  0.00     0.134 A 
ATOM      7  C   UNL     1     154.464  -8.112  27.388  1.00  0.00     0.093 A 
ATOM      8  C   UNL     1     154.931  -9.220  26.684  1.00  0.00     0.123 A 
ATOM      9  C   UNL     1     155.831  -9.046  25.633  1.00  0.00     0.094 A 
ATOM     10  C   UNL     1     156.291  -7.769  25.300  1.00  0.00     0.146 A 
ATOM     11  O   UNL     1     157.156  -7.647  24.301  1.00  0.00    -0.451 OA
ENDROOT
BRANCH   1  12
ATOM     12  C   UNL     1     158.610  -6.471  22.780  1.00  0.00     0.063 A 
ATOM     13  C   UNL     1     159.015  -6.019  20.425  1.00  0.00     0.047 A 
ATOM     14  C   UNL     1     158.151  -6.048  21.523  1.00  0.00     0.020 A 
ATOM     15  C   UNL     1     160.352  -6.399  20.573  1.00  0.00     0.119 A 
ATOM     16  C   UNL     1     160.827  -6.799  21.828  1.00  0.00     0.093 A 
ATOM     17  C   UNL     1     159.967  -6.825  22.937  1.00  0.00     0.130 A 
BRANCH  15  18
ATOM     18  O   UNL     1     161.201  -6.369  19.468  1.00  0.00    -0.508 OA
ATOM     19  H   UNL     1     161.381  -5.510  18.962  1.00  0.00     0.293 HD
ENDBRANCH  15  18
BRANCH  17  20
ATOM     20  O   UNL     1     160.462  -7.180  24.191  1.00  0.00    -0.507 OA
ATOM     21  H   UNL     1     160.264  -8.084  24.606  1.00  0.00     0.293 HD
ENDBRANCH  17  20
ENDBRANCH   1  12
BRANCH   2  22
ATOM     22  O   UNL     1     157.950  -4.100  24.276  1.00  0.00    -0.502 OA
ATOM     23  H   UNL     1     157.465  -3.377  23.758  1.00  0.00     0.293 HD
ENDBRANCH   2  22
BRANCH   6  24
ATOM     24  O   UNL     1     154.278  -5.769  27.760  1.00  0.00    -0.507 OA
ATOM     25  H   UNL     1     154.015  -4.882  27.358  1.00  0.00     0.293 HD
ENDBRANCH   6  24
BRANCH   8  26
ATOM     26  O   UNL     1     154.485 -10.494  27.032  1.00  0.00    -0.508 OA
ATOM     27  H   UNL     1     153.579 -10.640  27.461  1.00  0.00     0.293 HD
ENDBRANCH   8  26
TORSDOF 6
ENDMDL
MODEL 9
REMARK VINA RESULT:    -5.269      2.813      4.863
REMARK INTER + INTRA:          -6.698
REMARK INTER:                  -6.278
REMARK INTRA:                  -0.421
REMARK UNBOUND:                -0.351
REMARK SMILES O=c1c(O)c(-c2ccc(O)cc2O)oc2cc(O)cc(O)c12
REMARK SMILES IDX 5 1 3 2 2 3 1 4 22 5 20 6 19 7 17 8 16 9 15 10 14 11 6 12
REMARK SMILES IDX 8 13 7 14 9 15 11 16 12 17 10 18 13 20 4 22 21 24 18 26
REMARK H PARENT 10 19 13 21 4 23 21 25 18 27
REMARK Flexibility Score: inf
ROOT
ATOM      1  C   UNL     1     159.292  -6.259  22.505  1.00  0.00     0.184 A 
ATOM      2  C   UNL     1     159.313  -6.716  23.831  1.00  0.00     0.208 A 
ATOM      3  C   UNL     1     158.204  -7.422  24.325  1.00  0.00     0.238 A 
ATOM      4  O   UNL     1     158.250  -7.876  25.498  1.00  0.00    -0.285 OA
ATOM      5  C   UNL     1     157.082  -7.644  23.489  1.00  0.00     0.111 A 
ATOM      6  C   UNL     1     155.888  -8.310  23.897  1.00  0.00     0.134 A 
ATOM      7  C   UNL     1     154.895  -8.589  22.949  1.00  0.00     0.093 A 
ATOM      8  C   UNL     1     155.024  -8.169  21.626  1.00  0.00     0.123 A 
ATOM      9  C   UNL     1     156.161  -7.464  21.230  1.00  0.00     0.094 A 
ATOM     10  C   UNL     1     157.185  -7.202  22.144  1.00  0.00     0.146 A 
ATOM     11  O   UNL     1     158.255  -6.539  21.724  1.00  0.00    -0.451 OA
ENDROOT
BRANCH   1  12
ATOM     12  C   UNL     1     160.420  -5.497  21.928  1.00  0.00     0.063 A 
ATOM     13  C   UNL     1     161.689  -3.426  21.823  1.00  0.00     0.047 A 
ATOM     14  C   UNL     1     160.630  -4.173  22.343  1.00  0.00     0.020 A 
ATOM     15  C   UNL     1     162.561  -3.997  20.891  1.00  0.00     0.119 A 
ATOM     16  C   UNL     1     162.375  -5.326  20.487  1.00  0.00     0.093 A 
ATOM     17  C   UNL     1     161.316  -6.084  21.011  1.00  0.00     0.130 A 
BRANCH  15  18
ATOM     18  O   UNL     1     163.610  -3.238  20.376  1.00  0.00    -0.508 OA
ATOM     19  H   UNL     1     163.867  -3.286  19.398  1.00  0.00     0.293 HD
ENDBRANCH  15  18
BRANCH  17  20
ATOM     20  O   UNL     1     161.170  -7.420  20.638  1.00  0.00    -0.507 OA
ATOM     21  H   UNL     1     160.277  -7.792  20.334  1.00  0.00     0.293 HD
ENDBRANCH  17  20
ENDBRANCH   1  12
BRANCH   2  22
ATOM     22  O   UNL     1     160.440  -6.499  24.629  1.00  0.00    -0.502 OA
ATOM     23  H   UNL     1     161.192  -5.881  24.349  1.00  0.00     0.293 HD
ENDBRANCH   2  22
BRANCH   6  24
ATOM     24  O   UNL     1     155.617  -8.692  25.213  1.00  0.00    -0.507 OA
ATOM     25  H   UNL     1     155.816  -8.130  26.027  1.00  0.00     0.293 HD
ENDBRANCH   6  24
BRANCH   8  26
ATOM     26  O   UNL     1     154.009  -8.449  20.714  1.00  0.00    -0.508 OA
ATOM     27  H   UNL     1     154.174  -9.027  19.898  1.00  0.00     0.293 HD
ENDBRANCH   8  26
TORSDOF 6
ENDMDL
