MODEL 1
REMARK VINA RESULT:     8.952      0.000      0.000
REMARK INTER + INTRA:          10.647
REMARK INTER:                  10.783
REMARK INTRA:                  -0.136
REMARK UNBOUND:                -0.136
REMARK SMILES O=c1c(O)c(-c2ccc(O)c(O)c2)oc2cc(O)cc(O)c12
REMARK SMILES IDX 5 1 3 2 2 3 1 4 22 5 20 6 19 7 17 8 16 9 15 10 14 11 6 12
REMARK SMILES IDX 7 13 8 14 9 15 13 16 11 17 10 18 12 20 4 22 21 24 18 26
REMARK H PARENT 10 19 12 21 4 23 21 25 18 27
REMARK Flexibility Score: inf
ROOT
ATOM      1  C   UNL     1     134.439 159.803 172.929  1.00  0.00     0.180 A 
ATOM      2  C   UNL     1     133.245 160.490 173.225  1.00  0.00     0.208 A 
ATOM      3  C   UNL     1     133.280 161.540 174.155  1.00  0.00     0.238 A 
ATOM      4  O   UNL     1     132.216 162.155 174.437  1.00  0.00    -0.285 OA
ATOM      5  C   UNL     1     134.505 161.899 174.757  1.00  0.00     0.111 A 
ATOM      6  C   UNL     1     134.626 162.947 175.700  1.00  0.00     0.134 A 
ATOM      7  C   UNL     1     135.883 163.250 176.246  1.00  0.00     0.093 A 
ATOM      8  C   UNL     1     137.016 162.527 175.868  1.00  0.00     0.123 A 
ATOM      9  C   UNL     1     136.902 161.490 174.937  1.00  0.00     0.094 A 
ATOM     10  C   UNL     1     135.659 161.172 174.382  1.00  0.00     0.146 A 
ATOM     11  O   UNL     1     135.578 160.179 173.504  1.00  0.00    -0.452 OA
ENDROOT
BRANCH   1  12
ATOM     12  C   UNL     1     134.479 158.673 171.973  1.00  0.00     0.025 A 
ATOM     13  C   UNL     1     133.734 157.515 172.243  1.00  0.00     0.016 A 
ATOM     14  C   UNL     1     133.740 156.444 171.345  1.00  0.00     0.051 A 
ATOM     15  C   UNL     1     134.479 156.523 170.157  1.00  0.00     0.157 A 
ATOM     16  C   UNL     1     135.202 158.757 170.769  1.00  0.00     0.062 A 
ATOM     17  C   UNL     1     135.210 157.687 169.866  1.00  0.00     0.158 A 
BRANCH  15  18
ATOM     18  O   UNL     1     134.485 155.453 169.263  1.00  0.00    -0.504 OA
ATOM     19  H   UNL     1     134.326 155.589 168.272  1.00  0.00     0.293 HD
ENDBRANCH  15  18
BRANCH  17  20
ATOM     20  O   UNL     1     135.942 157.803 168.685  1.00  0.00    -0.504 OA
ATOM     21  H   UNL     1     136.714 158.453 168.593  1.00  0.00     0.293 HD
ENDBRANCH  17  20
ENDBRANCH   1  12
BRANCH   2  22
ATOM     22  O   UNL     1     132.055 160.147 172.580  1.00  0.00    -0.502 OA
ATOM     23  H   UNL     1     131.190 160.654 172.731  1.00  0.00     0.293 HD
ENDBRANCH   2  22
BRANCH   6  24
ATOM     24  O   UNL     1     133.513 163.689 176.097  1.00  0.00    -0.507 OA
ATOM     25  H   UNL     1     132.617 163.598 175.633  1.00  0.00     0.293 HD
ENDBRANCH   6  24
BRANCH   8  26
ATOM     26  O   UNL     1     138.252 162.848 176.425  1.00  0.00    -0.508 OA
ATOM     27  H   UNL     1     138.520 163.810 176.600  1.00  0.00     0.293 HD
ENDBRANCH   8  26
TORSDOF 6
ENDMDL
MODEL 2
REMARK VINA RESULT:     9.150      4.452      7.921
REMARK INTER + INTRA:          10.886
REMARK INTER:                  10.630
REMARK INTRA:                   0.256
REMARK UNBOUND:                -0.136
REMARK SMILES O=c1c(O)c(-c2ccc(O)c(O)c2)oc2cc(O)cc(O)c12
REMARK SMILES IDX 5 1 3 2 2 3 1 4 22 5 20 6 19 7 17 8 16 9 15 10 14 11 6 12
REMARK SMILES IDX 7 13 8 14 9 15 13 16 11 17 10 18 12 20 4 22 21 24 18 26
REMARK H PARENT 10 19 12 21 4 23 21 25 18 27
REMARK Flexibility Score: inf
ROOT
ATOM      1  C   UNL     1     132.303 155.596 171.319  1.00  0.00     0.180 A 
ATOM      2  C   UNL     1     131.850 154.593 170.439  1.00  0.00     0.208 A 
ATOM      3  C   UNL     1     130.882 153.683 170.889  1.00  0.00     0.238 A 
ATOM      4  O   UNL     1     130.477 152.774 170.114  1.00  0.00    -0.285 OA
ATOM      5  C   UNL     1     130.369 153.800 172.198  1.00  0.00     0.111 A 
ATOM      6  C   UNL     1     129.390 152.926 172.727  1.00  0.00     0.134 A 
ATOM      7  C   UNL     1     128.924 153.115 174.037  1.00  0.00     0.093 A 
ATOM      8  C   UNL     1     129.415 154.157 174.825  1.00  0.00     0.123 A 
ATOM      9  C   UNL     1     130.384 155.023 174.307  1.00  0.00     0.094 A 
ATOM     10  C   UNL     1     130.862 154.851 173.006  1.00  0.00     0.146 A 
ATOM     11  O   UNL     1     131.786 155.685 172.541  1.00  0.00    -0.452 OA
ENDROOT
BRANCH   1  12
ATOM     12  C   UNL     1     133.335 156.581 170.924  1.00  0.00     0.025 A 
ATOM     13  C   UNL     1     133.369 157.835 171.554  1.00  0.00     0.016 A 
ATOM     14  C   UNL     1     134.347 158.772 171.212  1.00  0.00     0.051 A 
ATOM     15  C   UNL     1     135.315 158.464 170.247  1.00  0.00     0.157 A 
ATOM     16  C   UNL     1     134.321 156.267 169.971  1.00  0.00     0.062 A 
ATOM     17  C   UNL     1     135.304 157.203 169.627  1.00  0.00     0.158 A 
BRANCH  15  18
ATOM     18  O   UNL     1     136.289 159.402 169.906  1.00  0.00    -0.504 OA
ATOM     19  H   UNL     1     136.654 160.058 170.587  1.00  0.00     0.293 HD
ENDBRANCH  15  18
BRANCH  17  20
ATOM     20  O   UNL     1     136.262 156.859 168.674  1.00  0.00    -0.504 OA
ATOM     21  H   UNL     1     136.877 156.063 168.793  1.00  0.00     0.293 HD
ENDBRANCH  17  20
ENDBRANCH   1  12
BRANCH   2  22
ATOM     22  O   UNL     1     132.338 154.529 169.132  1.00  0.00    -0.502 OA
ATOM     23  H   UNL     1     132.255 153.694 168.562  1.00  0.00     0.293 HD
ENDBRANCH   2  22
BRANCH   6  24
ATOM     24  O   UNL     1     128.877 151.876 171.965  1.00  0.00    -0.507 OA
ATOM     25  H   UNL     1     128.938 151.870 170.953  1.00  0.00     0.293 HD
ENDBRANCH   6  24
BRANCH   8  26
ATOM     26  O   UNL     1     128.935 154.323 176.122  1.00  0.00    -0.508 OA
ATOM     27  H   UNL     1     128.864 153.542 176.764  1.00  0.00     0.293 HD
ENDBRANCH   8  26
TORSDOF 6
ENDMDL
MODEL 3
REMARK VINA RESULT:    11.588      4.916      6.997
REMARK INTER + INTRA:          13.822
REMARK INTER:                  14.084
REMARK INTRA:                  -0.262
REMARK UNBOUND:                -0.136
REMARK SMILES O=c1c(O)c(-c2ccc(O)c(O)c2)oc2cc(O)cc(O)c12
REMARK SMILES IDX 5 1 3 2 2 3 1 4 22 5 20 6 19 7 17 8 16 9 15 10 14 11 6 12
REMARK SMILES IDX 7 13 8 14 9 15 13 16 11 17 10 18 12 20 4 22 21 24 18 26
REMARK H PARENT 10 19 12 21 4 23 21 25 18 27
REMARK Flexibility Score: inf
ROOT
ATOM      1  C   UNL     1     133.348 155.689 170.889  1.00  0.00     0.180 A 
ATOM      2  C   UNL     1     133.335 157.095 170.811  1.00  0.00     0.208 A 
ATOM      3  C   UNL     1     134.492 157.760 170.375  1.00  0.00     0.238 A 
ATOM      4  O   UNL     1     134.496 159.020 170.311  1.00  0.00    -0.285 OA
ATOM      5  C   UNL     1     135.630 157.012 170.007  1.00  0.00     0.111 A 
ATOM      6  C   UNL     1     136.832 157.605 169.554  1.00  0.00     0.134 A 
ATOM      7  C   UNL     1     137.918 156.791 169.197  1.00  0.00     0.093 A 
ATOM      8  C   UNL     1     137.824 155.401 169.284  1.00  0.00     0.123 A 
ATOM      9  C   UNL     1     136.639 154.810 169.732  1.00  0.00     0.094 A 
ATOM     10  C   UNL     1     135.546 155.603 170.093  1.00  0.00     0.146 A 
ATOM     11  O   UNL     1     134.434 155.016 170.520  1.00  0.00    -0.452 OA
ENDROOT
BRANCH   1  12
ATOM     12  C   UNL     1     132.174 154.917 171.357  1.00  0.00     0.025 A 
ATOM     13  C   UNL     1     131.453 154.134 170.442  1.00  0.00     0.016 A 
ATOM     14  C   UNL     1     130.355 153.381 170.866  1.00  0.00     0.051 A 
ATOM     15  C   UNL     1     129.972 153.386 172.213  1.00  0.00     0.157 A 
ATOM     16  C   UNL     1     131.800 154.903 172.713  1.00  0.00     0.062 A 
ATOM     17  C   UNL     1     130.701 154.148 173.142  1.00  0.00     0.158 A 
BRANCH  15  18
ATOM     18  O   UNL     1     128.875 152.635 172.633  1.00  0.00    -0.504 OA
ATOM     19  H   UNL     1     128.386 152.013 172.001  1.00  0.00     0.293 HD
ENDBRANCH  15  18
BRANCH  17  20
ATOM     20  O   UNL     1     130.355 154.162 174.493  1.00  0.00    -0.504 OA
ATOM     21  H   UNL     1     130.654 153.435 175.132  1.00  0.00     0.293 HD
ENDBRANCH  17  20
ENDBRANCH   1  12
BRANCH   2  22
ATOM     22  O   UNL     1     132.179 157.810 171.135  1.00  0.00    -0.502 OA
ATOM     23  H   UNL     1     131.333 157.753 170.579  1.00  0.00     0.293 HD
ENDBRANCH   2  22
BRANCH   6  24
ATOM     24  O   UNL     1     136.957 158.991 169.454  1.00  0.00    -0.507 OA
ATOM     25  H   UNL     1     137.409 159.431 168.660  1.00  0.00     0.293 HD
ENDBRANCH   6  24
BRANCH   8  26
ATOM     26  O   UNL     1     138.917 154.615 168.923  1.00  0.00    -0.508 OA
ATOM     27  H   UNL     1     138.829 153.864 168.248  1.00  0.00     0.293 HD
ENDBRANCH   8  26
TORSDOF 6
ENDMDL
