MODEL 1
REMARK VINA RESULT:    -4.256      0.000      0.000
REMARK INTER + INTRA:          -5.544
REMARK INTER:                  -5.127
REMARK INTRA:                  -0.417
REMARK UNBOUND:                -0.417
REMARK SMILES O=c1c(O)c(-c2ccc(O)cc2O)oc2cc(O)cc(O)c12
REMARK SMILES IDX 5 1 3 2 2 3 1 4 22 5 20 6 19 7 17 8 16 9 15 10 14 11 6 12
REMARK SMILES IDX 8 13 7 14 9 15 11 16 12 17 10 18 13 20 4 22 21 24 18 26
REMARK H PARENT 10 19 13 21 4 23 21 25 18 27
REMARK Flexibility Score: inf
ROOT
ATOM      1  C   UNL     1      35.935  -2.842   4.008  1.00  0.00     0.184 A 
ATOM      2  C   UNL     1      35.386  -2.237   2.863  1.00  0.00     0.208 A 
ATOM      3  C   UNL     1      36.161  -2.163   1.697  1.00  0.00     0.238 A 
ATOM      4  O   UNL     1      35.683  -1.613   0.668  1.00  0.00    -0.285 OA
ATOM      5  C   UNL     1      37.461  -2.711   1.689  1.00  0.00     0.111 A 
ATOM      6  C   UNL     1      38.307  -2.683   0.554  1.00  0.00     0.134 A 
ATOM      7  C   UNL     1      39.584  -3.258   0.624  1.00  0.00     0.093 A 
ATOM      8  C   UNL     1      40.032  -3.861   1.802  1.00  0.00     0.123 A 
ATOM      9  C   UNL     1      39.200  -3.893   2.926  1.00  0.00     0.094 A 
ATOM     10  C   UNL     1      37.925  -3.324   2.879  1.00  0.00     0.146 A 
ATOM     11  O   UNL     1      37.157  -3.363   3.962  1.00  0.00    -0.451 OA
ENDROOT
BRANCH   1  12
ATOM     12  C   UNL     1      35.177  -2.942   5.273  1.00  0.00     0.063 A 
ATOM     13  C   UNL     1      34.280  -1.845   7.248  1.00  0.00     0.047 A 
ATOM     14  C   UNL     1      34.995  -1.787   6.049  1.00  0.00     0.020 A 
ATOM     15  C   UNL     1      33.725  -3.056   7.677  1.00  0.00     0.119 A 
ATOM     16  C   UNL     1      33.881  -4.206   6.899  1.00  0.00     0.093 A 
ATOM     17  C   UNL     1      34.594  -4.156   5.691  1.00  0.00     0.130 A 
BRANCH  15  18
ATOM     18  O   UNL     1      33.012  -3.126   8.872  1.00  0.00    -0.508 OA
ATOM     19  H   UNL     1      32.932  -2.326   9.490  1.00  0.00     0.293 HD
ENDBRANCH  15  18
BRANCH  17  20
ATOM     20  O   UNL     1      34.700  -5.299   4.900  1.00  0.00    -0.507 OA
ATOM     21  H   UNL     1      33.915  -5.649   4.362  1.00  0.00     0.293 HD
ENDBRANCH  17  20
ENDBRANCH   1  12
BRANCH   2  22
ATOM     22  O   UNL     1      34.079  -1.744   2.891  1.00  0.00    -0.502 OA
ATOM     23  H   UNL     1      33.641  -1.325   2.078  1.00  0.00     0.293 HD
ENDBRANCH   2  22
BRANCH   6  24
ATOM     24  O   UNL     1      37.890  -2.088  -0.637  1.00  0.00    -0.507 OA
ATOM     25  H   UNL     1      37.488  -2.632  -1.392  1.00  0.00     0.293 HD
ENDBRANCH   6  24
BRANCH   8  26
ATOM     26  O   UNL     1      41.304  -4.426   1.844  1.00  0.00    -0.508 OA
ATOM     27  H   UNL     1      41.567  -5.185   1.227  1.00  0.00     0.293 HD
ENDBRANCH   8  26
TORSDOF 6
ENDMDL
MODEL 2
REMARK VINA RESULT:    -3.985     10.932     12.745
REMARK INTER + INTRA:          -5.218
REMARK INTER:                  -4.803
REMARK INTRA:                  -0.415
REMARK UNBOUND:                -0.417
REMARK SMILES O=c1c(O)c(-c2ccc(O)cc2O)oc2cc(O)cc(O)c12
REMARK SMILES IDX 5 1 3 2 2 3 1 4 22 5 20 6 19 7 17 8 16 9 15 10 14 11 6 12
REMARK SMILES IDX 8 13 7 14 9 15 11 16 12 17 10 18 13 20 4 22 21 24 18 26
REMARK H PARENT 10 19 13 21 4 23 21 25 18 27
REMARK Flexibility Score: inf
ROOT
ATOM      1  C   UNL     1      30.234 -11.804  -0.154  1.00  0.00     0.184 A 
ATOM      2  C   UNL     1      30.579 -10.835  -1.112  1.00  0.00     0.208 A 
ATOM      3  C   UNL     1      29.554 -10.135  -1.766  1.00  0.00     0.238 A 
ATOM      4  O   UNL     1      29.851  -9.270  -2.635  1.00  0.00    -0.285 OA
ATOM      5  C   UNL     1      28.209 -10.401  -1.438  1.00  0.00     0.111 A 
ATOM      6  C   UNL     1      27.117  -9.737  -2.047  1.00  0.00     0.134 A 
ATOM      7  C   UNL     1      25.806 -10.052  -1.658  1.00  0.00     0.093 A 
ATOM      8  C   UNL     1      25.566 -11.014  -0.675  1.00  0.00     0.123 A 
ATOM      9  C   UNL     1      26.641 -11.673  -0.069  1.00  0.00     0.094 A 
ATOM     10  C   UNL     1      27.954 -11.376  -0.443  1.00  0.00     0.146 A 
ATOM     11  O   UNL     1      28.957 -12.020   0.144  1.00  0.00    -0.451 OA
ENDROOT
BRANCH   1  12
ATOM     12  C   UNL     1      31.263 -12.587   0.564  1.00  0.00     0.063 A 
ATOM     13  C   UNL     1      32.862 -14.418   0.552  1.00  0.00     0.047 A 
ATOM     14  C   UNL     1      31.882 -13.660  -0.095  1.00  0.00     0.020 A 
ATOM     15  C   UNL     1      33.245 -14.102   1.860  1.00  0.00     0.119 A 
ATOM     16  C   UNL     1      32.650 -13.020   2.515  1.00  0.00     0.093 A 
ATOM     17  C   UNL     1      31.669 -12.251   1.872  1.00  0.00     0.130 A 
BRANCH  15  18
ATOM     18  O   UNL     1      34.218 -14.852   2.516  1.00  0.00    -0.508 OA
ATOM     19  H   UNL     1      33.974 -15.534   3.225  1.00  0.00     0.293 HD
ENDBRANCH  15  18
BRANCH  17  20
ATOM     20  O   UNL     1      31.119 -11.144   2.518  1.00  0.00    -0.507 OA
ATOM     21  H   UNL     1      30.145 -10.890   2.401  1.00  0.00     0.293 HD
ENDBRANCH  17  20
ENDBRANCH   1  12
BRANCH   2  22
ATOM     22  O   UNL     1      31.922 -10.563  -1.382  1.00  0.00    -0.502 OA
ATOM     23  H   UNL     1      32.547 -10.175  -0.685  1.00  0.00     0.293 HD
ENDBRANCH   2  22
BRANCH   6  24
ATOM     24  O   UNL     1      27.323  -8.771  -3.032  1.00  0.00    -0.507 OA
ATOM     25  H   UNL     1      27.917  -8.946  -3.834  1.00  0.00     0.293 HD
ENDBRANCH   6  24
BRANCH   8  26
ATOM     26  O   UNL     1      24.255 -11.308  -0.306  1.00  0.00    -0.508 OA
ATOM     27  H   UNL     1      24.022 -11.595   0.637  1.00  0.00     0.293 HD
ENDBRANCH   8  26
TORSDOF 6
ENDMDL
MODEL 3
REMARK VINA RESULT:    -3.929     10.250     12.460
REMARK INTER + INTRA:          -5.150
REMARK INTER:                  -4.767
REMARK INTRA:                  -0.383
REMARK UNBOUND:                -0.417
REMARK SMILES O=c1c(O)c(-c2ccc(O)cc2O)oc2cc(O)cc(O)c12
REMARK SMILES IDX 5 1 3 2 2 3 1 4 22 5 20 6 19 7 17 8 16 9 15 10 14 11 6 12
REMARK SMILES IDX 8 13 7 14 9 15 11 16 12 17 10 18 13 20 4 22 21 24 18 26
REMARK H PARENT 10 19 13 21 4 23 21 25 18 27
REMARK Flexibility Score: inf
ROOT
ATOM      1  C   UNL     1      30.427 -12.024   0.584  1.00  0.00     0.184 A 
ATOM      2  C   UNL     1      30.958 -13.296   0.309  1.00  0.00     0.208 A 
ATOM      3  C   UNL     1      31.560 -14.018   1.350  1.00  0.00     0.238 A 
ATOM      4  O   UNL     1      32.050 -15.156   1.114  1.00  0.00    -0.285 OA
ATOM      5  C   UNL     1      31.601 -13.467   2.648  1.00  0.00     0.111 A 
ATOM      6  C   UNL     1      32.185 -14.131   3.753  1.00  0.00     0.134 A 
ATOM      7  C   UNL     1      32.179 -13.518   5.016  1.00  0.00     0.093 A 
ATOM      8  C   UNL     1      31.601 -12.259   5.194  1.00  0.00     0.123 A 
ATOM      9  C   UNL     1      31.021 -11.598   4.106  1.00  0.00     0.094 A 
ATOM     10  C   UNL     1      31.020 -12.190   2.839  1.00  0.00     0.146 A 
ATOM     11  O   UNL     1      30.468 -11.539   1.821  1.00  0.00    -0.451 OA
ENDROOT
BRANCH   1  12
ATOM     12  C   UNL     1      29.790 -11.204  -0.469  1.00  0.00     0.063 A 
ATOM     13  C   UNL     1      27.754 -10.389  -1.519  1.00  0.00     0.047 A 
ATOM     14  C   UNL     1      28.389 -11.157  -0.539  1.00  0.00     0.020 A 
ATOM     15  C   UNL     1      28.514  -9.647  -2.431  1.00  0.00     0.119 A 
ATOM     16  C   UNL     1      29.909  -9.670  -2.353  1.00  0.00     0.093 A 
ATOM     17  C   UNL     1      30.554 -10.434  -1.370  1.00  0.00     0.130 A 
BRANCH  15  18
ATOM     18  O   UNL     1      27.892  -8.880  -3.414  1.00  0.00    -0.508 OA
ATOM     19  H   UNL     1      27.879  -9.172  -4.385  1.00  0.00     0.293 HD
ENDBRANCH  15  18
BRANCH  17  20
ATOM     20  O   UNL     1      31.945 -10.409  -1.272  1.00  0.00    -0.507 OA
ATOM     21  H   UNL     1      32.502  -9.730  -1.778  1.00  0.00     0.293 HD
ENDBRANCH  17  20
ENDBRANCH   1  12
BRANCH   2  22
ATOM     22  O   UNL     1      30.861 -13.833  -0.977  1.00  0.00    -0.502 OA
ATOM     23  H   UNL     1      30.097 -14.439  -1.255  1.00  0.00     0.293 HD
ENDBRANCH   2  22
BRANCH   6  24
ATOM     24  O   UNL     1      32.771 -15.389   3.608  1.00  0.00    -0.507 OA
ATOM     25  H   UNL     1      33.763 -15.535   3.757  1.00  0.00     0.293 HD
ENDBRANCH   6  24
BRANCH   8  26
ATOM     26  O   UNL     1      31.606 -11.674   6.458  1.00  0.00    -0.508 OA
ATOM     27  H   UNL     1      30.823 -11.124   6.790  1.00  0.00     0.293 HD
ENDBRANCH   8  26
TORSDOF 6
ENDMDL
MODEL 4
REMARK VINA RESULT:    -3.910     10.920     12.653
REMARK INTER + INTRA:          -5.127
REMARK INTER:                  -4.712
REMARK INTRA:                  -0.415
REMARK UNBOUND:                -0.417
REMARK SMILES O=c1c(O)c(-c2ccc(O)cc2O)oc2cc(O)cc(O)c12
REMARK SMILES IDX 5 1 3 2 2 3 1 4 22 5 20 6 19 7 17 8 16 9 15 10 14 11 6 12
REMARK SMILES IDX 8 13 7 14 9 15 11 16 12 17 10 18 13 20 4 22 21 24 18 26
REMARK H PARENT 10 19 13 21 4 23 21 25 18 27
REMARK Flexibility Score: inf
ROOT
ATOM      1  C   UNL     1      29.861 -11.993  -0.169  1.00  0.00     0.184 A 
ATOM      2  C   UNL     1      28.540 -12.462  -0.067  1.00  0.00     0.208 A 
ATOM      3  C   UNL     1      27.512 -11.726  -0.674  1.00  0.00     0.238 A 
ATOM      4  O   UNL     1      26.321 -12.131  -0.581  1.00  0.00    -0.285 OA
ATOM      5  C   UNL     1      27.823 -10.550  -1.387  1.00  0.00     0.111 A 
ATOM      6  C   UNL     1      26.847  -9.753  -2.032  1.00  0.00     0.134 A 
ATOM      7  C   UNL     1      27.239  -8.601  -2.730  1.00  0.00     0.093 A 
ATOM      8  C   UNL     1      28.585  -8.231  -2.796  1.00  0.00     0.123 A 
ATOM      9  C   UNL     1      29.554  -9.015  -2.162  1.00  0.00     0.094 A 
ATOM     10  C   UNL     1      29.184 -10.165  -1.459  1.00  0.00     0.146 A 
ATOM     11  O   UNL     1      30.124 -10.889  -0.861  1.00  0.00    -0.451 OA
ENDROOT
BRANCH   1  12
ATOM     12  C   UNL     1      30.991 -12.712   0.458  1.00  0.00     0.063 A 
ATOM     13  C   UNL     1      32.635 -14.499   0.340  1.00  0.00     0.047 A 
ATOM     14  C   UNL     1      31.564 -13.800  -0.221  1.00  0.00     0.020 A 
ATOM     15  C   UNL     1      33.156 -14.110   1.580  1.00  0.00     0.119 A 
ATOM     16  C   UNL     1      32.607 -13.015   2.251  1.00  0.00     0.093 A 
ATOM     17  C   UNL     1      31.534 -12.304   1.693  1.00  0.00     0.130 A 
BRANCH  15  18
ATOM     18  O   UNL     1      34.223 -14.802   2.150  1.00  0.00    -0.508 OA
ATOM     19  H   UNL     1      35.174 -14.671   1.825  1.00  0.00     0.293 HD
ENDBRANCH  15  18
BRANCH  17  20
ATOM     20  O   UNL     1      31.028 -11.182   2.350  1.00  0.00    -0.507 OA
ATOM     21  H   UNL     1      31.384 -10.252   2.165  1.00  0.00     0.293 HD
ENDBRANCH  17  20
ENDBRANCH   1  12
BRANCH   2  22
ATOM     22  O   UNL     1      28.269 -13.655   0.608  1.00  0.00    -0.502 OA
ATOM     23  H   UNL     1      28.435 -14.563   0.190  1.00  0.00     0.293 HD
ENDBRANCH   2  22
BRANCH   6  24
ATOM     24  O   UNL     1      25.495 -10.095  -1.984  1.00  0.00    -0.507 OA
ATOM     25  H   UNL     1      24.975 -10.092  -1.114  1.00  0.00     0.293 HD
ENDBRANCH   6  24
BRANCH   8  26
ATOM     26  O   UNL     1      28.948  -7.083  -3.496  1.00  0.00    -0.508 OA
ATOM     27  H   UNL     1      28.255  -6.420  -3.823  1.00  0.00     0.293 HD
ENDBRANCH   8  26
TORSDOF 6
ENDMDL
MODEL 5
REMARK VINA RESULT:    -3.898      1.539      7.227
REMARK INTER + INTRA:          -5.112
REMARK INTER:                  -4.700
REMARK INTRA:                  -0.413
REMARK UNBOUND:                -0.417
REMARK SMILES O=c1c(O)c(-c2ccc(O)cc2O)oc2cc(O)cc(O)c12
REMARK SMILES IDX 5 1 3 2 2 3 1 4 22 5 20 6 19 7 17 8 16 9 15 10 14 11 6 12
REMARK SMILES IDX 8 13 7 14 9 15 11 16 12 17 10 18 13 20 4 22 21 24 18 26
REMARK H PARENT 10 19 13 21 4 23 21 25 18 27
REMARK Flexibility Score: inf
ROOT
ATOM      1  C   UNL     1      35.181  -2.803   5.095  1.00  0.00     0.184 A 
ATOM      2  C   UNL     1      34.646  -4.012   5.574  1.00  0.00     0.208 A 
ATOM      3  C   UNL     1      33.946  -4.009   6.789  1.00  0.00     0.238 A 
ATOM      4  O   UNL     1      33.471  -5.089   7.234  1.00  0.00    -0.285 OA
ATOM      5  C   UNL     1      33.777  -2.798   7.493  1.00  0.00     0.111 A 
ATOM      6  C   UNL     1      33.081  -2.708   8.723  1.00  0.00     0.134 A 
ATOM      7  C   UNL     1      32.949  -1.463   9.357  1.00  0.00     0.093 A 
ATOM      8  C   UNL     1      33.495  -0.311   8.787  1.00  0.00     0.123 A 
ATOM      9  C   UNL     1      34.183  -0.394   7.572  1.00  0.00     0.094 A 
ATOM     10  C   UNL     1      34.329  -1.624   6.925  1.00  0.00     0.146 A 
ATOM     11  O   UNL     1      34.991  -1.676   5.775  1.00  0.00    -0.451 OA
ENDROOT
BRANCH   1  12
ATOM     12  C   UNL     1      35.940  -2.738   3.828  1.00  0.00     0.063 A 
ATOM     13  C   UNL     1      38.019  -3.131   2.630  1.00  0.00     0.047 A 
ATOM     14  C   UNL     1      37.274  -3.175   3.812  1.00  0.00     0.020 A 
ATOM     15  C   UNL     1      37.433  -2.664   1.447  1.00  0.00     0.119 A 
ATOM     16  C   UNL     1      36.099  -2.249   1.450  1.00  0.00     0.093 A 
ATOM     17  C   UNL     1      35.343  -2.293   2.630  1.00  0.00     0.130 A 
BRANCH  15  18
ATOM     18  O   UNL     1      38.167  -2.613   0.264  1.00  0.00    -0.508 OA
ATOM     19  H   UNL     1      38.542  -3.452  -0.164  1.00  0.00     0.293 HD
ENDBRANCH  15  18
BRANCH  17  20
ATOM     20  O   UNL     1      33.998  -1.923   2.609  1.00  0.00    -0.507 OA
ATOM     21  H   UNL     1      33.282  -2.494   3.042  1.00  0.00     0.293 HD
ENDBRANCH  17  20
ENDBRANCH   1  12
BRANCH   2  22
ATOM     22  O   UNL     1      34.792  -5.186   4.830  1.00  0.00    -0.502 OA
ATOM     23  H   UNL     1      34.168  -5.977   4.939  1.00  0.00     0.293 HD
ENDBRANCH   2  22
BRANCH   6  24
ATOM     24  O   UNL     1      32.524  -3.840   9.318  1.00  0.00    -0.507 OA
ATOM     25  H   UNL     1      31.709  -3.781   9.917  1.00  0.00     0.293 HD
ENDBRANCH   6  24
BRANCH   8  26
ATOM     26  O   UNL     1      33.348   0.912   9.437  1.00  0.00    -0.508 OA
ATOM     27  H   UNL     1      33.663   1.777   9.015  1.00  0.00     0.293 HD
ENDBRANCH   8  26
TORSDOF 6
ENDMDL
MODEL 6
REMARK VINA RESULT:    -3.886     10.714     12.303
REMARK INTER + INTRA:          -5.098
REMARK INTER:                  -4.681
REMARK INTRA:                  -0.417
REMARK UNBOUND:                -0.417
REMARK SMILES O=c1c(O)c(-c2ccc(O)cc2O)oc2cc(O)cc(O)c12
REMARK SMILES IDX 5 1 3 2 2 3 1 4 22 5 20 6 19 7 17 8 16 9 15 10 14 11 6 12
REMARK SMILES IDX 8 13 7 14 9 15 11 16 12 17 10 18 13 20 4 22 21 24 18 26
REMARK H PARENT 10 19 13 21 4 23 21 25 18 27
REMARK Flexibility Score: inf
ROOT
ATOM      1  C   UNL     1      30.104 -11.305  -0.597  1.00  0.00     0.184 A 
ATOM      2  C   UNL     1      30.880 -12.281  -1.245  1.00  0.00     0.208 A 
ATOM      3  C   UNL     1      31.735 -13.087  -0.479  1.00  0.00     0.238 A 
ATOM      4  O   UNL     1      32.444 -13.959  -1.050  1.00  0.00    -0.285 OA
ATOM      5  C   UNL     1      31.783 -12.917   0.921  1.00  0.00     0.111 A 
ATOM      6  C   UNL     1      32.613 -13.691   1.767  1.00  0.00     0.134 A 
ATOM      7  C   UNL     1      32.597 -13.467   3.152  1.00  0.00     0.093 A 
ATOM      8  C   UNL     1      31.769 -12.488   3.706  1.00  0.00     0.123 A 
ATOM      9  C   UNL     1      30.946 -11.720   2.875  1.00  0.00     0.094 A 
ATOM     10  C   UNL     1      30.948 -11.926   1.493  1.00  0.00     0.146 A 
ATOM     11  O   UNL     1      30.161 -11.181   0.726  1.00  0.00    -0.451 OA
ENDROOT
BRANCH   1  12
ATOM     12  C   UNL     1      29.193 -10.414  -1.346  1.00  0.00     0.063 A 
ATOM     13  C   UNL     1      28.907  -8.520  -2.843  1.00  0.00     0.047 A 
ATOM     14  C   UNL     1      29.739  -9.377  -2.118  1.00  0.00     0.020 A 
ATOM     15  C   UNL     1      27.519  -8.698  -2.814  1.00  0.00     0.119 A 
ATOM     16  C   UNL     1      26.968  -9.742  -2.067  1.00  0.00     0.093 A 
ATOM     17  C   UNL     1      27.796 -10.611  -1.341  1.00  0.00     0.130 A 
BRANCH  15  18
ATOM     18  O   UNL     1      26.679  -7.848  -3.530  1.00  0.00    -0.508 OA
ATOM     19  H   UNL     1      25.850  -7.443  -3.109  1.00  0.00     0.293 HD
ENDBRANCH  15  18
BRANCH  17  20
ATOM     20  O   UNL     1      27.237 -11.678  -0.638  1.00  0.00    -0.507 OA
ATOM     21  H   UNL     1      27.804 -12.290  -0.061  1.00  0.00     0.293 HD
ENDBRANCH  17  20
ENDBRANCH   1  12
BRANCH   2  22
ATOM     22  O   UNL     1      30.776 -12.455  -2.628  1.00  0.00    -0.502 OA
ATOM     23  H   UNL     1      30.153 -11.896  -3.199  1.00  0.00     0.293 HD
ENDBRANCH   2  22
BRANCH   6  24
ATOM     24  O   UNL     1      33.452 -14.676   1.245  1.00  0.00    -0.507 OA
ATOM     25  H   UNL     1      34.131 -15.159   1.822  1.00  0.00     0.293 HD
ENDBRANCH   6  24
BRANCH   8  26
ATOM     26  O   UNL     1      31.772 -12.286   5.084  1.00  0.00    -0.508 OA
ATOM     27  H   UNL     1      32.383 -11.605   5.519  1.00  0.00     0.293 HD
ENDBRANCH   8  26
TORSDOF 6
ENDMDL
MODEL 7
REMARK VINA RESULT:    -3.882     10.425     11.504
REMARK INTER + INTRA:          -5.093
REMARK INTER:                  -4.812
REMARK INTRA:                  -0.281
REMARK UNBOUND:                -0.417
REMARK SMILES O=c1c(O)c(-c2ccc(O)cc2O)oc2cc(O)cc(O)c12
REMARK SMILES IDX 5 1 3 2 2 3 1 4 22 5 20 6 19 7 17 8 16 9 15 10 14 11 6 12
REMARK SMILES IDX 8 13 7 14 9 15 11 16 12 17 10 18 13 20 4 22 21 24 18 26
REMARK H PARENT 10 19 13 21 4 23 21 25 18 27
REMARK Flexibility Score: inf
ROOT
ATOM      1  C   UNL     1      30.651 -11.902   0.432  1.00  0.00     0.184 A 
ATOM      2  C   UNL     1      31.548 -12.799  -0.173  1.00  0.00     0.208 A 
ATOM      3  C   UNL     1      31.816 -12.668  -1.544  1.00  0.00     0.238 A 
ATOM      4  O   UNL     1      32.610 -13.474  -2.101  1.00  0.00    -0.285 OA
ATOM      5  C   UNL     1      31.200 -11.633  -2.278  1.00  0.00     0.111 A 
ATOM      6  C   UNL     1      31.420 -11.428  -3.661  1.00  0.00     0.134 A 
ATOM      7  C   UNL     1      30.776 -10.368  -4.319  1.00  0.00     0.093 A 
ATOM      8  C   UNL     1      29.921  -9.512  -3.622  1.00  0.00     0.123 A 
ATOM      9  C   UNL     1      29.700  -9.709  -2.254  1.00  0.00     0.094 A 
ATOM     10  C   UNL     1      30.330 -10.759  -1.581  1.00  0.00     0.146 A 
ATOM     11  O   UNL     1      30.100 -10.927  -0.284  1.00  0.00    -0.451 OA
ENDROOT
BRANCH   1  12
ATOM     12  C   UNL     1      30.315 -11.992   1.869  1.00  0.00     0.063 A 
ATOM     13  C   UNL     1      28.664 -12.468   3.589  1.00  0.00     0.047 A 
ATOM     14  C   UNL     1      29.014 -12.368   2.240  1.00  0.00     0.020 A 
ATOM     15  C   UNL     1      29.614 -12.206   4.584  1.00  0.00     0.119 A 
ATOM     16  C   UNL     1      30.917 -11.853   4.223  1.00  0.00     0.093 A 
ATOM     17  C   UNL     1      31.279 -11.756   2.871  1.00  0.00     0.130 A 
BRANCH  15  18
ATOM     18  O   UNL     1      29.275 -12.299   5.932  1.00  0.00    -0.508 OA
ATOM     19  H   UNL     1      29.525 -13.110   6.487  1.00  0.00     0.293 HD
ENDBRANCH  15  18
BRANCH  17  20
ATOM     20  O   UNL     1      32.595 -11.451   2.524  1.00  0.00    -0.507 OA
ATOM     21  H   UNL     1      33.157 -10.814   3.078  1.00  0.00     0.293 HD
ENDBRANCH  17  20
ENDBRANCH   1  12
BRANCH   2  22
ATOM     22  O   UNL     1      32.176 -13.786   0.591  1.00  0.00    -0.502 OA
ATOM     23  H   UNL     1      33.136 -14.067   0.430  1.00  0.00     0.293 HD
ENDBRANCH   2  22
BRANCH   6  24
ATOM     24  O   UNL     1      32.268 -12.266  -4.386  1.00  0.00    -0.507 OA
ATOM     25  H   UNL     1      32.299 -13.265  -4.219  1.00  0.00     0.293 HD
ENDBRANCH   6  24
BRANCH   8  26
ATOM     26  O   UNL     1      29.295  -8.467  -4.298  1.00  0.00    -0.508 OA
ATOM     27  H   UNL     1      29.693  -7.536  -4.320  1.00  0.00     0.293 HD
ENDBRANCH   8  26
TORSDOF 6
ENDMDL
MODEL 8
REMARK VINA RESULT:    -3.875      1.374      2.864
REMARK INTER + INTRA:          -5.085
REMARK INTER:                  -4.657
REMARK INTRA:                  -0.428
REMARK UNBOUND:                -0.417
REMARK SMILES O=c1c(O)c(-c2ccc(O)cc2O)oc2cc(O)cc(O)c12
REMARK SMILES IDX 5 1 3 2 2 3 1 4 22 5 20 6 19 7 17 8 16 9 15 10 14 11 6 12
REMARK SMILES IDX 8 13 7 14 9 15 11 16 12 17 10 18 13 20 4 22 21 24 18 26
REMARK H PARENT 10 19 13 21 4 23 21 25 18 27
REMARK Flexibility Score: inf
ROOT
ATOM      1  C   UNL     1      36.179  -2.880   4.712  1.00  0.00     0.184 A 
ATOM      2  C   UNL     1      37.570  -2.850   4.916  1.00  0.00     0.208 A 
ATOM      3  C   UNL     1      38.411  -2.621   3.818  1.00  0.00     0.238 A 
ATOM      4  O   UNL     1      39.661  -2.602   3.987  1.00  0.00    -0.285 OA
ATOM      5  C   UNL     1      37.849  -2.407   2.542  1.00  0.00     0.111 A 
ATOM      6  C   UNL     1      38.626  -2.165   1.384  1.00  0.00     0.134 A 
ATOM      7  C   UNL     1      37.991  -1.953   0.151  1.00  0.00     0.093 A 
ATOM      8  C   UNL     1      36.597  -1.977   0.054  1.00  0.00     0.123 A 
ATOM      9  C   UNL     1      35.824  -2.215   1.195  1.00  0.00     0.094 A 
ATOM     10  C   UNL     1      36.437  -2.431   2.432  1.00  0.00     0.146 A 
ATOM     11  O   UNL     1      35.680  -2.659   3.500  1.00  0.00    -0.451 OA
ENDROOT
BRANCH   1  12
ATOM     12  C   UNL     1      35.237  -3.129   5.823  1.00  0.00     0.063 A 
ATOM     13  C   UNL     1      34.075  -2.289   7.787  1.00  0.00     0.047 A 
ATOM     14  C   UNL     1      34.965  -2.090   6.728  1.00  0.00     0.020 A 
ATOM     15  C   UNL     1      33.436  -3.525   7.945  1.00  0.00     0.119 A 
ATOM     16  C   UNL     1      33.683  -4.556   7.035  1.00  0.00     0.093 A 
ATOM     17  C   UNL     1      34.571  -4.363   5.966  1.00  0.00     0.130 A 
BRANCH  15  18
ATOM     18  O   UNL     1      32.549  -3.735   8.999  1.00  0.00    -0.508 OA
ATOM     19  H   UNL     1      32.807  -3.529   9.958  1.00  0.00     0.293 HD
ENDBRANCH  15  18
BRANCH  17  20
ATOM     20  O   UNL     1      34.771  -5.384   5.037  1.00  0.00    -0.507 OA
ATOM     21  H   UNL     1      34.282  -5.399   4.150  1.00  0.00     0.293 HD
ENDBRANCH  17  20
ENDBRANCH   1  12
BRANCH   2  22
ATOM     22  O   UNL     1      38.094  -3.020   6.200  1.00  0.00    -0.502 OA
ATOM     23  H   UNL     1      37.521  -2.943   7.033  1.00  0.00     0.293 HD
ENDBRANCH   2  22
BRANCH   6  24
ATOM     24  O   UNL     1      40.020  -2.135   1.447  1.00  0.00    -0.507 OA
ATOM     25  H   UNL     1      40.592  -2.190   0.612  1.00  0.00     0.293 HD
ENDBRANCH   6  24
BRANCH   8  26
ATOM     26  O   UNL     1      35.991  -1.762  -1.181  1.00  0.00    -0.508 OA
ATOM     27  H   UNL     1      35.129  -1.237  -1.264  1.00  0.00     0.293 HD
ENDBRANCH   8  26
TORSDOF 6
ENDMDL
MODEL 9
REMARK VINA RESULT:    -3.861      3.815      7.497
REMARK INTER + INTRA:          -5.067
REMARK INTER:                  -4.646
REMARK INTRA:                  -0.421
REMARK UNBOUND:                -0.417
REMARK SMILES O=c1c(O)c(-c2ccc(O)cc2O)oc2cc(O)cc(O)c12
REMARK SMILES IDX 5 1 3 2 2 3 1 4 22 5 20 6 19 7 17 8 16 9 15 10 14 11 6 12
REMARK SMILES IDX 8 13 7 14 9 15 11 16 12 17 10 18 13 20 4 22 21 24 18 26
REMARK H PARENT 10 19 13 21 4 23 21 25 18 27
REMARK Flexibility Score: inf
ROOT
ATOM      1  C   UNL     1      36.245  -2.594  -1.711  1.00  0.00     0.184 A 
ATOM      2  C   UNL     1      37.350  -3.399  -2.039  1.00  0.00     0.208 A 
ATOM      3  C   UNL     1      38.222  -3.802  -1.017  1.00  0.00     0.238 A 
ATOM      4  O   UNL     1      39.223  -4.515  -1.301  1.00  0.00    -0.285 OA
ATOM      5  C   UNL     1      37.964  -3.412   0.313  1.00  0.00     0.111 A 
ATOM      6  C   UNL     1      38.790  -3.779   1.403  1.00  0.00     0.134 A 
ATOM      7  C   UNL     1      38.460  -3.358   2.700  1.00  0.00     0.093 A 
ATOM      8  C   UNL     1      37.322  -2.580   2.928  1.00  0.00     0.123 A 
ATOM      9  C   UNL     1      36.501  -2.215   1.856  1.00  0.00     0.094 A 
ATOM     10  C   UNL     1      36.814  -2.622   0.556  1.00  0.00     0.146 A 
ATOM     11  O   UNL     1      36.020  -2.257  -0.445  1.00  0.00    -0.451 OA
ENDROOT
BRANCH   1  12
ATOM     12  C   UNL     1      35.293  -2.125  -2.740  1.00  0.00     0.063 A 
ATOM     13  C   UNL     1      33.363  -2.581  -4.146  1.00  0.00     0.047 A 
ATOM     14  C   UNL     1      34.282  -2.994  -3.178  1.00  0.00     0.020 A 
ATOM     15  C   UNL     1      33.437  -1.288  -4.678  1.00  0.00     0.119 A 
ATOM     16  C   UNL     1      34.426  -0.408  -4.231  1.00  0.00     0.093 A 
ATOM     17  C   UNL     1      35.349  -0.813  -3.256  1.00  0.00     0.130 A 
BRANCH  15  18
ATOM     18  O   UNL     1      32.528  -0.866  -5.646  1.00  0.00    -0.508 OA
ATOM     19  H   UNL     1      32.517   0.091  -5.982  1.00  0.00     0.293 HD
ENDBRANCH  15  18
BRANCH  17  20
ATOM     20  O   UNL     1      36.301   0.090  -2.783  1.00  0.00    -0.507 OA
ATOM     21  H   UNL     1      36.129   1.089  -2.775  1.00  0.00     0.293 HD
ENDBRANCH  17  20
ENDBRANCH   1  12
BRANCH   2  22
ATOM     22  O   UNL     1      37.553  -3.806  -3.360  1.00  0.00    -0.502 OA
ATOM     23  H   UNL     1      38.479  -3.950  -3.746  1.00  0.00     0.293 HD
ENDBRANCH   2  22
BRANCH   6  24
ATOM     24  O   UNL     1      39.933  -4.555   1.207  1.00  0.00    -0.507 OA
ATOM     25  H   UNL     1      39.879  -5.555   1.055  1.00  0.00     0.293 HD
ENDBRANCH   6  24
BRANCH   8  26
ATOM     26  O   UNL     1      37.016  -2.176   4.226  1.00  0.00    -0.508 OA
ATOM     27  H   UNL     1      36.762  -2.844   4.943  1.00  0.00     0.293 HD
ENDBRANCH   8  26
TORSDOF 6
ENDMDL
