MODEL 1
REMARK VINA RESULT:    -3.003      0.000      0.000
REMARK INTER + INTRA:         -10.519
REMARK INTER:                  -6.515
REMARK INTRA:                  -4.004
REMARK UNBOUND:                -4.004
REMARK SMILES CCCCCCCCCCCCCCCCCCCCCC(=O)[O-]
REMARK SMILES IDX 12 1 11 2 10 3 9 4 8 5 7 6 6 7 5 8 4 9 3 10 2 11 1 12 13 13
REMARK SMILES IDX 14 14 15 15 16 16 17 17 18 18 19 19 20 20 21 21 22 22 23 23
REMARK SMILES IDX 24 24
REMARK H PARENT
REMARK Flexibility Score: inf
ROOT
ATOM      1  C   UNL     1     -18.915  39.481  91.703  1.00  0.00     0.000 C 
ENDROOT
BRANCH   1   2
ATOM      2  C   UNL     1     -20.277  39.685  92.400  1.00  0.00     0.000 C 
BRANCH   2   3
ATOM      3  C   UNL     1     -20.170  40.367  93.774  1.00  0.00     0.000 C 
BRANCH   3   4
ATOM      4  C   UNL     1     -18.890  41.206  93.927  1.00  0.00    -0.000 C 
BRANCH   4   5
ATOM      5  C   UNL     1     -18.491  41.412  95.397  1.00  0.00    -0.000 C 
BRANCH   5   6
ATOM      6  C   UNL     1     -17.023  41.051  95.669  1.00  0.00    -0.000 C 
BRANCH   6   7
ATOM      7  C   UNL     1     -16.398  40.355  94.450  1.00  0.00    -0.000 C 
BRANCH   7   8
ATOM      8  C   UNL     1     -15.987  38.903  94.739  1.00  0.00    -0.000 C 
BRANCH   8   9
ATOM      9  C   UNL     1     -16.956  37.876  94.127  1.00  0.00    -0.000 C 
BRANCH   9  10
ATOM     10  C   UNL     1     -18.012  37.393  95.143  1.00  0.00    -0.000 C 
BRANCH  10  11
ATOM     11  C   UNL     1     -19.223  36.705  94.489  1.00  0.00    -0.003 C 
ATOM     12  C   UNL     1     -20.536  36.985  95.216  1.00  0.00     0.004 C 
ENDBRANCH  10  11
ENDBRANCH   9  10
ENDBRANCH   8   9
ENDBRANCH   7   8
ENDBRANCH   6   7
ENDBRANCH   5   6
ENDBRANCH   4   5
ENDBRANCH   3   4
ENDBRANCH   2   3
ENDBRANCH   1   2
BRANCH   1  13
ATOM     13  C   UNL     1     -19.014  38.519  90.506  1.00  0.00     0.000 C 
BRANCH  13  14
ATOM     14  C   UNL     1     -19.548  37.131  90.899  1.00  0.00     0.000 C 
BRANCH  14  15
ATOM     15  C   UNL     1     -18.498  36.021  90.723  1.00  0.00     0.000 C 
BRANCH  15  16
ATOM     16  C   UNL     1     -18.202  35.706  89.245  1.00  0.00     0.000 C 
BRANCH  16  17
ATOM     17  C   UNL     1     -16.709  35.646  88.875  1.00  0.00     0.000 C 
BRANCH  17  18
ATOM     18  C   UNL     1     -15.794  36.177  89.989  1.00  0.00     0.000 C 
BRANCH  18  19
ATOM     19  C   UNL     1     -15.229  37.558  89.626  1.00  0.00     0.000 C 
BRANCH  19  20
ATOM     20  C   UNL     1     -15.272  38.543  90.804  1.00  0.00     0.006 C 
BRANCH  20  21
ATOM     21  C   UNL     1     -14.057  38.408  91.733  1.00  0.00     0.053 C 
BRANCH  21  22
ATOM     22  C   UNL     1     -13.242  39.662  91.734  1.00  0.00     0.041 C 
ATOM     23  O   UNL     1     -12.801  40.132  92.816  1.00  0.00    -0.550 OA
ATOM     24  O   UNL     1     -12.997  40.337  90.543  1.00  0.00    -0.550 OA
ENDBRANCH  21  22
ENDBRANCH  20  21
ENDBRANCH  19  20
ENDBRANCH  18  19
ENDBRANCH  17  18
ENDBRANCH  16  17
ENDBRANCH  15  16
ENDBRANCH  14  15
ENDBRANCH  13  14
ENDBRANCH   1  13
TORSDOF 20
ENDMDL
MODEL 2
REMARK VINA RESULT:    -2.955      1.724      4.023
REMARK INTER + INTRA:         -10.413
REMARK INTER:                  -6.744
REMARK INTRA:                  -3.669
REMARK UNBOUND:                -4.004
REMARK SMILES CCCCCCCCCCCCCCCCCCCCCC(=O)[O-]
REMARK SMILES IDX 12 1 11 2 10 3 9 4 8 5 7 6 6 7 5 8 4 9 3 10 2 11 1 12 13 13
REMARK SMILES IDX 14 14 15 15 16 16 17 17 18 18 19 19 20 20 21 21 22 22 23 23
REMARK SMILES IDX 24 24
REMARK H PARENT
REMARK Flexibility Score: inf
ROOT
ATOM      1  C   UNL     1     -16.422  38.546  94.840  1.00  0.00     0.000 C 
ENDROOT
BRANCH   1   2
ATOM      2  C   UNL     1     -15.510  39.790  94.839  1.00  0.00     0.000 C 
BRANCH   2   3
ATOM      3  C   UNL     1     -16.260  41.105  95.108  1.00  0.00     0.000 C 
BRANCH   3   4
ATOM      4  C   UNL     1     -17.501  40.915  95.997  1.00  0.00    -0.000 C 
BRANCH   4   5
ATOM      5  C   UNL     1     -18.794  41.392  95.317  1.00  0.00    -0.000 C 
BRANCH   5   6
ATOM      6  C   UNL     1     -18.685  41.413  93.786  1.00  0.00    -0.000 C 
BRANCH   6   7
ATOM      7  C   UNL     1     -19.826  40.609  93.146  1.00  0.00    -0.000 C 
BRANCH   7   8
ATOM      8  C   UNL     1     -20.023  39.232  93.798  1.00  0.00    -0.000 C 
BRANCH   8   9
ATOM      9  C   UNL     1     -20.716  38.224  92.864  1.00  0.00    -0.000 C 
BRANCH   9  10
ATOM     10  C   UNL     1     -19.838  36.984  92.589  1.00  0.00    -0.000 C 
BRANCH  10  11
ATOM     11  C   UNL     1     -19.550  36.756  91.096  1.00  0.00    -0.003 C 
ATOM     12  C   UNL     1     -19.504  38.051  90.289  1.00  0.00     0.004 C 
ENDBRANCH  10  11
ENDBRANCH   9  10
ENDBRANCH   8   9
ENDBRANCH   7   8
ENDBRANCH   6   7
ENDBRANCH   5   6
ENDBRANCH   4   5
ENDBRANCH   3   4
ENDBRANCH   2   3
ENDBRANCH   1   2
BRANCH   1  13
ATOM     13  C   UNL     1     -16.449  37.844  93.471  1.00  0.00     0.000 C 
BRANCH  13  14
ATOM     14  C   UNL     1     -16.473  38.834  92.294  1.00  0.00     0.000 C 
BRANCH  14  15
ATOM     15  C   UNL     1     -16.007  38.194  90.975  1.00  0.00     0.000 C 
BRANCH  15  16
ATOM     16  C   UNL     1     -14.600  38.653  90.552  1.00  0.00     0.000 C 
BRANCH  16  17
ATOM     17  C   UNL     1     -13.764  39.311  91.665  1.00  0.00     0.000 C 
BRANCH  17  18
ATOM     18  C   UNL     1     -12.558  38.459  92.091  1.00  0.00     0.000 C 
BRANCH  18  19
ATOM     19  C   UNL     1     -12.310  38.573  93.602  1.00  0.00     0.000 C 
BRANCH  19  20
ATOM     20  C   UNL     1     -10.985  39.278  93.932  1.00  0.00     0.006 C 
BRANCH  20  21
ATOM     21  C   UNL     1     -11.183  40.553  94.765  1.00  0.00     0.053 C 
BRANCH  21  22
ATOM     22  C   UNL     1     -11.889  41.606  93.969  1.00  0.00     0.041 C 
ATOM     23  O   UNL     1     -12.904  42.183  94.440  1.00  0.00    -0.550 OA
ATOM     24  O   UNL     1     -11.449  41.926  92.690  1.00  0.00    -0.550 OA
ENDBRANCH  21  22
ENDBRANCH  20  21
ENDBRANCH  19  20
ENDBRANCH  18  19
ENDBRANCH  17  18
ENDBRANCH  16  17
ENDBRANCH  15  16
ENDBRANCH  14  15
ENDBRANCH  13  14
ENDBRANCH   1  13
TORSDOF 20
ENDMDL
MODEL 3
REMARK VINA RESULT:    -2.897      3.634      6.608
REMARK INTER + INTRA:         -10.288
REMARK INTER:                  -6.253
REMARK INTRA:                  -4.035
REMARK UNBOUND:                -4.004
REMARK SMILES CCCCCCCCCCCCCCCCCCCCCC(=O)[O-]
REMARK SMILES IDX 12 1 11 2 10 3 9 4 8 5 7 6 6 7 5 8 4 9 3 10 2 11 1 12 13 13
REMARK SMILES IDX 14 14 15 15 16 16 17 17 18 18 19 19 20 20 21 21 22 22 23 23
REMARK SMILES IDX 24 24
REMARK H PARENT
REMARK Flexibility Score: inf
ROOT
ATOM      1  C   UNL     1     -17.820  41.174  94.612  1.00  0.00     0.000 C 
ENDROOT
BRANCH   1   2
ATOM      2  C   UNL     1     -18.699  41.491  93.384  1.00  0.00     0.000 C 
BRANCH   2   3
ATOM      3  C   UNL     1     -20.186  41.150  93.586  1.00  0.00     0.000 C 
BRANCH   3   4
ATOM      4  C   UNL     1     -20.681  40.047  92.636  1.00  0.00    -0.000 C 
BRANCH   4   5
ATOM      5  C   UNL     1     -21.096  38.768  93.380  1.00  0.00    -0.000 C 
BRANCH   5   6
ATOM      6  C   UNL     1     -20.840  37.496  92.559  1.00  0.00    -0.000 C 
BRANCH   6   7
ATOM      7  C   UNL     1     -19.700  37.715  91.554  1.00  0.00    -0.000 C 
BRANCH   7   8
ATOM      8  C   UNL     1     -18.756  36.507  91.451  1.00  0.00    -0.000 C 
BRANCH   8   9
ATOM      9  C   UNL     1     -17.319  36.835  91.895  1.00  0.00    -0.000 C 
BRANCH   9  10
ATOM     10  C   UNL     1     -17.183  38.284  92.409  1.00  0.00    -0.000 C 
BRANCH  10  11
ATOM     11  C   UNL     1     -15.726  38.728  92.615  1.00  0.00    -0.003 C 
ATOM     12  C   UNL     1     -15.260  38.603  94.064  1.00  0.00     0.004 C 
ENDBRANCH  10  11
ENDBRANCH   9  10
ENDBRANCH   8   9
ENDBRANCH   7   8
ENDBRANCH   6   7
ENDBRANCH   5   6
ENDBRANCH   4   5
ENDBRANCH   3   4
ENDBRANCH   2   3
ENDBRANCH   1   2
BRANCH   1  13
ATOM     13  C   UNL     1     -18.539  41.486  95.937  1.00  0.00     0.000 C 
BRANCH  13  14
ATOM     14  C   UNL     1     -18.539  40.295  96.911  1.00  0.00     0.000 C 
BRANCH  14  15
ATOM     15  C   UNL     1     -19.882  39.545  96.928  1.00  0.00     0.000 C 
BRANCH  15  16
ATOM     16  C   UNL     1     -19.738  38.053  96.581  1.00  0.00     0.000 C 
BRANCH  16  17
ATOM     17  C   UNL     1     -18.410  37.662  95.908  1.00  0.00     0.000 C 
BRANCH  17  18
ATOM     18  C   UNL     1     -18.449  36.265  95.270  1.00  0.00     0.000 C 
BRANCH  18  19
ATOM     19  C   UNL     1     -19.781  35.561  95.566  1.00  0.00     0.000 C 
BRANCH  19  20
ATOM     20  C   UNL     1     -20.195  34.586  94.452  1.00  0.00     0.006 C 
BRANCH  20  21
ATOM     21  C   UNL     1     -20.741  33.259  95.000  1.00  0.00     0.053 C 
BRANCH  21  22
ATOM     22  C   UNL     1     -19.661  32.226  95.071  1.00  0.00     0.041 C 
ATOM     23  O   UNL     1     -19.571  31.340  94.180  1.00  0.00    -0.550 OA
ATOM     24  O   UNL     1     -18.774  32.216  96.142  1.00  0.00    -0.550 OA
ENDBRANCH  21  22
ENDBRANCH  20  21
ENDBRANCH  19  20
ENDBRANCH  18  19
ENDBRANCH  17  18
ENDBRANCH  16  17
ENDBRANCH  15  16
ENDBRANCH  14  15
ENDBRANCH  13  14
ENDBRANCH   1  13
TORSDOF 20
ENDMDL
MODEL 4
REMARK VINA RESULT:    -2.882      1.589      2.519
REMARK INTER + INTRA:         -10.256
REMARK INTER:                  -6.384
REMARK INTRA:                  -3.872
REMARK UNBOUND:                -4.004
REMARK SMILES CCCCCCCCCCCCCCCCCCCCCC(=O)[O-]
REMARK SMILES IDX 12 1 11 2 10 3 9 4 8 5 7 6 6 7 5 8 4 9 3 10 2 11 1 12 13 13
REMARK SMILES IDX 14 14 15 15 16 16 17 17 18 18 19 19 20 20 21 21 22 22 23 23
REMARK SMILES IDX 24 24
REMARK H PARENT
REMARK Flexibility Score: inf
ROOT
ATOM      1  C   UNL     1     -19.828  40.372  92.960  1.00  0.00     0.000 C 
ENDROOT
BRANCH   1   2
ATOM      2  C   UNL     1     -19.207  41.426  93.900  1.00  0.00     0.000 C 
BRANCH   2   3
ATOM      3  C   UNL     1     -17.696  41.242  94.119  1.00  0.00     0.000 C 
BRANCH   3   4
ATOM      4  C   UNL     1     -17.312  41.164  95.606  1.00  0.00    -0.000 C 
BRANCH   4   5
ATOM      5  C   UNL     1     -18.471  41.556  96.537  1.00  0.00    -0.000 C 
BRANCH   5   6
ATOM      6  C   UNL     1     -18.909  40.405  97.454  1.00  0.00    -0.000 C 
BRANCH   6   7
ATOM      7  C   UNL     1     -18.362  39.063  96.946  1.00  0.00    -0.000 C 
BRANCH   7   8
ATOM      8  C   UNL     1     -19.441  38.191  96.286  1.00  0.00    -0.000 C 
BRANCH   8   9
ATOM      9  C   UNL     1     -18.887  37.321  95.143  1.00  0.00    -0.000 C 
BRANCH   9  10
ATOM     10  C   UNL     1     -20.008  36.611  94.354  1.00  0.00    -0.000 C 
BRANCH  10  11
ATOM     11  C   UNL     1     -20.347  35.212  94.895  1.00  0.00    -0.003 C 
ATOM     12  C   UNL     1     -19.323  34.151  94.497  1.00  0.00     0.004 C 
ENDBRANCH  10  11
ENDBRANCH   9  10
ENDBRANCH   8   9
ENDBRANCH   7   8
ENDBRANCH   6   7
ENDBRANCH   5   6
ENDBRANCH   4   5
ENDBRANCH   3   4
ENDBRANCH   2   3
ENDBRANCH   1   2
BRANCH   1  13
ATOM     13  C   UNL     1     -18.760  39.490  92.289  1.00  0.00     0.000 C 
BRANCH  13  14
ATOM     14  C   UNL     1     -19.187  38.989  90.899  1.00  0.00     0.000 C 
BRANCH  14  15
ATOM     15  C   UNL     1     -19.636  37.518  90.912  1.00  0.00     0.000 C 
BRANCH  15  16
ATOM     16  C   UNL     1     -18.773  36.621  90.007  1.00  0.00     0.000 C 
BRANCH  16  17
ATOM     17  C   UNL     1     -17.330  36.396  90.495  1.00  0.00     0.000 C 
BRANCH  17  18
ATOM     18  C   UNL     1     -17.235  35.367  91.632  1.00  0.00     0.000 C 
BRANCH  18  19
ATOM     19  C   UNL     1     -16.454  35.934  92.825  1.00  0.00     0.000 C 
BRANCH  19  20
ATOM     20  C   UNL     1     -15.683  37.215  92.472  1.00  0.00     0.006 C 
BRANCH  20  21
ATOM     21  C   UNL     1     -15.628  38.213  93.638  1.00  0.00     0.053 C 
BRANCH  21  22
ATOM     22  C   UNL     1     -14.291  38.883  93.705  1.00  0.00     0.041 C 
ATOM     23  O   UNL     1     -13.246  38.244  93.415  1.00  0.00    -0.550 OA
ATOM     24  O   UNL     1     -14.193  40.205  94.125  1.00  0.00    -0.550 OA
ENDBRANCH  21  22
ENDBRANCH  20  21
ENDBRANCH  19  20
ENDBRANCH  18  19
ENDBRANCH  17  18
ENDBRANCH  16  17
ENDBRANCH  15  16
ENDBRANCH  14  15
ENDBRANCH  13  14
ENDBRANCH   1  13
TORSDOF 20
ENDMDL
MODEL 5
REMARK VINA RESULT:    -2.854      1.213      2.086
REMARK INTER + INTRA:         -10.194
REMARK INTER:                  -6.175
REMARK INTRA:                  -4.019
REMARK UNBOUND:                -4.004
REMARK SMILES CCCCCCCCCCCCCCCCCCCCCC(=O)[O-]
REMARK SMILES IDX 12 1 11 2 10 3 9 4 8 5 7 6 6 7 5 8 4 9 3 10 2 11 1 12 13 13
REMARK SMILES IDX 14 14 15 15 16 16 17 17 18 18 19 19 20 20 21 21 22 22 23 23
REMARK SMILES IDX 24 24
REMARK H PARENT
REMARK Flexibility Score: inf
ROOT
ATOM      1  C   UNL     1     -19.143  38.308  90.357  1.00  0.00     0.000 C 
ENDROOT
BRANCH   1   2
ATOM      2  C   UNL     1     -19.222  39.245  91.579  1.00  0.00     0.000 C 
BRANCH   2   3
ATOM      3  C   UNL     1     -20.414  38.950  92.506  1.00  0.00     0.000 C 
BRANCH   3   4
ATOM      4  C   UNL     1     -20.599  40.016  93.599  1.00  0.00    -0.000 C 
BRANCH   4   5
ATOM      5  C   UNL     1     -19.497  41.087  93.575  1.00  0.00    -0.000 C 
BRANCH   5   6
ATOM      6  C   UNL     1     -18.664  41.109  94.865  1.00  0.00    -0.000 C 
BRANCH   6   7
ATOM      7  C   UNL     1     -17.192  41.423  94.559  1.00  0.00    -0.000 C 
BRANCH   7   8
ATOM      8  C   UNL     1     -16.218  40.498  95.305  1.00  0.00    -0.000 C 
BRANCH   8   9
ATOM      9  C   UNL     1     -16.928  39.319  95.996  1.00  0.00    -0.000 C 
BRANCH   9  10
ATOM     10  C   UNL     1     -16.564  37.963  95.356  1.00  0.00    -0.000 C 
BRANCH  10  11
ATOM     11  C   UNL     1     -17.760  37.254  94.698  1.00  0.00    -0.003 C 
ATOM     12  C   UNL     1     -19.030  37.312  95.545  1.00  0.00     0.004 C 
ENDBRANCH  10  11
ENDBRANCH   9  10
ENDBRANCH   8   9
ENDBRANCH   7   8
ENDBRANCH   6   7
ENDBRANCH   5   6
ENDBRANCH   4   5
ENDBRANCH   3   4
ENDBRANCH   2   3
ENDBRANCH   1   2
BRANCH   1  13
ATOM     13  C   UNL     1     -19.356  36.833  90.741  1.00  0.00     0.000 C 
BRANCH  13  14
ATOM     14  C   UNL     1     -18.240  35.913  90.216  1.00  0.00     0.000 C 
BRANCH  14  15
ATOM     15  C   UNL     1     -17.331  35.387  91.340  1.00  0.00     0.000 C 
BRANCH  15  16
ATOM     16  C   UNL     1     -16.077  36.254  91.550  1.00  0.00     0.000 C 
BRANCH  16  17
ATOM     17  C   UNL     1     -15.582  37.003  90.299  1.00  0.00     0.000 C 
BRANCH  17  18
ATOM     18  C   UNL     1     -15.507  38.524  90.502  1.00  0.00     0.000 C 
BRANCH  18  19
ATOM     19  C   UNL     1     -15.550  38.884  91.994  1.00  0.00     0.000 C 
BRANCH  19  20
ATOM     20  C   UNL     1     -14.149  39.093  92.592  1.00  0.00     0.006 C 
BRANCH  20  21
ATOM     21  C   UNL     1     -13.155  39.682  91.581  1.00  0.00     0.053 C 
BRANCH  21  22
ATOM     22  C   UNL     1     -11.923  38.838  91.490  1.00  0.00     0.041 C 
ATOM     23  O   UNL     1     -11.975  37.693  90.967  1.00  0.00    -0.550 OA
ATOM     24  O   UNL     1     -10.721  39.298  92.015  1.00  0.00    -0.550 OA
ENDBRANCH  21  22
ENDBRANCH  20  21
ENDBRANCH  19  20
ENDBRANCH  18  19
ENDBRANCH  17  18
ENDBRANCH  16  17
ENDBRANCH  15  16
ENDBRANCH  14  15
ENDBRANCH  13  14
ENDBRANCH   1  13
TORSDOF 20
ENDMDL
MODEL 6
REMARK VINA RESULT:    -2.851     10.850     15.044
REMARK INTER + INTRA:         -10.188
REMARK INTER:                  -5.957
REMARK INTRA:                  -4.231
REMARK UNBOUND:                -4.004
REMARK SMILES CCCCCCCCCCCCCCCCCCCCCC(=O)[O-]
REMARK SMILES IDX 12 1 11 2 10 3 9 4 8 5 7 6 6 7 5 8 4 9 3 10 2 11 1 12 13 13
REMARK SMILES IDX 14 14 15 15 16 16 17 17 18 18 19 19 20 20 21 21 22 22 23 23
REMARK SMILES IDX 24 24
REMARK H PARENT
REMARK Flexibility Score: inf
ROOT
ATOM      1  C   UNL     1      -3.185  42.507  95.312  1.00  0.00     0.000 C 
ENDROOT
BRANCH   1   2
ATOM      2  C   UNL     1      -3.290  42.080  96.791  1.00  0.00     0.000 C 
BRANCH   2   3
ATOM      3  C   UNL     1      -2.342  40.929  97.169  1.00  0.00     0.000 C 
BRANCH   3   4
ATOM      4  C   UNL     1      -1.683  40.271  95.945  1.00  0.00    -0.000 C 
BRANCH   4   5
ATOM      5  C   UNL     1      -1.632  38.738  96.054  1.00  0.00    -0.000 C 
BRANCH   5   6
ATOM      6  C   UNL     1      -2.853  38.155  96.780  1.00  0.00    -0.000 C 
BRANCH   6   7
ATOM      7  C   UNL     1      -3.906  37.669  95.773  1.00  0.00    -0.000 C 
BRANCH   7   8
ATOM      8  C   UNL     1      -5.104  38.624  95.658  1.00  0.00    -0.000 C 
BRANCH   8   9
ATOM      9  C   UNL     1      -5.030  39.525  94.412  1.00  0.00    -0.000 C 
BRANCH   9  10
ATOM     10  C   UNL     1      -4.182  38.895  93.286  1.00  0.00    -0.000 C 
BRANCH  10  11
ATOM     11  C   UNL     1      -3.234  39.893  92.601  1.00  0.00    -0.003 C 
ATOM     12  C   UNL     1      -1.830  39.334  92.383  1.00  0.00     0.004 C 
ENDBRANCH  10  11
ENDBRANCH   9  10
ENDBRANCH   8   9
ENDBRANCH   7   8
ENDBRANCH   6   7
ENDBRANCH   5   6
ENDBRANCH   4   5
ENDBRANCH   3   4
ENDBRANCH   2   3
ENDBRANCH   1   2
BRANCH   1  13
ATOM     13  C   UNL     1      -3.458  44.009  95.120  1.00  0.00     0.000 C 
BRANCH  13  14
ATOM     14  C   UNL     1      -2.361  44.897  95.732  1.00  0.00     0.000 C 
BRANCH  14  15
ATOM     15  C   UNL     1      -2.865  45.719  96.931  1.00  0.00     0.000 C 
BRANCH  15  16
ATOM     16  C   UNL     1      -4.398  45.698  97.068  1.00  0.00     0.000 C 
BRANCH  16  17
ATOM     17  C   UNL     1      -4.932  45.013  98.339  1.00  0.00     0.000 C 
BRANCH  17  18
ATOM     18  C   UNL     1      -6.180  44.156  98.078  1.00  0.00     0.000 C 
BRANCH  18  19
ATOM     19  C   UNL     1      -6.794  44.478  96.709  1.00  0.00     0.000 C 
BRANCH  19  20
ATOM     20  C   UNL     1      -7.029  43.222  95.855  1.00  0.00     0.006 C 
BRANCH  20  21
ATOM     21  C   UNL     1      -6.940  41.926  96.673  1.00  0.00     0.053 C 
BRANCH  21  22
ATOM     22  C   UNL     1      -8.278  41.262  96.769  1.00  0.00     0.041 C 
ATOM     23  O   UNL     1      -9.332  41.951  96.737  1.00  0.00    -0.550 OA
ATOM     24  O   UNL     1      -8.363  39.883  96.931  1.00  0.00    -0.550 OA
ENDBRANCH  21  22
ENDBRANCH  20  21
ENDBRANCH  19  20
ENDBRANCH  18  19
ENDBRANCH  17  18
ENDBRANCH  16  17
ENDBRANCH  15  16
ENDBRANCH  14  15
ENDBRANCH  13  14
ENDBRANCH   1  13
TORSDOF 20
ENDMDL
MODEL 7
REMARK VINA RESULT:    -2.839      1.869      4.603
REMARK INTER + INTRA:         -10.163
REMARK INTER:                  -6.850
REMARK INTRA:                  -3.313
REMARK UNBOUND:                -4.004
REMARK SMILES CCCCCCCCCCCCCCCCCCCCCC(=O)[O-]
REMARK SMILES IDX 12 1 11 2 10 3 9 4 8 5 7 6 6 7 5 8 4 9 3 10 2 11 1 12 13 13
REMARK SMILES IDX 14 14 15 15 16 16 17 17 18 18 19 19 20 20 21 21 22 22 23 23
REMARK SMILES IDX 24 24
REMARK H PARENT
REMARK Flexibility Score: inf
ROOT
ATOM      1  C   UNL     1     -17.076  36.993  90.411  1.00  0.00     0.000 C 
ENDROOT
BRANCH   1   2
ATOM      2  C   UNL     1     -18.315  36.234  89.891  1.00  0.00     0.000 C 
BRANCH   2   3
ATOM      3  C   UNL     1     -19.643  36.754  90.467  1.00  0.00     0.000 C 
BRANCH   3   4
ATOM      4  C   UNL     1     -19.749  36.565  91.990  1.00  0.00    -0.000 C 
BRANCH   4   5
ATOM      5  C   UNL     1     -20.438  37.749  92.686  1.00  0.00    -0.000 C 
BRANCH   5   6
ATOM      6  C   UNL     1     -19.980  39.108  92.138  1.00  0.00    -0.000 C 
BRANCH   6   7
ATOM      7  C   UNL     1     -20.903  40.234  92.627  1.00  0.00    -0.000 C 
BRANCH   7   8
ATOM      8  C   UNL     1     -20.144  41.345  93.368  1.00  0.00    -0.000 C 
BRANCH   8   9
ATOM      9  C   UNL     1     -18.650  41.026  93.553  1.00  0.00    -0.000 C 
BRANCH   9  10
ATOM     10  C   UNL     1     -18.251  40.945  95.042  1.00  0.00    -0.000 C 
BRANCH  10  11
ATOM     11  C   UNL     1     -18.505  39.565  95.671  1.00  0.00    -0.003 C 
ATOM     12  C   UNL     1     -17.454  39.176  96.708  1.00  0.00     0.004 C 
ENDBRANCH  10  11
ENDBRANCH   9  10
ENDBRANCH   8   9
ENDBRANCH   7   8
ENDBRANCH   6   7
ENDBRANCH   5   6
ENDBRANCH   4   5
ENDBRANCH   3   4
ENDBRANCH   2   3
ENDBRANCH   1   2
BRANCH   1  13
ATOM     13  C   UNL     1     -16.157  36.093  91.257  1.00  0.00     0.000 C 
BRANCH  13  14
ATOM     14  C   UNL     1     -15.957  36.623  92.688  1.00  0.00     0.000 C 
BRANCH  14  15
ATOM     15  C   UNL     1     -16.542  38.032  92.883  1.00  0.00     0.000 C 
BRANCH  15  16
ATOM     16  C   UNL     1     -15.462  39.129  92.913  1.00  0.00     0.000 C 
BRANCH  16  17
ATOM     17  C   UNL     1     -14.542  39.107  94.147  1.00  0.00     0.000 C 
BRANCH  17  18
ATOM     18  C   UNL     1     -14.484  40.459  94.875  1.00  0.00     0.000 C 
BRANCH  18  19
ATOM     19  C   UNL     1     -13.034  40.855  95.188  1.00  0.00     0.000 C 
BRANCH  19  20
ATOM     20  C   UNL     1     -12.522  41.989  94.286  1.00  0.00     0.006 C 
BRANCH  20  21
ATOM     21  C   UNL     1     -11.249  41.604  93.517  1.00  0.00     0.053 C 
BRANCH  21  22
ATOM     22  C   UNL     1     -11.511  40.459  92.589  1.00  0.00     0.041 C 
ATOM     23  O   UNL     1     -10.871  39.381  92.716  1.00  0.00    -0.550 OA
ATOM     24  O   UNL     1     -12.435  40.593  91.559  1.00  0.00    -0.550 OA
ENDBRANCH  21  22
ENDBRANCH  20  21
ENDBRANCH  19  20
ENDBRANCH  18  19
ENDBRANCH  17  18
ENDBRANCH  16  17
ENDBRANCH  15  16
ENDBRANCH  14  15
ENDBRANCH  13  14
ENDBRANCH   1  13
TORSDOF 20
ENDMDL
MODEL 8
REMARK VINA RESULT:    -2.834     16.509     19.301
REMARK INTER + INTRA:         -10.151
REMARK INTER:                  -5.725
REMARK INTRA:                  -4.425
REMARK UNBOUND:                -4.004
REMARK SMILES CCCCCCCCCCCCCCCCCCCCCC(=O)[O-]
REMARK SMILES IDX 12 1 11 2 10 3 9 4 8 5 7 6 6 7 5 8 4 9 3 10 2 11 1 12 13 13
REMARK SMILES IDX 14 14 15 15 16 16 17 17 18 18 19 19 20 20 21 21 22 22 23 23
REMARK SMILES IDX 24 24
REMARK H PARENT
REMARK Flexibility Score: inf
ROOT
ATOM      1  C   UNL     1      -7.505  29.220 106.808  1.00  0.00     0.000 C 
ENDROOT
BRANCH   1   2
ATOM      2  C   UNL     1      -7.162  29.579 105.347  1.00  0.00     0.000 C 
BRANCH   2   3
ATOM      3  C   UNL     1      -7.468  31.043 104.985  1.00  0.00     0.000 C 
BRANCH   3   4
ATOM      4  C   UNL     1      -6.522  31.602 103.909  1.00  0.00    -0.000 C 
BRANCH   4   5
ATOM      5  C   UNL     1      -5.220  30.794 103.788  1.00  0.00    -0.000 C 
BRANCH   5   6
ATOM      6  C   UNL     1      -4.109  31.565 103.060  1.00  0.00    -0.000 C 
BRANCH   6   7
ATOM      7  C   UNL     1      -3.541  32.677 103.953  1.00  0.00    -0.000 C 
BRANCH   7   8
ATOM      8  C   UNL     1      -3.241  33.969 103.178  1.00  0.00    -0.000 C 
BRANCH   8   9
ATOM      9  C   UNL     1      -4.517  34.697 102.717  1.00  0.00    -0.000 C 
BRANCH   9  10
ATOM     10  C   UNL     1      -5.414  35.108 103.904  1.00  0.00    -0.000 C 
BRANCH  10  11
ATOM     11  C   UNL     1      -6.884  35.335 103.512  1.00  0.00    -0.003 C 
ATOM     12  C   UNL     1      -7.247  34.714 102.165  1.00  0.00     0.004 C 
ENDBRANCH  10  11
ENDBRANCH   9  10
ENDBRANCH   8   9
ENDBRANCH   7   8
ENDBRANCH   6   7
ENDBRANCH   5   6
ENDBRANCH   4   5
ENDBRANCH   3   4
ENDBRANCH   2   3
ENDBRANCH   1   2
BRANCH   1  13
ATOM     13  C   UNL     1      -6.432  29.713 107.795  1.00  0.00     0.000 C 
BRANCH  13  14
ATOM     14  C   UNL     1      -5.002  29.560 107.248  1.00  0.00     0.000 C 
BRANCH  14  15
ATOM     15  C   UNL     1      -4.217  30.883 107.267  1.00  0.00     0.000 C 
BRANCH  15  16
ATOM     16  C   UNL     1      -4.960  32.009 108.009  1.00  0.00     0.000 C 
BRANCH  16  17
ATOM     17  C   UNL     1      -5.113  33.322 107.220  1.00  0.00     0.000 C 
BRANCH  17  18
ATOM     18  C   UNL     1      -6.577  33.757 107.059  1.00  0.00     0.000 C 
BRANCH  18  19
ATOM     19  C   UNL     1      -7.443  33.214 108.204  1.00  0.00     0.000 C 
BRANCH  19  20
ATOM     20  C   UNL     1      -8.886  32.917 107.766  1.00  0.00     0.006 C 
BRANCH  20  21
ATOM     21  C   UNL     1      -9.544  31.812 108.604  1.00  0.00     0.053 C 
BRANCH  21  22
ATOM     22  C   UNL     1     -10.732  31.240 107.897  1.00  0.00     0.041 C 
ATOM     23  O   UNL     1     -11.817  31.070 108.515  1.00  0.00    -0.550 OA
ATOM     24  O   UNL     1     -10.635  30.860 106.564  1.00  0.00    -0.550 OA
ENDBRANCH  21  22
ENDBRANCH  20  21
ENDBRANCH  19  20
ENDBRANCH  18  19
ENDBRANCH  17  18
ENDBRANCH  16  17
ENDBRANCH  15  16
ENDBRANCH  14  15
ENDBRANCH  13  14
ENDBRANCH   1  13
TORSDOF 20
ENDMDL
MODEL 9
REMARK VINA RESULT:    -2.796      7.745     10.510
REMARK INTER + INTRA:         -10.068
REMARK INTER:                  -6.224
REMARK INTRA:                  -3.844
REMARK UNBOUND:                -4.004
REMARK SMILES CCCCCCCCCCCCCCCCCCCCCC(=O)[O-]
REMARK SMILES IDX 12 1 11 2 10 3 9 4 8 5 7 6 6 7 5 8 4 9 3 10 2 11 1 12 13 13
REMARK SMILES IDX 14 14 15 15 16 16 17 17 18 18 19 19 20 20 21 21 22 22 23 23
REMARK SMILES IDX 24 24
REMARK H PARENT
REMARK Flexibility Score: inf
ROOT
ATOM      1  C   UNL     1     -17.289  32.504  93.942  1.00  0.00     0.000 C 
ENDROOT
BRANCH   1   2
ATOM      2  C   UNL     1     -16.586  32.891  92.624  1.00  0.00     0.000 C 
BRANCH   2   3
ATOM      3  C   UNL     1     -15.837  31.723  91.959  1.00  0.00     0.000 C 
BRANCH   3   4
ATOM      4  C   UNL     1     -16.156  31.585  90.461  1.00  0.00    -0.000 C 
BRANCH   4   5
ATOM      5  C   UNL     1     -16.941  30.304  90.139  1.00  0.00    -0.000 C 
BRANCH   5   6
ATOM      6  C   UNL     1     -16.250  29.437  89.076  1.00  0.00    -0.000 C 
BRANCH   6   7
ATOM      7  C   UNL     1     -15.702  28.144  89.698  1.00  0.00    -0.000 C 
BRANCH   7   8
ATOM      8  C   UNL     1     -14.168  28.076  89.675  1.00  0.00    -0.000 C 
BRANCH   8   9
ATOM      9  C   UNL     1     -13.520  28.844  90.841  1.00  0.00    -0.000 C 
BRANCH   9  10
ATOM     10  C   UNL     1     -12.456  28.000  91.576  1.00  0.00    -0.000 C 
BRANCH  10  11
ATOM     11  C   UNL     1     -11.060  28.645  91.583  1.00  0.00    -0.003 C 
ATOM     12  C   UNL     1     -10.361  28.575  90.227  1.00  0.00     0.004 C 
ENDBRANCH  10  11
ENDBRANCH   9  10
ENDBRANCH   8   9
ENDBRANCH   7   8
ENDBRANCH   6   7
ENDBRANCH   5   6
ENDBRANCH   4   5
ENDBRANCH   3   4
ENDBRANCH   2   3
ENDBRANCH   1   2
BRANCH   1  13
ATOM     13  C   UNL     1     -18.350  31.407  93.734  1.00  0.00     0.000 C 
BRANCH  13  14
ATOM     14  C   UNL     1     -18.607  30.578  95.005  1.00  0.00     0.000 C 
BRANCH  14  15
ATOM     15  C   UNL     1     -18.053  29.147  94.898  1.00  0.00     0.000 C 
BRANCH  15  16
ATOM     16  C   UNL     1     -17.709  28.744  93.453  1.00  0.00     0.000 C 
BRANCH  16  17
ATOM     17  C   UNL     1     -16.241  28.348  93.217  1.00  0.00     0.000 C 
BRANCH  17  18
ATOM     18  C   UNL     1     -15.407  28.339  94.507  1.00  0.00     0.000 C 
BRANCH  18  19
ATOM     19  C   UNL     1     -14.336  29.438  94.479  1.00  0.00     0.000 C 
BRANCH  19  20
ATOM     20  C   UNL     1     -14.001  29.974  95.880  1.00  0.00     0.006 C 
BRANCH  20  21
ATOM     21  C   UNL     1     -14.972  31.069  96.343  1.00  0.00     0.053 C 
BRANCH  21  22
ATOM     22  C   UNL     1     -15.824  30.586  97.474  1.00  0.00     0.041 C 
ATOM     23  O   UNL     1     -16.662  31.358  98.012  1.00  0.00    -0.550 OA
ATOM     24  O   UNL     1     -15.669  29.293  97.962  1.00  0.00    -0.550 OA
ENDBRANCH  21  22
ENDBRANCH  20  21
ENDBRANCH  19  20
ENDBRANCH  18  19
ENDBRANCH  17  18
ENDBRANCH  16  17
ENDBRANCH  15  16
ENDBRANCH  14  15
ENDBRANCH  13  14
ENDBRANCH   1  13
TORSDOF 20
ENDMDL
