MODEL 1
REMARK VINA RESULT:    -1.835      0.000      0.000
REMARK INTER + INTRA:          -3.115
REMARK INTER:                  -2.264
REMARK INTRA:                  -0.851
REMARK UNBOUND:                -0.851
REMARK SMILES C=CC(=C)CCC=C(C)C
REMARK SMILES IDX 5 1 6 2 7 3 9 4 8 5 10 6 3 7 4 8 2 9 1 10
REMARK H PARENT
REMARK Flexibility Score: inf
ROOT
ATOM      1  C   UNL     1     163.146 156.632 139.369  1.00  0.00     0.039 C 
ENDROOT
BRANCH   1   2
ATOM      2  C   UNL     1     164.267 156.371 138.352  1.00  0.00     0.032 C 
BRANCH   2   3
ATOM      3  C   UNL     1     165.608 156.177 139.018  1.00  0.00    -0.028 C 
ATOM      4  C   UNL     1     167.793 156.821 139.939  1.00  0.00     0.039 C 
ATOM      5  C   UNL     1     166.516 157.158 139.215  1.00  0.00    -0.080 C 
ATOM      6  C   UNL     1     166.287 158.570 138.728  1.00  0.00     0.039 C 
ENDBRANCH   2   3
ENDBRANCH   1   2
BRANCH   1   7
ATOM      7  C   UNL     1     162.883 158.113 139.560  1.00  0.00    -0.055 C 
ATOM      8  C   UNL     1     162.349 158.808 138.549  1.00  0.00     0.012 C 
BRANCH   7   9
ATOM      9  C   UNL     1     163.157 158.823 140.840  1.00  0.00    -0.005 C 
ATOM     10  C   UNL     1     164.074 158.446 141.732  1.00  0.00     0.009 C 
ENDBRANCH   7   9
ENDBRANCH   1   7
TORSDOF 4
ENDMDL
MODEL 2
REMARK VINA RESULT:    -1.813     15.999     17.473
REMARK INTER + INTRA:          -3.088
REMARK INTER:                  -2.172
REMARK INTRA:                  -0.916
REMARK UNBOUND:                -0.851
REMARK SMILES C=CC(=C)CCC=C(C)C
REMARK SMILES IDX 5 1 6 2 7 3 9 4 8 5 10 6 3 7 4 8 2 9 1 10
REMARK H PARENT
REMARK Flexibility Score: inf
ROOT
ATOM      1  C   UNL     1     166.660 176.125 138.723  1.00  0.00     0.039 C 
ENDROOT
BRANCH   1   2
ATOM      2  C   UNL     1     166.027 175.915 140.107  1.00  0.00     0.032 C 
BRANCH   2   3
ATOM      3  C   UNL     1     165.325 174.582 140.217  1.00  0.00    -0.028 C 
ATOM      4  C   UNL     1     164.931 172.291 141.009  1.00  0.00     0.039 C 
ATOM      5  C   UNL     1     165.767 173.543 140.959  1.00  0.00    -0.080 C 
ATOM      6  C   UNL     1     167.065 173.603 141.729  1.00  0.00     0.039 C 
ENDBRANCH   2   3
ENDBRANCH   1   2
BRANCH   1   7
ATOM      7  C   UNL     1     167.985 175.399 138.586  1.00  0.00    -0.055 C 
ATOM      8  C   UNL     1     168.997 175.751 139.386  1.00  0.00     0.012 C 
BRANCH   7   9
ATOM      9  C   UNL     1     168.198 174.284 137.624  1.00  0.00    -0.005 C 
ATOM     10  C   UNL     1     167.617 173.086 137.713  1.00  0.00     0.009 C 
ENDBRANCH   7   9
ENDBRANCH   1   7
TORSDOF 4
ENDMDL
MODEL 3
REMARK VINA RESULT:    -1.812     16.045     17.252
REMARK INTER + INTRA:          -3.087
REMARK INTER:                  -2.188
REMARK INTRA:                  -0.899
REMARK UNBOUND:                -0.851
REMARK SMILES C=CC(=C)CCC=C(C)C
REMARK SMILES IDX 5 1 6 2 7 3 9 4 8 5 10 6 3 7 4 8 2 9 1 10
REMARK H PARENT
REMARK Flexibility Score: inf
ROOT
ATOM      1  C   UNL     1     166.851 176.124 140.272  1.00  0.00     0.039 C 
ENDROOT
BRANCH   1   2
ATOM      2  C   UNL     1     166.771 175.963 138.746  1.00  0.00     0.032 C 
BRANCH   2   3
ATOM      3  C   UNL     1     167.900 175.122 138.200  1.00  0.00    -0.028 C 
ATOM      4  C   UNL     1     168.990 173.130 137.265  1.00  0.00     0.039 C 
ATOM      5  C   UNL     1     167.784 173.826 137.839  1.00  0.00    -0.080 C 
ATOM      6  C   UNL     1     166.490 173.062 137.998  1.00  0.00     0.039 C 
ENDBRANCH   2   3
ENDBRANCH   1   2
BRANCH   1   7
ATOM      7  C   UNL     1     166.036 175.073 140.999  1.00  0.00    -0.055 C 
ATOM      8  C   UNL     1     164.703 175.104 140.891  1.00  0.00     0.012 C 
BRANCH   7   9
ATOM      9  C   UNL     1     166.656 173.982 141.800  1.00  0.00    -0.005 C 
ATOM     10  C   UNL     1     167.879 173.494 141.594  1.00  0.00     0.009 C 
ENDBRANCH   7   9
ENDBRANCH   1   7
TORSDOF 4
ENDMDL
MODEL 4
REMARK VINA RESULT:    -1.803     15.581     17.074
REMARK INTER + INTRA:          -3.076
REMARK INTER:                  -2.152
REMARK INTRA:                  -0.924
REMARK UNBOUND:                -0.851
REMARK SMILES C=CC(=C)CCC=C(C)C
REMARK SMILES IDX 5 1 6 2 7 3 9 4 8 5 10 6 3 7 4 8 2 9 1 10
REMARK H PARENT
REMARK Flexibility Score: inf
ROOT
ATOM      1  C   UNL     1     169.058 172.269 138.312  1.00  0.00     0.039 C 
ENDROOT
BRANCH   1   2
ATOM      2  C   UNL     1     168.673 173.543 137.545  1.00  0.00     0.032 C 
BRANCH   2   3
ATOM      3  C   UNL     1     167.388 174.151 138.054  1.00  0.00    -0.028 C 
ATOM      4  C   UNL     1     165.955 175.789 139.192  1.00  0.00     0.039 C 
ATOM      5  C   UNL     1     167.315 175.277 138.796  1.00  0.00    -0.080 C 
ATOM      6  C   UNL     1     168.550 176.027 139.239  1.00  0.00     0.039 C 
ENDBRANCH   2   3
ENDBRANCH   1   2
BRANCH   1   7
ATOM      7  C   UNL     1     169.812 172.580 139.591  1.00  0.00    -0.055 C 
ATOM      8  C   UNL     1     171.009 173.170 139.504  1.00  0.00     0.012 C 
BRANCH   7   9
ATOM      9  C   UNL     1     169.262 172.290 140.943  1.00  0.00    -0.005 C 
ATOM     10  C   UNL     1     168.357 173.043 141.569  1.00  0.00     0.009 C 
ENDBRANCH   7   9
ENDBRANCH   1   7
TORSDOF 4
ENDMDL
MODEL 5
REMARK VINA RESULT:    -1.800      1.348      3.094
REMARK INTER + INTRA:          -3.072
REMARK INTER:                  -2.167
REMARK INTRA:                  -0.905
REMARK UNBOUND:                -0.851
REMARK SMILES C=CC(=C)CCC=C(C)C
REMARK SMILES IDX 5 1 6 2 7 3 9 4 8 5 10 6 3 7 4 8 2 9 1 10
REMARK H PARENT
REMARK Flexibility Score: inf
ROOT
ATOM      1  C   UNL     1     162.934 159.808 140.038  1.00  0.00     0.039 C 
ENDROOT
BRANCH   1   2
ATOM      2  C   UNL     1     163.438 158.647 140.908  1.00  0.00     0.032 C 
BRANCH   2   3
ATOM      3  C   UNL     1     164.645 157.966 140.307  1.00  0.00    -0.028 C 
ATOM      4  C   UNL     1     165.889 156.269 139.040  1.00  0.00     0.039 C 
ATOM      5  C   UNL     1     164.606 156.802 139.621  1.00  0.00    -0.080 C 
ATOM      6  C   UNL     1     163.322 156.029 139.429  1.00  0.00     0.039 C 
ENDBRANCH   2   3
ENDBRANCH   1   2
BRANCH   1   7
ATOM      7  C   UNL     1     161.964 159.341 138.969  1.00  0.00    -0.055 C 
ATOM      8  C   UNL     1     160.796 158.810 139.349  1.00  0.00     0.012 C 
BRANCH   7   9
ATOM      9  C   UNL     1     162.238 159.482 137.513  1.00  0.00    -0.005 C 
ATOM     10  C   UNL     1     163.255 158.902 136.875  1.00  0.00     0.009 C 
ENDBRANCH   7   9
ENDBRANCH   1   7
TORSDOF 4
ENDMDL
MODEL 6
REMARK VINA RESULT:    -1.798      1.386      2.939
REMARK INTER + INTRA:          -3.069
REMARK INTER:                  -2.332
REMARK INTRA:                  -0.737
REMARK UNBOUND:                -0.851
REMARK SMILES C=CC(=C)CCC=C(C)C
REMARK SMILES IDX 5 1 6 2 7 3 9 4 8 5 10 6 3 7 4 8 2 9 1 10
REMARK H PARENT
REMARK Flexibility Score: inf
ROOT
ATOM      1  C   UNL     1     165.318 155.875 138.750  1.00  0.00     0.039 C 
ENDROOT
BRANCH   1   2
ATOM      2  C   UNL     1     166.373 156.730 139.469  1.00  0.00     0.032 C 
BRANCH   2   3
ATOM      3  C   UNL     1     166.263 156.628 140.972  1.00  0.00    -0.028 C 
ATOM      4  C   UNL     1     165.656 157.321 143.249  1.00  0.00     0.039 C 
ATOM      5  C   UNL     1     165.743 157.587 141.769  1.00  0.00    -0.080 C 
ATOM      6  C   UNL     1     165.255 158.908 141.220  1.00  0.00     0.039 C 
ENDBRANCH   2   3
ENDBRANCH   1   2
BRANCH   1   7
ATOM      7  C   UNL     1     163.989 156.594 138.626  1.00  0.00    -0.055 C 
ATOM      8  C   UNL     1     162.998 156.262 139.462  1.00  0.00     0.012 C 
BRANCH   7   9
ATOM      9  C   UNL     1     163.748 157.682 137.639  1.00  0.00    -0.005 C 
ATOM     10  C   UNL     1     163.053 158.791 137.890  1.00  0.00     0.009 C 
ENDBRANCH   7   9
ENDBRANCH   1   7
TORSDOF 4
ENDMDL
MODEL 7
REMARK VINA RESULT:    -1.797     15.917     17.138
REMARK INTER + INTRA:          -3.069
REMARK INTER:                  -2.161
REMARK INTRA:                  -0.908
REMARK UNBOUND:                -0.851
REMARK SMILES C=CC(=C)CCC=C(C)C
REMARK SMILES IDX 5 1 6 2 7 3 9 4 8 5 10 6 3 7 4 8 2 9 1 10
REMARK H PARENT
REMARK Flexibility Score: inf
ROOT
ATOM      1  C   UNL     1     166.356 175.968 138.836  1.00  0.00     0.039 C 
ENDROOT
BRANCH   1   2
ATOM      2  C   UNL     1     167.866 175.901 138.559  1.00  0.00     0.032 C 
BRANCH   2   3
ATOM      3  C   UNL     1     168.246 174.675 137.763  1.00  0.00    -0.028 C 
ATOM      4  C   UNL     1     169.165 172.433 137.361  1.00  0.00     0.039 C 
ATOM      5  C   UNL     1     168.895 173.604 138.269  1.00  0.00    -0.080 C 
ATOM      6  C   UNL     1     169.356 173.552 139.707  1.00  0.00     0.039 C 
ENDBRANCH   2   3
ENDBRANCH   1   2
BRANCH   1   7
ATOM      7  C   UNL     1     165.942 175.047 139.967  1.00  0.00    -0.055 C 
ATOM      8  C   UNL     1     166.370 175.317 141.205  1.00  0.00     0.012 C 
BRANCH   7   9
ATOM      9  C   UNL     1     165.047 173.875 139.767  1.00  0.00    -0.005 C 
ATOM     10  C   UNL     1     165.209 172.952 138.818  1.00  0.00     0.009 C 
ENDBRANCH   7   9
ENDBRANCH   1   7
TORSDOF 4
ENDMDL
MODEL 8
REMARK VINA RESULT:    -1.743      1.269      3.809
REMARK INTER + INTRA:          -3.002
REMARK INTER:                  -2.102
REMARK INTRA:                  -0.900
REMARK UNBOUND:                -0.851
REMARK SMILES C=CC(=C)CCC=C(C)C
REMARK SMILES IDX 5 1 6 2 7 3 9 4 8 5 10 6 3 7 4 8 2 9 1 10
REMARK H PARENT
REMARK Flexibility Score: inf
ROOT
ATOM      1  C   UNL     1     166.158 155.944 139.147  1.00  0.00     0.039 C 
ENDROOT
BRANCH   1   2
ATOM      2  C   UNL     1     164.633 155.875 138.979  1.00  0.00     0.032 C 
BRANCH   2   3
ATOM      3  C   UNL     1     164.121 156.894 137.990  1.00  0.00    -0.028 C 
ATOM      4  C   UNL     1     163.032 158.960 137.228  1.00  0.00     0.039 C 
ATOM      5  C   UNL     1     163.437 158.011 138.325  1.00  0.00    -0.080 C 
ATOM      6  C   UNL     1     163.070 158.326 139.756  1.00  0.00     0.039 C 
ENDBRANCH   2   3
ENDBRANCH   1   2
BRANCH   1   7
ATOM      7  C   UNL     1     166.580 157.073 140.067  1.00  0.00    -0.055 C 
ATOM      8  C   UNL     1     166.364 156.946 141.381  1.00  0.00     0.012 C 
BRANCH   7   9
ATOM      9  C   UNL     1     167.260 158.303 139.577  1.00  0.00    -0.005 C 
ATOM     10  C   UNL     1     166.790 159.541 139.734  1.00  0.00     0.009 C 
ENDBRANCH   7   9
ENDBRANCH   1   7
TORSDOF 4
ENDMDL
MODEL 9
REMARK VINA RESULT:     0.878     16.023     17.571
REMARK INTER + INTRA:           0.232
REMARK INTER:                   1.127
REMARK INTRA:                  -0.895
REMARK UNBOUND:                -0.851
REMARK SMILES C=CC(=C)CCC=C(C)C
REMARK SMILES IDX 5 1 6 2 7 3 9 4 8 5 10 6 3 7 4 8 2 9 1 10
REMARK H PARENT
REMARK Flexibility Score: inf
ROOT
ATOM      1  C   UNL     1     168.239 174.618 137.664  1.00  0.00     0.039 C 
ENDROOT
BRANCH   1   2
ATOM      2  C   UNL     1     167.951 175.819 138.578  1.00  0.00     0.032 C 
BRANCH   2   3
ATOM      3  C   UNL     1     166.471 176.062 138.751  1.00  0.00    -0.028 C 
ATOM      4  C   UNL     1     164.308 176.125 139.915  1.00  0.00     0.039 C 
ATOM      5  C   UNL     1     165.774 175.781 139.875  1.00  0.00    -0.080 C 
ATOM      6  C   UNL     1     166.421 175.135 141.077  1.00  0.00     0.039 C 
ENDBRANCH   2   3
ENDBRANCH   1   2
BRANCH   1   7
ATOM      7  C   UNL     1     168.299 173.315 138.437  1.00  0.00    -0.055 C 
ATOM      8  C   UNL     1     169.308 173.122 139.295  1.00  0.00     0.012 C 
BRANCH   7   9
ATOM      9  C   UNL     1     167.263 172.254 138.313  1.00  0.00    -0.005 C 
ATOM     10  C   UNL     1     166.027 172.455 137.854  1.00  0.00     0.009 C 
ENDBRANCH   7   9
ENDBRANCH   1   7
TORSDOF 4
ENDMDL
