MODEL 1
REMARK VINA RESULT:    -3.511      0.000      0.000
REMARK INTER + INTRA:          -3.833
REMARK INTER:                  -3.819
REMARK INTRA:                  -0.014
REMARK UNBOUND:                -0.014
REMARK SMILES OCc1ccco1
REMARK SMILES IDX 2 1 3 2 5 3 6 4 4 5 7 6 1 7
REMARK H PARENT 1 8
REMARK Flexibility Score: inf
ROOT
ATOM      1  C   UNL     1      53.114 -51.354 -11.484  1.00  0.00     0.231 C 
ENDROOT
BRANCH   1   2
ATOM      2  C   UNL     1      52.475 -51.050 -10.168  1.00  0.00     0.129 A 
ATOM      3  C   UNL     1      51.908 -50.072  -8.284  1.00  0.00     0.042 A 
ATOM      4  C   UNL     1      51.305 -51.309  -8.403  1.00  0.00     0.195 A 
ATOM      5  C   UNL     1      52.668 -49.904  -9.422  1.00  0.00     0.048 A 
ATOM      6  O   UNL     1      51.665 -51.868  -9.536  1.00  0.00    -0.467 OA
ENDBRANCH   1   2
BRANCH   1   7
ATOM      7  O   UNL     1      54.318 -52.042 -11.287  1.00  0.00    -0.388 OA
ATOM      8  H   UNL     1      54.578 -51.892 -10.341  1.00  0.00     0.211 HD
ENDBRANCH   1   7
TORSDOF 2
ENDMDL
MODEL 2
REMARK VINA RESULT:    -3.447      1.024      1.408
REMARK INTER + INTRA:          -3.763
REMARK INTER:                  -3.750
REMARK INTRA:                  -0.012
REMARK UNBOUND:                -0.014
REMARK SMILES OCc1ccco1
REMARK SMILES IDX 2 1 3 2 5 3 6 4 4 5 7 6 1 7
REMARK H PARENT 1 8
REMARK Flexibility Score: inf
ROOT
ATOM      1  C   UNL     1      53.217 -51.371 -11.341  1.00  0.00     0.231 C 
ENDROOT
BRANCH   1   2
ATOM      2  C   UNL     1      52.604 -50.984 -10.033  1.00  0.00     0.129 A 
ATOM      3  C   UNL     1      51.424 -50.999  -8.180  1.00  0.00     0.042 A 
ATOM      4  C   UNL     1      52.080 -49.794  -8.343  1.00  0.00     0.195 A 
ATOM      5  C   UNL     1      51.759 -51.769  -9.274  1.00  0.00     0.048 A 
ATOM      6  O   UNL     1      52.773 -49.816  -9.459  1.00  0.00    -0.467 OA
ENDBRANCH   1   2
BRANCH   1   7
ATOM      7  O   UNL     1      54.386 -52.110 -11.124  1.00  0.00    -0.388 OA
ATOM      8  H   UNL     1      54.790 -52.270 -12.016  1.00  0.00     0.211 HD
ENDBRANCH   1   7
TORSDOF 2
ENDMDL
MODEL 3
REMARK VINA RESULT:    -3.338      1.426      1.577
REMARK INTER + INTRA:          -3.645
REMARK INTER:                  -3.630
REMARK INTRA:                  -0.016
REMARK UNBOUND:                -0.014
REMARK SMILES OCc1ccco1
REMARK SMILES IDX 2 1 3 2 5 3 6 4 4 5 7 6 1 7
REMARK H PARENT 1 8
REMARK Flexibility Score: inf
ROOT
ATOM      1  C   UNL     1      52.852 -51.139 -11.338  1.00  0.00     0.231 C 
ENDROOT
BRANCH   1   2
ATOM      2  C   UNL     1      52.506 -50.217 -10.213  1.00  0.00     0.129 A 
ATOM      3  C   UNL     1      52.413 -49.249  -8.243  1.00  0.00     0.042 A 
ATOM      4  C   UNL     1      51.531 -48.661  -9.128  1.00  0.00     0.195 A 
ATOM      5  C   UNL     1      53.042 -50.258  -8.941  1.00  0.00     0.048 A 
ATOM      6  O   UNL     1      51.608 -49.262 -10.293  1.00  0.00    -0.467 OA
ENDBRANCH   1   2
BRANCH   1   7
ATOM      7  O   UNL     1      54.026 -51.841 -11.041  1.00  0.00    -0.388 OA
ATOM      8  H   UNL     1      53.939 -52.155 -10.103  1.00  0.00     0.211 HD
ENDBRANCH   1   7
TORSDOF 2
ENDMDL
MODEL 4
REMARK VINA RESULT:    -3.118      1.797      3.082
REMARK INTER + INTRA:          -3.405
REMARK INTER:                  -3.390
REMARK INTRA:                  -0.015
REMARK UNBOUND:                -0.014
REMARK SMILES OCc1ccco1
REMARK SMILES IDX 2 1 3 2 5 3 6 4 4 5 7 6 1 7
REMARK H PARENT 1 8
REMARK Flexibility Score: inf
ROOT
ATOM      1  C   UNL     1      51.268 -52.054  -8.053  1.00  0.00     0.231 C 
ENDROOT
BRANCH   1   2
ATOM      2  C   UNL     1      51.623 -50.793  -8.774  1.00  0.00     0.129 A 
ATOM      3  C   UNL     1      52.105 -48.699  -9.231  1.00  0.00     0.042 A 
ATOM      4  C   UNL     1      52.030 -49.456 -10.384  1.00  0.00     0.195 A 
ATOM      5  C   UNL     1      51.839 -49.562  -8.189  1.00  0.00     0.048 A 
ATOM      6  O   UNL     1      51.738 -50.700 -10.079  1.00  0.00    -0.467 OA
ENDBRANCH   1   2
BRANCH   1   7
ATOM      7  O   UNL     1      50.643 -51.753  -6.837  1.00  0.00    -0.388 OA
ATOM      8  H   UNL     1      51.205 -52.151  -6.122  1.00  0.00     0.211 HD
ENDBRANCH   1   7
TORSDOF 2
ENDMDL
MODEL 5
REMARK VINA RESULT:    -3.045     16.922     17.610
REMARK INTER + INTRA:          -3.326
REMARK INTER:                  -3.312
REMARK INTRA:                  -0.014
REMARK UNBOUND:                -0.014
REMARK SMILES OCc1ccco1
REMARK SMILES IDX 2 1 3 2 5 3 6 4 4 5 7 6 1 7
REMARK H PARENT 1 8
REMARK Flexibility Score: inf
ROOT
ATOM      1  C   UNL     1      36.362 -51.014 -14.118  1.00  0.00     0.231 C 
ENDROOT
BRANCH   1   2
ATOM      2  C   UNL     1      36.050 -49.814 -14.954  1.00  0.00     0.129 A 
ATOM      3  C   UNL     1      36.199 -47.894 -16.011  1.00  0.00     0.042 A 
ATOM      4  C   UNL     1      34.934 -48.435 -16.136  1.00  0.00     0.195 A 
ATOM      5  C   UNL     1      36.921 -48.783 -15.243  1.00  0.00     0.048 A 
ATOM      6  O   UNL     1      34.876 -49.578 -15.493  1.00  0.00    -0.467 OA
ENDBRANCH   1   2
BRANCH   1   7
ATOM      7  O   UNL     1      36.100 -50.742 -12.770  1.00  0.00    -0.388 OA
ATOM      8  H   UNL     1      35.116 -50.798 -12.655  1.00  0.00     0.211 HD
ENDBRANCH   1   7
TORSDOF 2
ENDMDL
MODEL 6
REMARK VINA RESULT:    -2.941      1.655      2.245
REMARK INTER + INTRA:          -3.213
REMARK INTER:                  -3.198
REMARK INTRA:                  -0.016
REMARK UNBOUND:                -0.014
REMARK SMILES OCc1ccco1
REMARK SMILES IDX 2 1 3 2 5 3 6 4 4 5 7 6 1 7
REMARK H PARENT 1 8
REMARK Flexibility Score: inf
ROOT
ATOM      1  C   UNL     1      51.994 -50.960 -11.999  1.00  0.00     0.231 C 
ENDROOT
BRANCH   1   2
ATOM      2  C   UNL     1      52.353 -51.326 -10.594  1.00  0.00     0.129 A 
ATOM      3  C   UNL     1      52.234 -51.898  -8.477  1.00  0.00     0.042 A 
ATOM      4  C   UNL     1      53.541 -51.665  -8.857  1.00  0.00     0.195 A 
ATOM      5  C   UNL     1      51.464 -51.675  -9.598  1.00  0.00     0.048 A 
ATOM      6  O   UNL     1      53.579 -51.323 -10.124  1.00  0.00    -0.467 OA
ENDBRANCH   1   2
BRANCH   1   7
ATOM      7  O   UNL     1      50.606 -51.020 -12.171  1.00  0.00    -0.388 OA
ATOM      8  H   UNL     1      50.279 -51.754 -11.588  1.00  0.00     0.211 HD
ENDBRANCH   1   7
TORSDOF 2
ENDMDL
MODEL 7
REMARK VINA RESULT:    -2.921     17.634     17.922
REMARK INTER + INTRA:          -3.192
REMARK INTER:                  -3.176
REMARK INTRA:                  -0.016
REMARK UNBOUND:                -0.014
REMARK SMILES OCc1ccco1
REMARK SMILES IDX 2 1 3 2 5 3 6 4 4 5 7 6 1 7
REMARK H PARENT 1 8
REMARK Flexibility Score: inf
ROOT
ATOM      1  C   UNL     1      39.629 -48.966 -20.765  1.00  0.00     0.231 C 
ENDROOT
BRANCH   1   2
ATOM      2  C   UNL     1      38.569 -48.087 -20.183  1.00  0.00     0.129 A 
ATOM      3  C   UNL     1      37.041 -46.530 -19.920  1.00  0.00     0.042 A 
ATOM      4  C   UNL     1      37.256 -47.220 -18.743  1.00  0.00     0.195 A 
ATOM      5  C   UNL     1      37.892 -47.087 -20.852  1.00  0.00     0.048 A 
ATOM      6  O   UNL     1      38.174 -48.140 -18.931  1.00  0.00    -0.467 OA
ENDBRANCH   1   2
BRANCH   1   7
ATOM      7  O   UNL     1      39.747 -48.730 -22.140  1.00  0.00    -0.388 OA
ATOM      8  H   UNL     1      39.554 -49.592 -22.593  1.00  0.00     0.211 HD
ENDBRANCH   1   7
TORSDOF 2
ENDMDL
