MODEL 1
REMARK VINA RESULT:    -4.823      0.000      0.000
REMARK INTER + INTRA:          -6.658
REMARK INTER:                  -6.515
REMARK INTRA:                  -0.143
REMARK UNBOUND:                -0.143
REMARK SMILES CCCCCCCC(=O)[O-]
REMARK SMILES IDX 5 1 6 2 7 3 8 4 9 5 10 6 4 7 3 8 2 9 1 10
REMARK H PARENT
REMARK Flexibility Score: inf
ROOT
ATOM      1  C   UNL     1     -20.521 -31.105  23.675  1.00  0.00     0.000 C 
ENDROOT
BRANCH   1   2
ATOM      2  C   UNL     1     -21.561 -32.121  23.181  1.00  0.00     0.006 C 
BRANCH   2   3
ATOM      3  C   UNL     1     -22.981 -31.670  23.538  1.00  0.00     0.053 C 
BRANCH   3   4
ATOM      4  C   UNL     1     -23.735 -31.287  22.305  1.00  0.00     0.041 C 
ATOM      5  O   UNL     1     -23.270 -30.415  21.523  1.00  0.00    -0.550 OA
ATOM      6  O   UNL     1     -24.974 -31.857  22.041  1.00  0.00    -0.550 OA
ENDBRANCH   3   4
ENDBRANCH   2   3
ENDBRANCH   1   2
BRANCH   1   7
ATOM      7  C   UNL     1     -19.073 -31.539  23.386  1.00  0.00     0.000 C 
BRANCH   7   8
ATOM      8  C   UNL     1     -17.988 -30.639  24.004  1.00  0.00    -0.000 C 
BRANCH   8   9
ATOM      9  C   UNL     1     -16.564 -31.064  23.615  1.00  0.00    -0.003 C 
ATOM     10  C   UNL     1     -16.271 -30.732  22.154  1.00  0.00     0.004 C 
ENDBRANCH   8   9
ENDBRANCH   7   8
ENDBRANCH   1   7
TORSDOF 6
ENDMDL
MODEL 2
REMARK VINA RESULT:    -4.694      1.739      2.086
REMARK INTER + INTRA:          -6.484
REMARK INTER:                  -6.299
REMARK INTRA:                  -0.185
REMARK UNBOUND:                -0.143
REMARK SMILES CCCCCCCC(=O)[O-]
REMARK SMILES IDX 5 1 6 2 7 3 8 4 9 5 10 6 4 7 3 8 2 9 1 10
REMARK H PARENT
REMARK Flexibility Score: inf
ROOT
ATOM      1  C   UNL     1     -19.310 -31.297  23.593  1.00  0.00     0.000 C 
ENDROOT
BRANCH   1   2
ATOM      2  C   UNL     1     -20.617 -30.587  23.974  1.00  0.00     0.006 C 
BRANCH   2   3
ATOM      3  C   UNL     1     -21.830 -31.472  23.671  1.00  0.00     0.053 C 
BRANCH   3   4
ATOM      4  C   UNL     1     -22.982 -31.099  24.549  1.00  0.00     0.041 C 
ATOM      5  O   UNL     1     -23.208 -29.890  24.818  1.00  0.00    -0.550 OA
ATOM      6  O   UNL     1     -23.779 -32.090  25.110  1.00  0.00    -0.550 OA
ENDBRANCH   3   4
ENDBRANCH   2   3
ENDBRANCH   1   2
BRANCH   1   7
ATOM      7  C   UNL     1     -18.055 -30.497  23.987  1.00  0.00     0.000 C 
BRANCH   7   8
ATOM      8  C   UNL     1     -16.717 -31.156  23.607  1.00  0.00    -0.000 C 
BRANCH   8   9
ATOM      9  C   UNL     1     -16.178 -30.678  22.250  1.00  0.00    -0.003 C 
ATOM     10  C   UNL     1     -16.542 -29.218  21.999  1.00  0.00     0.004 C 
ENDBRANCH   8   9
ENDBRANCH   7   8
ENDBRANCH   1   7
TORSDOF 6
ENDMDL
MODEL 3
REMARK VINA RESULT:    -4.664      3.959      5.920
REMARK INTER + INTRA:          -6.443
REMARK INTER:                  -6.168
REMARK INTRA:                  -0.275
REMARK UNBOUND:                -0.143
REMARK SMILES CCCCCCCC(=O)[O-]
REMARK SMILES IDX 5 1 6 2 7 3 8 4 9 5 10 6 4 7 3 8 2 9 1 10
REMARK H PARENT
REMARK Flexibility Score: inf
ROOT
ATOM      1  C   UNL     1     -16.664 -31.156  23.464  1.00  0.00     0.000 C 
ENDROOT
BRANCH   1   2
ATOM      2  C   UNL     1     -16.014 -30.405  22.294  1.00  0.00     0.006 C 
BRANCH   2   3
ATOM      3  C   UNL     1     -16.763 -29.103  21.994  1.00  0.00     0.053 C 
BRANCH   3   4
ATOM      4  C   UNL     1     -16.600 -28.724  20.556  1.00  0.00     0.041 C 
ATOM      5  O   UNL     1     -16.581 -29.614  19.665  1.00  0.00    -0.550 OA
ATOM      6  O   UNL     1     -16.421 -27.393  20.203  1.00  0.00    -0.550 OA
ENDBRANCH   3   4
ENDBRANCH   2   3
ENDBRANCH   1   2
BRANCH   1   7
ATOM      7  C   UNL     1     -17.966 -30.494  23.953  1.00  0.00     0.000 C 
BRANCH   7   8
ATOM      8  C   UNL     1     -19.253 -31.278  23.638  1.00  0.00    -0.000 C 
BRANCH   8   9
ATOM      9  C   UNL     1     -20.527 -30.528  24.055  1.00  0.00    -0.003 C 
ATOM     10  C   UNL     1     -20.253 -29.591  25.227  1.00  0.00     0.004 C 
ENDBRANCH   8   9
ENDBRANCH   7   8
ENDBRANCH   1   7
TORSDOF 6
ENDMDL
MODEL 4
REMARK VINA RESULT:    -4.652      1.730      2.222
REMARK INTER + INTRA:          -6.427
REMARK INTER:                  -6.198
REMARK INTRA:                  -0.229
REMARK UNBOUND:                -0.143
REMARK SMILES CCCCCCCC(=O)[O-]
REMARK SMILES IDX 5 1 6 2 7 3 8 4 9 5 10 6 4 7 3 8 2 9 1 10
REMARK H PARENT
REMARK Flexibility Score: inf
ROOT
ATOM      1  C   UNL     1     -20.758 -31.503  23.413  1.00  0.00     0.000 C 
ENDROOT
BRANCH   1   2
ATOM      2  C   UNL     1     -22.273 -31.742  23.350  1.00  0.00     0.006 C 
BRANCH   2   3
ATOM      3  C   UNL     1     -22.974 -31.146  24.575  1.00  0.00     0.053 C 
BRANCH   3   4
ATOM      4  C   UNL     1     -24.231 -31.899  24.876  1.00  0.00     0.041 C 
ATOM      5  O   UNL     1     -25.291 -31.639  24.248  1.00  0.00    -0.550 OA
ATOM      6  O   UNL     1     -24.246 -32.855  25.884  1.00  0.00    -0.550 OA
ENDBRANCH   3   4
ENDBRANCH   2   3
ENDBRANCH   1   2
BRANCH   1   7
ATOM      7  C   UNL     1     -20.373 -30.338  24.344  1.00  0.00     0.000 C 
BRANCH   7   8
ATOM      8  C   UNL     1     -18.864 -30.192  24.615  1.00  0.00    -0.000 C 
BRANCH   8   9
ATOM      9  C   UNL     1     -18.018 -30.257  23.335  1.00  0.00    -0.003 C 
ATOM     10  C   UNL     1     -16.722 -31.028  23.572  1.00  0.00     0.004 C 
ENDBRANCH   8   9
ENDBRANCH   7   8
ENDBRANCH   1   7
TORSDOF 6
ENDMDL
MODEL 5
REMARK VINA RESULT:    -4.651      1.533      2.285
REMARK INTER + INTRA:          -6.426
REMARK INTER:                  -6.325
REMARK INTRA:                  -0.101
REMARK UNBOUND:                -0.143
REMARK SMILES CCCCCCCC(=O)[O-]
REMARK SMILES IDX 5 1 6 2 7 3 8 4 9 5 10 6 4 7 3 8 2 9 1 10
REMARK H PARENT
REMARK Flexibility Score: inf
ROOT
ATOM      1  C   UNL     1     -21.546 -32.273  23.179  1.00  0.00     0.000 C 
ENDROOT
BRANCH   1   2
ATOM      2  C   UNL     1     -22.970 -31.699  23.201  1.00  0.00     0.006 C 
BRANCH   2   3
ATOM      3  C   UNL     1     -23.520 -31.651  24.630  1.00  0.00     0.053 C 
BRANCH   3   4
ATOM      4  C   UNL     1     -24.993 -31.914  24.633  1.00  0.00     0.041 C 
ATOM      5  O   UNL     1     -25.469 -32.836  25.346  1.00  0.00    -0.550 OA
ATOM      6  O   UNL     1     -25.834 -31.172  23.814  1.00  0.00    -0.550 OA
ENDBRANCH   3   4
ENDBRANCH   2   3
ENDBRANCH   1   2
BRANCH   1   7
ATOM      7  C   UNL     1     -20.488 -31.272  23.678  1.00  0.00     0.000 C 
BRANCH   7   8
ATOM      8  C   UNL     1     -19.032 -31.640  23.338  1.00  0.00    -0.000 C 
BRANCH   8   9
ATOM      9  C   UNL     1     -18.010 -30.678  23.962  1.00  0.00    -0.003 C 
ATOM     10  C   UNL     1     -16.606 -30.948  23.429  1.00  0.00     0.004 C 
ENDBRANCH   8   9
ENDBRANCH   7   8
ENDBRANCH   1   7
TORSDOF 6
ENDMDL
MODEL 6
REMARK VINA RESULT:    -4.622      3.466      6.088
REMARK INTER + INTRA:          -6.386
REMARK INTER:                  -6.260
REMARK INTRA:                  -0.126
REMARK UNBOUND:                -0.143
REMARK SMILES CCCCCCCC(=O)[O-]
REMARK SMILES IDX 5 1 6 2 7 3 8 4 9 5 10 6 4 7 3 8 2 9 1 10
REMARK H PARENT
REMARK Flexibility Score: inf
ROOT
ATOM      1  C   UNL     1     -19.604 -31.417  23.610  1.00  0.00     0.000 C 
ENDROOT
BRANCH   1   2
ATOM      2  C   UNL     1     -18.502 -30.484  24.132  1.00  0.00     0.006 C 
BRANCH   2   3
ATOM      3  C   UNL     1     -17.116 -30.985  23.712  1.00  0.00     0.053 C 
BRANCH   3   4
ATOM      4  C   UNL     1     -16.643 -30.258  22.493  1.00  0.00     0.041 C 
ATOM      5  O   UNL     1     -16.970 -29.057  22.305  1.00  0.00    -0.550 OA
ATOM      6  O   UNL     1     -15.880 -30.921  21.541  1.00  0.00    -0.550 OA
ENDBRANCH   3   4
ENDBRANCH   2   3
ENDBRANCH   1   2
BRANCH   1   7
ATOM      7  C   UNL     1     -21.020 -30.851  23.823  1.00  0.00     0.000 C 
BRANCH   7   8
ATOM      8  C   UNL     1     -22.165 -31.850  23.576  1.00  0.00    -0.000 C 
BRANCH   8   9
ATOM      9  C   UNL     1     -23.533 -31.316  24.024  1.00  0.00    -0.003 C 
ATOM     10  C   UNL     1     -24.078 -32.120  25.201  1.00  0.00     0.004 C 
ENDBRANCH   8   9
ENDBRANCH   7   8
ENDBRANCH   1   7
TORSDOF 6
ENDMDL
MODEL 7
REMARK VINA RESULT:    -4.580      2.801      3.372
REMARK INTER + INTRA:          -6.330
REMARK INTER:                  -6.050
REMARK INTRA:                  -0.281
REMARK UNBOUND:                -0.143
REMARK SMILES CCCCCCCC(=O)[O-]
REMARK SMILES IDX 5 1 6 2 7 3 8 4 9 5 10 6 4 7 3 8 2 9 1 10
REMARK H PARENT
REMARK Flexibility Score: inf
ROOT
ATOM      1  C   UNL     1     -19.342 -31.250  23.638  1.00  0.00     0.000 C 
ENDROOT
BRANCH   1   2
ATOM      2  C   UNL     1     -20.608 -30.553  24.158  1.00  0.00     0.006 C 
BRANCH   2   3
ATOM      3  C   UNL     1     -20.270 -29.576  25.289  1.00  0.00     0.053 C 
BRANCH   3   4
ATOM      4  C   UNL     1     -21.035 -28.301  25.125  1.00  0.00     0.041 C 
ATOM      5  O   UNL     1     -20.450 -27.257  24.734  1.00  0.00    -0.550 OA
ATOM      6  O   UNL     1     -22.386 -28.254  25.449  1.00  0.00    -0.550 OA
ENDBRANCH   3   4
ENDBRANCH   2   3
ENDBRANCH   1   2
BRANCH   1   7
ATOM      7  C   UNL     1     -18.048 -30.517  24.035  1.00  0.00     0.000 C 
BRANCH   7   8
ATOM      8  C   UNL     1     -16.747 -31.190  23.560  1.00  0.00    -0.000 C 
BRANCH   8   9
ATOM      9  C   UNL     1     -16.111 -30.479  22.356  1.00  0.00    -0.003 C 
ATOM     10  C   UNL     1     -16.779 -29.131  22.098  1.00  0.00     0.004 C 
ENDBRANCH   8   9
ENDBRANCH   7   8
ENDBRANCH   1   7
TORSDOF 6
ENDMDL
MODEL 8
REMARK VINA RESULT:    -4.451      5.309      7.126
REMARK INTER + INTRA:          -6.156
REMARK INTER:                  -5.790
REMARK INTRA:                  -0.366
REMARK UNBOUND:                -0.143
REMARK SMILES CCCCCCCC(=O)[O-]
REMARK SMILES IDX 5 1 6 2 7 3 8 4 9 5 10 6 4 7 3 8 2 9 1 10
REMARK H PARENT
REMARK Flexibility Score: inf
ROOT
ATOM      1  C   UNL     1     -27.745 -33.216  24.378  1.00  0.00     0.000 C 
ENDROOT
BRANCH   1   2
ATOM      2  C   UNL     1     -27.395 -33.074  22.890  1.00  0.00     0.006 C 
BRANCH   2   3
ATOM      3  C   UNL     1     -28.620 -32.640  22.077  1.00  0.00     0.053 C 
BRANCH   3   4
ATOM      4  C   UNL     1     -28.981 -31.223  22.392  1.00  0.00     0.041 C 
ATOM      5  O   UNL     1     -30.188 -30.897  22.547  1.00  0.00    -0.550 OA
ATOM      6  O   UNL     1     -27.990 -30.253  22.467  1.00  0.00    -0.550 OA
ENDBRANCH   3   4
ENDBRANCH   2   3
ENDBRANCH   1   2
BRANCH   1   7
ATOM      7  C   UNL     1     -26.853 -32.353  25.289  1.00  0.00     0.000 C 
BRANCH   7   8
ATOM      8  C   UNL     1     -26.130 -33.123  26.409  1.00  0.00    -0.000 C 
BRANCH   8   9
ATOM      9  C   UNL     1     -24.604 -33.147  26.229  1.00  0.00    -0.003 C 
ATOM     10  C   UNL     1     -24.155 -32.103  25.211  1.00  0.00     0.004 C 
ENDBRANCH   8   9
ENDBRANCH   7   8
ENDBRANCH   1   7
TORSDOF 6
ENDMDL
MODEL 9
REMARK VINA RESULT:    -4.342      2.524      3.605
REMARK INTER + INTRA:          -6.008
REMARK INTER:                  -5.793
REMARK INTRA:                  -0.215
REMARK UNBOUND:                -0.143
REMARK SMILES CCCCCCCC(=O)[O-]
REMARK SMILES IDX 5 1 6 2 7 3 8 4 9 5 10 6 4 7 3 8 2 9 1 10
REMARK H PARENT
REMARK Flexibility Score: inf
ROOT
ATOM      1  C   UNL     1     -23.015 -31.724  23.565  1.00  0.00     0.000 C 
ENDROOT
BRANCH   1   2
ATOM      2  C   UNL     1     -24.009 -31.328  24.666  1.00  0.00     0.006 C 
BRANCH   2   3
ATOM      3  C   UNL     1     -24.269 -32.501  25.617  1.00  0.00     0.053 C 
BRANCH   3   4
ATOM      4  C   UNL     1     -25.717 -32.878  25.601  1.00  0.00     0.041 C 
ATOM      5  O   UNL     1     -26.359 -32.878  24.518  1.00  0.00    -0.550 OA
ATOM      6  O   UNL     1     -26.369 -33.183  26.789  1.00  0.00    -0.550 OA
ENDBRANCH   3   4
ENDBRANCH   2   3
ENDBRANCH   1   2
BRANCH   1   7
ATOM      7  C   UNL     1     -21.722 -30.889  23.595  1.00  0.00     0.000 C 
BRANCH   7   8
ATOM      8  C   UNL     1     -20.424 -31.693  23.398  1.00  0.00    -0.000 C 
BRANCH   8   9
ATOM      9  C   UNL     1     -19.164 -30.894  23.763  1.00  0.00    -0.003 C 
ATOM     10  C   UNL     1     -19.489 -29.777  24.751  1.00  0.00     0.004 C 
ENDBRANCH   8   9
ENDBRANCH   7   8
ENDBRANCH   1   7
TORSDOF 6
ENDMDL
