MODEL 1
REMARK VINA RESULT:    -4.449      0.000      0.000
REMARK INTER + INTRA:         -15.459
REMARK INTER:                 -11.211
REMARK INTRA:                  -4.249
REMARK UNBOUND:                -4.249
REMARK SMILES CCCCCCCCCCCCCCCCCCCCCCCCCCCC(=O)[O-]
REMARK SMILES IDX 15 1 16 2 17 3 18 4 19 5 20 6 21 7 22 8 23 9 24 10 25 11
REMARK SMILES IDX 26 12 27 13 28 14 29 15 30 16 14 17 13 18 12 19 11 20 10 21
REMARK SMILES IDX 9 22 8 23 7 24 6 25 5 26 4 27 3 28 2 29 1 30
REMARK H PARENT
REMARK Flexibility Score: inf
ROOT
ATOM      1  C   UNL     1      16.950  37.769  34.476  1.00  0.00     0.000 C 
ENDROOT
BRANCH   1   2
ATOM      2  C   UNL     1      17.938  36.964  33.611  1.00  0.00     0.000 C 
BRANCH   2   3
ATOM      3  C   UNL     1      17.245  36.242  32.446  1.00  0.00     0.000 C 
BRANCH   3   4
ATOM      4  C   UNL     1      17.832  36.640  31.082  1.00  0.00     0.000 C 
BRANCH   4   5
ATOM      5  C   UNL     1      18.947  37.691  31.217  1.00  0.00     0.000 C 
BRANCH   5   6
ATOM      6  C   UNL     1      20.340  37.127  30.902  1.00  0.00     0.000 C 
BRANCH   6   7
ATOM      7  C   UNL     1      21.467  37.882  31.631  1.00  0.00     0.000 C 
BRANCH   7   8
ATOM      8  C   UNL     1      20.921  38.936  32.619  1.00  0.00     0.000 C 
BRANCH   8   9
ATOM      9  C   UNL     1      21.630  38.920  33.984  1.00  0.00     0.000 C 
BRANCH   9  10
ATOM     10  C   UNL     1      21.703  37.516  34.603  1.00  0.00     0.000 C 
BRANCH  10  11
ATOM     11  C   UNL     1      20.577  37.271  35.620  1.00  0.00     0.000 C 
BRANCH  11  12
ATOM     12  C   UNL     1      20.521  38.364  36.703  1.00  0.00     0.006 C 
BRANCH  12  13
ATOM     13  C   UNL     1      19.144  38.445  37.378  1.00  0.00     0.053 C 
BRANCH  13  14
ATOM     14  C   UNL     1      19.250  38.449  38.872  1.00  0.00     0.041 C 
ATOM     15  O   UNL     1      18.827  37.470  39.541  1.00  0.00    -0.550 OA
ATOM     16  O   UNL     1      19.798  39.547  39.525  1.00  0.00    -0.550 OA
ENDBRANCH  13  14
ENDBRANCH  12  13
ENDBRANCH  11  12
ENDBRANCH  10  11
ENDBRANCH   9  10
ENDBRANCH   8   9
ENDBRANCH   7   8
ENDBRANCH   6   7
ENDBRANCH   5   6
ENDBRANCH   4   5
ENDBRANCH   3   4
ENDBRANCH   2   3
ENDBRANCH   1   2
BRANCH   1  17
ATOM     17  C   UNL     1      16.704  39.215  34.001  1.00  0.00     0.000 C 
BRANCH  17  18
ATOM     18  C   UNL     1      15.267  39.520  33.542  1.00  0.00     0.000 C 
BRANCH  18  19
ATOM     19  C   UNL     1      15.219  40.560  32.415  1.00  0.00     0.000 C 
BRANCH  19  20
ATOM     20  C   UNL     1      16.369  40.365  31.417  1.00  0.00     0.000 C 
BRANCH  20  21
ATOM     21  C   UNL     1      15.862  40.339  29.957  1.00  0.00     0.000 C 
BRANCH  21  22
ATOM     22  C   UNL     1      14.390  40.765  29.797  1.00  0.00    -0.000 C 
BRANCH  22  23
ATOM     23  C   UNL     1      13.921  40.966  28.346  1.00  0.00    -0.000 C 
BRANCH  23  24
ATOM     24  C   UNL     1      14.901  40.385  27.308  1.00  0.00    -0.000 C 
BRANCH  24  25
ATOM     25  C   UNL     1      14.471  38.990  26.821  1.00  0.00    -0.000 C 
BRANCH  25  26
ATOM     26  C   UNL     1      15.669  38.114  26.409  1.00  0.00    -0.000 C 
BRANCH  26  27
ATOM     27  C   UNL     1      16.450  37.581  27.632  1.00  0.00    -0.000 C 
BRANCH  27  28
ATOM     28  C   UNL     1      17.978  37.738  27.509  1.00  0.00    -0.000 C 
BRANCH  28  29
ATOM     29  C   UNL     1      18.766  36.419  27.541  1.00  0.00    -0.003 C 
ATOM     30  C   UNL     1      17.864  35.191  27.649  1.00  0.00     0.004 C 
ENDBRANCH  28  29
ENDBRANCH  27  28
ENDBRANCH  26  27
ENDBRANCH  25  26
ENDBRANCH  24  25
ENDBRANCH  23  24
ENDBRANCH  22  23
ENDBRANCH  21  22
ENDBRANCH  20  21
ENDBRANCH  19  20
ENDBRANCH  18  19
ENDBRANCH  17  18
ENDBRANCH   1  17
TORSDOF 26
ENDMDL
MODEL 2
REMARK VINA RESULT:    -4.357      1.457      2.997
REMARK INTER + INTRA:         -15.229
REMARK INTER:                 -10.549
REMARK INTRA:                  -4.679
REMARK UNBOUND:                -4.249
REMARK SMILES CCCCCCCCCCCCCCCCCCCCCCCCCCCC(=O)[O-]
REMARK SMILES IDX 15 1 16 2 17 3 18 4 19 5 20 6 21 7 22 8 23 9 24 10 25 11
REMARK SMILES IDX 26 12 27 13 28 14 29 15 30 16 14 17 13 18 12 19 11 20 10 21
REMARK SMILES IDX 9 22 8 23 7 24 6 25 5 26 4 27 3 28 2 29 1 30
REMARK H PARENT
REMARK Flexibility Score: inf
ROOT
ATOM      1  C   UNL     1      16.903  36.992  33.366  1.00  0.00     0.000 C 
ENDROOT
BRANCH   1   2
ATOM      2  C   UNL     1      17.016  38.341  34.102  1.00  0.00     0.000 C 
BRANCH   2   3
ATOM      3  C   UNL     1      17.877  38.247  35.370  1.00  0.00     0.000 C 
BRANCH   3   4
ATOM      4  C   UNL     1      18.724  39.511  35.594  1.00  0.00     0.000 C 
BRANCH   4   5
ATOM      5  C   UNL     1      19.026  40.244  34.276  1.00  0.00     0.000 C 
BRANCH   5   6
ATOM      6  C   UNL     1      20.530  40.410  34.016  1.00  0.00     0.000 C 
BRANCH   6   7
ATOM      7  C   UNL     1      21.119  39.264  33.172  1.00  0.00     0.000 C 
BRANCH   7   8
ATOM      8  C   UNL     1      22.075  38.369  33.990  1.00  0.00     0.000 C 
BRANCH   8   9
ATOM      9  C   UNL     1      21.412  37.083  34.514  1.00  0.00     0.000 C 
BRANCH   9  10
ATOM     10  C   UNL     1      21.391  37.006  36.049  1.00  0.00     0.000 C 
BRANCH  10  11
ATOM     11  C   UNL     1      22.237  38.114  36.697  1.00  0.00     0.000 C 
BRANCH  11  12
ATOM     12  C   UNL     1      21.568  38.698  37.955  1.00  0.00     0.006 C 
BRANCH  12  13
ATOM     13  C   UNL     1      20.945  37.610  38.842  1.00  0.00     0.053 C 
BRANCH  13  14
ATOM     14  C   UNL     1      19.717  38.095  39.548  1.00  0.00     0.041 C 
ATOM     15  O   UNL     1      18.650  38.287  38.908  1.00  0.00    -0.550 OA
ATOM     16  O   UNL     1      19.759  38.354  40.913  1.00  0.00    -0.550 OA
ENDBRANCH  13  14
ENDBRANCH  12  13
ENDBRANCH  11  12
ENDBRANCH  10  11
ENDBRANCH   9  10
ENDBRANCH   8   9
ENDBRANCH   7   8
ENDBRANCH   6   7
ENDBRANCH   5   6
ENDBRANCH   4   5
ENDBRANCH   3   4
ENDBRANCH   2   3
ENDBRANCH   1   2
BRANCH   1  17
ATOM     17  C   UNL     1      18.252  36.324  33.030  1.00  0.00     0.000 C 
BRANCH  17  18
ATOM     18  C   UNL     1      18.975  36.890  31.796  1.00  0.00     0.000 C 
BRANCH  18  19
ATOM     19  C   UNL     1      18.087  36.896  30.545  1.00  0.00     0.000 C 
BRANCH  19  20
ATOM     20  C   UNL     1      18.219  38.211  29.764  1.00  0.00     0.000 C 
BRANCH  20  21
ATOM     21  C   UNL     1      18.315  39.431  30.707  1.00  0.00     0.000 C 
BRANCH  21  22
ATOM     22  C   UNL     1      17.002  40.226  30.840  1.00  0.00    -0.000 C 
BRANCH  22  23
ATOM     23  C   UNL     1      16.143  40.288  29.565  1.00  0.00    -0.000 C 
BRANCH  23  24
ATOM     24  C   UNL     1      14.669  40.640  29.846  1.00  0.00    -0.000 C 
BRANCH  24  25
ATOM     25  C   UNL     1      13.817  40.636  28.566  1.00  0.00    -0.000 C 
BRANCH  25  26
ATOM     26  C   UNL     1      14.654  40.375  27.300  1.00  0.00    -0.000 C 
BRANCH  26  27
ATOM     27  C   UNL     1      14.381  38.977  26.699  1.00  0.00    -0.000 C 
BRANCH  27  28
ATOM     28  C   UNL     1      15.562  38.410  25.887  1.00  0.00    -0.000 C 
BRANCH  28  29
ATOM     29  C   UNL     1      16.936  38.989  26.257  1.00  0.00    -0.003 C 
ATOM     30  C   UNL     1      18.096  38.102  25.806  1.00  0.00     0.004 C 
ENDBRANCH  28  29
ENDBRANCH  27  28
ENDBRANCH  26  27
ENDBRANCH  25  26
ENDBRANCH  24  25
ENDBRANCH  23  24
ENDBRANCH  22  23
ENDBRANCH  21  22
ENDBRANCH  20  21
ENDBRANCH  19  20
ENDBRANCH  18  19
ENDBRANCH  17  18
ENDBRANCH   1  17
TORSDOF 26
ENDMDL
MODEL 3
REMARK VINA RESULT:    -4.354      3.798      8.138
REMARK INTER + INTRA:         -15.220
REMARK INTER:                 -10.494
REMARK INTRA:                  -4.726
REMARK UNBOUND:                -4.249
REMARK SMILES CCCCCCCCCCCCCCCCCCCCCCCCCCCC(=O)[O-]
REMARK SMILES IDX 15 1 16 2 17 3 18 4 19 5 20 6 21 7 22 8 23 9 24 10 25 11
REMARK SMILES IDX 26 12 27 13 28 14 29 15 30 16 14 17 13 18 12 19 11 20 10 21
REMARK SMILES IDX 9 22 8 23 7 24 6 25 5 26 4 27 3 28 2 29 1 30
REMARK H PARENT
REMARK Flexibility Score: inf
ROOT
ATOM      1  C   UNL     1      18.618  35.405  27.608  1.00  0.00     0.000 C 
ENDROOT
BRANCH   1   2
ATOM      2  C   UNL     1      18.642  36.933  27.420  1.00  0.00     0.000 C 
BRANCH   2   3
ATOM      3  C   UNL     1      17.345  37.468  26.796  1.00  0.00     0.000 C 
BRANCH   3   4
ATOM      4  C   UNL     1      16.093  36.813  27.403  1.00  0.00     0.000 C 
BRANCH   4   5
ATOM      5  C   UNL     1      14.821  37.154  26.610  1.00  0.00     0.000 C 
BRANCH   5   6
ATOM      6  C   UNL     1      14.721  38.644  26.252  1.00  0.00     0.000 C 
BRANCH   6   7
ATOM      7  C   UNL     1      14.260  39.512  27.438  1.00  0.00     0.000 C 
BRANCH   7   8
ATOM      8  C   UNL     1      14.992  40.871  27.485  1.00  0.00     0.000 C 
BRANCH   8   9
ATOM      9  C   UNL     1      16.386  40.794  28.131  1.00  0.00     0.000 C 
BRANCH   9  10
ATOM     10  C   UNL     1      16.375  40.073  29.488  1.00  0.00     0.000 C 
BRANCH  10  11
ATOM     11  C   UNL     1      17.759  39.515  29.859  1.00  0.00     0.000 C 
BRANCH  11  12
ATOM     12  C   UNL     1      17.729  38.703  31.167  1.00  0.00     0.006 C 
BRANCH  12  13
ATOM     13  C   UNL     1      18.167  37.246  30.958  1.00  0.00     0.053 C 
BRANCH  13  14
ATOM     14  C   UNL     1      19.589  37.022  31.371  1.00  0.00     0.041 C 
ATOM     15  O   UNL     1      19.892  36.949  32.591  1.00  0.00    -0.550 OA
ATOM     16  O   UNL     1      20.583  36.915  30.405  1.00  0.00    -0.550 OA
ENDBRANCH  13  14
ENDBRANCH  12  13
ENDBRANCH  11  12
ENDBRANCH  10  11
ENDBRANCH   9  10
ENDBRANCH   8   9
ENDBRANCH   7   8
ENDBRANCH   6   7
ENDBRANCH   5   6
ENDBRANCH   4   5
ENDBRANCH   3   4
ENDBRANCH   2   3
ENDBRANCH   1   2
BRANCH   1  17
ATOM     17  C   UNL     1      19.623  34.629  26.732  1.00  0.00     0.000 C 
BRANCH  17  18
ATOM     18  C   UNL     1      19.758  35.134  25.285  1.00  0.00     0.000 C 
BRANCH  18  19
ATOM     19  C   UNL     1      20.575  34.179  24.404  1.00  0.00     0.000 C 
BRANCH  19  20
ATOM     20  C   UNL     1      20.978  32.910  25.169  1.00  0.00     0.000 C 
BRANCH  20  21
ATOM     21  C   UNL     1      20.957  31.662  24.258  1.00  0.00     0.000 C 
BRANCH  21  22
ATOM     22  C   UNL     1      19.637  30.869  24.311  1.00  0.00    -0.000 C 
BRANCH  22  23
ATOM     23  C   UNL     1      18.746  31.163  25.531  1.00  0.00    -0.000 C 
BRANCH  23  24
ATOM     24  C   UNL     1      17.241  31.138  25.199  1.00  0.00    -0.000 C 
BRANCH  24  25
ATOM     25  C   UNL     1      16.795  32.395  24.433  1.00  0.00    -0.000 C 
BRANCH  25  26
ATOM     26  C   UNL     1      16.405  33.551  25.372  1.00  0.00    -0.000 C 
BRANCH  26  27
ATOM     27  C   UNL     1      14.934  33.454  25.837  1.00  0.00    -0.000 C 
BRANCH  27  28
ATOM     28  C   UNL     1      14.772  33.297  27.361  1.00  0.00    -0.000 C 
BRANCH  28  29
ATOM     29  C   UNL     1      14.129  31.975  27.808  1.00  0.00    -0.003 C 
ATOM     30  C   UNL     1      13.758  31.068  26.636  1.00  0.00     0.004 C 
ENDBRANCH  28  29
ENDBRANCH  27  28
ENDBRANCH  26  27
ENDBRANCH  25  26
ENDBRANCH  24  25
ENDBRANCH  23  24
ENDBRANCH  22  23
ENDBRANCH  21  22
ENDBRANCH  20  21
ENDBRANCH  19  20
ENDBRANCH  18  19
ENDBRANCH  17  18
ENDBRANCH   1  17
TORSDOF 26
ENDMDL
MODEL 4
REMARK VINA RESULT:    -4.333      1.361      2.515
REMARK INTER + INTRA:         -15.169
REMARK INTER:                 -10.782
REMARK INTRA:                  -4.387
REMARK UNBOUND:                -4.249
REMARK SMILES CCCCCCCCCCCCCCCCCCCCCCCCCCCC(=O)[O-]
REMARK SMILES IDX 15 1 16 2 17 3 18 4 19 5 20 6 21 7 22 8 23 9 24 10 25 11
REMARK SMILES IDX 26 12 27 13 28 14 29 15 30 16 14 17 13 18 12 19 11 20 10 21
REMARK SMILES IDX 9 22 8 23 7 24 6 25 5 26 4 27 3 28 2 29 1 30
REMARK H PARENT
REMARK Flexibility Score: inf
ROOT
ATOM      1  C   UNL     1      17.750  36.016  32.442  1.00  0.00     0.000 C 
ENDROOT
BRANCH   1   2
ATOM      2  C   UNL     1      18.497  36.688  33.608  1.00  0.00     0.000 C 
BRANCH   2   3
ATOM      3  C   UNL     1      17.718  37.872  34.201  1.00  0.00     0.000 C 
BRANCH   3   4
ATOM      4  C   UNL     1      18.265  38.301  35.572  1.00  0.00     0.000 C 
BRANCH   4   5
ATOM      5  C   UNL     1      19.082  39.601  35.487  1.00  0.00     0.000 C 
BRANCH   5   6
ATOM      6  C   UNL     1      19.459  39.976  34.047  1.00  0.00     0.000 C 
BRANCH   6   7
ATOM      7  C   UNL     1      20.934  39.675  33.720  1.00  0.00     0.000 C 
BRANCH   7   8
ATOM      8  C   UNL     1      21.638  38.902  34.855  1.00  0.00     0.000 C 
BRANCH   8   9
ATOM      9  C   UNL     1      21.699  37.383  34.615  1.00  0.00     0.000 C 
BRANCH   9  10
ATOM     10  C   UNL     1      22.018  36.589  35.892  1.00  0.00     0.000 C 
BRANCH  10  11
ATOM     11  C   UNL     1      22.442  37.503  37.053  1.00  0.00     0.000 C 
BRANCH  11  12
ATOM     12  C   UNL     1      21.819  37.072  38.393  1.00  0.00     0.006 C 
BRANCH  12  13
ATOM     13  C   UNL     1      20.287  36.986  38.321  1.00  0.00     0.053 C 
BRANCH  13  14
ATOM     14  C   UNL     1      19.625  38.020  39.179  1.00  0.00     0.041 C 
ATOM     15  O   UNL     1      18.793  37.677  40.059  1.00  0.00    -0.550 OA
ATOM     16  O   UNL     1      19.916  39.367  38.991  1.00  0.00    -0.550 OA
ENDBRANCH  13  14
ENDBRANCH  12  13
ENDBRANCH  11  12
ENDBRANCH  10  11
ENDBRANCH   9  10
ENDBRANCH   8   9
ENDBRANCH   7   8
ENDBRANCH   6   7
ENDBRANCH   5   6
ENDBRANCH   4   5
ENDBRANCH   3   4
ENDBRANCH   2   3
ENDBRANCH   1   2
BRANCH   1  17
ATOM     17  C   UNL     1      17.845  36.762  31.096  1.00  0.00     0.000 C 
BRANCH  17  18
ATOM     18  C   UNL     1      19.185  37.472  30.832  1.00  0.00     0.000 C 
BRANCH  18  19
ATOM     19  C   UNL     1      19.007  38.964  30.523  1.00  0.00     0.000 C 
BRANCH  19  20
ATOM     20  C   UNL     1      17.544  39.403  30.677  1.00  0.00     0.000 C 
BRANCH  20  21
ATOM     21  C   UNL     1      17.087  40.294  29.499  1.00  0.00     0.000 C 
BRANCH  21  22
ATOM     22  C   UNL     1      15.557  40.400  29.351  1.00  0.00    -0.000 C 
BRANCH  22  23
ATOM     23  C   UNL     1      15.060  40.768  27.942  1.00  0.00    -0.000 C 
BRANCH  23  24
ATOM     24  C   UNL     1      14.330  39.608  27.237  1.00  0.00    -0.000 C 
BRANCH  24  25
ATOM     25  C   UNL     1      15.236  38.879  26.230  1.00  0.00    -0.000 C 
BRANCH  25  26
ATOM     26  C   UNL     1      15.413  37.387  26.568  1.00  0.00    -0.000 C 
BRANCH  26  27
ATOM     27  C   UNL     1      16.491  37.159  27.652  1.00  0.00    -0.000 C 
BRANCH  27  28
ATOM     28  C   UNL     1      17.910  37.570  27.214  1.00  0.00    -0.000 C 
BRANCH  28  29
ATOM     29  C   UNL     1      18.785  36.416  26.700  1.00  0.00    -0.003 C 
ATOM     30  C   UNL     1      19.074  35.366  27.772  1.00  0.00     0.004 C 
ENDBRANCH  28  29
ENDBRANCH  27  28
ENDBRANCH  26  27
ENDBRANCH  25  26
ENDBRANCH  24  25
ENDBRANCH  23  24
ENDBRANCH  22  23
ENDBRANCH  21  22
ENDBRANCH  20  21
ENDBRANCH  19  20
ENDBRANCH  18  19
ENDBRANCH  17  18
ENDBRANCH   1  17
TORSDOF 26
ENDMDL
MODEL 5
REMARK VINA RESULT:    -4.323      3.393      7.616
REMARK INTER + INTRA:         -15.144
REMARK INTER:                 -10.183
REMARK INTRA:                  -4.961
REMARK UNBOUND:                -4.249
REMARK SMILES CCCCCCCCCCCCCCCCCCCCCCCCCCCC(=O)[O-]
REMARK SMILES IDX 15 1 16 2 17 3 18 4 19 5 20 6 21 7 22 8 23 9 24 10 25 11
REMARK SMILES IDX 26 12 27 13 28 14 29 15 30 16 14 17 13 18 12 19 11 20 10 21
REMARK SMILES IDX 9 22 8 23 7 24 6 25 5 26 4 27 3 28 2 29 1 30
REMARK H PARENT
REMARK Flexibility Score: inf
ROOT
ATOM      1  C   UNL     1      15.954  40.145  32.013  1.00  0.00     0.000 C 
ENDROOT
BRANCH   1   2
ATOM      2  C   UNL     1      17.122  40.564  31.101  1.00  0.00     0.000 C 
BRANCH   2   3
ATOM      3  C   UNL     1      16.812  40.344  29.613  1.00  0.00     0.000 C 
BRANCH   3   4
ATOM      4  C   UNL     1      15.308  40.440  29.310  1.00  0.00     0.000 C 
BRANCH   4   5
ATOM      5  C   UNL     1      15.036  40.787  27.837  1.00  0.00     0.000 C 
BRANCH   5   6
ATOM      6  C   UNL     1      16.320  41.060  27.041  1.00  0.00     0.000 C 
BRANCH   6   7
ATOM      7  C   UNL     1      16.370  40.293  25.707  1.00  0.00     0.000 C 
BRANCH   7   8
ATOM      8  C   UNL     1      16.688  38.795  25.907  1.00  0.00     0.000 C 
BRANCH   8   9
ATOM      9  C   UNL     1      18.067  38.542  26.541  1.00  0.00     0.000 C 
BRANCH   9  10
ATOM     10  C   UNL     1      18.057  37.382  27.549  1.00  0.00     0.000 C 
BRANCH  10  11
ATOM     11  C   UNL     1      16.631  36.999  27.979  1.00  0.00     0.000 C 
BRANCH  11  12
ATOM     12  C   UNL     1      16.535  35.534  28.442  1.00  0.00     0.006 C 
BRANCH  12  13
ATOM     13  C   UNL     1      15.375  34.786  27.770  1.00  0.00     0.053 C 
BRANCH  13  14
ATOM     14  C   UNL     1      14.748  33.782  28.687  1.00  0.00     0.041 C 
ATOM     15  O   UNL     1      15.031  33.777  29.914  1.00  0.00    -0.550 OA
ATOM     16  O   UNL     1      13.864  32.837  28.179  1.00  0.00    -0.550 OA
ENDBRANCH  13  14
ENDBRANCH  12  13
ENDBRANCH  11  12
ENDBRANCH  10  11
ENDBRANCH   9  10
ENDBRANCH   8   9
ENDBRANCH   7   8
ENDBRANCH   6   7
ENDBRANCH   5   6
ENDBRANCH   4   5
ENDBRANCH   3   4
ENDBRANCH   2   3
ENDBRANCH   1   2
BRANCH   1  17
ATOM     17  C   UNL     1      16.182  40.404  33.517  1.00  0.00     0.000 C 
BRANCH  17  18
ATOM     18  C   UNL     1      17.630  40.741  33.913  1.00  0.00     0.000 C 
BRANCH  18  19
ATOM     19  C   UNL     1      18.191  39.775  34.964  1.00  0.00     0.000 C 
BRANCH  19  20
ATOM     20  C   UNL     1      17.414  38.452  34.987  1.00  0.00     0.000 C 
BRANCH  20  21
ATOM     21  C   UNL     1      18.094  37.372  34.114  1.00  0.00     0.000 C 
BRANCH  21  22
ATOM     22  C   UNL     1      17.202  36.830  32.981  1.00  0.00    -0.000 C 
BRANCH  22  23
ATOM     23  C   UNL     1      17.948  36.430  31.696  1.00  0.00    -0.000 C 
BRANCH  23  24
ATOM     24  C   UNL     1      18.913  37.522  31.194  1.00  0.00    -0.000 C 
BRANCH  24  25
ATOM     25  C   UNL     1      20.348  36.994  31.024  1.00  0.00    -0.000 C 
BRANCH  25  26
ATOM     26  C   UNL     1      21.411  38.066  31.330  1.00  0.00    -0.000 C 
BRANCH  26  27
ATOM     27  C   UNL     1      21.059  38.893  32.587  1.00  0.00    -0.000 C 
BRANCH  27  28
ATOM     28  C   UNL     1      22.133  38.831  33.692  1.00  0.00    -0.000 C 
BRANCH  28  29
ATOM     29  C   UNL     1      21.630  38.318  35.051  1.00  0.00    -0.003 C 
ATOM     30  C   UNL     1      21.604  36.793  35.137  1.00  0.00     0.004 C 
ENDBRANCH  28  29
ENDBRANCH  27  28
ENDBRANCH  26  27
ENDBRANCH  25  26
ENDBRANCH  24  25
ENDBRANCH  23  24
ENDBRANCH  22  23
ENDBRANCH  21  22
ENDBRANCH  20  21
ENDBRANCH  19  20
ENDBRANCH  18  19
ENDBRANCH  17  18
ENDBRANCH   1  17
TORSDOF 26
ENDMDL
MODEL 6
REMARK VINA RESULT:    -4.299      3.507      7.722
REMARK INTER + INTRA:         -15.081
REMARK INTER:                 -10.702
REMARK INTRA:                  -4.379
REMARK UNBOUND:                -4.249
REMARK SMILES CCCCCCCCCCCCCCCCCCCCCCCCCCCC(=O)[O-]
REMARK SMILES IDX 15 1 16 2 17 3 18 4 19 5 20 6 21 7 22 8 23 9 24 10 25 11
REMARK SMILES IDX 26 12 27 13 28 14 29 15 30 16 14 17 13 18 12 19 11 20 10 21
REMARK SMILES IDX 9 22 8 23 7 24 6 25 5 26 4 27 3 28 2 29 1 30
REMARK H PARENT
REMARK Flexibility Score: inf
ROOT
ATOM      1  C   UNL     1      16.951  35.144  28.030  1.00  0.00     0.000 C 
ENDROOT
BRANCH   1   2
ATOM      2  C   UNL     1      15.900  36.191  27.617  1.00  0.00     0.000 C 
BRANCH   2   3
ATOM      3  C   UNL     1      15.666  36.221  26.099  1.00  0.00     0.000 C 
BRANCH   3   4
ATOM      4  C   UNL     1      14.673  37.319  25.685  1.00  0.00     0.000 C 
BRANCH   4   5
ATOM      5  C   UNL     1      14.663  38.493  26.677  1.00  0.00     0.000 C 
BRANCH   5   6
ATOM      6  C   UNL     1      15.512  39.682  26.206  1.00  0.00     0.000 C 
BRANCH   6   7
ATOM      7  C   UNL     1      15.463  40.874  27.180  1.00  0.00     0.000 C 
BRANCH   7   8
ATOM      8  C   UNL     1      15.446  40.421  28.656  1.00  0.00     0.000 C 
BRANCH   8   9
ATOM      9  C   UNL     1      16.845  40.353  29.292  1.00  0.00     0.000 C 
BRANCH   9  10
ATOM     10  C   UNL     1      17.336  38.913  29.503  1.00  0.00     0.000 C 
BRANCH  10  11
ATOM     11  C   UNL     1      18.825  38.857  29.883  1.00  0.00     0.000 C 
BRANCH  11  12
ATOM     12  C   UNL     1      19.044  38.311  31.306  1.00  0.00     0.006 C 
BRANCH  12  13
ATOM     13  C   UNL     1      17.732  37.860  31.964  1.00  0.00     0.053 C 
BRANCH  13  14
ATOM     14  C   UNL     1      17.808  36.448  32.457  1.00  0.00     0.041 C 
ATOM     15  O   UNL     1      17.005  35.580  32.023  1.00  0.00    -0.550 OA
ATOM     16  O   UNL     1      18.754  36.096  33.412  1.00  0.00    -0.550 OA
ENDBRANCH  13  14
ENDBRANCH  12  13
ENDBRANCH  11  12
ENDBRANCH  10  11
ENDBRANCH   9  10
ENDBRANCH   8   9
ENDBRANCH   7   8
ENDBRANCH   6   7
ENDBRANCH   5   6
ENDBRANCH   4   5
ENDBRANCH   3   4
ENDBRANCH   2   3
ENDBRANCH   1   2
BRANCH   1  17
ATOM     17  C   UNL     1      18.401  35.668  28.080  1.00  0.00     0.000 C 
BRANCH  17  18
ATOM     18  C   UNL     1      19.380  34.984  27.110  1.00  0.00     0.000 C 
BRANCH  18  19
ATOM     19  C   UNL     1      19.350  35.609  25.709  1.00  0.00     0.000 C 
BRANCH  19  20
ATOM     20  C   UNL     1      20.127  34.759  24.693  1.00  0.00     0.000 C 
BRANCH  20  21
ATOM     21  C   UNL     1      20.787  33.531  25.361  1.00  0.00     0.000 C 
BRANCH  21  22
ATOM     22  C   UNL     1      21.253  32.452  24.364  1.00  0.00    -0.000 C 
BRANCH  22  23
ATOM     23  C   UNL     1      20.500  31.114  24.450  1.00  0.00    -0.000 C 
BRANCH  23  24
ATOM     24  C   UNL     1      19.576  31.018  25.680  1.00  0.00    -0.000 C 
BRANCH  24  25
ATOM     25  C   UNL     1      18.088  31.006  25.290  1.00  0.00    -0.000 C 
BRANCH  25  26
ATOM     26  C   UNL     1      17.356  32.290  25.720  1.00  0.00    -0.000 C 
BRANCH  26  27
ATOM     27  C   UNL     1      16.359  32.781  24.645  1.00  0.00    -0.000 C 
BRANCH  27  28
ATOM     28  C   UNL     1      14.885  32.719  25.089  1.00  0.00    -0.000 C 
BRANCH  28  29
ATOM     29  C   UNL     1      14.675  32.489  26.594  1.00  0.00    -0.003 C 
ATOM     30  C   UNL     1      13.493  33.277  27.156  1.00  0.00     0.004 C 
ENDBRANCH  28  29
ENDBRANCH  27  28
ENDBRANCH  26  27
ENDBRANCH  25  26
ENDBRANCH  24  25
ENDBRANCH  23  24
ENDBRANCH  22  23
ENDBRANCH  21  22
ENDBRANCH  20  21
ENDBRANCH  19  20
ENDBRANCH  18  19
ENDBRANCH  17  18
ENDBRANCH   1  17
TORSDOF 26
ENDMDL
MODEL 7
REMARK VINA RESULT:    -4.280      1.444      3.247
REMARK INTER + INTRA:         -15.033
REMARK INTER:                 -10.058
REMARK INTRA:                  -4.976
REMARK UNBOUND:                -4.249
REMARK SMILES CCCCCCCCCCCCCCCCCCCCCCCCCCCC(=O)[O-]
REMARK SMILES IDX 15 1 16 2 17 3 18 4 19 5 20 6 21 7 22 8 23 9 24 10 25 11
REMARK SMILES IDX 26 12 27 13 28 14 29 15 30 16 14 17 13 18 12 19 11 20 10 21
REMARK SMILES IDX 9 22 8 23 7 24 6 25 5 26 4 27 3 28 2 29 1 30
REMARK H PARENT
REMARK Flexibility Score: inf
ROOT
ATOM      1  C   UNL     1      19.031  37.078  30.523  1.00  0.00     0.000 C 
ENDROOT
BRANCH   1   2
ATOM      2  C   UNL     1      20.466  37.118  31.081  1.00  0.00     0.000 C 
BRANCH   2   3
ATOM      3  C   UNL     1      20.502  37.027  32.614  1.00  0.00     0.000 C 
BRANCH   3   4
ATOM      4  C   UNL     1      21.265  38.202  33.249  1.00  0.00     0.000 C 
BRANCH   4   5
ATOM      5  C   UNL     1      21.038  39.518  32.487  1.00  0.00     0.000 C 
BRANCH   5   6
ATOM      6  C   UNL     1      20.041  40.450  33.189  1.00  0.00     0.000 C 
BRANCH   6   7
ATOM      7  C   UNL     1      18.701  40.564  32.439  1.00  0.00     0.000 C 
BRANCH   7   8
ATOM      8  C   UNL     1      17.675  39.511  32.913  1.00  0.00     0.000 C 
BRANCH   8   9
ATOM      9  C   UNL     1      17.299  39.649  34.398  1.00  0.00     0.000 C 
BRANCH   9  10
ATOM     10  C   UNL     1      17.307  38.306  35.143  1.00  0.00     0.000 C 
BRANCH  10  11
ATOM     11  C   UNL     1      18.690  37.973  35.726  1.00  0.00     0.000 C 
BRANCH  11  12
ATOM     12  C   UNL     1      19.266  39.133  36.559  1.00  0.00     0.006 C 
BRANCH  12  13
ATOM     13  C   UNL     1      20.196  38.640  37.678  1.00  0.00     0.053 C 
BRANCH  13  14
ATOM     14  C   UNL     1      19.547  38.721  39.025  1.00  0.00     0.041 C 
ATOM     15  O   UNL     1      19.987  39.517  39.895  1.00  0.00    -0.550 OA
ATOM     16  O   UNL     1      18.466  37.899  39.324  1.00  0.00    -0.550 OA
ENDBRANCH  13  14
ENDBRANCH  12  13
ENDBRANCH  11  12
ENDBRANCH  10  11
ENDBRANCH   9  10
ENDBRANCH   8   9
ENDBRANCH   7   8
ENDBRANCH   6   7
ENDBRANCH   5   6
ENDBRANCH   4   5
ENDBRANCH   3   4
ENDBRANCH   2   3
ENDBRANCH   1   2
BRANCH   1  17
ATOM     17  C   UNL     1      18.723  38.145  29.452  1.00  0.00     0.000 C 
BRANCH  17  18
ATOM     18  C   UNL     1      17.252  38.588  29.371  1.00  0.00     0.000 C 
BRANCH  18  19
ATOM     19  C   UNL     1      17.105  40.073  29.016  1.00  0.00     0.000 C 
BRANCH  19  20
ATOM     20  C   UNL     1      15.642  40.531  29.094  1.00  0.00     0.000 C 
BRANCH  20  21
ATOM     21  C   UNL     1      15.011  40.676  27.691  1.00  0.00     0.000 C 
BRANCH  21  22
ATOM     22  C   UNL     1      14.263  39.418  27.208  1.00  0.00    -0.000 C 
BRANCH  22  23
ATOM     23  C   UNL     1      15.067  38.496  26.276  1.00  0.00    -0.000 C 
BRANCH  23  24
ATOM     24  C   UNL     1      16.068  39.260  25.387  1.00  0.00    -0.000 C 
BRANCH  24  25
ATOM     25  C   UNL     1      17.188  38.348  24.858  1.00  0.00    -0.000 C 
BRANCH  25  26
ATOM     26  C   UNL     1      18.314  38.139  25.888  1.00  0.00    -0.000 C 
BRANCH  26  27
ATOM     27  C   UNL     1      18.789  36.669  25.942  1.00  0.00    -0.000 C 
BRANCH  27  28
ATOM     28  C   UNL     1      17.645  35.653  26.122  1.00  0.00    -0.000 C 
BRANCH  28  29
ATOM     29  C   UNL     1      17.469  35.127  27.556  1.00  0.00    -0.003 C 
ATOM     30  C   UNL     1      16.067  35.369  28.110  1.00  0.00     0.004 C 
ENDBRANCH  28  29
ENDBRANCH  27  28
ENDBRANCH  26  27
ENDBRANCH  25  26
ENDBRANCH  24  25
ENDBRANCH  23  24
ENDBRANCH  22  23
ENDBRANCH  21  22
ENDBRANCH  20  21
ENDBRANCH  19  20
ENDBRANCH  18  19
ENDBRANCH  17  18
ENDBRANCH   1  17
TORSDOF 26
ENDMDL
MODEL 8
REMARK VINA RESULT:    -4.280      3.705      7.989
REMARK INTER + INTRA:         -15.033
REMARK INTER:                 -10.402
REMARK INTRA:                  -4.632
REMARK UNBOUND:                -4.249
REMARK SMILES CCCCCCCCCCCCCCCCCCCCCCCCCCCC(=O)[O-]
REMARK SMILES IDX 15 1 16 2 17 3 18 4 19 5 20 6 21 7 22 8 23 9 24 10 25 11
REMARK SMILES IDX 26 12 27 13 28 14 29 15 30 16 14 17 13 18 12 19 11 20 10 21
REMARK SMILES IDX 9 22 8 23 7 24 6 25 5 26 4 27 3 28 2 29 1 30
REMARK H PARENT
REMARK Flexibility Score: inf
ROOT
ATOM      1  C   UNL     1      16.620  40.406  31.149  1.00  0.00     0.000 C 
ENDROOT
BRANCH   1   2
ATOM      2  C   UNL     1      15.881  40.369  29.799  1.00  0.00     0.000 C 
BRANCH   2   3
ATOM      3  C   UNL     1      14.394  40.728  29.934  1.00  0.00     0.000 C 
BRANCH   3   4
ATOM      4  C   UNL     1      13.688  40.807  28.570  1.00  0.00     0.000 C 
BRANCH   4   5
ATOM      5  C   UNL     1      14.658  40.563  27.402  1.00  0.00     0.000 C 
BRANCH   5   6
ATOM      6  C   UNL     1      14.556  39.143  26.828  1.00  0.00     0.000 C 
BRANCH   6   7
ATOM      7  C   UNL     1      15.525  38.903  25.655  1.00  0.00     0.000 C 
BRANCH   7   8
ATOM      8  C   UNL     1      16.739  38.042  26.066  1.00  0.00     0.000 C 
BRANCH   8   9
ATOM      9  C   UNL     1      17.815  38.828  26.834  1.00  0.00     0.000 C 
BRANCH   9  10
ATOM     10  C   UNL     1      18.185  38.180  28.177  1.00  0.00     0.000 C 
BRANCH  10  11
ATOM     11  C   UNL     1      17.215  37.051  28.562  1.00  0.00     0.000 C 
BRANCH  11  12
ATOM     12  C   UNL     1      17.928  35.694  28.707  1.00  0.00     0.006 C 
BRANCH  12  13
ATOM     13  C   UNL     1      19.355  35.722  28.140  1.00  0.00     0.053 C 
BRANCH  13  14
ATOM     14  C   UNL     1      19.434  35.095  26.783  1.00  0.00     0.041 C 
ATOM     15  O   UNL     1      19.539  35.815  25.755  1.00  0.00    -0.550 OA
ATOM     16  O   UNL     1      19.370  33.712  26.654  1.00  0.00    -0.550 OA
ENDBRANCH  13  14
ENDBRANCH  12  13
ENDBRANCH  11  12
ENDBRANCH  10  11
ENDBRANCH   9  10
ENDBRANCH   8   9
ENDBRANCH   7   8
ENDBRANCH   6   7
ENDBRANCH   5   6
ENDBRANCH   4   5
ENDBRANCH   3   4
ENDBRANCH   2   3
ENDBRANCH   1   2
BRANCH   1  17
ATOM     17  C   UNL     1      15.708  40.315  32.389  1.00  0.00     0.000 C 
BRANCH  17  18
ATOM     18  C   UNL     1      16.063  39.197  33.385  1.00  0.00     0.000 C 
BRANCH  18  19
ATOM     19  C   UNL     1      17.156  39.620  34.376  1.00  0.00     0.000 C 
BRANCH  19  20
ATOM     20  C   UNL     1      17.580  38.454  35.280  1.00  0.00     0.000 C 
BRANCH  20  21
ATOM     21  C   UNL     1      18.680  38.877  36.281  1.00  0.00     0.000 C 
BRANCH  21  22
ATOM     22  C   UNL     1      19.736  37.788  36.548  1.00  0.00    -0.000 C 
BRANCH  22  23
ATOM     23  C   UNL     1      20.764  37.583  35.422  1.00  0.00    -0.000 C 
BRANCH  23  24
ATOM     24  C   UNL     1      21.211  38.904  34.765  1.00  0.00    -0.000 C 
BRANCH  24  25
ATOM     25  C   UNL     1      22.306  38.685  33.707  1.00  0.00    -0.000 C 
BRANCH  25  26
ATOM     26  C   UNL     1      21.740  38.631  32.275  1.00  0.00    -0.000 C 
BRANCH  26  27
ATOM     27  C   UNL     1      20.299  39.183  32.196  1.00  0.00    -0.000 C 
BRANCH  27  28
ATOM     28  C   UNL     1      19.274  38.167  31.656  1.00  0.00    -0.000 C 
BRANCH  28  29
ATOM     29  C   UNL     1      19.517  36.713  32.089  1.00  0.00    -0.003 C 
ATOM     30  C   UNL     1      18.330  36.109  32.837  1.00  0.00     0.004 C 
ENDBRANCH  28  29
ENDBRANCH  27  28
ENDBRANCH  26  27
ENDBRANCH  25  26
ENDBRANCH  24  25
ENDBRANCH  23  24
ENDBRANCH  22  23
ENDBRANCH  21  22
ENDBRANCH  20  21
ENDBRANCH  19  20
ENDBRANCH  18  19
ENDBRANCH  17  18
ENDBRANCH   1  17
TORSDOF 26
ENDMDL
MODEL 9
REMARK VINA RESULT:    -4.211      4.217      8.345
REMARK INTER + INTRA:         -14.860
REMARK INTER:                  -9.904
REMARK INTRA:                  -4.955
REMARK UNBOUND:                -4.249
REMARK SMILES CCCCCCCCCCCCCCCCCCCCCCCCCCCC(=O)[O-]
REMARK SMILES IDX 15 1 16 2 17 3 18 4 19 5 20 6 21 7 22 8 23 9 24 10 25 11
REMARK SMILES IDX 26 12 27 13 28 14 29 15 30 16 14 17 13 18 12 19 11 20 10 21
REMARK SMILES IDX 9 22 8 23 7 24 6 25 5 26 4 27 3 28 2 29 1 30
REMARK H PARENT
REMARK Flexibility Score: inf
ROOT
ATOM      1  C   UNL     1      17.998  36.935  26.870  1.00  0.00     0.000 C 
ENDROOT
BRANCH   1   2
ATOM      2  C   UNL     1      19.004  35.821  26.528  1.00  0.00     0.000 C 
BRANCH   2   3
ATOM      3  C   UNL     1      19.390  35.815  25.041  1.00  0.00     0.000 C 
BRANCH   3   4
ATOM      4  C   UNL     1      20.216  34.575  24.659  1.00  0.00     0.000 C 
BRANCH   4   5
ATOM      5  C   UNL     1      20.469  33.655  25.865  1.00  0.00     0.000 C 
BRANCH   5   6
ATOM      6  C   UNL     1      20.531  32.170  25.481  1.00  0.00     0.000 C 
BRANCH   6   7
ATOM      7  C   UNL     1      19.204  31.432  25.737  1.00  0.00     0.000 C 
BRANCH   7   8
ATOM      8  C   UNL     1      18.401  31.208  24.437  1.00  0.00     0.000 C 
BRANCH   8   9
ATOM      9  C   UNL     1      17.294  32.252  24.215  1.00  0.00     0.000 C 
BRANCH   9  10
ATOM     10  C   UNL     1      16.792  32.878  25.525  1.00  0.00     0.000 C 
BRANCH  10  11
ATOM     11  C   UNL     1      15.998  34.172  25.284  1.00  0.00     0.000 C 
BRANCH  11  12
ATOM     12  C   UNL     1      14.823  34.329  26.267  1.00  0.00     0.006 C 
BRANCH  12  13
ATOM     13  C   UNL     1      15.297  34.521  27.714  1.00  0.00     0.053 C 
BRANCH  13  14
ATOM     14  C   UNL     1      14.567  33.628  28.669  1.00  0.00     0.041 C 
ATOM     15  O   UNL     1      14.911  33.575  29.879  1.00  0.00    -0.550 OA
ATOM     16  O   UNL     1      13.518  32.837  28.214  1.00  0.00    -0.550 OA
ENDBRANCH  13  14
ENDBRANCH  12  13
ENDBRANCH  11  12
ENDBRANCH  10  11
ENDBRANCH   9  10
ENDBRANCH   8   9
ENDBRANCH   7   8
ENDBRANCH   6   7
ENDBRANCH   5   6
ENDBRANCH   4   5
ENDBRANCH   3   4
ENDBRANCH   2   3
ENDBRANCH   1   2
BRANCH   1  17
ATOM     17  C   UNL     1      18.219  38.261  26.114  1.00  0.00     0.000 C 
BRANCH  17  18
ATOM     18  C   UNL     1      16.957  38.877  25.484  1.00  0.00     0.000 C 
BRANCH  18  19
ATOM     19  C   UNL     1      15.910  37.818  25.114  1.00  0.00     0.000 C 
BRANCH  19  20
ATOM     20  C   UNL     1      14.517  38.193  25.638  1.00  0.00     0.000 C 
BRANCH  20  21
ATOM     21  C   UNL     1      14.532  38.464  27.160  1.00  0.00     0.000 C 
BRANCH  21  22
ATOM     22  C   UNL     1      14.087  39.887  27.548  1.00  0.00    -0.000 C 
BRANCH  22  23
ATOM     23  C   UNL     1      15.176  40.759  28.196  1.00  0.00    -0.000 C 
BRANCH  23  24
ATOM     24  C   UNL     1      16.051  39.985  29.200  1.00  0.00    -0.000 C 
BRANCH  24  25
ATOM     25  C   UNL     1      17.535  40.379  29.102  1.00  0.00    -0.000 C 
BRANCH  25  26
ATOM     26  C   UNL     1      18.365  39.855  30.288  1.00  0.00    -0.000 C 
BRANCH  26  27
ATOM     27  C   UNL     1      17.732  38.602  30.935  1.00  0.00    -0.000 C 
BRANCH  27  28
ATOM     28  C   UNL     1      18.175  37.277  30.285  1.00  0.00    -0.000 C 
BRANCH  28  29
ATOM     29  C   UNL     1      19.696  37.059  30.239  1.00  0.00    -0.003 C 
ATOM     30  C   UNL     1      20.330  36.996  31.627  1.00  0.00     0.004 C 
ENDBRANCH  28  29
ENDBRANCH  27  28
ENDBRANCH  26  27
ENDBRANCH  25  26
ENDBRANCH  24  25
ENDBRANCH  23  24
ENDBRANCH  22  23
ENDBRANCH  21  22
ENDBRANCH  20  21
ENDBRANCH  19  20
ENDBRANCH  18  19
ENDBRANCH  17  18
ENDBRANCH   1  17
TORSDOF 26
ENDMDL
