MODEL 1
REMARK VINA RESULT:    -2.533      0.000      0.000
REMARK INTER + INTRA:          -2.533
REMARK INTER:                  -2.533
REMARK INTRA:                   0.000
REMARK UNBOUND:                 0.000
REMARK SMILES CC(=O)[O-]
REMARK SMILES IDX 1 1 2 2 3 3 4 4
REMARK H PARENT
REMARK Flexibility Score: inf
ROOT
ATOM      1  C   UNL     1      -1.800 -78.125   1.554  1.00  0.00     0.063 C 
ATOM      2  C   UNL     1      -0.573 -77.727   2.303  1.00  0.00     0.038 C 
ATOM      3  O   UNL     1       0.504 -77.521   1.685  1.00  0.00    -0.550 OA
ATOM      4  O   UNL     1      -0.602 -77.636   3.688  1.00  0.00    -0.550 OA
ENDROOT
TORSDOF 0
ENDMDL
MODEL 2
REMARK VINA RESULT:    -2.389     14.317     14.788
REMARK INTER + INTRA:          -2.389
REMARK INTER:                  -2.389
REMARK INTRA:                   0.000
REMARK UNBOUND:                 0.000
REMARK SMILES CC(=O)[O-]
REMARK SMILES IDX 1 1 2 2 3 3 4 4
REMARK H PARENT
REMARK Flexibility Score: inf
ROOT
ATOM      1  C   UNL     1      -4.062 -72.811 -12.009  1.00  0.00     0.063 C 
ATOM      2  C   UNL     1      -4.075 -74.207 -11.487  1.00  0.00     0.038 C 
ATOM      3  O   UNL     1      -3.013 -74.732 -11.062  1.00  0.00    -0.550 OA
ATOM      4  O   UNL     1      -5.247 -74.951 -11.518  1.00  0.00    -0.550 OA
ENDROOT
TORSDOF 0
ENDMDL
MODEL 3
REMARK VINA RESULT:    -2.377     14.339     14.779
REMARK INTER + INTRA:          -2.377
REMARK INTER:                  -2.377
REMARK INTRA:                   0.000
REMARK UNBOUND:                 0.000
REMARK SMILES CC(=O)[O-]
REMARK SMILES IDX 1 1 2 2 3 3 4 4
REMARK H PARENT
REMARK Flexibility Score: inf
ROOT
ATOM      1  C   UNL     1      -3.894 -72.815 -11.971  1.00  0.00     0.063 C 
ATOM      2  C   UNL     1      -3.909 -74.242 -11.540  1.00  0.00     0.038 C 
ATOM      3  O   UNL     1      -5.001 -74.862 -11.448  1.00  0.00    -0.550 OA
ATOM      4  O   UNL     1      -2.726 -74.876 -11.187  1.00  0.00    -0.550 OA
ENDROOT
TORSDOF 0
ENDMDL
MODEL 4
REMARK VINA RESULT:    -2.192     21.198     21.365
REMARK INTER + INTRA:          -2.192
REMARK INTER:                  -2.192
REMARK INTRA:                   0.000
REMARK UNBOUND:                 0.000
REMARK SMILES CC(=O)[O-]
REMARK SMILES IDX 1 1 2 2 3 3 4 4
REMARK H PARENT
REMARK Flexibility Score: inf
ROOT
ATOM      1  C   UNL     1      -9.676 -58.140   1.230  1.00  0.00     0.063 C 
ATOM      2  C   UNL     1     -10.755 -59.088   1.630  1.00  0.00     0.038 C 
ATOM      3  O   UNL     1     -10.682 -59.702   2.727  1.00  0.00    -0.550 OA
ATOM      4  O   UNL     1     -11.816 -59.338   0.770  1.00  0.00    -0.550 OA
ENDROOT
TORSDOF 0
ENDMDL
MODEL 5
REMARK VINA RESULT:    -2.176     15.781     16.108
REMARK INTER + INTRA:          -2.176
REMARK INTER:                  -2.176
REMARK INTRA:                   0.000
REMARK UNBOUND:                 0.000
REMARK SMILES CC(=O)[O-]
REMARK SMILES IDX 1 1 2 2 3 3 4 4
REMARK H PARENT
REMARK Flexibility Score: inf
ROOT
ATOM      1  C   UNL     1       0.021 -63.130  -6.292  1.00  0.00     0.063 C 
ATOM      2  C   UNL     1       0.363 -64.524  -6.694  1.00  0.00     0.038 C 
ATOM      3  O   UNL     1      -0.013 -64.970  -7.810  1.00  0.00    -0.550 OA
ATOM      4  O   UNL     1       1.050 -65.353  -5.818  1.00  0.00    -0.550 OA
ENDROOT
TORSDOF 0
ENDMDL
MODEL 6
REMARK VINA RESULT:    -2.169     15.958     16.334
REMARK INTER + INTRA:          -2.169
REMARK INTER:                  -2.169
REMARK INTRA:                   0.000
REMARK UNBOUND:                 0.000
REMARK SMILES CC(=O)[O-]
REMARK SMILES IDX 1 1 2 2 3 3 4 4
REMARK H PARENT
REMARK Flexibility Score: inf
ROOT
ATOM      1  C   UNL     1       0.686 -62.780  -6.467  1.00  0.00     0.063 C 
ATOM      2  C   UNL     1       0.694 -64.270  -6.506  1.00  0.00     0.038 C 
ATOM      3  O   UNL     1       1.241 -64.923  -5.579  1.00  0.00    -0.550 OA
ATOM      4  O   UNL     1       0.145 -64.940  -7.591  1.00  0.00    -0.550 OA
ENDROOT
TORSDOF 0
ENDMDL
MODEL 7
REMARK VINA RESULT:    -2.115     13.573     13.941
REMARK INTER + INTRA:          -2.115
REMARK INTER:                  -2.115
REMARK INTRA:                   0.000
REMARK UNBOUND:                 0.000
REMARK SMILES CC(=O)[O-]
REMARK SMILES IDX 1 1 2 2 3 3 4 4
REMARK H PARENT
REMARK Flexibility Score: inf
ROOT
ATOM      1  C   UNL     1      -4.634 -67.104  -6.387  1.00  0.00     0.063 C 
ATOM      2  C   UNL     1      -3.379 -66.797  -5.643  1.00  0.00     0.038 C 
ATOM      3  O   UNL     1      -3.158 -67.335  -4.527  1.00  0.00    -0.550 OA
ATOM      4  O   UNL     1      -2.475 -65.875  -6.154  1.00  0.00    -0.550 OA
ENDROOT
TORSDOF 0
ENDMDL
MODEL 8
REMARK VINA RESULT:    -2.112      8.779      9.021
REMARK INTER + INTRA:          -2.112
REMARK INTER:                  -2.112
REMARK INTRA:                   0.000
REMARK UNBOUND:                 0.000
REMARK SMILES CC(=O)[O-]
REMARK SMILES IDX 1 1 2 2 3 3 4 4
REMARK H PARENT
REMARK Flexibility Score: inf
ROOT
ATOM      1  C   UNL     1      -7.941 -74.439   5.081  1.00  0.00     0.063 C 
ATOM      2  C   UNL     1      -8.352 -73.734   3.833  1.00  0.00     0.038 C 
ATOM      3  O   UNL     1      -8.673 -74.394   2.811  1.00  0.00    -0.550 OA
ATOM      4  O   UNL     1      -8.329 -72.347   3.778  1.00  0.00    -0.550 OA
ENDROOT
TORSDOF 0
ENDMDL
MODEL 9
REMARK VINA RESULT:    -2.062     13.035     13.218
REMARK INTER + INTRA:          -2.062
REMARK INTER:                  -2.062
REMARK INTRA:                   0.000
REMARK UNBOUND:                 0.000
REMARK SMILES CC(=O)[O-]
REMARK SMILES IDX 1 1 2 2 3 3 4 4
REMARK H PARENT
REMARK Flexibility Score: inf
ROOT
ATOM      1  C   UNL     1      -4.322 -66.510  -3.595  1.00  0.00     0.063 C 
ATOM      2  C   UNL     1      -3.964 -67.311  -4.800  1.00  0.00     0.038 C 
ATOM      3  O   UNL     1      -4.743 -68.208  -5.217  1.00  0.00    -0.550 OA
ATOM      4  O   UNL     1      -2.746 -67.107  -5.435  1.00  0.00    -0.550 OA
ENDROOT
TORSDOF 0
ENDMDL
