MODEL 1
REMARK VINA RESULT:    -5.654      0.000      0.000
REMARK INTER + INTRA:          -9.412
REMARK INTER:                  -7.802
REMARK INTRA:                  -1.610
REMARK UNBOUND:                -1.610
REMARK SMILES C=C(CC[C@H](C(=O)[O-])[C@@H]1CC[C@@]2(C)C3=C(CC[C@]12C)[C@@]1(C)CC[C@H](O)C(C)(C)[C@H]1CC3)C(C)C
REMARK SMILES IDX 4 1 5 2 6 3 7 4 8 5 9 6 10 7 18 8 11 9 12 10 17 11 19 12
REMARK SMILES IDX 13 13 14 14 16 15 15 16 31 17 20 18 30 19 29 20 22 21 21 22
REMARK SMILES IDX 26 23 23 24 24 25 27 26 28 27 25 28 3 30 2 31 1 32 32 33
REMARK SMILES IDX 33 34 34 35
REMARK H PARENT 25 29
REMARK Flexibility Score: inf
ROOT
ATOM      1  C   UNL     1      -0.055  -9.970 -39.977  1.00  0.00     0.014 C 
ENDROOT
BRANCH   1   2
ATOM      2  C   UNL     1      -1.340  -9.105 -39.849  1.00  0.00     0.039 C 
BRANCH   2   3
ATOM      3  C   UNL     1      -1.294  -8.403 -38.512  1.00  0.00     0.045 C 
ATOM      4  O   UNL     1      -0.761  -8.957 -37.515  1.00  0.00    -0.550 OA
ATOM      5  O   UNL     1      -1.807  -7.117 -38.386  1.00  0.00    -0.550 OA
ENDBRANCH   2   3
BRANCH   2   6
ATOM      6  C   UNL     1      -2.643  -9.966 -39.992  1.00  0.00     0.004 C 
ATOM      7  C   UNL     1      -2.389 -11.373 -40.601  1.00  0.00     0.006 C 
ATOM      8  C   UNL     1      -3.833  -9.380 -40.847  1.00  0.00    -0.020 C 
ATOM      9  C   UNL     1      -3.456 -11.606 -41.674  1.00  0.00     0.012 C 
ATOM     10  C   UNL     1      -3.801 -10.197 -42.172  1.00  0.00    -0.006 C 
ATOM     11  C   UNL     1      -3.830  -7.884 -41.228  1.00  0.00     0.012 C 
ATOM     12  C   UNL     1      -5.139  -9.632 -40.011  1.00  0.00     0.012 C 
ATOM     13  C   UNL     1      -2.680  -9.781 -43.183  1.00  0.00     0.017 C 
ATOM     14  C   UNL     1      -5.125 -10.003 -42.905  1.00  0.00    -0.064 C 
ATOM     15  C   UNL     1      -4.906  -7.543 -42.306  1.00  0.00     0.032 C 
ATOM     16  C   UNL     1      -5.614  -8.724 -43.028  1.00  0.00    -0.064 C 
ATOM     17  C   UNL     1      -5.735 -11.201 -43.609  1.00  0.00     0.032 C 
ATOM     18  C   UNL     1      -6.939  -8.425 -43.768  1.00  0.00    -0.008 C 
ATOM     19  C   UNL     1      -7.119 -10.960 -44.195  1.00  0.00     0.009 C 
ATOM     20  C   UNL     1      -7.315  -9.556 -44.802  1.00  0.00     0.007 C 
ATOM     21  C   UNL     1      -6.855  -7.033 -44.491  1.00  0.00     0.014 C 
ATOM     22  C   UNL     1      -8.056  -8.337 -42.691  1.00  0.00     0.016 C 
ATOM     23  C   UNL     1      -6.756  -9.317 -46.263  1.00  0.00    -0.006 C 
ATOM     24  C   UNL     1      -7.758  -6.939 -45.718  1.00  0.00     0.033 C 
ATOM     25  C   UNL     1      -7.365  -7.958 -46.816  1.00  0.00     0.120 C 
ATOM     26  C   UNL     1      -5.202  -9.250 -46.312  1.00  0.00     0.014 C 
ATOM     27  C   UNL     1      -7.158 -10.483 -47.211  1.00  0.00     0.014 C 
BRANCH  25  28
ATOM     28  O   UNL     1      -8.478  -8.168 -47.653  1.00  0.00    -0.393 OA
ATOM     29  H   UNL     1      -8.330  -7.654 -48.489  1.00  0.00     0.210 HD
ENDBRANCH  25  28
ENDBRANCH   2   6
ENDBRANCH   1   2
BRANCH   1  30
ATOM     30  C   UNL     1       0.834  -9.548 -41.171  1.00  0.00     0.031 C 
BRANCH  30  31
ATOM     31  C   UNL     1       1.167 -10.723 -42.067  1.00  0.00    -0.075 C 
ATOM     32  C   UNL     1       1.200 -11.961 -41.541  1.00  0.00     0.008 C 
BRANCH  31  33
ATOM     33  C   UNL     1       1.470 -10.485 -43.540  1.00  0.00     0.008 C 
ATOM     34  C   UNL     1       2.799 -11.134 -43.946  1.00  0.00     0.012 C 
ATOM     35  C   UNL     1       1.461  -8.989 -43.881  1.00  0.00     0.012 C 
ENDBRANCH  31  33
ENDBRANCH  30  31
ENDBRANCH   1  30
TORSDOF 7
ENDMDL
MODEL 2
REMARK VINA RESULT:    -5.553     12.603     15.785
REMARK INTER + INTRA:          -9.273
REMARK INTER:                  -7.631
REMARK INTRA:                  -1.642
REMARK UNBOUND:                -1.610
REMARK SMILES C=C(CC[C@H](C(=O)[O-])[C@@H]1CC[C@@]2(C)C3=C(CC[C@]12C)[C@@]1(C)CC[C@H](O)C(C)(C)[C@H]1CC3)C(C)C
REMARK SMILES IDX 4 1 5 2 6 3 7 4 8 5 9 6 10 7 18 8 11 9 12 10 17 11 19 12
REMARK SMILES IDX 13 13 14 14 16 15 15 16 31 17 20 18 30 19 29 20 22 21 21 22
REMARK SMILES IDX 26 23 23 24 24 25 27 26 28 27 25 28 3 30 2 31 1 32 32 33
REMARK SMILES IDX 33 34 34 35
REMARK H PARENT 25 29
REMARK Flexibility Score: inf
ROOT
ATOM      1  C   UNL     1      -1.739 -26.652 -45.605  1.00  0.00     0.014 C 
ENDROOT
BRANCH   1   2
ATOM      2  C   UNL     1      -0.508 -25.743 -45.881  1.00  0.00     0.039 C 
BRANCH   2   3
ATOM      3  C   UNL     1       0.326 -26.408 -46.952  1.00  0.00     0.045 C 
ATOM      4  O   UNL     1       1.583 -26.354 -46.911  1.00  0.00    -0.550 OA
ATOM      5  O   UNL     1      -0.295 -27.120 -47.971  1.00  0.00    -0.550 OA
ENDBRANCH   2   3
BRANCH   2   6
ATOM      6  C   UNL     1       0.334 -25.487 -44.584  1.00  0.00     0.004 C 
ATOM      7  C   UNL     1      -0.148 -26.316 -43.361  1.00  0.00     0.006 C 
ATOM      8  C   UNL     1       0.432 -24.009 -44.039  1.00  0.00    -0.020 C 
ATOM      9  C   UNL     1      -0.214 -25.366 -42.162  1.00  0.00     0.012 C 
ATOM     10  C   UNL     1      -0.493 -23.993 -42.786  1.00  0.00    -0.006 C 
ATOM     11  C   UNL     1       0.001 -22.835 -44.944  1.00  0.00     0.012 C 
ATOM     12  C   UNL     1       1.944 -23.774 -43.680  1.00  0.00     0.012 C 
ATOM     13  C   UNL     1      -2.026 -23.931 -43.092  1.00  0.00     0.017 C 
ATOM     14  C   UNL     1      -0.177 -22.754 -41.954  1.00  0.00    -0.064 C 
ATOM     15  C   UNL     1      -0.118 -21.491 -44.160  1.00  0.00     0.032 C 
ATOM     16  C   UNL     1      -0.069 -21.548 -42.607  1.00  0.00    -0.064 C 
ATOM     17  C   UNL     1      -0.177 -22.887 -40.443  1.00  0.00     0.032 C 
ATOM     18  C   UNL     1       0.231 -20.234 -41.848  1.00  0.00    -0.008 C 
ATOM     19  C   UNL     1       0.282 -21.645 -39.692  1.00  0.00     0.009 C 
ATOM     20  C   UNL     1      -0.175 -20.315 -40.325  1.00  0.00     0.007 C 
ATOM     21  C   UNL     1      -0.496 -19.027 -42.542  1.00  0.00     0.014 C 
ATOM     22  C   UNL     1       1.763 -19.987 -41.946  1.00  0.00     0.016 C 
ATOM     23  C   UNL     1      -1.653 -19.841 -40.018  1.00  0.00    -0.006 C 
ATOM     24  C   UNL     1      -0.817 -17.886 -41.579  1.00  0.00     0.033 C 
ATOM     25  C   UNL     1      -1.793 -18.321 -40.458  1.00  0.00     0.120 C 
ATOM     26  C   UNL     1      -2.727 -20.696 -40.752  1.00  0.00     0.014 C 
ATOM     27  C   UNL     1      -1.976 -19.969 -38.502  1.00  0.00     0.014 C 
BRANCH  25  28
ATOM     28  O   UNL     1      -1.654 -17.433 -39.374  1.00  0.00    -0.393 OA
ATOM     29  H   UNL     1      -1.365 -16.555 -39.737  1.00  0.00     0.210 HD
ENDBRANCH  25  28
ENDBRANCH   2   6
ENDBRANCH   1   2
BRANCH   1  30
ATOM     30  C   UNL     1      -3.081 -25.965 -45.956  1.00  0.00     0.031 C 
BRANCH  30  31
ATOM     31  C   UNL     1      -4.170 -26.321 -44.966  1.00  0.00    -0.075 C 
ATOM     32  C   UNL     1      -3.859 -27.060 -43.886  1.00  0.00     0.008 C 
BRANCH  31  33
ATOM     33  C   UNL     1      -5.596 -25.848 -45.214  1.00  0.00     0.008 C 
ATOM     34  C   UNL     1      -6.360 -25.671 -43.895  1.00  0.00     0.012 C 
ATOM     35  C   UNL     1      -6.345 -26.795 -46.161  1.00  0.00     0.012 C 
ENDBRANCH  31  33
ENDBRANCH  30  31
ENDBRANCH   1  30
TORSDOF 7
ENDMDL
MODEL 3
REMARK VINA RESULT:    -5.407      2.076      7.673
REMARK INTER + INTRA:          -9.072
REMARK INTER:                  -8.214
REMARK INTRA:                  -0.859
REMARK UNBOUND:                -1.610
REMARK SMILES C=C(CC[C@H](C(=O)[O-])[C@@H]1CC[C@@]2(C)C3=C(CC[C@]12C)[C@@]1(C)CC[C@H](O)C(C)(C)[C@H]1CC3)C(C)C
REMARK SMILES IDX 4 1 5 2 6 3 7 4 8 5 9 6 10 7 18 8 11 9 12 10 17 11 19 12
REMARK SMILES IDX 13 13 14 14 16 15 15 16 31 17 20 18 30 19 29 20 22 21 21 22
REMARK SMILES IDX 26 23 23 24 24 25 27 26 28 27 25 28 3 30 2 31 1 32 32 33
REMARK SMILES IDX 33 34 34 35
REMARK H PARENT 25 29
REMARK Flexibility Score: inf
ROOT
ATOM      1  C   UNL     1      -7.431  -7.499 -47.021  1.00  0.00     0.014 C 
ENDROOT
BRANCH   1   2
ATOM      2  C   UNL     1      -7.413  -8.768 -46.122  1.00  0.00     0.039 C 
BRANCH   2   3
ATOM      3  C   UNL     1      -8.667  -9.559 -46.413  1.00  0.00     0.045 C 
ATOM      4  O   UNL     1      -8.613 -10.804 -46.591  1.00  0.00    -0.550 OA
ATOM      5  O   UNL     1      -9.899  -8.917 -46.445  1.00  0.00    -0.550 OA
ENDBRANCH   2   3
BRANCH   2   6
ATOM      6  C   UNL     1      -7.312  -8.405 -44.600  1.00  0.00     0.004 C 
ATOM      7  C   UNL     1      -6.625  -7.036 -44.335  1.00  0.00     0.006 C 
ATOM      8  C   UNL     1      -6.559  -9.409 -43.643  1.00  0.00    -0.020 C 
ATOM      9  C   UNL     1      -5.610  -7.243 -43.208  1.00  0.00     0.012 C 
ATOM     10  C   UNL     1      -5.199  -8.715 -43.340  1.00  0.00    -0.006 C 
ATOM     11  C   UNL     1      -6.246 -10.838 -44.136  1.00  0.00     0.012 C 
ATOM     12  C   UNL     1      -7.462  -9.558 -42.366  1.00  0.00     0.012 C 
ATOM     13  C   UNL     1      -4.141  -8.793 -44.491  1.00  0.00     0.017 C 
ATOM     14  C   UNL     1      -4.558  -9.388 -42.130  1.00  0.00    -0.064 C 
ATOM     15  C   UNL     1      -5.253 -11.589 -43.194  1.00  0.00     0.032 C 
ATOM     16  C   UNL     1      -4.523 -10.762 -42.098  1.00  0.00    -0.064 C 
ATOM     17  C   UNL     1      -3.840  -8.512 -41.120  1.00  0.00     0.032 C 
ATOM     18  C   UNL     1      -3.880 -11.535 -40.923  1.00  0.00    -0.008 C 
ATOM     19  C   UNL     1      -3.352  -9.240 -39.876  1.00  0.00     0.009 C 
ATOM     20  C   UNL     1      -2.822 -10.664 -40.141  1.00  0.00     0.007 C 
ATOM     21  C   UNL     1      -3.217 -12.861 -41.442  1.00  0.00     0.014 C 
ATOM     22  C   UNL     1      -5.027 -11.925 -39.948  1.00  0.00     0.016 C 
ATOM     23  C   UNL     1      -1.341 -10.792 -40.685  1.00  0.00    -0.006 C 
ATOM     24  C   UNL     1      -2.054 -13.330 -40.573  1.00  0.00     0.033 C 
ATOM     25  C   UNL     1      -0.889 -12.309 -40.550  1.00  0.00     0.120 C 
ATOM     26  C   UNL     1      -1.200 -10.337 -42.166  1.00  0.00     0.014 C 
ATOM     27  C   UNL     1      -0.369  -9.892 -39.872  1.00  0.00     0.014 C 
BRANCH  25  28
ATOM     28  O   UNL     1      -0.114 -12.539 -39.396  1.00  0.00    -0.393 OA
ATOM     29  H   UNL     1      -0.691 -12.996 -38.730  1.00  0.00     0.210 HD
ENDBRANCH  25  28
ENDBRANCH   2   6
ENDBRANCH   1   2
BRANCH   1  30
ATOM     30  C   UNL     1      -6.014  -7.042 -47.441  1.00  0.00     0.031 C 
BRANCH  30  31
ATOM     31  C   UNL     1      -5.206  -8.180 -48.028  1.00  0.00    -0.075 C 
ATOM     32  C   UNL     1      -5.834  -9.127 -48.750  1.00  0.00     0.008 C 
BRANCH  31  33
ATOM     33  C   UNL     1      -3.704  -8.243 -47.785  1.00  0.00     0.008 C 
ATOM     34  C   UNL     1      -3.151  -6.875 -47.366  1.00  0.00     0.012 C 
ATOM     35  C   UNL     1      -2.959  -8.785 -49.012  1.00  0.00     0.012 C 
ENDBRANCH  31  33
ENDBRANCH  30  31
ENDBRANCH   1  30
TORSDOF 7
ENDMDL
MODEL 4
REMARK VINA RESULT:    -5.405     11.453     15.315
REMARK INTER + INTRA:          -9.069
REMARK INTER:                  -7.078
REMARK INTRA:                  -1.991
REMARK UNBOUND:                -1.610
REMARK SMILES C=C(CC[C@H](C(=O)[O-])[C@@H]1CC[C@@]2(C)C3=C(CC[C@]12C)[C@@]1(C)CC[C@H](O)C(C)(C)[C@H]1CC3)C(C)C
REMARK SMILES IDX 4 1 5 2 6 3 7 4 8 5 9 6 10 7 18 8 11 9 12 10 17 11 19 12
REMARK SMILES IDX 13 13 14 14 16 15 15 16 31 17 20 18 30 19 29 20 22 21 21 22
REMARK SMILES IDX 26 23 23 24 24 25 27 26 28 27 25 28 3 30 2 31 1 32 32 33
REMARK SMILES IDX 33 34 34 35
REMARK H PARENT 25 29
REMARK Flexibility Score: inf
ROOT
ATOM      1  C   UNL     1      -1.697 -24.470 -44.361  1.00  0.00     0.014 C 
ENDROOT
BRANCH   1   2
ATOM      2  C   UNL     1      -0.665 -24.918 -43.289  1.00  0.00     0.039 C 
BRANCH   2   3
ATOM      3  C   UNL     1      -0.860 -26.397 -43.049  1.00  0.00     0.045 C 
ATOM      4  O   UNL     1      -1.398 -27.124 -43.925  1.00  0.00    -0.550 OA
ATOM      5  O   UNL     1      -0.407 -26.973 -41.868  1.00  0.00    -0.550 OA
ENDBRANCH   2   3
BRANCH   2   6
ATOM      6  C   UNL     1      -0.812 -24.104 -41.957  1.00  0.00     0.004 C 
ATOM      7  C   UNL     1      -1.965 -23.062 -41.995  1.00  0.00     0.006 C 
ATOM      8  C   UNL     1       0.436 -23.286 -41.443  1.00  0.00    -0.020 C 
ATOM      9  C   UNL     1      -1.415 -21.750 -41.427  1.00  0.00     0.012 C 
ATOM     10  C   UNL     1       0.084 -21.801 -41.751  1.00  0.00    -0.006 C 
ATOM     11  C   UNL     1       1.829 -23.564 -42.048  1.00  0.00     0.012 C 
ATOM     12  C   UNL     1       0.545 -23.576 -39.902  1.00  0.00     0.012 C 
ATOM     13  C   UNL     1       0.243 -21.377 -43.250  1.00  0.00     0.017 C 
ATOM     14  C   UNL     1       1.017 -20.895 -40.954  1.00  0.00    -0.064 C 
ATOM     15  C   UNL     1       2.878 -22.481 -41.646  1.00  0.00     0.032 C 
ATOM     16  C   UNL     1       2.362 -21.183 -40.964  1.00  0.00    -0.064 C 
ATOM     17  C   UNL     1       0.440 -19.631 -40.344  1.00  0.00     0.032 C 
ATOM     18  C   UNL     1       3.388 -20.313 -40.201  1.00  0.00    -0.008 C 
ATOM     19  C   UNL     1       1.398 -18.858 -39.450  1.00  0.00     0.009 C 
ATOM     20  C   UNL     1       2.859 -18.849 -39.945  1.00  0.00     0.007 C 
ATOM     21  C   UNL     1       4.751 -20.271 -40.981  1.00  0.00     0.014 C 
ATOM     22  C   UNL     1       3.643 -21.002 -38.831  1.00  0.00     0.016 C 
ATOM     23  C   UNL     1       3.229 -17.813 -41.082  1.00  0.00    -0.006 C 
ATOM     24  C   UNL     1       5.555 -19.001 -40.714  1.00  0.00     0.033 C 
ATOM     25  C   UNL     1       4.812 -17.726 -41.184  1.00  0.00     0.120 C 
ATOM     26  C   UNL     1       2.639 -18.201 -42.469  1.00  0.00     0.014 C 
ATOM     27  C   UNL     1       2.658 -16.403 -40.759  1.00  0.00     0.014 C 
BRANCH  25  28
ATOM     28  O   UNL     1       5.337 -16.620 -40.489  1.00  0.00    -0.393 OA
ATOM     29  H   UNL     1       6.063 -16.230 -41.042  1.00  0.00     0.210 HD
ENDBRANCH  25  28
ENDBRANCH   2   6
ENDBRANCH   1   2
BRANCH   1  30
ATOM     30  C   UNL     1      -1.030 -23.861 -45.617  1.00  0.00     0.031 C 
BRANCH  30  31
ATOM     31  C   UNL     1      -0.436 -24.928 -46.512  1.00  0.00    -0.075 C 
ATOM     32  C   UNL     1      -1.256 -25.691 -47.257  1.00  0.00     0.008 C 
BRANCH  31  33
ATOM     33  C   UNL     1       1.074 -25.128 -46.546  1.00  0.00     0.008 C 
ATOM     34  C   UNL     1       1.466 -26.498 -45.979  1.00  0.00     0.012 C 
ATOM     35  C   UNL     1       1.807 -23.998 -45.811  1.00  0.00     0.012 C 
ENDBRANCH  31  33
ENDBRANCH  30  31
ENDBRANCH   1  30
TORSDOF 7
ENDMDL
MODEL 5
REMARK VINA RESULT:    -5.398     10.718     13.899
REMARK INTER + INTRA:          -9.059
REMARK INTER:                  -7.182
REMARK INTRA:                  -1.878
REMARK UNBOUND:                -1.610
REMARK SMILES C=C(CC[C@H](C(=O)[O-])[C@@H]1CC[C@@]2(C)C3=C(CC[C@]12C)[C@@]1(C)CC[C@H](O)C(C)(C)[C@H]1CC3)C(C)C
REMARK SMILES IDX 4 1 5 2 6 3 7 4 8 5 9 6 10 7 18 8 11 9 12 10 17 11 19 12
REMARK SMILES IDX 13 13 14 14 16 15 15 16 31 17 20 18 30 19 29 20 22 21 21 22
REMARK SMILES IDX 26 23 23 24 24 25 27 26 28 27 25 28 3 30 2 31 1 32 32 33
REMARK SMILES IDX 33 34 34 35
REMARK H PARENT 25 29
REMARK Flexibility Score: inf
ROOT
ATOM      1  C   UNL     1       0.384 -17.925 -39.066  1.00  0.00     0.014 C 
ENDROOT
BRANCH   1   2
ATOM      2  C   UNL     1      -0.359 -18.360 -40.361  1.00  0.00     0.039 C 
BRANCH   2   3
ATOM      3  C   UNL     1      -1.414 -17.321 -40.661  1.00  0.00     0.045 C 
ATOM      4  O   UNL     1      -1.629 -16.375 -39.859  1.00  0.00    -0.550 OA
ATOM      5  O   UNL     1      -2.130 -17.384 -41.850  1.00  0.00    -0.550 OA
ENDBRANCH   2   3
BRANCH   2   6
ATOM      6  C   UNL     1      -0.992 -19.788 -40.221  1.00  0.00     0.004 C 
ATOM      7  C   UNL     1      -0.464 -20.580 -38.993  1.00  0.00     0.006 C 
ATOM      8  C   UNL     1      -0.837 -20.792 -41.429  1.00  0.00    -0.020 C 
ATOM      9  C   UNL     1      -0.131 -21.996 -39.471  1.00  0.00     0.012 C 
ATOM     10  C   UNL     1       0.233 -21.817 -40.950  1.00  0.00    -0.006 C 
ATOM     11  C   UNL     1      -0.383 -20.262 -42.806  1.00  0.00     0.012 C 
ATOM     12  C   UNL     1      -2.251 -21.446 -41.639  1.00  0.00     0.012 C 
ATOM     13  C   UNL     1       1.712 -21.306 -40.999  1.00  0.00     0.017 C 
ATOM     14  C   UNL     1       0.180 -23.046 -41.852  1.00  0.00    -0.064 C 
ATOM     15  C   UNL     1      -0.002 -21.412 -43.790  1.00  0.00     0.032 C 
ATOM     16  C   UNL     1       0.139 -22.848 -43.212  1.00  0.00    -0.064 C 
ATOM     17  C   UNL     1       0.355 -24.411 -41.213  1.00  0.00     0.032 C 
ATOM     18  C   UNL     1       0.101 -24.031 -44.208  1.00  0.00    -0.008 C 
ATOM     19  C   UNL     1       0.150 -25.589 -42.155  1.00  0.00     0.009 C 
ATOM     20  C   UNL     1       0.684 -25.358 -43.583  1.00  0.00     0.007 C 
ATOM     21  C   UNL     1       0.878 -23.661 -45.521  1.00  0.00     0.014 C 
ATOM     22  C   UNL     1      -1.389 -24.266 -44.585  1.00  0.00     0.016 C 
ATOM     23  C   UNL     1       2.236 -25.562 -43.815  1.00  0.00    -0.006 C 
ATOM     24  C   UNL     1       1.456 -24.878 -46.240  1.00  0.00     0.033 C 
ATOM     25  C   UNL     1       2.505 -25.625 -45.379  1.00  0.00     0.120 C 
ATOM     26  C   UNL     1       3.095 -24.428 -43.185  1.00  0.00     0.014 C 
ATOM     27  C   UNL     1       2.730 -26.881 -43.156  1.00  0.00     0.014 C 
BRANCH  25  28
ATOM     28  O   UNL     1       2.614 -26.947 -45.853  1.00  0.00    -0.393 OA
ATOM     29  H   UNL     1       2.654 -26.910 -46.845  1.00  0.00     0.210 HD
ENDBRANCH  25  28
ENDBRANCH   2   6
ENDBRANCH   1   2
BRANCH   1  30
ATOM     30  C   UNL     1       1.923 -17.981 -39.211  1.00  0.00     0.031 C 
BRANCH  30  31
ATOM     31  C   UNL     1       2.436 -16.930 -40.173  1.00  0.00    -0.075 C 
ATOM     32  C   UNL     1       2.052 -15.651 -40.013  1.00  0.00     0.008 C 
BRANCH  31  33
ATOM     33  C   UNL     1       3.366 -17.338 -41.309  1.00  0.00     0.008 C 
ATOM     34  C   UNL     1       2.592 -18.023 -42.442  1.00  0.00     0.012 C 
ATOM     35  C   UNL     1       4.510 -18.228 -40.806  1.00  0.00     0.012 C 
ENDBRANCH  31  33
ENDBRANCH  30  31
ENDBRANCH   1  30
TORSDOF 7
ENDMDL
MODEL 6
REMARK VINA RESULT:    -5.327     12.200     14.884
REMARK INTER + INTRA:          -8.962
REMARK INTER:                  -7.047
REMARK INTRA:                  -1.915
REMARK UNBOUND:                -1.610
REMARK SMILES C=C(CC[C@H](C(=O)[O-])[C@@H]1CC[C@@]2(C)C3=C(CC[C@]12C)[C@@]1(C)CC[C@H](O)C(C)(C)[C@H]1CC3)C(C)C
REMARK SMILES IDX 4 1 5 2 6 3 7 4 8 5 9 6 10 7 18 8 11 9 12 10 17 11 19 12
REMARK SMILES IDX 13 13 14 14 16 15 15 16 31 17 20 18 30 19 29 20 22 21 21 22
REMARK SMILES IDX 26 23 23 24 24 25 27 26 28 27 25 28 3 30 2 31 1 32 32 33
REMARK SMILES IDX 33 34 34 35
REMARK H PARENT 25 29
REMARK Flexibility Score: inf
ROOT
ATOM      1  C   UNL     1       1.522 -20.205 -39.470  1.00  0.00     0.014 C 
ENDROOT
BRANCH   1   2
ATOM      2  C   UNL     1       0.229 -21.044 -39.267  1.00  0.00     0.039 C 
BRANCH   2   3
ATOM      3  C   UNL     1      -0.329 -20.711 -37.903  1.00  0.00     0.045 C 
ATOM      4  O   UNL     1       0.049 -19.679 -37.290  1.00  0.00    -0.550 OA
ATOM      5  O   UNL     1      -1.298 -21.528 -37.333  1.00  0.00    -0.550 OA
ENDBRANCH   2   3
BRANCH   2   6
ATOM      6  C   UNL     1       0.501 -22.582 -39.408  1.00  0.00     0.004 C 
ATOM      7  C   UNL     1       2.010 -22.934 -39.528  1.00  0.00     0.006 C 
ATOM      8  C   UNL     1      -0.175 -23.350 -40.610  1.00  0.00    -0.020 C 
ATOM      9  C   UNL     1       2.156 -23.936 -40.677  1.00  0.00     0.012 C 
ATOM     10  C   UNL     1       0.987 -23.606 -41.614  1.00  0.00    -0.006 C 
ATOM     11  C   UNL     1      -1.321 -22.676 -41.395  1.00  0.00     0.012 C 
ATOM     12  C   UNL     1      -0.759 -24.678 -40.007  1.00  0.00     0.012 C 
ATOM     13  C   UNL     1       1.418 -22.364 -42.463  1.00  0.00     0.017 C 
ATOM     14  C   UNL     1       0.551 -24.672 -42.614  1.00  0.00    -0.064 C 
ATOM     15  C   UNL     1      -1.667 -23.437 -42.713  1.00  0.00     0.032 C 
ATOM     16  C   UNL     1      -0.691 -24.548 -43.191  1.00  0.00    -0.064 C 
ATOM     17  C   UNL     1       1.574 -25.704 -43.051  1.00  0.00     0.032 C 
ATOM     18  C   UNL     1      -1.214 -25.569 -44.228  1.00  0.00    -0.008 C 
ATOM     19  C   UNL     1       1.025 -26.812 -43.939  1.00  0.00     0.009 C 
ATOM     20  C   UNL     1      -0.043 -26.344 -44.948  1.00  0.00     0.007 C 
ATOM     21  C   UNL     1      -2.123 -24.848 -45.288  1.00  0.00     0.014 C 
ATOM     22  C   UNL     1      -2.097 -26.592 -43.460  1.00  0.00     0.016 C 
ATOM     23  C   UNL     1       0.472 -25.659 -46.279  1.00  0.00    -0.006 C 
ATOM     24  C   UNL     1      -2.139 -25.553 -46.642  1.00  0.00     0.033 C 
ATOM     25  C   UNL     1      -0.739 -25.585 -47.305  1.00  0.00     0.120 C 
ATOM     26  C   UNL     1       1.042 -24.231 -46.042  1.00  0.00     0.014 C 
ATOM     27  C   UNL     1       1.632 -26.477 -46.913  1.00  0.00     0.014 C 
BRANCH  25  28
ATOM     28  O   UNL     1      -0.712 -26.632 -48.246  1.00  0.00    -0.393 OA
ATOM     29  H   UNL     1      -1.369 -27.318 -47.955  1.00  0.00     0.210 HD
ENDBRANCH  25  28
ENDBRANCH   2   6
ENDBRANCH   1   2
BRANCH   1  30
ATOM     30  C   UNL     1       1.481 -19.343 -40.755  1.00  0.00     0.031 C 
BRANCH  30  31
ATOM     31  C   UNL     1       0.203 -18.538 -40.851  1.00  0.00    -0.075 C 
ATOM     32  C   UNL     1       0.043 -17.461 -40.060  1.00  0.00     0.008 C 
BRANCH  31  33
ATOM     33  C   UNL     1      -0.884 -18.964 -41.830  1.00  0.00     0.008 C 
ATOM     34  C   UNL     1      -0.284 -19.406 -43.170  1.00  0.00     0.012 C 
ATOM     35  C   UNL     1      -1.924 -17.854 -42.032  1.00  0.00     0.012 C 
ENDBRANCH  31  33
ENDBRANCH  30  31
ENDBRANCH   1  30
TORSDOF 7
ENDMDL
MODEL 7
REMARK VINA RESULT:    -5.180      4.247      8.449
REMARK INTER + INTRA:          -8.758
REMARK INTER:                  -6.705
REMARK INTRA:                  -2.053
REMARK UNBOUND:                -1.610
REMARK SMILES C=C(CC[C@H](C(=O)[O-])[C@@H]1CC[C@@]2(C)C3=C(CC[C@]12C)[C@@]1(C)CC[C@H](O)C(C)(C)[C@H]1CC3)C(C)C
REMARK SMILES IDX 4 1 5 2 6 3 7 4 8 5 9 6 10 7 18 8 11 9 12 10 17 11 19 12
REMARK SMILES IDX 13 13 14 14 16 15 15 16 31 17 20 18 30 19 29 20 22 21 21 22
REMARK SMILES IDX 26 23 23 24 24 25 27 26 28 27 25 28 3 30 2 31 1 32 32 33
REMARK SMILES IDX 33 34 34 35
REMARK H PARENT 25 29
REMARK Flexibility Score: inf
ROOT
ATOM      1  C   UNL     1      -2.555  -9.718 -42.748  1.00  0.00     0.014 C 
ENDROOT
BRANCH   1   2
ATOM      2  C   UNL     1      -1.531 -10.015 -41.616  1.00  0.00     0.039 C 
BRANCH   2   3
ATOM      3  C   UNL     1      -0.192  -9.467 -42.049  1.00  0.00     0.045 C 
ATOM      4  O   UNL     1      -0.098  -8.731 -43.066  1.00  0.00    -0.550 OA
ATOM      5  O   UNL     1       0.945  -9.741 -41.297  1.00  0.00    -0.550 OA
ENDBRANCH   2   3
BRANCH   2   6
ATOM      6  C   UNL     1      -1.440 -11.548 -41.297  1.00  0.00     0.004 C 
ATOM      7  C   UNL     1      -2.535 -12.393 -42.005  1.00  0.00     0.006 C 
ATOM      8  C   UNL     1      -1.517 -11.999 -39.786  1.00  0.00    -0.020 C 
ATOM      9  C   UNL     1      -3.122 -13.348 -40.963  1.00  0.00     0.012 C 
ATOM     10  C   UNL     1      -2.942 -12.607 -39.632  1.00  0.00    -0.006 C 
ATOM     11  C   UNL     1      -1.342 -10.948 -38.669  1.00  0.00     0.012 C 
ATOM     12  C   UNL     1      -0.378 -13.064 -39.589  1.00  0.00     0.012 C 
ATOM     13  C   UNL     1      -4.103 -11.563 -39.528  1.00  0.00     0.017 C 
ATOM     14  C   UNL     1      -2.993 -13.426 -38.346  1.00  0.00    -0.064 C 
ATOM     15  C   UNL     1      -1.735 -11.501 -37.264  1.00  0.00     0.032 C 
ATOM     16  C   UNL     1      -2.479 -12.865 -37.201  1.00  0.00    -0.064 C 
ATOM     17  C   UNL     1      -3.765 -14.733 -38.360  1.00  0.00     0.032 C 
ATOM     18  C   UNL     1      -2.502 -13.611 -35.846  1.00  0.00    -0.008 C 
ATOM     19  C   UNL     1      -3.652 -15.556 -37.085  1.00  0.00     0.009 C 
ATOM     20  C   UNL     1      -3.624 -14.718 -35.790  1.00  0.00     0.007 C 
ATOM     21  C   UNL     1      -2.686 -12.589 -34.667  1.00  0.00     0.014 C 
ATOM     22  C   UNL     1      -1.115 -14.292 -35.674  1.00  0.00     0.016 C 
ATOM     23  C   UNL     1      -5.015 -14.211 -35.230  1.00  0.00    -0.006 C 
ATOM     24  C   UNL     1      -3.358 -13.203 -33.441  1.00  0.00     0.033 C 
ATOM     25  C   UNL     1      -4.796 -13.693 -33.744  1.00  0.00     0.120 C 
ATOM     26  C   UNL     1      -5.635 -13.074 -36.092  1.00  0.00     0.014 C 
ATOM     27  C   UNL     1      -6.065 -15.357 -35.225  1.00  0.00     0.014 C 
BRANCH  25  28
ATOM     28  O   UNL     1      -5.154 -14.655 -32.780  1.00  0.00    -0.393 OA
ATOM     29  H   UNL     1      -4.547 -15.434 -32.890  1.00  0.00     0.210 HD
ENDBRANCH  25  28
ENDBRANCH   2   6
ENDBRANCH   1   2
BRANCH   1  30
ATOM     30  C   UNL     1      -3.737  -8.841 -42.272  1.00  0.00     0.031 C 
BRANCH  30  31
ATOM     31  C   UNL     1      -5.068  -9.537 -42.465  1.00  0.00    -0.075 C 
ATOM     32  C   UNL     1      -6.094  -9.229 -41.651  1.00  0.00     0.008 C 
BRANCH  31  33
ATOM     33  C   UNL     1      -5.221 -10.580 -43.564  1.00  0.00     0.008 C 
ATOM     34  C   UNL     1      -5.865  -9.977 -44.818  1.00  0.00     0.012 C 
ATOM     35  C   UNL     1      -6.010 -11.802 -43.073  1.00  0.00     0.012 C 
ENDBRANCH  31  33
ENDBRANCH  30  31
ENDBRANCH   1  30
TORSDOF 7
ENDMDL
MODEL 8
REMARK VINA RESULT:    -5.044      4.996      9.408
REMARK INTER + INTRA:          -8.571
REMARK INTER:                  -6.959
REMARK INTRA:                  -1.611
REMARK UNBOUND:                -1.610
REMARK SMILES C=C(CC[C@H](C(=O)[O-])[C@@H]1CC[C@@]2(C)C3=C(CC[C@]12C)[C@@]1(C)CC[C@H](O)C(C)(C)[C@H]1CC3)C(C)C
REMARK SMILES IDX 4 1 5 2 6 3 7 4 8 5 9 6 10 7 18 8 11 9 12 10 17 11 19 12
REMARK SMILES IDX 13 13 14 14 16 15 15 16 31 17 20 18 30 19 29 20 22 21 21 22
REMARK SMILES IDX 26 23 23 24 24 25 27 26 28 27 25 28 3 30 2 31 1 32 32 33
REMARK SMILES IDX 33 34 34 35
REMARK H PARENT 25 29
REMARK Flexibility Score: inf
ROOT
ATOM      1  C   UNL     1      -2.522 -11.083 -42.283  1.00  0.00     0.014 C 
ENDROOT
BRANCH   1   2
ATOM      2  C   UNL     1      -3.496 -12.003 -41.495  1.00  0.00     0.039 C 
BRANCH   2   3
ATOM      3  C   UNL     1      -4.822 -12.000 -42.218  1.00  0.00     0.045 C 
ATOM      4  O   UNL     1      -4.902 -11.605 -43.411  1.00  0.00    -0.550 OA
ATOM      5  O   UNL     1      -5.961 -12.475 -41.579  1.00  0.00    -0.550 OA
ENDBRANCH   2   3
BRANCH   2   6
ATOM      6  C   UNL     1      -3.662 -11.541 -40.005  1.00  0.00     0.004 C 
ATOM      7  C   UNL     1      -2.719 -10.370 -39.613  1.00  0.00     0.006 C 
ATOM      8  C   UNL     1      -3.448 -12.612 -38.866  1.00  0.00    -0.020 C 
ATOM      9  C   UNL     1      -2.088 -10.723 -38.263  1.00  0.00     0.012 C 
ATOM     10  C   UNL     1      -2.063 -12.256 -38.251  1.00  0.00    -0.006 C 
ATOM     11  C   UNL     1      -3.419 -14.112 -39.228  1.00  0.00     0.012 C 
ATOM     12  C   UNL     1      -4.631 -12.414 -37.851  1.00  0.00     0.012 C 
ATOM     13  C   UNL     1      -0.824 -12.701 -39.098  1.00  0.00     0.017 C 
ATOM     14  C   UNL     1      -1.926 -12.956 -36.902  1.00  0.00    -0.064 C 
ATOM     15  C   UNL     1      -2.910 -14.999 -38.049  1.00  0.00     0.032 C 
ATOM     16  C   UNL     1      -2.265 -14.287 -36.827  1.00  0.00    -0.064 C 
ATOM     17  C   UNL     1      -1.258 -12.201 -35.768  1.00  0.00     0.032 C 
ATOM     18  C   UNL     1      -2.144 -15.087 -35.509  1.00  0.00    -0.008 C 
ATOM     19  C   UNL     1      -1.286 -12.912 -34.423  1.00  0.00     0.009 C 
ATOM     20  C   UNL     1      -1.105 -14.442 -34.510  1.00  0.00     0.007 C 
ATOM     21  C   UNL     1      -1.753 -16.578 -35.812  1.00  0.00     0.014 C 
ATOM     22  C   UNL     1      -3.548 -15.087 -34.842  1.00  0.00     0.016 C 
ATOM     23  C   UNL     1       0.372 -14.986 -34.664  1.00  0.00    -0.006 C 
ATOM     24  C   UNL     1      -0.993 -17.243 -34.667  1.00  0.00     0.033 C 
ATOM     25  C   UNL     1       0.362 -16.549 -34.381  1.00  0.00     0.120 C 
ATOM     26  C   UNL     1       0.973 -14.717 -36.074  1.00  0.00     0.014 C 
ATOM     27  C   UNL     1       1.331 -14.289 -33.657  1.00  0.00     0.014 C 
BRANCH  25  28
ATOM     28  O   UNL     1       0.755 -16.861 -33.065  1.00  0.00    -0.393 OA
ATOM     29  H   UNL     1       0.903 -17.842 -33.017  1.00  0.00     0.210 HD
ENDBRANCH  25  28
ENDBRANCH   2   6
ENDBRANCH   1   2
BRANCH   1  30
ATOM     30  C   UNL     1      -1.158 -11.757 -42.566  1.00  0.00     0.031 C 
BRANCH  30  31
ATOM     31  C   UNL     1      -0.008 -10.784 -42.416  1.00  0.00    -0.075 C 
ATOM     32  C   UNL     1      -0.271  -9.471 -42.288  1.00  0.00     0.008 C 
BRANCH  31  33
ATOM     33  C   UNL     1       1.424 -11.303 -42.423  1.00  0.00     0.008 C 
ATOM     34  C   UNL     1       2.372 -10.330 -41.712  1.00  0.00     0.012 C 
ATOM     35  C   UNL     1       1.907 -11.599 -43.849  1.00  0.00     0.012 C 
ENDBRANCH  31  33
ENDBRANCH  30  31
ENDBRANCH   1  30
TORSDOF 7
ENDMDL
MODEL 9
REMARK VINA RESULT:    -4.990     11.683     15.026
REMARK INTER + INTRA:          -8.497
REMARK INTER:                  -7.131
REMARK INTRA:                  -1.365
REMARK UNBOUND:                -1.610
REMARK SMILES C=C(CC[C@H](C(=O)[O-])[C@@H]1CC[C@@]2(C)C3=C(CC[C@]12C)[C@@]1(C)CC[C@H](O)C(C)(C)[C@H]1CC3)C(C)C
REMARK SMILES IDX 4 1 5 2 6 3 7 4 8 5 9 6 10 7 18 8 11 9 12 10 17 11 19 12
REMARK SMILES IDX 13 13 14 14 16 15 15 16 31 17 20 18 30 19 29 20 22 21 21 22
REMARK SMILES IDX 26 23 23 24 24 25 27 26 28 27 25 28 3 30 2 31 1 32 32 33
REMARK SMILES IDX 33 34 34 35
REMARK H PARENT 25 29
REMARK Flexibility Score: inf
ROOT
ATOM      1  C   UNL     1       2.154 -25.819 -45.239  1.00  0.00     0.014 C 
ENDROOT
BRANCH   1   2
ATOM      2  C   UNL     1       2.802 -24.907 -44.160  1.00  0.00     0.039 C 
BRANCH   2   3
ATOM      3  C   UNL     1       4.188 -25.438 -43.878  1.00  0.00     0.045 C 
ATOM      4  O   UNL     1       4.370 -26.326 -43.005  1.00  0.00    -0.550 OA
ATOM      5  O   UNL     1       5.271 -24.974 -44.616  1.00  0.00    -0.550 OA
ENDBRANCH   2   3
BRANCH   2   6
ATOM      6  C   UNL     1       1.942 -24.847 -42.851  1.00  0.00     0.004 C 
ATOM      7  C   UNL     1       0.430 -25.117 -43.092  1.00  0.00     0.006 C 
ATOM      8  C   UNL     1       1.969 -23.516 -42.003  1.00  0.00    -0.020 C 
ATOM      9  C   UNL     1      -0.354 -24.048 -42.325  1.00  0.00     0.012 C 
ATOM     10  C   UNL     1       0.594 -22.843 -42.288  1.00  0.00    -0.006 C 
ATOM     11  C   UNL     1       3.063 -22.462 -42.277  1.00  0.00     0.012 C 
ATOM     12  C   UNL     1       2.130 -23.956 -40.503  1.00  0.00     0.012 C 
ATOM     13  C   UNL     1       0.480 -22.126 -43.674  1.00  0.00     0.017 C 
ATOM     14  C   UNL     1       0.342 -21.769 -41.234  1.00  0.00    -0.064 C 
ATOM     15  C   UNL     1       2.771 -21.103 -41.568  1.00  0.00     0.032 C 
ATOM     16  C   UNL     1       1.363 -20.894 -40.944  1.00  0.00    -0.064 C 
ATOM     17  C   UNL     1      -1.069 -21.611 -40.696  1.00  0.00     0.032 C 
ATOM     18  C   UNL     1       1.197 -19.762 -39.904  1.00  0.00    -0.008 C 
ATOM     19  C   UNL     1      -1.209 -20.618 -39.552  1.00  0.00     0.009 C 
ATOM     20  C   UNL     1      -0.316 -19.367 -39.685  1.00  0.00     0.007 C 
ATOM     21  C   UNL     1       2.031 -18.502 -40.334  1.00  0.00     0.014 C 
ATOM     22  C   UNL     1       1.779 -20.284 -38.561  1.00  0.00     0.016 C 
ATOM     23  C   UNL     1      -0.832 -18.209 -40.632  1.00  0.00    -0.006 C 
ATOM     24  C   UNL     1       1.456 -17.192 -39.802  1.00  0.00     0.033 C 
ATOM     25  C   UNL     1       0.035 -16.908 -40.350  1.00  0.00     0.120 C 
ATOM     26  C   UNL     1      -0.743 -18.577 -42.141  1.00  0.00     0.014 C 
ATOM     27  C   UNL     1      -2.331 -17.895 -40.362  1.00  0.00     0.014 C 
BRANCH  25  28
ATOM     28  O   UNL     1      -0.610 -16.010 -39.479  1.00  0.00    -0.393 OA
ATOM     29  H   UNL     1      -0.316 -16.221 -38.554  1.00  0.00     0.210 HD
ENDBRANCH  25  28
ENDBRANCH   2   6
ENDBRANCH   1   2
BRANCH   1  30
ATOM     30  C   UNL     1       1.421 -25.017 -46.340  1.00  0.00     0.031 C 
BRANCH  30  31
ATOM     31  C   UNL     1       0.265 -25.796 -46.930  1.00  0.00    -0.075 C 
ATOM     32  C   UNL     1       0.448 -27.085 -47.269  1.00  0.00     0.008 C 
BRANCH  31  33
ATOM     33  C   UNL     1      -1.079 -25.110 -47.139  1.00  0.00     0.008 C 
ATOM     34  C   UNL     1      -1.350 -24.074 -46.041  1.00  0.00     0.012 C 
ATOM     35  C   UNL     1      -2.222 -26.129 -47.228  1.00  0.00     0.012 C 
ENDBRANCH  31  33
ENDBRANCH  30  31
ENDBRANCH   1  30
TORSDOF 7
ENDMDL
