MODEL 1
REMARK VINA RESULT:    -9.420      0.000      0.000
REMARK INTER + INTRA:         -13.958
REMARK INTER:                 -14.377
REMARK INTRA:                   0.419
REMARK UNBOUND:                 0.419
REMARK SMILES COc1cc(C=CCOC(=O)C=Cc2ccc(O)c(OC)c2)ccc1O
REMARK SMILES IDX 9 1 8 2 7 3 6 4 5 5 3 6 25 7 4 8 24 9 23 10 2 11 1 12 26 13
REMARK SMILES IDX 10 15 11 16 12 17 13 18 14 19 22 20 15 21 19 22 16 23 17 24
REMARK SMILES IDX 20 25 21 26 18 27
REMARK H PARENT 26 14 18 28
REMARK Flexibility Score: inf
ROOT
ATOM      1  O   UNL     1     -22.310 -11.427 -30.697  1.00  0.00    -0.458 OA
ENDROOT
BRANCH   1   2
ATOM      2  C   UNL     1     -22.990 -11.781 -31.898  1.00  0.00     0.261 C 
BRANCH   2   3
ATOM      3  C   UNL     1     -22.107 -11.533 -33.086  1.00  0.00     0.015 C 
ATOM      4  C   UNL     1     -22.517 -11.798 -34.332  1.00  0.00     0.007 C 
BRANCH   4   5
ATOM      5  C   UNL     1     -21.668 -11.619 -35.536  1.00  0.00    -0.022 A 
ATOM      6  C   UNL     1     -19.437 -11.250 -36.473  1.00  0.00     0.161 A 
ATOM      7  C   UNL     1     -19.981 -11.297 -37.769  1.00  0.00     0.157 A 
ATOM      8  C   UNL     1     -20.289 -11.417 -35.363  1.00  0.00     0.058 A 
ATOM      9  C   UNL     1     -21.350 -11.514 -37.945  1.00  0.00     0.051 A 
ATOM     10  C   UNL     1     -22.189 -11.678 -36.842  1.00  0.00     0.012 A 
BRANCH   6  11
ATOM     11  O   UNL     1     -18.057 -11.036 -36.326  1.00  0.00    -0.493 OA
ATOM     12  C   UNL     1     -17.409  -9.780 -36.502  1.00  0.00     0.278 C 
ENDBRANCH   6  11
BRANCH   7  13
ATOM     13  O   UNL     1     -19.175 -11.136 -38.896  1.00  0.00    -0.504 OA
ATOM     14  H   UNL     1     -19.554 -11.120 -39.834  1.00  0.00     0.293 HD
ENDBRANCH   7  13
ENDBRANCH   4   5
ENDBRANCH   2   3
ENDBRANCH   1   2
BRANCH   1  15
ATOM     15  C   UNL     1     -22.867 -10.608 -29.707  1.00  0.00     0.331 C 
ATOM     16  O   UNL     1     -23.040 -11.049 -28.539  1.00  0.00    -0.247 OA
BRANCH  15  17
ATOM     17  C   UNL     1     -23.206  -9.200 -29.993  1.00  0.00     0.094 C 
ATOM     18  C   UNL     1     -23.853  -8.374 -29.158  1.00  0.00     0.016 C 
BRANCH  18  19
ATOM     19  C   UNL     1     -24.175  -8.668 -27.747  1.00  0.00    -0.021 A 
ATOM     20  C   UNL     1     -23.293  -8.252 -26.738  1.00  0.00     0.058 A 
ATOM     21  C   UNL     1     -25.301  -9.434 -27.405  1.00  0.00     0.012 A 
ATOM     22  C   UNL     1     -23.559  -8.551 -25.387  1.00  0.00     0.161 A 
ATOM     23  C   UNL     1     -25.569  -9.733 -26.068  1.00  0.00     0.051 A 
ATOM     24  C   UNL     1     -24.704  -9.291 -25.059  1.00  0.00     0.157 A 
BRANCH  22  25
ATOM     25  O   UNL     1     -22.712  -8.135 -24.348  1.00  0.00    -0.493 OA
ATOM     26  C   UNL     1     -21.478  -8.763 -24.013  1.00  0.00     0.278 C 
ENDBRANCH  22  25
BRANCH  24  27
ATOM     27  O   UNL     1     -24.975  -9.586 -23.723  1.00  0.00    -0.504 OA
ATOM     28  H   UNL     1     -24.833 -10.516 -23.347  1.00  0.00     0.293 HD
ENDBRANCH  24  27
ENDBRANCH  18  19
ENDBRANCH  15  17
ENDBRANCH   1  15
TORSDOF 10
ENDMDL
MODEL 2
REMARK VINA RESULT:    -9.410      8.114     14.146
REMARK INTER + INTRA:         -13.941
REMARK INTER:                 -14.256
REMARK INTRA:                   0.315
REMARK UNBOUND:                 0.419
REMARK SMILES COc1cc(C=CCOC(=O)C=Cc2ccc(O)c(OC)c2)ccc1O
REMARK SMILES IDX 9 1 8 2 7 3 6 4 5 5 3 6 25 7 4 8 24 9 23 10 2 11 1 12 26 13
REMARK SMILES IDX 10 15 11 16 12 17 13 18 14 19 22 20 15 21 19 22 16 23 17 24
REMARK SMILES IDX 20 25 21 26 18 27
REMARK H PARENT 26 14 18 28
REMARK Flexibility Score: inf
ROOT
ATOM      1  O   UNL     1     -31.023 -12.807 -32.689  1.00  0.00    -0.458 OA
ENDROOT
BRANCH   1   2
ATOM      2  C   UNL     1     -30.360 -12.770 -31.429  1.00  0.00     0.261 C 
BRANCH   2   3
ATOM      3  C   UNL     1     -31.235 -12.114 -30.402  1.00  0.00     0.015 C 
ATOM      4  C   UNL     1     -30.757 -11.743 -29.208  1.00  0.00     0.007 C 
BRANCH   4   5
ATOM      5  C   UNL     1     -31.589 -11.136 -28.138  1.00  0.00    -0.022 A 
ATOM      6  C   UNL     1     -33.820 -10.715 -27.224  1.00  0.00     0.161 A 
ATOM      7  C   UNL     1     -33.239 -10.038 -26.137  1.00  0.00     0.157 A 
ATOM      8  C   UNL     1     -32.985 -11.265 -28.217  1.00  0.00     0.058 A 
ATOM      9  C   UNL     1     -31.850  -9.922 -26.046  1.00  0.00     0.051 A 
ATOM     10  C   UNL     1     -31.027 -10.469 -27.033  1.00  0.00     0.012 A 
BRANCH   6  11
ATOM     11  O   UNL     1     -35.219 -10.821 -27.286  1.00  0.00    -0.493 OA
ATOM     12  C   UNL     1     -36.083  -9.821 -27.816  1.00  0.00     0.278 C 
ENDBRANCH   6  11
BRANCH   7  13
ATOM     13  O   UNL     1     -34.028  -9.478 -25.132  1.00  0.00    -0.504 OA
ATOM     14  H   UNL     1     -33.733  -8.667 -24.602  1.00  0.00     0.293 HD
ENDBRANCH   7  13
ENDBRANCH   4   5
ENDBRANCH   2   3
ENDBRANCH   1   2
BRANCH   1  15
ATOM     15  C   UNL     1     -30.413 -12.434 -33.893  1.00  0.00     0.331 C 
ATOM     16  O   UNL     1     -30.005 -13.313 -34.700  1.00  0.00    -0.247 OA
BRANCH  15  17
ATOM     17  C   UNL     1     -30.289 -11.012 -34.270  1.00  0.00     0.094 C 
ATOM     18  C   UNL     1     -29.712 -10.556 -35.391  1.00  0.00     0.016 C 
BRANCH  18  19
ATOM     19  C   UNL     1     -29.267 -11.393 -36.524  1.00  0.00    -0.021 A 
ATOM     20  C   UNL     1     -30.185 -11.740 -37.526  1.00  0.00     0.058 A 
ATOM     21  C   UNL     1     -27.966 -11.920 -36.568  1.00  0.00     0.012 A 
ATOM     22  C   UNL     1     -29.796 -12.567 -38.599  1.00  0.00     0.161 A 
ATOM     23  C   UNL     1     -27.575 -12.739 -37.629  1.00  0.00     0.051 A 
ATOM     24  C   UNL     1     -28.484 -13.061 -38.645  1.00  0.00     0.157 A 
BRANCH  22  25
ATOM     25  O   UNL     1     -30.680 -12.920 -39.630  1.00  0.00    -0.493 OA
ATOM     26  C   UNL     1     -31.871 -13.678 -39.447  1.00  0.00     0.278 C 
ENDBRANCH  22  25
BRANCH  24  27
ATOM     27  O   UNL     1     -28.091 -13.876 -39.706  1.00  0.00    -0.504 OA
ATOM     28  H   UNL     1     -28.168 -13.568 -40.667  1.00  0.00     0.293 HD
ENDBRANCH  24  27
ENDBRANCH  18  19
ENDBRANCH  15  17
ENDBRANCH   1  15
TORSDOF 10
ENDMDL
MODEL 3
REMARK VINA RESULT:    -9.373      1.347      1.811
REMARK INTER + INTRA:         -13.885
REMARK INTER:                 -14.049
REMARK INTRA:                   0.164
REMARK UNBOUND:                 0.419
REMARK SMILES COc1cc(C=CCOC(=O)C=Cc2ccc(O)c(OC)c2)ccc1O
REMARK SMILES IDX 9 1 8 2 7 3 6 4 5 5 3 6 25 7 4 8 24 9 23 10 2 11 1 12 26 13
REMARK SMILES IDX 10 15 11 16 12 17 13 18 14 19 22 20 15 21 19 22 16 23 17 24
REMARK SMILES IDX 20 25 21 26 18 27
REMARK H PARENT 26 14 18 28
REMARK Flexibility Score: inf
ROOT
ATOM      1  O   UNL     1     -22.848 -10.953 -29.543  1.00  0.00    -0.458 OA
ENDROOT
BRANCH   1   2
ATOM      2  C   UNL     1     -21.988 -10.179 -30.375  1.00  0.00     0.261 C 
BRANCH   2   3
ATOM      3  C   UNL     1     -21.844 -10.830 -31.719  1.00  0.00     0.015 C 
ATOM      4  C   UNL     1     -22.118 -10.168 -32.850  1.00  0.00     0.007 C 
BRANCH   4   5
ATOM      5  C   UNL     1     -22.041 -10.778 -34.202  1.00  0.00    -0.022 A 
ATOM      6  C   UNL     1     -20.648 -11.661 -36.010  1.00  0.00     0.161 A 
ATOM      7  C   UNL     1     -21.807 -11.961 -36.747  1.00  0.00     0.157 A 
ATOM      8  C   UNL     1     -20.776 -11.074 -34.735  1.00  0.00     0.058 A 
ATOM      9  C   UNL     1     -23.067 -11.682 -36.213  1.00  0.00     0.051 A 
ATOM     10  C   UNL     1     -23.189 -11.101 -34.950  1.00  0.00     0.012 A 
BRANCH   6  11
ATOM     11  O   UNL     1     -19.395 -11.957 -36.570  1.00  0.00    -0.493 OA
ATOM     12  C   UNL     1     -18.648 -11.069 -37.397  1.00  0.00     0.278 C 
ENDBRANCH   6  11
BRANCH   7  13
ATOM     13  O   UNL     1     -21.727 -12.541 -38.013  1.00  0.00    -0.504 OA
ATOM     14  H   UNL     1     -21.591 -11.991 -38.853  1.00  0.00     0.293 HD
ENDBRANCH   7  13
ENDBRANCH   4   5
ENDBRANCH   2   3
ENDBRANCH   1   2
BRANCH   1  15
ATOM     15  C   UNL     1     -23.690 -10.396 -28.573  1.00  0.00     0.331 C 
ATOM     16  O   UNL     1     -23.880 -10.989 -27.477  1.00  0.00    -0.247 OA
BRANCH  15  17
ATOM     17  C   UNL     1     -24.324  -9.080 -28.787  1.00  0.00     0.094 C 
ATOM     18  C   UNL     1     -24.695  -8.232 -27.817  1.00  0.00     0.016 C 
BRANCH  18  19
ATOM     19  C   UNL     1     -24.370  -8.381 -26.383  1.00  0.00    -0.021 A 
ATOM     20  C   UNL     1     -23.051  -8.179 -25.951  1.00  0.00     0.058 A 
ATOM     21  C   UNL     1     -25.340  -8.807 -25.462  1.00  0.00     0.012 A 
ATOM     22  C   UNL     1     -22.708  -8.349 -24.595  1.00  0.00     0.161 A 
ATOM     23  C   UNL     1     -25.005  -8.977 -24.117  1.00  0.00     0.051 A 
ATOM     24  C   UNL     1     -23.695  -8.746 -23.681  1.00  0.00     0.157 A 
BRANCH  22  25
ATOM     25  O   UNL     1     -21.404  -8.137 -24.121  1.00  0.00    -0.493 OA
ATOM     26  C   UNL     1     -20.525  -9.171 -23.689  1.00  0.00     0.278 C 
ENDBRANCH  22  25
BRANCH  24  27
ATOM     27  O   UNL     1     -23.362  -8.913 -22.337  1.00  0.00    -0.504 OA
ATOM     28  H   UNL     1     -22.591  -9.504 -22.052  1.00  0.00     0.293 HD
ENDBRANCH  24  27
ENDBRANCH  18  19
ENDBRANCH  15  17
ENDBRANCH   1  15
TORSDOF 10
ENDMDL
MODEL 4
REMARK VINA RESULT:    -9.352      1.441     10.634
REMARK INTER + INTRA:         -13.853
REMARK INTER:                 -14.216
REMARK INTRA:                   0.362
REMARK UNBOUND:                 0.419
REMARK SMILES COc1cc(C=CCOC(=O)C=Cc2ccc(O)c(OC)c2)ccc1O
REMARK SMILES IDX 9 1 8 2 7 3 6 4 5 5 3 6 25 7 4 8 24 9 23 10 2 11 1 12 26 13
REMARK SMILES IDX 10 15 11 16 12 17 13 18 14 19 22 20 15 21 19 22 16 23 17 24
REMARK SMILES IDX 20 25 21 26 18 27
REMARK H PARENT 26 14 18 28
REMARK Flexibility Score: inf
ROOT
ATOM      1  O   UNL     1     -22.500  -8.814 -31.053  1.00  0.00    -0.458 OA
ENDROOT
BRANCH   1   2
ATOM      2  C   UNL     1     -23.721  -8.653 -30.338  1.00  0.00     0.261 C 
BRANCH   2   3
ATOM      3  C   UNL     1     -23.471  -8.732 -28.861  1.00  0.00     0.015 C 
ATOM      4  C   UNL     1     -24.472  -8.655 -27.975  1.00  0.00     0.007 C 
BRANCH   4   5
ATOM      5  C   UNL     1     -24.276  -8.678 -26.503  1.00  0.00    -0.022 A 
ATOM      6  C   UNL     1     -22.752  -8.440 -24.604  1.00  0.00     0.161 A 
ATOM      7  C   UNL     1     -23.822  -8.676 -23.724  1.00  0.00     0.157 A 
ATOM      8  C   UNL     1     -22.990  -8.437 -25.993  1.00  0.00     0.058 A 
ATOM      9  C   UNL     1     -25.105  -8.900 -24.228  1.00  0.00     0.051 A 
ATOM     10  C   UNL     1     -25.337  -8.898 -25.605  1.00  0.00     0.012 A 
BRANCH   6  11
ATOM     11  O   UNL     1     -21.473  -8.212 -24.068  1.00  0.00    -0.493 OA
ATOM     12  C   UNL     1     -20.627  -9.225 -23.535  1.00  0.00     0.278 C 
ENDBRANCH   6  11
BRANCH   7  13
ATOM     13  O   UNL     1     -23.631  -8.688 -22.342  1.00  0.00    -0.504 OA
ATOM     14  H   UNL     1     -23.931  -9.461 -21.761  1.00  0.00     0.293 HD
ENDBRANCH   7  13
ENDBRANCH   4   5
ENDBRANCH   2   3
ENDBRANCH   1   2
BRANCH   1  15
ATOM     15  C   UNL     1     -22.342  -9.705 -32.122  1.00  0.00     0.331 C 
ATOM     16  O   UNL     1     -22.155  -9.271 -33.290  1.00  0.00    -0.247 OA
BRANCH  15  17
ATOM     17  C   UNL     1     -22.332 -11.163 -31.895  1.00  0.00     0.094 C 
ATOM     18  C   UNL     1     -22.308 -12.097 -32.858  1.00  0.00     0.016 C 
BRANCH  18  19
ATOM     19  C   UNL     1     -22.103 -11.833 -34.297  1.00  0.00    -0.021 A 
ATOM     20  C   UNL     1     -20.798 -11.790 -34.810  1.00  0.00     0.058 A 
ATOM     21  C   UNL     1     -23.185 -11.537 -35.140  1.00  0.00     0.012 A 
ATOM     22  C   UNL     1     -20.573 -11.505 -36.172  1.00  0.00     0.161 A 
ATOM     23  C   UNL     1     -22.968 -11.255 -36.490  1.00  0.00     0.051 A 
ATOM     24  C   UNL     1     -21.667 -11.242 -37.008  1.00  0.00     0.157 A 
BRANCH  22  25
ATOM     25  O   UNL     1     -19.284 -11.473 -36.726  1.00  0.00    -0.493 OA
ATOM     26  C   UNL     1     -18.225 -10.643 -36.258  1.00  0.00     0.278 C 
ENDBRANCH  22  25
BRANCH  24  27
ATOM     27  O   UNL     1     -21.452 -10.963 -38.357  1.00  0.00    -0.504 OA
ATOM     28  H   UNL     1     -20.517 -10.882 -38.739  1.00  0.00     0.293 HD
ENDBRANCH  24  27
ENDBRANCH  18  19
ENDBRANCH  15  17
ENDBRANCH   1  15
TORSDOF 10
ENDMDL
MODEL 5
REMARK VINA RESULT:    -9.312      8.156      9.581
REMARK INTER + INTRA:         -13.792
REMARK INTER:                 -14.192
REMARK INTRA:                   0.399
REMARK UNBOUND:                 0.419
REMARK SMILES COc1cc(C=CCOC(=O)C=Cc2ccc(O)c(OC)c2)ccc1O
REMARK SMILES IDX 9 1 8 2 7 3 6 4 5 5 3 6 25 7 4 8 24 9 23 10 2 11 1 12 26 13
REMARK SMILES IDX 10 15 11 16 12 17 13 18 14 19 22 20 15 21 19 22 16 23 17 24
REMARK SMILES IDX 20 25 21 26 18 27
REMARK H PARENT 26 14 18 28
REMARK Flexibility Score: inf
ROOT
ATOM      1  O   UNL     1     -31.056 -10.357 -33.334  1.00  0.00    -0.458 OA
ENDROOT
BRANCH   1   2
ATOM      2  C   UNL     1     -29.842 -10.362 -34.080  1.00  0.00     0.261 C 
BRANCH   2   3
ATOM      3  C   UNL     1     -30.037 -11.082 -35.381  1.00  0.00     0.015 C 
ATOM      4  C   UNL     1     -28.997 -11.498 -36.114  1.00  0.00     0.007 C 
BRANCH   4   5
ATOM      5  C   UNL     1     -29.132 -12.170 -37.431  1.00  0.00    -0.022 A 
ATOM      6  C   UNL     1     -30.604 -13.060 -39.172  1.00  0.00     0.161 A 
ATOM      7  C   UNL     1     -29.477 -13.416 -39.934  1.00  0.00     0.157 A 
ATOM      8  C   UNL     1     -30.420 -12.432 -37.924  1.00  0.00     0.058 A 
ATOM      9  C   UNL     1     -28.194 -13.142 -39.454  1.00  0.00     0.051 A 
ATOM     10  C   UNL     1     -28.017 -12.521 -38.216  1.00  0.00     0.012 A 
BRANCH   6  11
ATOM     11  O   UNL     1     -31.882 -13.342 -39.682  1.00  0.00    -0.493 OA
ATOM     12  C   UNL     1     -32.466 -14.640 -39.728  1.00  0.00     0.278 C 
ENDBRANCH   6  11
BRANCH   7  13
ATOM     13  O   UNL     1     -29.612 -14.040 -41.174  1.00  0.00    -0.504 OA
ATOM     14  H   UNL     1     -29.139 -13.703 -42.003  1.00  0.00     0.293 HD
ENDBRANCH   7  13
ENDBRANCH   4   5
ENDBRANCH   2   3
ENDBRANCH   1   2
BRANCH   1  15
ATOM     15  C   UNL     1     -31.125 -10.668 -31.970  1.00  0.00     0.331 C 
ATOM     16  O   UNL     1     -31.494  -9.797 -31.136  1.00  0.00    -0.247 OA
BRANCH  15  17
ATOM     17  C   UNL     1     -30.827 -12.031 -31.489  1.00  0.00     0.094 C 
ATOM     18  C   UNL     1     -30.744 -12.396 -30.201  1.00  0.00     0.016 C 
BRANCH  18  19
ATOM     19  C   UNL     1     -31.113 -11.550 -29.048  1.00  0.00    -0.021 A 
ATOM     20  C   UNL     1     -32.418 -11.612 -28.538  1.00  0.00     0.058 A 
ATOM     21  C   UNL     1     -30.207 -10.621 -28.512  1.00  0.00     0.012 A 
ATOM     22  C   UNL     1     -32.806 -10.789 -27.461  1.00  0.00     0.161 A 
ATOM     23  C   UNL     1     -30.586  -9.805 -27.445  1.00  0.00     0.051 A 
ATOM     24  C   UNL     1     -31.880  -9.888 -26.916  1.00  0.00     0.157 A 
BRANCH  22  25
ATOM     25  O   UNL     1     -34.097 -10.837 -26.911  1.00  0.00    -0.493 OA
ATOM     26  C   UNL     1     -35.243 -10.220 -27.489  1.00  0.00     0.278 C 
ENDBRANCH  22  25
BRANCH  24  27
ATOM     27  O   UNL     1     -32.257  -9.075 -25.849  1.00  0.00    -0.504 OA
ATOM     28  H   UNL     1     -32.423  -9.456 -24.925  1.00  0.00     0.293 HD
ENDBRANCH  24  27
ENDBRANCH  18  19
ENDBRANCH  15  17
ENDBRANCH   1  15
TORSDOF 10
ENDMDL
MODEL 6
REMARK VINA RESULT:    -9.283      8.163      9.658
REMARK INTER + INTRA:         -13.747
REMARK INTER:                 -13.855
REMARK INTRA:                   0.108
REMARK UNBOUND:                 0.419
REMARK SMILES COc1cc(C=CCOC(=O)C=Cc2ccc(O)c(OC)c2)ccc1O
REMARK SMILES IDX 9 1 8 2 7 3 6 4 5 5 3 6 25 7 4 8 24 9 23 10 2 11 1 12 26 13
REMARK SMILES IDX 10 15 11 16 12 17 13 18 14 19 22 20 15 21 19 22 16 23 17 24
REMARK SMILES IDX 20 25 21 26 18 27
REMARK H PARENT 26 14 18 28
REMARK Flexibility Score: inf
ROOT
ATOM      1  O   UNL     1     -31.301 -10.458 -31.731  1.00  0.00    -0.458 OA
ENDROOT
BRANCH   1   2
ATOM      2  C   UNL     1     -31.454 -11.647 -32.500  1.00  0.00     0.261 C 
BRANCH   2   3
ATOM      3  C   UNL     1     -30.824 -11.475 -33.850  1.00  0.00     0.015 C 
ATOM      4  C   UNL     1     -30.276 -12.507 -34.505  1.00  0.00     0.007 C 
BRANCH   4   5
ATOM      5  C   UNL     1     -29.596 -12.383 -35.818  1.00  0.00    -0.022 A 
ATOM      6  C   UNL     1     -29.775 -12.344 -38.259  1.00  0.00     0.161 A 
ATOM      7  C   UNL     1     -28.388 -12.132 -38.350  1.00  0.00     0.157 A 
ATOM      8  C   UNL     1     -30.370 -12.462 -36.987  1.00  0.00     0.058 A 
ATOM      9  C   UNL     1     -27.617 -12.037 -37.190  1.00  0.00     0.051 A 
ATOM     10  C   UNL     1     -28.211 -12.156 -35.932  1.00  0.00     0.012 A 
BRANCH   6  11
ATOM     11  O   UNL     1     -30.526 -12.429 -39.442  1.00  0.00    -0.493 OA
ATOM     12  C   UNL     1     -30.670 -13.610 -40.225  1.00  0.00     0.278 C 
ENDBRANCH   6  11
BRANCH   7  13
ATOM     13  O   UNL     1     -27.758 -12.009 -39.589  1.00  0.00    -0.504 OA
ATOM     14  H   UNL     1     -26.752 -12.075 -39.693  1.00  0.00     0.293 HD
ENDBRANCH   7  13
ENDBRANCH   4   5
ENDBRANCH   2   3
ENDBRANCH   1   2
BRANCH   1  15
ATOM     15  C   UNL     1     -31.031 -10.457 -30.356  1.00  0.00     0.331 C 
ATOM     16  O   UNL     1     -31.181  -9.404 -29.679  1.00  0.00    -0.247 OA
BRANCH  15  17
ATOM     17  C   UNL     1     -30.624 -11.695 -29.665  1.00  0.00     0.094 C 
ATOM     18  C   UNL     1     -30.963 -12.029 -28.411  1.00  0.00     0.016 C 
BRANCH  18  19
ATOM     19  C   UNL     1     -31.945 -11.311 -27.572  1.00  0.00    -0.021 A 
ATOM     20  C   UNL     1     -33.307 -11.375 -27.900  1.00  0.00     0.058 A 
ATOM     21  C   UNL     1     -31.529 -10.495 -26.508  1.00  0.00     0.012 A 
ATOM     22  C   UNL     1     -34.261 -10.670 -27.137  1.00  0.00     0.161 A 
ATOM     23  C   UNL     1     -32.469  -9.795 -25.750  1.00  0.00     0.051 A 
ATOM     24  C   UNL     1     -33.832  -9.883 -26.058  1.00  0.00     0.157 A 
BRANCH  22  25
ATOM     25  O   UNL     1     -35.634 -10.725 -27.421  1.00  0.00    -0.493 OA
ATOM     26  C   UNL     1     -36.404  -9.626 -27.899  1.00  0.00     0.278 C 
ENDBRANCH  22  25
BRANCH  24  27
ATOM     27  O   UNL     1     -34.771  -9.187 -25.298  1.00  0.00    -0.504 OA
ATOM     28  H   UNL     1     -35.352  -8.464 -25.705  1.00  0.00     0.293 HD
ENDBRANCH  24  27
ENDBRANCH  18  19
ENDBRANCH  15  17
ENDBRANCH   1  15
TORSDOF 10
ENDMDL
MODEL 7
REMARK VINA RESULT:    -9.186      1.014     10.658
REMARK INTER + INTRA:         -13.599
REMARK INTER:                 -14.096
REMARK INTRA:                   0.497
REMARK UNBOUND:                 0.419
REMARK SMILES COc1cc(C=CCOC(=O)C=Cc2ccc(O)c(OC)c2)ccc1O
REMARK SMILES IDX 9 1 8 2 7 3 6 4 5 5 3 6 25 7 4 8 24 9 23 10 2 11 1 12 26 13
REMARK SMILES IDX 10 15 11 16 12 17 13 18 14 19 22 20 15 21 19 22 16 23 17 24
REMARK SMILES IDX 20 25 21 26 18 27
REMARK H PARENT 26 14 18 28
REMARK Flexibility Score: inf
ROOT
ATOM      1  O   UNL     1     -21.893  -9.890 -31.975  1.00  0.00    -0.458 OA
ENDROOT
BRANCH   1   2
ATOM      2  C   UNL     1     -22.502  -8.782 -31.317  1.00  0.00     0.261 C 
BRANCH   2   3
ATOM      3  C   UNL     1     -22.755  -9.111 -29.876  1.00  0.00     0.015 C 
ATOM      4  C   UNL     1     -23.824  -8.635 -29.225  1.00  0.00     0.007 C 
BRANCH   4   5
ATOM      5  C   UNL     1     -24.095  -8.888 -27.787  1.00  0.00    -0.022 A 
ATOM      6  C   UNL     1     -23.434  -8.555 -25.455  1.00  0.00     0.161 A 
ATOM      7  C   UNL     1     -24.553  -9.298 -25.039  1.00  0.00     0.157 A 
ATOM      8  C   UNL     1     -23.217  -8.351 -26.832  1.00  0.00     0.058 A 
ATOM      9  C   UNL     1     -25.437  -9.820 -25.985  1.00  0.00     0.051 A 
ATOM     10  C   UNL     1     -25.218  -9.615 -27.349  1.00  0.00     0.012 A 
BRANCH   6  11
ATOM     11  O   UNL     1     -22.565  -8.037 -24.481  1.00  0.00    -0.493 OA
ATOM     12  C   UNL     1     -21.499  -8.765 -23.879  1.00  0.00     0.278 C 
ENDBRANCH   6  11
BRANCH   7  13
ATOM     13  O   UNL     1     -24.805  -9.524 -23.686  1.00  0.00    -0.504 OA
ATOM     14  H   UNL     1     -25.198 -10.394 -23.347  1.00  0.00     0.293 HD
ENDBRANCH   7  13
ENDBRANCH   4   5
ENDBRANCH   2   3
ENDBRANCH   1   2
BRANCH   1  15
ATOM     15  C   UNL     1     -22.250 -10.317 -33.260  1.00  0.00     0.331 C 
ATOM     16  O   UNL     1     -22.150  -9.533 -34.242  1.00  0.00    -0.247 OA
BRANCH  15  17
ATOM     17  C   UNL     1     -22.692 -11.704 -33.500  1.00  0.00     0.094 C 
ATOM     18  C   UNL     1     -22.446 -12.414 -34.611  1.00  0.00     0.016 C 
BRANCH  18  19
ATOM     19  C   UNL     1     -21.541 -12.002 -35.704  1.00  0.00    -0.021 A 
ATOM     20  C   UNL     1     -20.193 -11.740 -35.420  1.00  0.00     0.058 A 
ATOM     21  C   UNL     1     -22.028 -11.784 -37.003  1.00  0.00     0.012 A 
ATOM     22  C   UNL     1     -19.318 -11.311 -36.438  1.00  0.00     0.161 A 
ATOM     23  C   UNL     1     -21.165 -11.360 -38.015  1.00  0.00     0.051 A 
ATOM     24  C   UNL     1     -19.812 -11.127 -37.738  1.00  0.00     0.157 A 
BRANCH  22  25
ATOM     25  O   UNL     1     -17.958 -11.058 -36.198  1.00  0.00    -0.493 OA
ATOM     26  C   UNL     1     -17.314  -9.812 -36.445  1.00  0.00     0.278 C 
ENDBRANCH  22  25
BRANCH  24  27
ATOM     27  O   UNL     1     -18.950 -10.707 -38.750  1.00  0.00    -0.504 OA
ATOM     28  H   UNL     1     -18.516  -9.792 -38.730  1.00  0.00     0.293 HD
ENDBRANCH  24  27
ENDBRANCH  18  19
ENDBRANCH  15  17
ENDBRANCH   1  15
TORSDOF 10
ENDMDL
MODEL 8
REMARK VINA RESULT:    -8.097      7.204     11.249
REMARK INTER + INTRA:         -11.938
REMARK INTER:                 -11.624
REMARK INTRA:                  -0.314
REMARK UNBOUND:                 0.419
REMARK SMILES COc1cc(C=CCOC(=O)C=Cc2ccc(O)c(OC)c2)ccc1O
REMARK SMILES IDX 9 1 8 2 7 3 6 4 5 5 3 6 25 7 4 8 24 9 23 10 2 11 1 12 26 13
REMARK SMILES IDX 10 15 11 16 12 17 13 18 14 19 22 20 15 21 19 22 16 23 17 24
REMARK SMILES IDX 20 25 21 26 18 27
REMARK H PARENT 26 14 18 28
REMARK Flexibility Score: inf
ROOT
ATOM      1  O   UNL     1     -27.594 -13.004 -36.461  1.00  0.00    -0.458 OA
ENDROOT
BRANCH   1   2
ATOM      2  C   UNL     1     -26.839 -11.796 -36.478  1.00  0.00     0.261 C 
BRANCH   2   3
ATOM      3  C   UNL     1     -25.400 -12.080 -36.164  1.00  0.00     0.015 C 
ATOM      4  C   UNL     1     -24.489 -11.101 -36.105  1.00  0.00     0.007 C 
BRANCH   4   5
ATOM      5  C   UNL     1     -23.045 -11.332 -35.848  1.00  0.00    -0.022 A 
ATOM      6  C   UNL     1     -20.795 -11.656 -36.755  1.00  0.00     0.161 A 
ATOM      7  C   UNL     1     -20.288 -11.743 -35.447  1.00  0.00     0.157 A 
ATOM      8  C   UNL     1     -22.176 -11.445 -36.944  1.00  0.00     0.058 A 
ATOM      9  C   UNL     1     -21.147 -11.616 -34.353  1.00  0.00     0.051 A 
ATOM     10  C   UNL     1     -22.514 -11.407 -34.546  1.00  0.00     0.012 A 
BRANCH   6  11
ATOM     11  O   UNL     1     -19.907 -11.782 -37.835  1.00  0.00    -0.493 OA
ATOM     12  C   UNL     1     -18.766 -10.957 -38.044  1.00  0.00     0.278 C 
ENDBRANCH   6  11
BRANCH   7  13
ATOM     13  O   UNL     1     -18.928 -11.952 -35.213  1.00  0.00    -0.504 OA
ATOM     14  H   UNL     1     -18.299 -12.278 -35.937  1.00  0.00     0.293 HD
ENDBRANCH   7  13
ENDBRANCH   4   5
ENDBRANCH   2   3
ENDBRANCH   1   2
BRANCH   1  15
ATOM     15  C   UNL     1     -28.953 -13.060 -36.128  1.00  0.00     0.331 C 
ATOM     16  O   UNL     1     -29.425 -14.072 -35.542  1.00  0.00    -0.247 OA
BRANCH  15  17
ATOM     17  C   UNL     1     -29.847 -11.918 -36.402  1.00  0.00     0.094 C 
ATOM     18  C   UNL     1     -30.407 -11.640 -37.588  1.00  0.00     0.016 C 
BRANCH  18  19
ATOM     19  C   UNL     1     -30.379 -12.521 -38.773  1.00  0.00    -0.021 A 
ATOM     20  C   UNL     1     -31.526 -13.251 -39.116  1.00  0.00     0.058 A 
ATOM     21  C   UNL     1     -29.197 -12.708 -39.508  1.00  0.00     0.012 A 
ATOM     22  C   UNL     1     -31.514 -14.127 -40.221  1.00  0.00     0.161 A 
ATOM     23  C   UNL     1     -29.180 -13.573 -40.604  1.00  0.00     0.051 A 
ATOM     24  C   UNL     1     -30.334 -14.279 -40.964  1.00  0.00     0.157 A 
BRANCH  22  25
ATOM     25  O   UNL     1     -32.647 -14.859 -40.607  1.00  0.00    -0.493 OA
ATOM     26  C   UNL     1     -33.156 -15.989 -39.904  1.00  0.00     0.278 C 
ENDBRANCH  22  25
BRANCH  24  27
ATOM     27  O   UNL     1     -30.317 -15.141 -42.060  1.00  0.00    -0.504 OA
ATOM     28  H   UNL     1     -29.894 -16.059 -42.006  1.00  0.00     0.293 HD
ENDBRANCH  24  27
ENDBRANCH  18  19
ENDBRANCH  15  17
ENDBRANCH   1  15
TORSDOF 10
ENDMDL
MODEL 9
REMARK VINA RESULT:    -8.084      7.855     13.750
REMARK INTER + INTRA:         -11.918
REMARK INTER:                 -12.107
REMARK INTRA:                   0.189
REMARK UNBOUND:                 0.419
REMARK SMILES COc1cc(C=CCOC(=O)C=Cc2ccc(O)c(OC)c2)ccc1O
REMARK SMILES IDX 9 1 8 2 7 3 6 4 5 5 3 6 25 7 4 8 24 9 23 10 2 11 1 12 26 13
REMARK SMILES IDX 10 15 11 16 12 17 13 18 14 19 22 20 15 21 19 22 16 23 17 24
REMARK SMILES IDX 20 25 21 26 18 27
REMARK H PARENT 26 14 18 28
REMARK Flexibility Score: inf
ROOT
ATOM      1  O   UNL     1     -30.044 -11.927 -32.144  1.00  0.00    -0.458 OA
ENDROOT
BRANCH   1   2
ATOM      2  C   UNL     1     -30.350 -12.812 -31.071  1.00  0.00     0.261 C 
BRANCH   2   3
ATOM      3  C   UNL     1     -31.299 -12.154 -30.112  1.00  0.00     0.015 C 
ATOM      4  C   UNL     1     -30.879 -11.650 -28.946  1.00  0.00     0.007 C 
BRANCH   4   5
ATOM      5  C   UNL     1     -31.781 -11.034 -27.940  1.00  0.00    -0.022 A 
ATOM      6  C   UNL     1     -34.068 -10.579 -27.199  1.00  0.00     0.161 A 
ATOM      7  C   UNL     1     -33.562  -9.918 -26.065  1.00  0.00     0.157 A 
ATOM      8  C   UNL     1     -33.168 -11.138 -28.128  1.00  0.00     0.058 A 
ATOM      9  C   UNL     1     -32.183  -9.827 -25.867  1.00  0.00     0.051 A 
ATOM     10  C   UNL     1     -31.295 -10.383 -26.791  1.00  0.00     0.012 A 
BRANCH   6  11
ATOM     11  O   UNL     1     -35.460 -10.660 -27.369  1.00  0.00    -0.493 OA
ATOM     12  C   UNL     1     -36.290  -9.575 -27.771  1.00  0.00     0.278 C 
ENDBRANCH   6  11
BRANCH   7  13
ATOM     13  O   UNL     1     -34.417  -9.350 -25.121  1.00  0.00    -0.504 OA
ATOM     14  H   UNL     1     -34.466  -9.683 -24.166  1.00  0.00     0.293 HD
ENDBRANCH   7  13
ENDBRANCH   4   5
ENDBRANCH   2   3
ENDBRANCH   1   2
BRANCH   1  15
ATOM     15  C   UNL     1     -30.477 -12.129 -33.460  1.00  0.00     0.331 C 
ATOM     16  O   UNL     1     -30.360 -13.261 -34.002  1.00  0.00    -0.247 OA
BRANCH  15  17
ATOM     17  C   UNL     1     -31.132 -11.043 -34.216  1.00  0.00     0.094 C 
ATOM     18  C   UNL     1     -30.893 -10.741 -35.501  1.00  0.00     0.016 C 
BRANCH  18  19
ATOM     19  C   UNL     1     -30.076 -11.548 -36.430  1.00  0.00    -0.021 A 
ATOM     20  C   UNL     1     -28.704 -11.702 -36.185  1.00  0.00     0.058 A 
ATOM     21  C   UNL     1     -30.632 -12.089 -37.601  1.00  0.00     0.012 A 
ATOM     22  C   UNL     1     -27.896 -12.438 -37.075  1.00  0.00     0.161 A 
ATOM     23  C   UNL     1     -29.836 -12.818 -38.485  1.00  0.00     0.051 A 
ATOM     24  C   UNL     1     -28.472 -12.998 -38.224  1.00  0.00     0.157 A 
BRANCH  22  25
ATOM     25  O   UNL     1     -26.523 -12.631 -36.853  1.00  0.00    -0.493 OA
ATOM     26  C   UNL     1     -25.693 -11.742 -36.113  1.00  0.00     0.278 C 
ENDBRANCH  22  25
BRANCH  24  27
ATOM     27  O   UNL     1     -27.679 -13.730 -39.107  1.00  0.00    -0.504 OA
ATOM     28  H   UNL     1     -26.946 -14.344 -38.774  1.00  0.00     0.293 HD
ENDBRANCH  24  27
ENDBRANCH  18  19
ENDBRANCH  15  17
ENDBRANCH   1  15
TORSDOF 10
ENDMDL
