MODEL 1
REMARK VINA RESULT:    -2.383      0.000      0.000
REMARK INTER + INTRA:          -9.242
REMARK INTER:                  -6.006
REMARK INTRA:                  -3.236
REMARK UNBOUND:                -3.236
REMARK SMILES CCCCCCCCCCCCCCCCCCCCCCCCCCCC(=O)[O-]
REMARK SMILES IDX 15 1 16 2 17 3 18 4 19 5 20 6 21 7 22 8 23 9 24 10 25 11
REMARK SMILES IDX 26 12 27 13 28 14 29 15 30 16 14 17 13 18 12 19 11 20 10 21
REMARK SMILES IDX 9 22 8 23 7 24 6 25 5 26 4 27 3 28 2 29 1 30
REMARK H PARENT
REMARK Flexibility Score: inf
ROOT
ATOM      1  C   UNL     1     -32.309  67.082  86.751  1.00  0.00     0.000 C 
ENDROOT
BRANCH   1   2
ATOM      2  C   UNL     1     -31.906  68.489  87.237  1.00  0.00     0.000 C 
BRANCH   2   3
ATOM      3  C   UNL     1     -31.244  69.388  86.172  1.00  0.00     0.000 C 
BRANCH   3   4
ATOM      4  C   UNL     1     -29.722  69.561  86.319  1.00  0.00     0.000 C 
BRANCH   4   5
ATOM      5  C   UNL     1     -29.152  68.810  87.534  1.00  0.00     0.000 C 
BRANCH   5   6
ATOM      6  C   UNL     1     -27.816  68.108  87.231  1.00  0.00     0.000 C 
BRANCH   6   7
ATOM      7  C   UNL     1     -27.158  68.492  85.890  1.00  0.00     0.000 C 
BRANCH   7   8
ATOM      8  C   UNL     1     -26.472  67.334  85.145  1.00  0.00     0.000 C 
BRANCH   8   9
ATOM      9  C   UNL     1     -27.462  66.456  84.366  1.00  0.00     0.000 C 
BRANCH   9  10
ATOM     10  C   UNL     1     -28.436  67.320  83.552  1.00  0.00     0.000 C 
BRANCH  10  11
ATOM     11  C   UNL     1     -28.501  66.918  82.067  1.00  0.00     0.000 C 
BRANCH  11  12
ATOM     12  C   UNL     1     -27.958  65.510  81.748  1.00  0.00     0.006 C 
BRANCH  12  13
ATOM     13  C   UNL     1     -28.769  64.737  80.695  1.00  0.00     0.053 C 
BRANCH  13  14
ATOM     14  C   UNL     1     -30.007  64.129  81.276  1.00  0.00     0.041 C 
ATOM     15  O   UNL     1     -29.997  63.660  82.444  1.00  0.00    -0.550 OA
ATOM     16  O   UNL     1     -31.181  64.101  80.533  1.00  0.00    -0.550 OA
ENDBRANCH  13  14
ENDBRANCH  12  13
ENDBRANCH  11  12
ENDBRANCH  10  11
ENDBRANCH   9  10
ENDBRANCH   8   9
ENDBRANCH   7   8
ENDBRANCH   6   7
ENDBRANCH   5   6
ENDBRANCH   4   5
ENDBRANCH   3   4
ENDBRANCH   2   3
ENDBRANCH   1   2
BRANCH   1  17
ATOM     17  C   UNL     1     -31.950  66.765  85.288  1.00  0.00     0.000 C 
BRANCH  17  18
ATOM     18  C   UNL     1     -30.780  65.775  85.161  1.00  0.00     0.000 C 
BRANCH  18  19
ATOM     19  C   UNL     1     -30.185  65.377  86.523  1.00  0.00     0.000 C 
BRANCH  19  20
ATOM     20  C   UNL     1     -29.932  63.868  86.717  1.00  0.00     0.000 C 
BRANCH  20  21
ATOM     21  C   UNL     1     -30.266  62.980  85.504  1.00  0.00     0.000 C 
BRANCH  21  22
ATOM     22  C   UNL     1     -29.270  61.823  85.319  1.00  0.00    -0.000 C 
BRANCH  22  23
ATOM     23  C   UNL     1     -27.981  62.250  84.590  1.00  0.00    -0.000 C 
BRANCH  23  24
ATOM     24  C   UNL     1     -27.099  61.096  84.078  1.00  0.00    -0.000 C 
BRANCH  24  25
ATOM     25  C   UNL     1     -27.845  60.144  83.129  1.00  0.00    -0.000 C 
BRANCH  25  26
ATOM     26  C   UNL     1     -26.959  58.993  82.615  1.00  0.00    -0.000 C 
BRANCH  26  27
ATOM     27  C   UNL     1     -27.704  57.685  82.289  1.00  0.00    -0.000 C 
BRANCH  27  28
ATOM     28  C   UNL     1     -27.014  56.397  82.775  1.00  0.00    -0.000 C 
BRANCH  28  29
ATOM     29  C   UNL     1     -26.228  56.570  84.091  1.00  0.00    -0.003 C 
ATOM     30  C   UNL     1     -24.776  56.104  83.978  1.00  0.00     0.004 C 
ENDBRANCH  28  29
ENDBRANCH  27  28
ENDBRANCH  26  27
ENDBRANCH  25  26
ENDBRANCH  24  25
ENDBRANCH  23  24
ENDBRANCH  22  23
ENDBRANCH  21  22
ENDBRANCH  20  21
ENDBRANCH  19  20
ENDBRANCH  18  19
ENDBRANCH  17  18
ENDBRANCH   1  17
TORSDOF 26
ENDMDL
MODEL 2
REMARK VINA RESULT:    -1.701      1.059      3.054
REMARK INTER + INTRA:          -7.523
REMARK INTER:                  -4.648
REMARK INTRA:                  -2.875
REMARK UNBOUND:                -3.236
REMARK SMILES CCCCCCCCCCCCCCCCCCCCCCCCCCCC(=O)[O-]
REMARK SMILES IDX 15 1 16 2 17 3 18 4 19 5 20 6 21 7 22 8 23 9 24 10 25 11
REMARK SMILES IDX 26 12 27 13 28 14 29 15 30 16 14 17 13 18 12 19 11 20 10 21
REMARK SMILES IDX 9 22 8 23 7 24 6 25 5 26 4 27 3 28 2 29 1 30
REMARK H PARENT
REMARK Flexibility Score: inf
ROOT
ATOM      1  C   UNL     1     -27.238  66.380  84.898  1.00  0.00     0.000 C 
ENDROOT
BRANCH   1   2
ATOM      2  C   UNL     1     -26.225  67.476  85.286  1.00  0.00     0.000 C 
BRANCH   2   3
ATOM      3  C   UNL     1     -26.842  68.773  85.848  1.00  0.00     0.000 C 
BRANCH   3   4
ATOM      4  C   UNL     1     -27.084  68.774  87.368  1.00  0.00     0.000 C 
BRANCH   4   5
ATOM      5  C   UNL     1     -28.554  69.034  87.737  1.00  0.00     0.000 C 
BRANCH   5   6
ATOM      6  C   UNL     1     -29.489  69.024  86.515  1.00  0.00     0.000 C 
BRANCH   6   7
ATOM      7  C   UNL     1     -30.826  69.772  86.700  1.00  0.00     0.000 C 
BRANCH   7   8
ATOM      8  C   UNL     1     -32.066  68.870  86.819  1.00  0.00     0.000 C 
BRANCH   8   9
ATOM      9  C   UNL     1     -31.716  67.374  86.834  1.00  0.00     0.000 C 
BRANCH   9  10
ATOM     10  C   UNL     1     -32.014  66.730  85.472  1.00  0.00     0.000 C 
BRANCH  10  11
ATOM     11  C   UNL     1     -31.075  67.220  84.355  1.00  0.00     0.000 C 
BRANCH  11  12
ATOM     12  C   UNL     1     -30.676  66.149  83.320  1.00  0.00     0.006 C 
BRANCH  12  13
ATOM     13  C   UNL     1     -29.236  66.271  82.797  1.00  0.00     0.053 C 
BRANCH  13  14
ATOM     14  C   UNL     1     -28.874  65.143  81.882  1.00  0.00     0.041 C 
ATOM     15  O   UNL     1     -27.737  65.102  81.343  1.00  0.00    -0.550 OA
ATOM     16  O   UNL     1     -29.787  64.124  81.642  1.00  0.00    -0.550 OA
ENDBRANCH  13  14
ENDBRANCH  12  13
ENDBRANCH  11  12
ENDBRANCH  10  11
ENDBRANCH   9  10
ENDBRANCH   8   9
ENDBRANCH   7   8
ENDBRANCH   6   7
ENDBRANCH   5   6
ENDBRANCH   4   5
ENDBRANCH   3   4
ENDBRANCH   2   3
ENDBRANCH   1   2
BRANCH   1  17
ATOM     17  C   UNL     1     -27.540  65.347  85.999  1.00  0.00     0.000 C 
BRANCH  17  18
ATOM     18  C   UNL     1     -28.957  65.490  86.579  1.00  0.00     0.000 C 
BRANCH  18  19
ATOM     19  C   UNL     1     -29.699  64.145  86.679  1.00  0.00     0.000 C 
BRANCH  19  20
ATOM     20  C   UNL     1     -30.092  63.507  85.332  1.00  0.00     0.000 C 
BRANCH  20  21
ATOM     21  C   UNL     1     -29.522  62.099  85.076  1.00  0.00     0.000 C 
BRANCH  21  22
ATOM     22  C   UNL     1     -28.441  62.083  83.983  1.00  0.00    -0.000 C 
BRANCH  22  23
ATOM     23  C   UNL     1     -27.115  61.460  84.458  1.00  0.00    -0.000 C 
BRANCH  23  24
ATOM     24  C   UNL     1     -26.891  59.991  84.051  1.00  0.00    -0.000 C 
BRANCH  24  25
ATOM     25  C   UNL     1     -27.665  59.594  82.783  1.00  0.00    -0.000 C 
BRANCH  25  26
ATOM     26  C   UNL     1     -27.133  58.302  82.134  1.00  0.00    -0.000 C 
BRANCH  26  27
ATOM     27  C   UNL     1     -27.938  57.028  82.449  1.00  0.00    -0.000 C 
BRANCH  27  28
ATOM     28  C   UNL     1     -27.154  55.918  83.174  1.00  0.00    -0.000 C 
BRANCH  28  29
ATOM     29  C   UNL     1     -25.654  56.230  83.354  1.00  0.00    -0.003 C 
ATOM     30  C   UNL     1     -25.312  56.694  84.769  1.00  0.00     0.004 C 
ENDBRANCH  28  29
ENDBRANCH  27  28
ENDBRANCH  26  27
ENDBRANCH  25  26
ENDBRANCH  24  25
ENDBRANCH  23  24
ENDBRANCH  22  23
ENDBRANCH  21  22
ENDBRANCH  20  21
ENDBRANCH  19  20
ENDBRANCH  18  19
ENDBRANCH  17  18
ENDBRANCH   1  17
TORSDOF 26
ENDMDL
MODEL 3
REMARK VINA RESULT:    -1.627      1.430      3.970
REMARK INTER + INTRA:          -7.335
REMARK INTER:                  -4.891
REMARK INTRA:                  -2.444
REMARK UNBOUND:                -3.236
REMARK SMILES CCCCCCCCCCCCCCCCCCCCCCCCCCCC(=O)[O-]
REMARK SMILES IDX 15 1 16 2 17 3 18 4 19 5 20 6 21 7 22 8 23 9 24 10 25 11
REMARK SMILES IDX 26 12 27 13 28 14 29 15 30 16 14 17 13 18 12 19 11 20 10 21
REMARK SMILES IDX 9 22 8 23 7 24 6 25 5 26 4 27 3 28 2 29 1 30
REMARK H PARENT
REMARK Flexibility Score: inf
ROOT
ATOM      1  C   UNL     1     -28.280  67.162  83.392  1.00  0.00     0.000 C 
ENDROOT
BRANCH   1   2
ATOM      2  C   UNL     1     -27.523  66.137  84.261  1.00  0.00     0.000 C 
BRANCH   2   3
ATOM      3  C   UNL     1     -26.622  66.741  85.357  1.00  0.00     0.000 C 
BRANCH   3   4
ATOM      4  C   UNL     1     -26.357  68.251  85.225  1.00  0.00     0.000 C 
BRANCH   4   5
ATOM      5  C   UNL     1     -26.762  69.039  86.481  1.00  0.00     0.000 C 
BRANCH   5   6
ATOM      6  C   UNL     1     -27.775  68.285  87.361  1.00  0.00     0.000 C 
BRANCH   6   7
ATOM      7  C   UNL     1     -29.173  68.929  87.459  1.00  0.00     0.000 C 
BRANCH   7   8
ATOM      8  C   UNL     1     -29.812  69.305  86.111  1.00  0.00     0.000 C 
BRANCH   8   9
ATOM      9  C   UNL     1     -31.324  69.036  86.072  1.00  0.00     0.000 C 
BRANCH   9  10
ATOM     10  C   UNL     1     -31.725  68.009  87.142  1.00  0.00     0.000 C 
BRANCH  10  11
ATOM     11  C   UNL     1     -32.435  66.776  86.556  1.00  0.00     0.000 C 
BRANCH  11  12
ATOM     12  C   UNL     1     -31.944  66.342  85.159  1.00  0.00     0.006 C 
BRANCH  12  13
ATOM     13  C   UNL     1     -30.511  65.787  85.130  1.00  0.00     0.053 C 
BRANCH  13  14
ATOM     14  C   UNL     1     -30.254  64.838  86.259  1.00  0.00     0.041 C 
ATOM     15  O   UNL     1     -30.825  63.717  86.288  1.00  0.00    -0.550 OA
ATOM     16  O   UNL     1     -29.366  65.185  87.269  1.00  0.00    -0.550 OA
ENDBRANCH  13  14
ENDBRANCH  12  13
ENDBRANCH  11  12
ENDBRANCH  10  11
ENDBRANCH   9  10
ENDBRANCH   8   9
ENDBRANCH   7   8
ENDBRANCH   6   7
ENDBRANCH   5   6
ENDBRANCH   4   5
ENDBRANCH   3   4
ENDBRANCH   2   3
ENDBRANCH   1   2
BRANCH   1  17
ATOM     17  C   UNL     1     -28.191  66.926  81.873  1.00  0.00     0.000 C 
BRANCH  17  18
ATOM     18  C   UNL     1     -28.153  65.434  81.501  1.00  0.00     0.000 C 
BRANCH  18  19
ATOM     19  C   UNL     1     -29.549  64.856  81.209  1.00  0.00     0.000 C 
BRANCH  19  20
ATOM     20  C   UNL     1     -29.782  63.414  81.702  1.00  0.00     0.000 C 
BRANCH  20  21
ATOM     21  C   UNL     1     -29.711  63.217  83.228  1.00  0.00     0.000 C 
BRANCH  21  22
ATOM     22  C   UNL     1     -28.268  63.107  83.748  1.00  0.00    -0.000 C 
BRANCH  22  23
ATOM     23  C   UNL     1     -28.051  61.889  84.665  1.00  0.00    -0.000 C 
BRANCH  23  24
ATOM     24  C   UNL     1     -27.145  60.783  84.092  1.00  0.00    -0.000 C 
BRANCH  24  25
ATOM     25  C   UNL     1     -27.851  59.911  83.041  1.00  0.00    -0.000 C 
BRANCH  25  26
ATOM     26  C   UNL     1     -26.925  58.845  82.425  1.00  0.00    -0.000 C 
BRANCH  26  27
ATOM     27  C   UNL     1     -27.589  57.485  82.138  1.00  0.00    -0.000 C 
BRANCH  27  28
ATOM     28  C   UNL     1     -27.177  56.340  83.084  1.00  0.00    -0.000 C 
BRANCH  28  29
ATOM     29  C   UNL     1     -26.096  56.739  84.110  1.00  0.00    -0.003 C 
ATOM     30  C   UNL     1     -24.799  55.947  83.939  1.00  0.00     0.004 C 
ENDBRANCH  28  29
ENDBRANCH  27  28
ENDBRANCH  26  27
ENDBRANCH  25  26
ENDBRANCH  24  25
ENDBRANCH  23  24
ENDBRANCH  22  23
ENDBRANCH  21  22
ENDBRANCH  20  21
ENDBRANCH  19  20
ENDBRANCH  18  19
ENDBRANCH  17  18
ENDBRANCH   1  17
TORSDOF 26
ENDMDL
MODEL 4
REMARK VINA RESULT:    -1.464      0.889      2.585
REMARK INTER + INTRA:          -6.925
REMARK INTER:                  -4.076
REMARK INTRA:                  -2.848
REMARK UNBOUND:                -3.236
REMARK SMILES CCCCCCCCCCCCCCCCCCCCCCCCCCCC(=O)[O-]
REMARK SMILES IDX 15 1 16 2 17 3 18 4 19 5 20 6 21 7 22 8 23 9 24 10 25 11
REMARK SMILES IDX 26 12 27 13 28 14 29 15 30 16 14 17 13 18 12 19 11 20 10 21
REMARK SMILES IDX 9 22 8 23 7 24 6 25 5 26 4 27 3 28 2 29 1 30
REMARK H PARENT
REMARK Flexibility Score: inf
ROOT
ATOM      1  C   UNL     1     -27.765  68.804  87.474  1.00  0.00     0.000 C 
ENDROOT
BRANCH   1   2
ATOM      2  C   UNL     1     -29.245  69.191  87.672  1.00  0.00     0.000 C 
BRANCH   2   3
ATOM      3  C   UNL     1     -29.929  69.825  86.443  1.00  0.00     0.000 C 
BRANCH   3   4
ATOM      4  C   UNL     1     -31.462  69.689  86.409  1.00  0.00     0.000 C 
BRANCH   4   5
ATOM      5  C   UNL     1     -31.956  68.361  87.005  1.00  0.00     0.000 C 
BRANCH   5   6
ATOM      6  C   UNL     1     -31.202  67.139  86.451  1.00  0.00     0.000 C 
BRANCH   6   7
ATOM      7  C   UNL     1     -31.897  66.409  85.283  1.00  0.00     0.000 C 
BRANCH   7   8
ATOM      8  C   UNL     1     -31.083  66.344  83.979  1.00  0.00     0.000 C 
BRANCH   8   9
ATOM      9  C   UNL     1     -30.121  67.531  83.817  1.00  0.00     0.000 C 
BRANCH   9  10
ATOM     10  C   UNL     1     -28.981  67.183  82.849  1.00  0.00     0.000 C 
BRANCH  10  11
ATOM     11  C   UNL     1     -28.623  65.686  82.853  1.00  0.00     0.000 C 
BRANCH  11  12
ATOM     12  C   UNL     1     -28.027  65.154  81.534  1.00  0.00     0.006 C 
BRANCH  12  13
ATOM     13  C   UNL     1     -29.069  64.729  80.487  1.00  0.00     0.053 C 
BRANCH  13  14
ATOM     14  C   UNL     1     -30.258  64.072  81.115  1.00  0.00     0.041 C 
ATOM     15  O   UNL     1     -31.421  64.463  80.835  1.00  0.00    -0.550 OA
ATOM     16  O   UNL     1     -30.081  63.011  81.994  1.00  0.00    -0.550 OA
ENDBRANCH  13  14
ENDBRANCH  12  13
ENDBRANCH  11  12
ENDBRANCH  10  11
ENDBRANCH   9  10
ENDBRANCH   8   9
ENDBRANCH   7   8
ENDBRANCH   6   7
ENDBRANCH   5   6
ENDBRANCH   4   5
ENDBRANCH   3   4
ENDBRANCH   2   3
ENDBRANCH   1   2
BRANCH   1  17
ATOM     17  C   UNL     1     -27.327  68.614  86.010  1.00  0.00     0.000 C 
BRANCH  17  18
ATOM     18  C   UNL     1     -26.975  67.155  85.676  1.00  0.00     0.000 C 
BRANCH  18  19
ATOM     19  C   UNL     1     -27.768  66.141  86.521  1.00  0.00     0.000 C 
BRANCH  19  20
ATOM     20  C   UNL     1     -28.215  64.867  85.776  1.00  0.00     0.000 C 
BRANCH  20  21
ATOM     21  C   UNL     1     -29.457  64.164  86.354  1.00  0.00     0.000 C 
BRANCH  21  22
ATOM     22  C   UNL     1     -30.027  63.090  85.413  1.00  0.00    -0.000 C 
BRANCH  22  23
ATOM     23  C   UNL     1     -29.080  61.889  85.229  1.00  0.00    -0.000 C 
BRANCH  23  24
ATOM     24  C   UNL     1     -28.048  62.028  84.094  1.00  0.00    -0.000 C 
BRANCH  24  25
ATOM     25  C   UNL     1     -27.154  60.787  83.938  1.00  0.00    -0.000 C 
BRANCH  25  26
ATOM     26  C   UNL     1     -27.825  59.662  83.127  1.00  0.00    -0.000 C 
BRANCH  26  27
ATOM     27  C   UNL     1     -26.858  58.698  82.416  1.00  0.00    -0.000 C 
BRANCH  27  28
ATOM     28  C   UNL     1     -27.325  57.231  82.346  1.00  0.00    -0.000 C 
BRANCH  28  29
ATOM     29  C   UNL     1     -26.792  56.353  83.497  1.00  0.00    -0.003 C 
ATOM     30  C   UNL     1     -25.600  56.983  84.218  1.00  0.00     0.004 C 
ENDBRANCH  28  29
ENDBRANCH  27  28
ENDBRANCH  26  27
ENDBRANCH  25  26
ENDBRANCH  24  25
ENDBRANCH  23  24
ENDBRANCH  22  23
ENDBRANCH  21  22
ENDBRANCH  20  21
ENDBRANCH  19  20
ENDBRANCH  18  19
ENDBRANCH  17  18
ENDBRANCH   1  17
TORSDOF 26
ENDMDL
MODEL 5
REMARK VINA RESULT:    -1.405      2.425      7.706
REMARK INTER + INTRA:          -6.778
REMARK INTER:                  -3.739
REMARK INTRA:                  -3.039
REMARK UNBOUND:                -3.236
REMARK SMILES CCCCCCCCCCCCCCCCCCCCCCCCCCCC(=O)[O-]
REMARK SMILES IDX 15 1 16 2 17 3 18 4 19 5 20 6 21 7 22 8 23 9 24 10 25 11
REMARK SMILES IDX 26 12 27 13 28 14 29 15 30 16 14 17 13 18 12 19 11 20 10 21
REMARK SMILES IDX 9 22 8 23 7 24 6 25 5 26 4 27 3 28 2 29 1 30
REMARK H PARENT
REMARK Flexibility Score: inf
ROOT
ATOM      1  C   UNL     1     -28.393  67.034  83.473  1.00  0.00     0.000 C 
ENDROOT
BRANCH   1   2
ATOM      2  C   UNL     1     -27.963  66.790  82.012  1.00  0.00     0.000 C 
BRANCH   2   3
ATOM      3  C   UNL     1     -28.156  65.346  81.502  1.00  0.00     0.000 C 
BRANCH   3   4
ATOM      4  C   UNL     1     -29.592  64.804  81.605  1.00  0.00     0.000 C 
BRANCH   4   5
ATOM      5  C   UNL     1     -29.678  63.492  82.403  1.00  0.00     0.000 C 
BRANCH   5   6
ATOM      6  C   UNL     1     -28.457  63.263  83.312  1.00  0.00     0.000 C 
BRANCH   6   7
ATOM      7  C   UNL     1     -28.491  61.966  84.146  1.00  0.00     0.000 C 
BRANCH   7   8
ATOM      8  C   UNL     1     -27.118  61.466  84.629  1.00  0.00     0.000 C 
BRANCH   8   9
ATOM      9  C   UNL     1     -26.806  60.036  84.164  1.00  0.00     0.000 C 
BRANCH   9  10
ATOM     10  C   UNL     1     -27.552  59.709  82.862  1.00  0.00     0.000 C 
BRANCH  10  11
ATOM     11  C   UNL     1     -27.036  58.430  82.178  1.00  0.00     0.000 C 
BRANCH  11  12
ATOM     12  C   UNL     1     -27.874  57.163  82.445  1.00  0.00     0.006 C 
BRANCH  12  13
ATOM     13  C   UNL     1     -27.079  55.983  83.028  1.00  0.00     0.053 C 
BRANCH  13  14
ATOM     14  C   UNL     1     -26.015  56.439  83.978  1.00  0.00     0.041 C 
ATOM     15  O   UNL     1     -26.329  56.938  85.090  1.00  0.00    -0.550 OA
ATOM     16  O   UNL     1     -24.676  56.291  83.642  1.00  0.00    -0.550 OA
ENDBRANCH  13  14
ENDBRANCH  12  13
ENDBRANCH  11  12
ENDBRANCH  10  11
ENDBRANCH   9  10
ENDBRANCH   8   9
ENDBRANCH   7   8
ENDBRANCH   6   7
ENDBRANCH   5   6
ENDBRANCH   4   5
ENDBRANCH   3   4
ENDBRANCH   2   3
ENDBRANCH   1   2
BRANCH   1  17
ATOM     17  C   UNL     1     -27.360  66.621  84.537  1.00  0.00     0.000 C 
BRANCH  17  18
ATOM     18  C   UNL     1     -26.405  67.765  84.919  1.00  0.00     0.000 C 
BRANCH  18  19
ATOM     19  C   UNL     1     -26.900  68.576  86.130  1.00  0.00     0.000 C 
BRANCH  19  20
ATOM     20  C   UNL     1     -28.145  68.009  86.840  1.00  0.00     0.000 C 
BRANCH  20  21
ATOM     21  C   UNL     1     -29.202  69.050  87.253  1.00  0.00     0.000 C 
BRANCH  21  22
ATOM     22  C   UNL     1     -30.114  69.469  86.087  1.00  0.00    -0.000 C 
BRANCH  22  23
ATOM     23  C   UNL     1     -31.613  69.363  86.429  1.00  0.00    -0.000 C 
BRANCH  23  24
ATOM     24  C   UNL     1     -32.025  68.101  87.210  1.00  0.00    -0.000 C 
BRANCH  24  25
ATOM     25  C   UNL     1     -32.507  66.960  86.299  1.00  0.00    -0.000 C 
BRANCH  25  26
ATOM     26  C   UNL     1     -31.647  66.801  85.031  1.00  0.00    -0.000 C 
BRANCH  26  27
ATOM     27  C   UNL     1     -30.829  65.499  84.950  1.00  0.00    -0.000 C 
BRANCH  27  28
ATOM     28  C   UNL     1     -31.150  64.453  86.035  1.00  0.00    -0.000 C 
BRANCH  28  29
ATOM     29  C   UNL     1     -29.899  63.853  86.710  1.00  0.00    -0.003 C 
ATOM     30  C   UNL     1     -28.761  64.863  86.850  1.00  0.00     0.004 C 
ENDBRANCH  28  29
ENDBRANCH  27  28
ENDBRANCH  26  27
ENDBRANCH  25  26
ENDBRANCH  24  25
ENDBRANCH  23  24
ENDBRANCH  22  23
ENDBRANCH  21  22
ENDBRANCH  20  21
ENDBRANCH  19  20
ENDBRANCH  18  19
ENDBRANCH  17  18
ENDBRANCH   1  17
TORSDOF 26
ENDMDL
MODEL 6
REMARK VINA RESULT:    -1.381      2.752      8.537
REMARK INTER + INTRA:          -6.716
REMARK INTER:                  -3.251
REMARK INTRA:                  -3.464
REMARK UNBOUND:                -3.236
REMARK SMILES CCCCCCCCCCCCCCCCCCCCCCCCCCCC(=O)[O-]
REMARK SMILES IDX 15 1 16 2 17 3 18 4 19 5 20 6 21 7 22 8 23 9 24 10 25 11
REMARK SMILES IDX 26 12 27 13 28 14 29 15 30 16 14 17 13 18 12 19 11 20 10 21
REMARK SMILES IDX 9 22 8 23 7 24 6 25 5 26 4 27 3 28 2 29 1 30
REMARK H PARENT
REMARK Flexibility Score: inf
ROOT
ATOM      1  C   UNL     1     -27.812  65.734  81.676  1.00  0.00     0.000 C 
ENDROOT
BRANCH   1   2
ATOM      2  C   UNL     1     -28.766  65.099  80.644  1.00  0.00     0.000 C 
BRANCH   2   3
ATOM      3  C   UNL     1     -29.828  64.146  81.229  1.00  0.00     0.000 C 
BRANCH   3   4
ATOM      4  C   UNL     1     -30.041  64.260  82.749  1.00  0.00     0.000 C 
BRANCH   4   5
ATOM      5  C   UNL     1     -29.709  62.959  83.497  1.00  0.00     0.000 C 
BRANCH   5   6
ATOM      6  C   UNL     1     -28.195  62.714  83.631  1.00  0.00     0.000 C 
BRANCH   6   7
ATOM      7  C   UNL     1     -27.794  61.539  84.547  1.00  0.00     0.000 C 
BRANCH   7   8
ATOM      8  C   UNL     1     -27.084  60.374  83.837  1.00  0.00     0.000 C 
BRANCH   8   9
ATOM      9  C   UNL     1     -27.929  59.756  82.713  1.00  0.00     0.000 C 
BRANCH   9  10
ATOM     10  C   UNL     1     -27.178  58.600  82.036  1.00  0.00     0.000 C 
BRANCH  10  11
ATOM     11  C   UNL     1     -27.809  57.225  82.318  1.00  0.00     0.000 C 
BRANCH  11  12
ATOM     12  C   UNL     1     -26.887  56.218  83.035  1.00  0.00     0.006 C 
BRANCH  12  13
ATOM     13  C   UNL     1     -26.478  56.628  84.459  1.00  0.00     0.053 C 
BRANCH  13  14
ATOM     14  C   UNL     1     -25.008  56.456  84.691  1.00  0.00     0.041 C 
ATOM     15  O   UNL     1     -24.212  56.415  83.717  1.00  0.00    -0.550 OA
ATOM     16  O   UNL     1     -24.517  56.364  85.987  1.00  0.00    -0.550 OA
ENDBRANCH  13  14
ENDBRANCH  12  13
ENDBRANCH  11  12
ENDBRANCH  10  11
ENDBRANCH   9  10
ENDBRANCH   8   9
ENDBRANCH   7   8
ENDBRANCH   6   7
ENDBRANCH   5   6
ENDBRANCH   4   5
ENDBRANCH   3   4
ENDBRANCH   2   3
ENDBRANCH   1   2
BRANCH   1  17
ATOM     17  C   UNL     1     -28.179  67.163  82.117  1.00  0.00     0.000 C 
BRANCH  17  18
ATOM     18  C   UNL     1     -28.584  67.245  83.598  1.00  0.00     0.000 C 
BRANCH  18  19
ATOM     19  C   UNL     1     -27.407  66.986  84.555  1.00  0.00     0.000 C 
BRANCH  19  20
ATOM     20  C   UNL     1     -27.547  65.739  85.451  1.00  0.00     0.000 C 
BRANCH  20  21
ATOM     21  C   UNL     1     -28.645  65.818  86.528  1.00  0.00     0.000 C 
BRANCH  21  22
ATOM     22  C   UNL     1     -29.545  64.572  86.555  1.00  0.00    -0.000 C 
BRANCH  22  23
ATOM     23  C   UNL     1     -30.961  64.841  86.011  1.00  0.00    -0.000 C 
BRANCH  23  24
ATOM     24  C   UNL     1     -31.267  66.310  85.662  1.00  0.00    -0.000 C 
BRANCH  24  25
ATOM     25  C   UNL     1     -32.152  67.005  86.710  1.00  0.00    -0.000 C 
BRANCH  25  26
ATOM     26  C   UNL     1     -31.747  68.470  86.962  1.00  0.00    -0.000 C 
BRANCH  26  27
ATOM     27  C   UNL     1     -30.589  68.991  86.090  1.00  0.00    -0.000 C 
BRANCH  27  28
ATOM     28  C   UNL     1     -29.498  69.772  86.846  1.00  0.00    -0.000 C 
BRANCH  28  29
ATOM     29  C   UNL     1     -28.319  68.896  87.319  1.00  0.00    -0.003 C 
ATOM     30  C   UNL     1     -28.202  68.837  88.842  1.00  0.00     0.004 C 
ENDBRANCH  28  29
ENDBRANCH  27  28
ENDBRANCH  26  27
ENDBRANCH  25  26
ENDBRANCH  24  25
ENDBRANCH  23  24
ENDBRANCH  22  23
ENDBRANCH  21  22
ENDBRANCH  20  21
ENDBRANCH  19  20
ENDBRANCH  18  19
ENDBRANCH  17  18
ENDBRANCH   1  17
TORSDOF 26
ENDMDL
MODEL 7
REMARK VINA RESULT:    -1.116      2.295      8.117
REMARK INTER + INTRA:          -6.048
REMARK INTER:                  -2.845
REMARK INTRA:                  -3.202
REMARK UNBOUND:                -3.236
REMARK SMILES CCCCCCCCCCCCCCCCCCCCCCCCCCCC(=O)[O-]
REMARK SMILES IDX 15 1 16 2 17 3 18 4 19 5 20 6 21 7 22 8 23 9 24 10 25 11
REMARK SMILES IDX 26 12 27 13 28 14 29 15 30 16 14 17 13 18 12 19 11 20 10 21
REMARK SMILES IDX 9 22 8 23 7 24 6 25 5 26 4 27 3 28 2 29 1 30
REMARK H PARENT
REMARK Flexibility Score: inf
ROOT
ATOM      1  C   UNL     1     -27.689  66.362  82.205  1.00  0.00     0.000 C 
ENDROOT
BRANCH   1   2
ATOM      2  C   UNL     1     -28.339  65.929  80.875  1.00  0.00     0.000 C 
BRANCH   2   3
ATOM      3  C   UNL     1     -28.909  64.495  80.857  1.00  0.00     0.000 C 
BRANCH   3   4
ATOM      4  C   UNL     1     -30.188  64.292  81.687  1.00  0.00     0.000 C 
BRANCH   4   5
ATOM      5  C   UNL     1     -29.918  63.616  83.042  1.00  0.00     0.000 C 
BRANCH   5   6
ATOM      6  C   UNL     1     -28.820  62.540  82.967  1.00  0.00     0.000 C 
BRANCH   6   7
ATOM      7  C   UNL     1     -28.215  62.119  84.322  1.00  0.00     0.000 C 
BRANCH   7   8
ATOM      8  C   UNL     1     -27.169  60.994  84.246  1.00  0.00     0.000 C 
BRANCH   8   9
ATOM      9  C   UNL     1     -27.472  59.970  83.141  1.00  0.00     0.000 C 
BRANCH   9  10
ATOM     10  C   UNL     1     -26.786  58.628  83.436  1.00  0.00     0.000 C 
BRANCH  10  11
ATOM     11  C   UNL     1     -27.002  57.585  82.324  1.00  0.00     0.000 C 
BRANCH  11  12
ATOM     12  C   UNL     1     -28.415  57.572  81.707  1.00  0.00     0.006 C 
BRANCH  12  13
ATOM     13  C   UNL     1     -29.109  56.201  81.726  1.00  0.00     0.053 C 
BRANCH  13  14
ATOM     14  C   UNL     1     -30.490  56.262  81.151  1.00  0.00     0.041 C 
ATOM     15  O   UNL     1     -30.669  56.119  79.914  1.00  0.00    -0.550 OA
ATOM     16  O   UNL     1     -31.581  56.458  81.988  1.00  0.00    -0.550 OA
ENDBRANCH  13  14
ENDBRANCH  12  13
ENDBRANCH  11  12
ENDBRANCH  10  11
ENDBRANCH   9  10
ENDBRANCH   8   9
ENDBRANCH   7   8
ENDBRANCH   6   7
ENDBRANCH   5   6
ENDBRANCH   4   5
ENDBRANCH   3   4
ENDBRANCH   2   3
ENDBRANCH   1   2
BRANCH   1  17
ATOM     17  C   UNL     1     -28.648  67.006  83.223  1.00  0.00     0.000 C 
BRANCH  17  18
ATOM     18  C   UNL     1     -27.911  67.704  84.378  1.00  0.00     0.000 C 
BRANCH  18  19
ATOM     19  C   UNL     1     -27.038  66.739  85.200  1.00  0.00     0.000 C 
BRANCH  19  20
ATOM     20  C   UNL     1     -27.738  65.443  85.657  1.00  0.00     0.000 C 
BRANCH  20  21
ATOM     21  C   UNL     1     -28.805  65.619  86.753  1.00  0.00     0.000 C 
BRANCH  21  22
ATOM     22  C   UNL     1     -29.940  64.585  86.652  1.00  0.00    -0.000 C 
BRANCH  22  23
ATOM     23  C   UNL     1     -30.925  64.884  85.507  1.00  0.00    -0.000 C 
BRANCH  23  24
ATOM     24  C   UNL     1     -31.276  66.371  85.308  1.00  0.00    -0.000 C 
BRANCH  24  25
ATOM     25  C   UNL     1     -32.253  66.905  86.368  1.00  0.00    -0.000 C 
BRANCH  25  26
ATOM     26  C   UNL     1     -31.778  68.221  87.014  1.00  0.00    -0.000 C 
BRANCH  26  27
ATOM     27  C   UNL     1     -30.840  69.078  86.144  1.00  0.00    -0.000 C 
BRANCH  27  28
ATOM     28  C   UNL     1     -29.560  69.571  86.846  1.00  0.00    -0.000 C 
BRANCH  28  29
ATOM     29  C   UNL     1     -28.972  68.559  87.851  1.00  0.00    -0.003 C 
ATOM     30  C   UNL     1     -27.645  69.024  88.451  1.00  0.00     0.004 C 
ENDBRANCH  28  29
ENDBRANCH  27  28
ENDBRANCH  26  27
ENDBRANCH  25  26
ENDBRANCH  24  25
ENDBRANCH  23  24
ENDBRANCH  22  23
ENDBRANCH  21  22
ENDBRANCH  20  21
ENDBRANCH  19  20
ENDBRANCH  18  19
ENDBRANCH  17  18
ENDBRANCH   1  17
TORSDOF 26
ENDMDL
MODEL 8
REMARK VINA RESULT:    -1.098      2.516      7.999
REMARK INTER + INTRA:          -6.003
REMARK INTER:                  -3.472
REMARK INTRA:                  -2.532
REMARK UNBOUND:                -3.236
REMARK SMILES CCCCCCCCCCCCCCCCCCCCCCCCCCCC(=O)[O-]
REMARK SMILES IDX 15 1 16 2 17 3 18 4 19 5 20 6 21 7 22 8 23 9 24 10 25 11
REMARK SMILES IDX 26 12 27 13 28 14 29 15 30 16 14 17 13 18 12 19 11 20 10 21
REMARK SMILES IDX 9 22 8 23 7 24 6 25 5 26 4 27 3 28 2 29 1 30
REMARK H PARENT
REMARK Flexibility Score: inf
ROOT
ATOM      1  C   UNL     1     -31.101  66.213  84.103  1.00  0.00     0.000 C 
ENDROOT
BRANCH   1   2
ATOM      2  C   UNL     1     -30.479  67.500  83.524  1.00  0.00     0.000 C 
BRANCH   2   3
ATOM      3  C   UNL     1     -28.962  67.431  83.248  1.00  0.00     0.000 C 
BRANCH   3   4
ATOM      4  C   UNL     1     -28.572  66.766  81.916  1.00  0.00     0.000 C 
BRANCH   4   5
ATOM      5  C   UNL     1     -27.870  65.411  82.110  1.00  0.00     0.000 C 
BRANCH   5   6
ATOM      6  C   UNL     1     -28.813  64.213  81.900  1.00  0.00     0.000 C 
BRANCH   6   7
ATOM      7  C   UNL     1     -29.525  63.703  83.170  1.00  0.00     0.000 C 
BRANCH   7   8
ATOM      8  C   UNL     1     -29.161  62.269  83.590  1.00  0.00     0.000 C 
BRANCH   8   9
ATOM      9  C   UNL     1     -27.850  62.196  84.388  1.00  0.00     0.000 C 
BRANCH   9  10
ATOM     10  C   UNL     1     -27.126  60.866  84.130  1.00  0.00     0.000 C 
BRANCH  10  11
ATOM     11  C   UNL     1     -27.571  60.181  82.826  1.00  0.00     0.000 C 
BRANCH  11  12
ATOM     12  C   UNL     1     -27.431  58.645  82.815  1.00  0.00     0.006 C 
BRANCH  12  13
ATOM     13  C   UNL     1     -26.279  58.103  83.676  1.00  0.00     0.053 C 
BRANCH  13  14
ATOM     14  C   UNL     1     -26.141  56.617  83.555  1.00  0.00     0.041 C 
ATOM     15  O   UNL     1     -27.104  55.921  83.141  1.00  0.00    -0.550 OA
ATOM     16  O   UNL     1     -24.937  56.003  83.879  1.00  0.00    -0.550 OA
ENDBRANCH  13  14
ENDBRANCH  12  13
ENDBRANCH  11  12
ENDBRANCH  10  11
ENDBRANCH   9  10
ENDBRANCH   8   9
ENDBRANCH   7   8
ENDBRANCH   6   7
ENDBRANCH   5   6
ENDBRANCH   4   5
ENDBRANCH   3   4
ENDBRANCH   2   3
ENDBRANCH   1   2
BRANCH   1  17
ATOM     17  C   UNL     1     -31.702  66.353  85.513  1.00  0.00     0.000 C 
BRANCH  17  18
ATOM     18  C   UNL     1     -30.659  66.168  86.628  1.00  0.00     0.000 C 
BRANCH  18  19
ATOM     19  C   UNL     1     -29.844  64.872  86.473  1.00  0.00     0.000 C 
BRANCH  19  20
ATOM     20  C   UNL     1     -28.325  65.066  86.289  1.00  0.00     0.000 C 
BRANCH  20  21
ATOM     21  C   UNL     1     -27.908  66.340  85.531  1.00  0.00     0.000 C 
BRANCH  21  22
ATOM     22  C   UNL     1     -26.415  66.353  85.162  1.00  0.00    -0.000 C 
BRANCH  22  23
ATOM     23  C   UNL     1     -25.775  67.748  85.296  1.00  0.00    -0.000 C 
BRANCH  23  24
ATOM     24  C   UNL     1     -26.727  68.872  85.747  1.00  0.00    -0.000 C 
BRANCH  24  25
ATOM     25  C   UNL     1     -26.623  69.183  87.249  1.00  0.00    -0.000 C 
BRANCH  25  26
ATOM     26  C   UNL     1     -27.797  68.608  88.064  1.00  0.00    -0.000 C 
BRANCH  26  27
ATOM     27  C   UNL     1     -29.138  69.346  87.896  1.00  0.00    -0.000 C 
BRANCH  27  28
ATOM     28  C   UNL     1     -29.720  69.333  86.470  1.00  0.00    -0.000 C 
BRANCH  28  29
ATOM     29  C   UNL     1     -31.159  69.882  86.380  1.00  0.00    -0.003 C 
ATOM     30  C   UNL     1     -31.243  71.195  85.601  1.00  0.00     0.004 C 
ENDBRANCH  28  29
ENDBRANCH  27  28
ENDBRANCH  26  27
ENDBRANCH  25  26
ENDBRANCH  24  25
ENDBRANCH  23  24
ENDBRANCH  22  23
ENDBRANCH  21  22
ENDBRANCH  20  21
ENDBRANCH  19  20
ENDBRANCH  18  19
ENDBRANCH  17  18
ENDBRANCH   1  17
TORSDOF 26
ENDMDL
