MODEL 1
REMARK VINA RESULT:    -3.856      0.000      0.000
REMARK INTER + INTRA:          -5.032
REMARK INTER:                  -4.758
REMARK INTRA:                  -0.274
REMARK UNBOUND:                -0.274
REMARK SMILES C=CC[C@@H](C)C(=O)CC
REMARK SMILES IDX 4 1 5 2 6 3 7 4 8 5 9 6 3 7 2 8 1 9
REMARK H PARENT
REMARK Flexibility Score: inf
ROOT
ATOM      1  C   UNL     1      12.901  60.772  20.791  1.00  0.00     0.057 C 
ATOM      2  C   UNL     1      11.802  59.742  21.076  1.00  0.00     0.016 C 
ENDROOT
BRANCH   1   3
ATOM      3  C   UNL     1      14.261  60.105  20.845  1.00  0.00     0.135 C 
ATOM      4  O   UNL     1      14.358  58.962  21.271  1.00  0.00    -0.299 OA
BRANCH   3   5
ATOM      5  C   UNL     1      15.504  60.829  20.398  1.00  0.00     0.072 C 
ATOM      6  C   UNL     1      15.778  62.041  21.282  1.00  0.00     0.012 C 
ENDBRANCH   3   5
ENDBRANCH   1   3
BRANCH   1   7
ATOM      7  C   UNL     1      12.664  61.452  19.427  1.00  0.00     0.038 C 
BRANCH   7   8
ATOM      8  C   UNL     1      12.213  62.881  19.575  1.00  0.00    -0.034 C 
ATOM      9  C   UNL     1      11.431  63.470  18.664  1.00  0.00     0.004 C 
ENDBRANCH   7   8
ENDBRANCH   1   7
TORSDOF 4
ENDMDL
MODEL 2
REMARK VINA RESULT:    -3.829      2.013      2.718
REMARK INTER + INTRA:          -4.999
REMARK INTER:                  -4.622
REMARK INTRA:                  -0.377
REMARK UNBOUND:                -0.274
REMARK SMILES C=CC[C@@H](C)C(=O)CC
REMARK SMILES IDX 4 1 5 2 6 3 7 4 8 5 9 6 3 7 2 8 1 9
REMARK H PARENT
REMARK Flexibility Score: inf
ROOT
ATOM      1  C   UNL     1      13.646  61.105  20.917  1.00  0.00     0.057 C 
ATOM      2  C   UNL     1      14.893  61.996  20.934  1.00  0.00     0.016 C 
ENDROOT
BRANCH   1   3
ATOM      3  C   UNL     1      12.861  61.291  22.200  1.00  0.00     0.135 C 
ATOM      4  O   UNL     1      11.914  60.555  22.443  1.00  0.00    -0.299 OA
BRANCH   3   5
ATOM      5  C   UNL     1      13.214  62.380  23.180  1.00  0.00     0.072 C 
ATOM      6  C   UNL     1      12.006  63.265  23.472  1.00  0.00     0.012 C 
ENDBRANCH   3   5
ENDBRANCH   1   3
BRANCH   1   7
ATOM      7  C   UNL     1      12.779  61.413  19.680  1.00  0.00     0.038 C 
BRANCH   7   8
ATOM      8  C   UNL     1      12.316  62.846  19.652  1.00  0.00    -0.034 C 
ATOM      9  C   UNL     1      11.594  63.334  18.638  1.00  0.00     0.004 C 
ENDBRANCH   7   8
ENDBRANCH   1   7
TORSDOF 4
ENDMDL
MODEL 3
REMARK VINA RESULT:    -3.824      1.125      1.373
REMARK INTER + INTRA:          -4.993
REMARK INTER:                  -4.798
REMARK INTRA:                  -0.195
REMARK UNBOUND:                -0.274
REMARK SMILES C=CC[C@@H](C)C(=O)CC
REMARK SMILES IDX 4 1 5 2 6 3 7 4 8 5 9 6 3 7 2 8 1 9
REMARK H PARENT
REMARK Flexibility Score: inf
ROOT
ATOM      1  C   UNL     1      13.602  61.731  20.612  1.00  0.00     0.057 C 
ATOM      2  C   UNL     1      13.185  62.053  22.051  1.00  0.00     0.016 C 
ENDROOT
BRANCH   1   3
ATOM      3  C   UNL     1      14.636  60.623  20.610  1.00  0.00     0.135 C 
ATOM      4  O   UNL     1      14.319  59.497  20.965  1.00  0.00    -0.299 OA
BRANCH   3   5
ATOM      5  C   UNL     1      16.060  60.886  20.191  1.00  0.00     0.072 C 
ATOM      6  C   UNL     1      17.043  60.312  21.206  1.00  0.00     0.012 C 
ENDBRANCH   3   5
ENDBRANCH   1   3
BRANCH   1   7
ATOM      7  C   UNL     1      12.370  61.349  19.766  1.00  0.00     0.038 C 
BRANCH   7   8
ATOM      8  C   UNL     1      12.170  62.281  18.600  1.00  0.00    -0.034 C 
ATOM      9  C   UNL     1      11.469  63.414  18.716  1.00  0.00     0.004 C 
ENDBRANCH   7   8
ENDBRANCH   1   7
TORSDOF 4
ENDMDL
MODEL 4
REMARK VINA RESULT:    -3.805      2.188      3.587
REMARK INTER + INTRA:          -4.969
REMARK INTER:                  -4.678
REMARK INTRA:                  -0.291
REMARK UNBOUND:                -0.274
REMARK SMILES C=CC[C@@H](C)C(=O)CC
REMARK SMILES IDX 4 1 5 2 6 3 7 4 8 5 9 6 3 7 2 8 1 9
REMARK H PARENT
REMARK Flexibility Score: inf
ROOT
ATOM      1  C   UNL     1      13.340  62.005  21.197  1.00  0.00     0.057 C 
ATOM      2  C   UNL     1      14.821  61.752  20.897  1.00  0.00     0.016 C 
ENDROOT
BRANCH   1   3
ATOM      3  C   UNL     1      12.478  61.317  20.159  1.00  0.00     0.135 C 
ATOM      4  O   UNL     1      11.929  60.258  20.432  1.00  0.00    -0.299 OA
BRANCH   3   5
ATOM      5  C   UNL     1      12.294  61.904  18.783  1.00  0.00     0.072 C 
ATOM      6  C   UNL     1      11.639  63.279  18.859  1.00  0.00     0.012 C 
ENDBRANCH   3   5
ENDBRANCH   1   3
BRANCH   1   7
ATOM      7  C   UNL     1      12.989  61.530  22.622  1.00  0.00     0.038 C 
BRANCH   7   8
ATOM      8  C   UNL     1      12.744  62.681  23.562  1.00  0.00    -0.034 C 
ATOM      9  C   UNL     1      11.747  63.550  23.366  1.00  0.00     0.004 C 
ENDBRANCH   7   8
ENDBRANCH   1   7
TORSDOF 4
ENDMDL
MODEL 5
REMARK VINA RESULT:    -3.797      1.457      3.676
REMARK INTER + INTRA:          -4.959
REMARK INTER:                  -4.597
REMARK INTRA:                  -0.363
REMARK UNBOUND:                -0.274
REMARK SMILES C=CC[C@@H](C)C(=O)CC
REMARK SMILES IDX 4 1 5 2 6 3 7 4 8 5 9 6 3 7 2 8 1 9
REMARK H PARENT
REMARK Flexibility Score: inf
ROOT
ATOM      1  C   UNL     1      13.641  61.269  21.313  1.00  0.00     0.057 C 
ATOM      2  C   UNL     1      13.042  62.041  22.494  1.00  0.00     0.016 C 
ENDROOT
BRANCH   1   3
ATOM      3  C   UNL     1      12.583  61.047  20.251  1.00  0.00     0.135 C 
ATOM      4  O   UNL     1      11.707  60.213  20.434  1.00  0.00    -0.299 OA
BRANCH   3   5
ATOM      5  C   UNL     1      12.598  61.824  18.960  1.00  0.00     0.072 C 
ATOM      6  C   UNL     1      11.754  63.089  19.074  1.00  0.00     0.012 C 
ENDBRANCH   3   5
ENDBRANCH   1   3
BRANCH   1   7
ATOM      7  C   UNL     1      14.861  62.019  20.740  1.00  0.00     0.038 C 
BRANCH   7   8
ATOM      8  C   UNL     1      15.983  61.083  20.374  1.00  0.00    -0.034 C 
ATOM      9  C   UNL     1      16.088  59.864  20.915  1.00  0.00     0.004 C 
ENDBRANCH   7   8
ENDBRANCH   1   7
TORSDOF 4
ENDMDL
MODEL 6
REMARK VINA RESULT:    -3.722     16.721     17.989
REMARK INTER + INTRA:          -4.867
REMARK INTER:                  -4.471
REMARK INTRA:                  -0.396
REMARK UNBOUND:                -0.274
REMARK SMILES C=CC[C@@H](C)C(=O)CC
REMARK SMILES IDX 4 1 5 2 6 3 7 4 8 5 9 6 3 7 2 8 1 9
REMARK H PARENT
REMARK Flexibility Score: inf
ROOT
ATOM      1  C   UNL     1      16.239  51.960  35.254  1.00  0.00     0.057 C 
ATOM      2  C   UNL     1      17.730  52.188  34.982  1.00  0.00     0.016 C 
ENDROOT
BRANCH   1   3
ATOM      3  C   UNL     1      15.736  52.976  36.259  1.00  0.00     0.135 C 
ATOM      4  O   UNL     1      15.721  54.163  35.965  1.00  0.00    -0.299 OA
BRANCH   3   5
ATOM      5  C   UNL     1      15.267  52.554  37.628  1.00  0.00     0.072 C 
ATOM      6  C   UNL     1      14.831  51.093  37.629  1.00  0.00     0.012 C 
ENDBRANCH   3   5
ENDBRANCH   1   3
BRANCH   1   7
ATOM      7  C   UNL     1      15.434  52.026  33.940  1.00  0.00     0.038 C 
BRANCH   7   8
ATOM      8  C   UNL     1      13.981  51.684  34.145  1.00  0.00    -0.034 C 
ATOM      9  C   UNL     1      13.451  50.552  33.672  1.00  0.00     0.004 C 
ENDBRANCH   7   8
ENDBRANCH   1   7
TORSDOF 4
ENDMDL
MODEL 7
REMARK VINA RESULT:    -3.695      0.883      2.561
REMARK INTER + INTRA:          -4.833
REMARK INTER:                  -4.639
REMARK INTRA:                  -0.195
REMARK UNBOUND:                -0.274
REMARK SMILES C=CC[C@@H](C)C(=O)CC
REMARK SMILES IDX 4 1 5 2 6 3 7 4 8 5 9 6 3 7 2 8 1 9
REMARK H PARENT
REMARK Flexibility Score: inf
ROOT
ATOM      1  C   UNL     1      13.912  61.214  20.355  1.00  0.00     0.057 C 
ATOM      2  C   UNL     1      15.055  61.694  21.256  1.00  0.00     0.016 C 
ENDROOT
BRANCH   1   3
ATOM      3  C   UNL     1      13.412  59.864  20.830  1.00  0.00     0.135 C 
ATOM      4  O   UNL     1      14.211  58.963  21.045  1.00  0.00    -0.299 OA
BRANCH   3   5
ATOM      5  C   UNL     1      11.941  59.602  21.029  1.00  0.00     0.072 C 
ATOM      6  C   UNL     1      11.613  59.427  22.508  1.00  0.00     0.012 C 
ENDBRANCH   3   5
ENDBRANCH   1   3
BRANCH   1   7
ATOM      7  C   UNL     1      12.773  62.254  20.325  1.00  0.00     0.038 C 
BRANCH   7   8
ATOM      8  C   UNL     1      12.184  62.414  18.948  1.00  0.00    -0.034 C 
ATOM      9  C   UNL     1      11.425  63.466  18.625  1.00  0.00     0.004 C 
ENDBRANCH   7   8
ENDBRANCH   1   7
TORSDOF 4
ENDMDL
MODEL 8
REMARK VINA RESULT:    -3.661     17.148     18.390
REMARK INTER + INTRA:          -4.792
REMARK INTER:                  -4.510
REMARK INTRA:                  -0.281
REMARK UNBOUND:                -0.274
REMARK SMILES C=CC[C@@H](C)C(=O)CC
REMARK SMILES IDX 4 1 5 2 6 3 7 4 8 5 9 6 3 7 2 8 1 9
REMARK H PARENT
REMARK Flexibility Score: inf
ROOT
ATOM      1  C   UNL     1      15.484  52.640  35.253  1.00  0.00     0.057 C 
ATOM      2  C   UNL     1      14.428  51.878  34.445  1.00  0.00     0.016 C 
ENDROOT
BRANCH   1   3
ATOM      3  C   UNL     1      14.944  52.965  36.631  1.00  0.00     0.135 C 
ATOM      4  O   UNL     1      14.125  53.863  36.765  1.00  0.00    -0.299 OA
BRANCH   3   5
ATOM      5  C   UNL     1      15.411  52.210  37.850  1.00  0.00     0.072 C 
ATOM      6  C   UNL     1      14.597  50.937  38.049  1.00  0.00     0.012 C 
ENDBRANCH   3   5
ENDBRANCH   1   3
BRANCH   1   7
ATOM      7  C   UNL     1      16.790  51.825  35.340  1.00  0.00     0.038 C 
BRANCH   7   8
ATOM      8  C   UNL     1      17.941  52.519  34.659  1.00  0.00    -0.034 C 
ATOM      9  C   UNL     1      18.730  53.379  35.311  1.00  0.00     0.004 C 
ENDBRANCH   7   8
ENDBRANCH   1   7
TORSDOF 4
ENDMDL
MODEL 9
REMARK VINA RESULT:    -3.479      1.695      3.486
REMARK INTER + INTRA:          -4.567
REMARK INTER:                  -4.122
REMARK INTRA:                  -0.446
REMARK UNBOUND:                -0.274
REMARK SMILES C=CC[C@@H](C)C(=O)CC
REMARK SMILES IDX 4 1 5 2 6 3 7 4 8 5 9 6 3 7 2 8 1 9
REMARK H PARENT
REMARK Flexibility Score: inf
ROOT
ATOM      1  C   UNL     1      13.098  61.750  20.516  1.00  0.00     0.057 C 
ATOM      2  C   UNL     1      12.352  61.921  19.188  1.00  0.00     0.016 C 
ENDROOT
BRANCH   1   3
ATOM      3  C   UNL     1      12.342  60.791  21.413  1.00  0.00     0.135 C 
ATOM      4  O   UNL     1      11.785  59.817  20.926  1.00  0.00    -0.299 OA
BRANCH   3   5
ATOM      5  C   UNL     1      12.249  61.021  22.900  1.00  0.00     0.072 C 
ATOM      6  C   UNL     1      12.564  62.472  23.249  1.00  0.00     0.012 C 
ENDBRANCH   3   5
ENDBRANCH   1   3
BRANCH   1   7
ATOM      7  C   UNL     1      14.541  61.266  20.267  1.00  0.00     0.038 C 
BRANCH   7   8
ATOM      8  C   UNL     1      15.555  62.088  21.019  1.00  0.00    -0.034 C 
ATOM      9  C   UNL     1      16.269  61.577  22.026  1.00  0.00     0.004 C 
ENDBRANCH   7   8
ENDBRANCH   1   7
TORSDOF 4
ENDMDL
