MODEL 1
REMARK VINA RESULT:    -4.123      0.000      0.000
REMARK INTER + INTRA:          -4.329
REMARK INTER:                  -5.087
REMARK INTRA:                   0.759
REMARK UNBOUND:                 0.759
REMARK SMILES CC1=CC=CC(C)(C)CC1=O
REMARK SMILES IDX 1 1 2 2 3 3 10 4 11 5 9 6 4 8 5 9 6 10 7 11 8 12
REMARK H PARENT
REMARK Flexibility Score: 80.00
ROOT
ATOM      1  C   UNL     1     -14.066 -13.679  28.987  1.00  0.00     0.048 C 
ATOM      2  C   UNL     1     -13.410 -15.037  29.069  1.00  0.00    -0.008 C 
ATOM      3  C   UNL     1     -12.793 -15.502  27.961  1.00  0.00     0.007 C 
ENDROOT
BRANCH   2   4
ATOM      4  C   UNL     1     -13.430 -15.718  30.387  1.00  0.00     0.159 C 
ATOM      5  O   UNL     1     -13.817 -15.074  31.401  1.00  0.00    -0.295 OA
BRANCH   4   6
ATOM      6  C   UNL     1     -13.027 -17.148  30.585  1.00  0.00     0.091 CG0
ATOM      7  G   UNL     1     -11.571 -17.435  30.151  1.00  0.00     0.000 G0
ENDBRANCH   4   6
ENDBRANCH   2   4
BRANCH   3   8
ATOM      8  C   UNL     1     -12.052 -16.767  27.745  1.00  0.00    -0.003 C 
ATOM      9  C   UNL     1     -11.517 -17.596  28.649  1.00  0.00    -0.020 C 
BRANCH   9  10
ATOM     10  C   UNL     1     -11.570 -17.443  30.151  1.00  0.00    -0.010 CG0
ATOM     11  C   UNL     1     -11.141 -18.783  30.791  1.00  0.00     0.016 C 
ATOM     12  C   UNL     1     -10.572 -16.355  30.608  1.00  0.00     0.016 C 
ATOM     13  G   UNL     1     -13.021 -17.143  30.592  1.00  0.00     0.000 G0
ENDBRANCH   9  10
ENDBRANCH   3   8
TORSDOF 0
ENDMDL
MODEL 2
REMARK VINA RESULT:    -3.940      1.899      2.994
REMARK INTER + INTRA:          -4.103
REMARK INTER:                  -4.855
REMARK INTRA:                   0.751
REMARK UNBOUND:                 0.759
REMARK SMILES CC1=CC=CC(C)(C)CC1=O
REMARK SMILES IDX 1 1 2 2 3 3 10 4 11 5 9 6 4 8 5 9 6 10 7 11 8 12
REMARK H PARENT
REMARK Flexibility Score: 80.00
ROOT
ATOM      1  C   UNL     1     -13.998 -19.798  28.602  1.00  0.00     0.048 C 
ATOM      2  C   UNL     1     -13.008 -18.686  28.850  1.00  0.00    -0.008 C 
ATOM      3  C   UNL     1     -12.855 -17.757  27.880  1.00  0.00     0.007 C 
ENDROOT
BRANCH   2   4
ATOM      4  C   UNL     1     -12.337 -18.661  30.173  1.00  0.00     0.159 C 
ATOM      5  O   UNL     1     -12.768 -19.413  31.089  1.00  0.00    -0.295 OA
BRANCH   4   6
ATOM      6  C   UNL     1     -11.154 -17.794  30.484  1.00  0.00     0.091 CG0
ATOM      7  G   UNL     1     -11.445 -16.286  30.318  1.00  0.00     0.000 G0
ENDBRANCH   4   6
ENDBRANCH   2   4
BRANCH   3   8
ATOM      8  C   UNL     1     -11.991 -16.553  27.845  1.00  0.00    -0.003 C 
ATOM      9  C   UNL     1     -11.400 -15.908  28.858  1.00  0.00    -0.020 C 
BRANCH   9  10
ATOM     10  C   UNL     1     -11.457 -16.287  30.319  1.00  0.00    -0.010 CG0
ATOM     11  C   UNL     1     -10.354 -15.505  31.066  1.00  0.00     0.016 C 
ATOM     12  C   UNL     1     -12.822 -15.878  30.919  1.00  0.00     0.016 C 
ATOM     13  G   UNL     1     -11.166 -17.797  30.476  1.00  0.00     0.000 G0
ENDBRANCH   9  10
ENDBRANCH   3   8
TORSDOF 0
ENDMDL
MODEL 3
REMARK VINA RESULT:    -3.935      2.312      3.879
REMARK INTER + INTRA:          -4.097
REMARK INTER:                  -4.822
REMARK INTRA:                   0.726
REMARK UNBOUND:                 0.759
REMARK SMILES CC1=CC=CC(C)(C)CC1=O
REMARK SMILES IDX 1 1 2 2 3 3 10 4 11 5 9 6 4 8 5 9 6 10 7 11 8 12
REMARK H PARENT
REMARK Flexibility Score: 80.00
ROOT
ATOM      1  C   UNL     1     -12.877 -19.641  31.651  1.00  0.00     0.048 C 
ATOM      2  C   UNL     1     -13.107 -18.531  30.652  1.00  0.00    -0.008 C 
ATOM      3  C   UNL     1     -13.089 -17.261  31.113  1.00  0.00     0.007 C 
ENDROOT
BRANCH   2   4
ATOM      4  C   UNL     1     -13.261 -18.924  29.229  1.00  0.00     0.159 C 
ATOM      5  O   UNL     1     -12.987 -20.108  28.891  1.00  0.00    -0.295 OA
BRANCH   4   6
ATOM      6  C   UNL     1     -13.741 -17.989  28.161  1.00  0.00     0.091 CG0
ATOM      7  G   UNL     1     -12.844 -16.741  27.996  1.00  0.00     0.000 G0
ENDBRANCH   4   6
ENDBRANCH   2   4
BRANCH   3   8
ATOM      8  C   UNL     1     -13.255 -15.982  30.383  1.00  0.00    -0.003 C 
ATOM      9  C   UNL     1     -13.149 -15.740  29.070  1.00  0.00    -0.020 C 
BRANCH   9  10
ATOM     10  C   UNL     1     -12.851 -16.753  27.991  1.00  0.00    -0.010 CG0
ATOM     11  C   UNL     1     -13.222 -16.131  26.626  1.00  0.00     0.016 C 
ATOM     12  C   UNL     1     -11.339 -17.078  27.973  1.00  0.00     0.016 C 
ATOM     13  G   UNL     1     -13.727 -18.009  28.201  1.00  0.00     0.000 G0
ENDBRANCH   9  10
ENDBRANCH   3   8
TORSDOF 0
ENDMDL
MODEL 4
REMARK VINA RESULT:    -3.928      2.003      2.898
REMARK INTER + INTRA:          -4.088
REMARK INTER:                  -4.852
REMARK INTRA:                   0.764
REMARK UNBOUND:                 0.759
REMARK SMILES CC1=CC=CC(C)(C)CC1=O
REMARK SMILES IDX 1 1 2 2 3 3 10 4 11 5 9 6 4 8 5 9 6 10 7 11 8 12
REMARK H PARENT
REMARK Flexibility Score: 80.00
ROOT
ATOM      1  C   UNL     1     -13.774 -15.983  26.383  1.00  0.00     0.048 C 
ATOM      2  C   UNL     1     -12.954 -16.094  27.646  1.00  0.00    -0.008 C 
ATOM      3  C   UNL     1     -13.489 -15.601  28.785  1.00  0.00     0.007 C 
ENDROOT
BRANCH   2   4
ATOM      4  C   UNL     1     -11.655 -16.805  27.548  1.00  0.00     0.159 C 
ATOM      5  O   UNL     1     -11.390 -17.448  26.496  1.00  0.00    -0.295 OA
BRANCH   4   6
ATOM      6  C   UNL     1     -10.621 -16.791  28.633  1.00  0.00     0.091 CG0
ATOM      7  G   UNL     1     -11.139 -17.359  29.974  1.00  0.00     0.000 G0
ENDBRANCH   4   6
ENDBRANCH   2   4
BRANCH   3   8
ATOM      8  C   UNL     1     -12.945 -15.588  30.163  1.00  0.00    -0.003 C 
ATOM      9  C   UNL     1     -11.962 -16.329  30.690  1.00  0.00    -0.020 C 
BRANCH   9  10
ATOM     10  C   UNL     1     -11.137 -17.368  29.970  1.00  0.00    -0.010 CG0
ATOM     11  C   UNL     1      -9.911 -17.707  30.848  1.00  0.00     0.016 C 
ATOM     12  C   UNL     1     -11.961 -18.662  29.781  1.00  0.00     0.016 C 
ATOM     13  G   UNL     1     -10.623 -16.789  28.632  1.00  0.00     0.000 G0
ENDBRANCH   9  10
ENDBRANCH   3   8
TORSDOF 0
ENDMDL
MODEL 5
REMARK VINA RESULT:    -3.863      2.029      3.403
REMARK INTER + INTRA:          -4.008
REMARK INTER:                  -5.052
REMARK INTRA:                   1.044
REMARK UNBOUND:                 0.759
REMARK SMILES CC1=CC=CC(C)(C)CC1=O
REMARK SMILES IDX 1 1 2 2 3 3 10 4 11 5 9 6 4 8 5 9 6 10 7 11 8 12
REMARK H PARENT
REMARK Flexibility Score: 80.00
ROOT
ATOM      1  C   UNL     1     -14.181 -19.657  28.630  1.00  0.00     0.048 C 
ATOM      2  C   UNL     1     -12.967 -18.865  29.054  1.00  0.00    -0.008 C 
ATOM      3  C   UNL     1     -12.257 -19.324  30.108  1.00  0.00     0.007 C 
ENDROOT
BRANCH   2   4
ATOM      4  C   UNL     1     -12.609 -17.684  28.230  1.00  0.00     0.159 C 
ATOM      5  O   UNL     1     -13.467 -17.214  27.434  1.00  0.00    -0.295 OA
BRANCH   4   6
ATOM      6  C   UNL     1     -11.276 -17.001  28.299  1.00  0.00     0.091 CG0
ATOM      7  G   UNL     1     -10.944 -16.456  29.707  1.00  0.00     0.000 G0
ENDBRANCH   4   6
ENDBRANCH   2   4
BRANCH   3   8
ATOM      8  C   UNL     1     -11.025 -18.787  30.732  1.00  0.00    -0.003 C 
ATOM      9  C   UNL     1     -10.448 -17.590  30.567  1.00  0.00    -0.020 C 
BRANCH   9  10
ATOM     10  C   UNL     1     -10.952 -16.463  29.697  1.00  0.00    -0.010 CG0
ATOM     11  C   UNL     1     -12.252 -15.910  30.324  1.00  0.00     0.016 C 
ATOM     12  C   UNL     1      -9.915 -15.317  29.661  1.00  0.00     0.016 C 
ATOM     13  G   UNL     1     -11.290 -17.004  28.289  1.00  0.00     0.000 G0
ENDBRANCH   9  10
ENDBRANCH   3   8
TORSDOF 0
ENDMDL
MODEL 6
REMARK VINA RESULT:    -3.731      1.629      2.733
REMARK INTER + INTRA:          -3.844
REMARK INTER:                  -4.855
REMARK INTRA:                   1.011
REMARK UNBOUND:                 0.759
REMARK SMILES CC1=CC=CC(C)(C)CC1=O
REMARK SMILES IDX 1 1 2 2 3 3 10 4 11 5 9 6 4 8 5 9 6 10 7 11 8 12
REMARK H PARENT
REMARK Flexibility Score: 80.00
ROOT
ATOM      1  C   UNL     1     -14.149 -14.846  31.522  1.00  0.00     0.048 C 
ATOM      2  C   UNL     1     -13.548 -15.731  30.456  1.00  0.00    -0.008 C 
ATOM      3  C   UNL     1     -13.233 -16.999  30.801  1.00  0.00     0.007 C 
ENDROOT
BRANCH   2   4
ATOM      4  C   UNL     1     -13.422 -15.158  29.094  1.00  0.00     0.159 C 
ATOM      5  O   UNL     1     -13.501 -13.907  28.950  1.00  0.00    -0.295 OA
BRANCH   4   6
ATOM      6  C   UNL     1     -13.191 -15.986  27.866  1.00  0.00     0.091 CG0
ATOM      7  G   UNL     1     -11.882 -16.805  27.922  1.00  0.00     0.000 G0
ENDBRANCH   4   6
ENDBRANCH   2   4
BRANCH   3   8
ATOM      8  C   UNL     1     -12.663 -18.094  29.980  1.00  0.00    -0.003 C 
ATOM      9  C   UNL     1     -12.101 -18.034  28.767  1.00  0.00    -0.020 C 
BRANCH   9  10
ATOM     10  C   UNL     1     -11.887 -16.791  27.937  1.00  0.00    -0.010 CG0
ATOM     11  C   UNL     1     -10.799 -15.933  28.621  1.00  0.00     0.016 C 
ATOM     12  C   UNL     1     -11.377 -17.175  26.529  1.00  0.00     0.016 C 
ATOM     13  G   UNL     1     -13.192 -15.964  27.891  1.00  0.00     0.000 G0
ENDBRANCH   9  10
ENDBRANCH   3   8
TORSDOF 0
ENDMDL
MODEL 7
REMARK VINA RESULT:    -3.678      1.920      3.178
REMARK INTER + INTRA:          -3.780
REMARK INTER:                  -4.537
REMARK INTRA:                   0.757
REMARK UNBOUND:                 0.759
REMARK SMILES CC1=CC=CC(C)(C)CC1=O
REMARK SMILES IDX 1 1 2 2 3 3 10 4 11 5 9 6 4 8 5 9 6 10 7 11 8 12
REMARK H PARENT
REMARK Flexibility Score: 80.00
ROOT
ATOM      1  C   UNL     1     -11.324 -17.096  26.254  1.00  0.00     0.048 C 
ATOM      2  C   UNL     1     -11.633 -16.779  27.698  1.00  0.00    -0.008 C 
ATOM      3  C   UNL     1     -10.645 -16.239  28.445  1.00  0.00     0.007 C 
ENDROOT
BRANCH   2   4
ATOM      4  C   UNL     1     -13.023 -17.018  28.160  1.00  0.00     0.159 C 
ATOM      5  O   UNL     1     -13.915 -17.266  27.304  1.00  0.00    -0.295 OA
BRANCH   4   6
ATOM      6  C   UNL     1     -13.430 -16.994  29.602  1.00  0.00     0.091 CG0
ATOM      7  G   UNL     1     -13.154 -15.638  30.291  1.00  0.00     0.000 G0
ENDBRANCH   4   6
ENDBRANCH   2   4
BRANCH   3   8
ATOM      8  C   UNL     1     -10.653 -15.803  29.862  1.00  0.00    -0.003 C 
ATOM      9  C   UNL     1     -11.696 -15.529  30.654  1.00  0.00    -0.020 C 
BRANCH   9  10
ATOM     10  C   UNL     1     -13.157 -15.629  30.283  1.00  0.00    -0.010 CG0
ATOM     11  C   UNL     1     -13.993 -15.569  31.581  1.00  0.00     0.016 C 
ATOM     12  C   UNL     1     -13.561 -14.427  29.399  1.00  0.00     0.016 C 
ATOM     13  G   UNL     1     -13.428 -16.989  29.600  1.00  0.00     0.000 G0
ENDBRANCH   9  10
ENDBRANCH   3   8
TORSDOF 0
ENDMDL
MODEL 8
REMARK VINA RESULT:    -3.641      1.975      3.658
REMARK INTER + INTRA:          -3.733
REMARK INTER:                  -4.767
REMARK INTRA:                   1.033
REMARK UNBOUND:                 0.759
REMARK SMILES CC1=CC=CC(C)(C)CC1=O
REMARK SMILES IDX 1 1 2 2 3 3 10 4 11 5 9 6 4 8 5 9 6 10 7 11 8 12
REMARK H PARENT
REMARK Flexibility Score: 80.00
ROOT
ATOM      1  C   UNL     1      -9.894 -18.135  31.161  1.00  0.00     0.048 C 
ATOM      2  C   UNL     1     -11.043 -17.842  30.226  1.00  0.00    -0.008 C 
ATOM      3  C   UNL     1     -11.961 -18.816  30.038  1.00  0.00     0.007 C 
ENDROOT
BRANCH   2   4
ATOM      4  C   UNL     1     -11.112 -16.478  29.646  1.00  0.00     0.159 C 
ATOM      5  O   UNL     1     -10.088 -15.743  29.696  1.00  0.00    -0.295 OA
BRANCH   4   6
ATOM      6  C   UNL     1     -12.336 -15.922  28.984  1.00  0.00     0.091 CG0
ATOM      7  G   UNL     1     -12.814 -16.765  27.780  1.00  0.00     0.000 G0
ENDBRANCH   4   6
ENDBRANCH   2   4
BRANCH   3   8
ATOM      8  C   UNL     1     -13.193 -18.816  29.214  1.00  0.00    -0.003 C 
ATOM      9  C   UNL     1     -13.574 -17.951  28.266  1.00  0.00    -0.020 C 
BRANCH   9  10
ATOM     10  C   UNL     1     -12.798 -16.750  27.783  1.00  0.00    -0.010 CG0
ATOM     11  C   UNL     1     -11.551 -17.253  27.020  1.00  0.00     0.016 C 
ATOM     12  C   UNL     1     -13.658 -15.924  26.799  1.00  0.00     0.016 C 
ATOM     13  G   UNL     1     -12.317 -15.919  28.994  1.00  0.00     0.000 G0
ENDBRANCH   9  10
ENDBRANCH   3   8
TORSDOF 0
ENDMDL
MODEL 9
REMARK VINA RESULT:    -3.562      1.931      3.022
REMARK INTER + INTRA:          -3.636
REMARK INTER:                  -4.386
REMARK INTRA:                   0.750
REMARK UNBOUND:                 0.759
REMARK SMILES CC1=CC=CC(C)(C)CC1=O
REMARK SMILES IDX 1 1 2 2 3 3 10 4 11 5 9 6 4 8 5 9 6 10 7 11 8 12
REMARK H PARENT
REMARK Flexibility Score: 80.00
ROOT
ATOM      1  C   UNL     1      -9.978 -14.941  29.372  1.00  0.00     0.048 C 
ATOM      2  C   UNL     1     -10.621 -16.303  29.486  1.00  0.00    -0.008 C 
ATOM      3  C   UNL     1     -10.047 -17.198  30.321  1.00  0.00     0.007 C 
ENDROOT
BRANCH   2   4
ATOM      4  C   UNL     1     -11.877 -16.524  28.728  1.00  0.00     0.159 C 
ATOM      5  O   UNL     1     -12.455 -15.531  28.205  1.00  0.00    -0.295 OA
BRANCH   4   6
ATOM      6  C   UNL     1     -12.499 -17.873  28.533  1.00  0.00     0.091 CG0
ATOM      7  G   UNL     1     -12.881 -18.565  29.861  1.00  0.00     0.000 G0
ENDBRANCH   4   6
ENDBRANCH   2   4
BRANCH   3   8
ATOM      8  C   UNL     1     -10.455 -18.582  30.657  1.00  0.00    -0.003 C 
ATOM      9  C   UNL     1     -11.643 -19.177  30.488  1.00  0.00    -0.020 C 
BRANCH   9  10
ATOM     10  C   UNL     1     -12.875 -18.561  29.870  1.00  0.00    -0.010 CG0
ATOM     11  C   UNL     1     -13.875 -19.695  29.550  1.00  0.00     0.016 C 
ATOM     12  C   UNL     1     -13.549 -17.601  30.877  1.00  0.00     0.016 C 
ATOM     13  G   UNL     1     -12.499 -17.864  28.543  1.00  0.00     0.000 G0
ENDBRANCH   9  10
ENDBRANCH   3   8
TORSDOF 0
ENDMDL
