MODEL 1
REMARK VINA RESULT:    -5.095      0.000      0.000
REMARK INTER + INTRA:          -5.095
REMARK INTER:                  -5.095
REMARK INTRA:                   0.000
REMARK UNBOUND:                 0.000
REMARK SMILES CC1=CC[C@@]2(C)CCCC(C)(C)[C@]23C[C@H]13
REMARK SMILES IDX 1 1 2 2 3 3 4 4 5 5 7 6 8 7 9 8 10 9 13 10 15 11 14 12 11 13
REMARK SMILES IDX 12 14 6 15
REMARK H PARENT
REMARK Flexibility Score: inf
ROOT
ATOM      1  C   UNL     1      30.249  20.165  14.031  1.00  0.00     0.039 C 
ATOM      2  C   UNL     1      30.528  21.629  13.828  1.00  0.00    -0.074 C 
ATOM      3  C   UNL     1      31.786  22.068  13.954  1.00  0.00    -0.027 C 
ATOM      4  C   UNL     1      32.125  23.522  13.924  1.00  0.00     0.034 C 
ATOM      5  C   UNL     1      31.283  24.359  12.910  1.00  0.00    -0.022 C 
ATOM      6  C   UNL     1      31.885  24.157  11.496  1.00  0.00     0.008 C 
ATOM      7  C   UNL     1      31.072  24.828  10.381  1.00  0.00     0.001 C 
ATOM      8  C   UNL     1      29.623  24.328  10.350  1.00  0.00     0.007 C 
ATOM      9  C   UNL     1      28.851  24.497  11.687  1.00  0.00    -0.029 C 
ATOM     10  C   UNL     1      29.755  23.948  12.877  1.00  0.00    -0.012 C 
ATOM     11  C   UNL     1      29.399  22.531  13.384  1.00  0.00     0.022 C 
ATOM     12  C   UNL     1      29.105  23.751  14.257  1.00  0.00     0.017 C 
ATOM     13  C   UNL     1      28.488  25.986  11.920  1.00  0.00     0.012 C 
ATOM     14  C   UNL     1      27.498  23.747  11.501  1.00  0.00     0.012 C 
ATOM     15  C   UNL     1      31.457  25.838  13.357  1.00  0.00     0.012 C 
ENDROOT
TORSDOF 0
ENDMDL
MODEL 2
REMARK VINA RESULT:    -4.416      1.630      4.236
REMARK INTER + INTRA:          -4.416
REMARK INTER:                  -4.416
REMARK INTRA:                   0.000
REMARK UNBOUND:                 0.000
REMARK SMILES CC1=CC[C@@]2(C)CCCC(C)(C)[C@]23C[C@H]13
REMARK SMILES IDX 1 1 2 2 3 3 4 4 5 5 7 6 8 7 9 8 10 9 13 10 15 11 14 12 11 13
REMARK SMILES IDX 12 14 6 15
REMARK H PARENT
REMARK Flexibility Score: inf
ROOT
ATOM      1  C   UNL     1      29.375  29.020  12.621  1.00  0.00     0.039 C 
ATOM      2  C   UNL     1      30.054  27.739  12.219  1.00  0.00    -0.074 C 
ATOM      3  C   UNL     1      31.381  27.741  12.045  1.00  0.00    -0.027 C 
ATOM      4  C   UNL     1      32.110  26.559  11.496  1.00  0.00     0.034 C 
ATOM      5  C   UNL     1      31.558  25.181  11.976  1.00  0.00    -0.022 C 
ATOM      6  C   UNL     1      32.114  24.904  13.397  1.00  0.00     0.008 C 
ATOM      7  C   UNL     1      31.545  23.632  14.041  1.00  0.00     0.001 C 
ATOM      8  C   UNL     1      30.015  23.674  14.136  1.00  0.00     0.007 C 
ATOM      9  C   UNL     1      29.289  23.902  12.781  1.00  0.00    -0.029 C 
ATOM     10  C   UNL     1      29.978  25.125  12.028  1.00  0.00    -0.012 C 
ATOM     11  C   UNL     1      29.230  26.474  12.129  1.00  0.00     0.022 C 
ATOM     12  C   UNL     1      29.266  25.719  10.801  1.00  0.00     0.017 C 
ATOM     13  C   UNL     1      29.348  22.621  11.911  1.00  0.00     0.012 C 
ATOM     14  C   UNL     1      27.786  24.118  13.129  1.00  0.00     0.012 C 
ATOM     15  C   UNL     1      32.125  24.140  10.971  1.00  0.00     0.012 C 
ENDROOT
TORSDOF 0
ENDMDL
MODEL 3
REMARK VINA RESULT:    -3.223      1.524      2.969
REMARK INTER + INTRA:          -3.223
REMARK INTER:                  -3.223
REMARK INTRA:                   0.000
REMARK UNBOUND:                 0.000
REMARK SMILES CC1=CC[C@@]2(C)CCCC(C)(C)[C@]23C[C@H]13
REMARK SMILES IDX 1 1 2 2 3 3 4 4 5 5 7 6 8 7 9 8 10 9 13 10 15 11 14 12 11 13
REMARK SMILES IDX 12 14 6 15
REMARK H PARENT
REMARK Flexibility Score: inf
ROOT
ATOM      1  C   UNL     1      32.125  20.816  10.563  1.00  0.00     0.039 C 
ATOM      2  C   UNL     1      31.315  21.785  11.380  1.00  0.00    -0.074 C 
ATOM      3  C   UNL     1      30.971  21.444  12.628  1.00  0.00    -0.027 C 
ATOM      4  C   UNL     1      30.039  22.275  13.448  1.00  0.00     0.034 C 
ATOM      5  C   UNL     1      30.215  23.815  13.262  1.00  0.00    -0.022 C 
ATOM      6  C   UNL     1      31.426  24.272  14.114  1.00  0.00     0.008 C 
ATOM      7  C   UNL     1      31.788  25.751  13.923  1.00  0.00     0.001 C 
ATOM      8  C   UNL     1      32.097  26.078  12.457  1.00  0.00     0.007 C 
ATOM      9  C   UNL     1      30.959  25.721  11.461  1.00  0.00    -0.029 C 
ATOM     10  C   UNL     1      30.463  24.237  11.757  1.00  0.00    -0.012 C 
ATOM     11  C   UNL     1      31.012  23.150  10.804  1.00  0.00     0.022 C 
ATOM     12  C   UNL     1      29.541  23.557  10.730  1.00  0.00     0.017 C 
ATOM     13  C   UNL     1      29.785  26.725  11.592  1.00  0.00     0.012 C 
ATOM     14  C   UNL     1      31.551  25.935  10.036  1.00  0.00     0.012 C 
ATOM     15  C   UNL     1      28.906  24.445  13.813  1.00  0.00     0.012 C 
ENDROOT
TORSDOF 0
ENDMDL
MODEL 4
REMARK VINA RESULT:    -3.055      2.094      4.086
REMARK INTER + INTRA:          -3.055
REMARK INTER:                  -3.055
REMARK INTRA:                   0.000
REMARK UNBOUND:                 0.000
REMARK SMILES CC1=CC[C@@]2(C)CCCC(C)(C)[C@]23C[C@H]13
REMARK SMILES IDX 1 1 2 2 3 3 4 4 5 5 7 6 8 7 9 8 10 9 13 10 15 11 14 12 11 13
REMARK SMILES IDX 12 14 6 15
REMARK H PARENT
REMARK Flexibility Score: inf
ROOT
ATOM      1  C   UNL     1      27.355  23.377  13.505  1.00  0.00     0.039 C 
ATOM      2  C   UNL     1      27.922  24.472  12.644  1.00  0.00    -0.074 C 
ATOM      3  C   UNL     1      27.325  25.670  12.648  1.00  0.00    -0.027 C 
ATOM      4  C   UNL     1      27.726  26.759  11.709  1.00  0.00     0.034 C 
ATOM      5  C   UNL     1      29.260  26.843  11.436  1.00  0.00    -0.022 C 
ATOM      6  C   UNL     1      29.925  27.580  12.627  1.00  0.00     0.008 C 
ATOM      7  C   UNL     1      31.458  27.620  12.545  1.00  0.00     0.001 C 
ATOM      8  C   UNL     1      32.062  26.213  12.468  1.00  0.00     0.007 C 
ATOM      9  C   UNL     1      31.533  25.345  11.294  1.00  0.00    -0.029 C 
ATOM     10  C   UNL     1      29.943  25.425  11.270  1.00  0.00    -0.012 C 
ATOM     11  C   UNL     1      29.207  24.214  11.889  1.00  0.00     0.022 C 
ATOM     12  C   UNL     1      29.176  24.435  10.377  1.00  0.00     0.017 C 
ATOM     13  C   UNL     1      32.125  25.834   9.946  1.00  0.00     0.012 C 
ATOM     14  C   UNL     1      32.107  23.915  11.522  1.00  0.00     0.012 C 
ATOM     15  C   UNL     1      29.400  27.689  10.140  1.00  0.00     0.012 C 
ENDROOT
TORSDOF 0
ENDMDL
MODEL 5
REMARK VINA RESULT:    -2.961      1.354      3.482
REMARK INTER + INTRA:          -2.961
REMARK INTER:                  -2.961
REMARK INTRA:                   0.000
REMARK UNBOUND:                 0.000
REMARK SMILES CC1=CC[C@@]2(C)CCCC(C)(C)[C@]23C[C@H]13
REMARK SMILES IDX 1 1 2 2 3 3 4 4 5 5 7 6 8 7 9 8 10 9 13 10 15 11 14 12 11 13
REMARK SMILES IDX 12 14 6 15
REMARK H PARENT
REMARK Flexibility Score: inf
ROOT
ATOM      1  C   UNL     1      31.375  23.001  15.234  1.00  0.00     0.039 C 
ATOM      2  C   UNL     1      30.838  23.430  13.895  1.00  0.00    -0.074 C 
ATOM      3  C   UNL     1      29.737  22.835  13.423  1.00  0.00    -0.027 C 
ATOM      4  C   UNL     1      29.230  23.088  12.041  1.00  0.00     0.034 C 
ATOM      5  C   UNL     1      29.383  24.564  11.558  1.00  0.00    -0.022 C 
ATOM      6  C   UNL     1      28.226  25.396  12.170  1.00  0.00     0.008 C 
ATOM      7  C   UNL     1      28.329  26.899  11.875  1.00  0.00     0.001 C 
ATOM      8  C   UNL     1      29.650  27.491  12.380  1.00  0.00     0.007 C 
ATOM      9  C   UNL     1      30.925  26.796  11.826  1.00  0.00    -0.029 C 
ATOM     10  C   UNL     1      30.760  25.220  11.980  1.00  0.00    -0.012 C 
ATOM     11  C   UNL     1      31.499  24.588  13.183  1.00  0.00     0.022 C 
ATOM     12  C   UNL     1      31.997  24.332  11.761  1.00  0.00     0.017 C 
ATOM     13  C   UNL     1      31.150  27.179  10.340  1.00  0.00     0.012 C 
ATOM     14  C   UNL     1      32.124  27.403  12.614  1.00  0.00     0.012 C 
ATOM     15  C   UNL     1      29.239  24.506  10.012  1.00  0.00     0.012 C 
ENDROOT
TORSDOF 0
ENDMDL
MODEL 6
REMARK VINA RESULT:    -2.854      1.484      3.059
REMARK INTER + INTRA:          -2.854
REMARK INTER:                  -2.854
REMARK INTRA:                   0.000
REMARK UNBOUND:                 0.000
REMARK SMILES CC1=CC[C@@]2(C)CCCC(C)(C)[C@]23C[C@H]13
REMARK SMILES IDX 1 1 2 2 3 3 4 4 5 5 7 6 8 7 9 8 10 9 13 10 15 11 14 12 11 13
REMARK SMILES IDX 12 14 6 15
REMARK H PARENT
REMARK Flexibility Score: inf
ROOT
ATOM      1  C   UNL     1      26.413  24.016  12.070  1.00  0.00     0.039 C 
ATOM      2  C   UNL     1      27.880  24.128  12.386  1.00  0.00    -0.074 C 
ATOM      3  C   UNL     1      28.491  23.096  12.980  1.00  0.00    -0.027 C 
ATOM      4  C   UNL     1      29.899  23.184  13.469  1.00  0.00     0.034 C 
ATOM      5  C   UNL     1      30.851  24.010  12.548  1.00  0.00    -0.022 C 
ATOM      6  C   UNL     1      31.283  23.109  11.363  1.00  0.00     0.008 C 
ATOM      7  C   UNL     1      32.125  23.842  10.310  1.00  0.00     0.001 C 
ATOM      8  C   UNL     1      31.386  25.054   9.731  1.00  0.00     0.007 C 
ATOM      9  C   UNL     1      30.915  26.091  10.788  1.00  0.00    -0.029 C 
ATOM     10  C   UNL     1      30.178  25.321  11.971  1.00  0.00    -0.012 C 
ATOM     11  C   UNL     1      28.632  25.356  11.925  1.00  0.00     0.022 C 
ATOM     12  C   UNL     1      29.382  26.148  12.995  1.00  0.00     0.017 C 
ATOM     13  C   UNL     1      32.122  26.899  11.331  1.00  0.00     0.012 C 
ATOM     14  C   UNL     1      30.022  27.112  10.022  1.00  0.00     0.012 C 
ATOM     15  C   UNL     1      32.081  24.354  13.434  1.00  0.00     0.012 C 
ENDROOT
TORSDOF 0
ENDMDL
MODEL 7
REMARK VINA RESULT:    -2.645      1.510      3.919
REMARK INTER + INTRA:          -2.645
REMARK INTER:                  -2.645
REMARK INTRA:                   0.000
REMARK UNBOUND:                 0.000
REMARK SMILES CC1=CC[C@@]2(C)CCCC(C)(C)[C@]23C[C@H]13
REMARK SMILES IDX 1 1 2 2 3 3 4 4 5 5 7 6 8 7 9 8 10 9 13 10 15 11 14 12 11 13
REMARK SMILES IDX 12 14 6 15
REMARK H PARENT
REMARK Flexibility Score: inf
ROOT
ATOM      1  C   UNL     1      31.530  28.152  12.315  1.00  0.00     0.039 C 
ATOM      2  C   UNL     1      31.217  26.688  12.161  1.00  0.00    -0.074 C 
ATOM      3  C   UNL     1      32.125  25.790  12.562  1.00  0.00    -0.027 C 
ATOM      4  C   UNL     1      31.962  24.329  12.302  1.00  0.00     0.034 C 
ATOM      5  C   UNL     1      30.495  23.811  12.426  1.00  0.00    -0.022 C 
ATOM      6  C   UNL     1      30.176  23.613  13.930  1.00  0.00     0.008 C 
ATOM      7  C   UNL     1      28.716  23.225  14.202  1.00  0.00     0.001 C 
ATOM      8  C   UNL     1      27.736  24.265  13.648  1.00  0.00     0.007 C 
ATOM      9  C   UNL     1      27.890  24.555  12.129  1.00  0.00    -0.029 C 
ATOM     10  C   UNL     1      29.429  24.803  11.806  1.00  0.00    -0.012 C 
ATOM     11  C   UNL     1      29.848  26.284  11.661  1.00  0.00     0.022 C 
ATOM     12  C   UNL     1      29.802  25.381  10.430  1.00  0.00     0.017 C 
ATOM     13  C   UNL     1      27.339  23.373  11.291  1.00  0.00     0.012 C 
ATOM     14  C   UNL     1      26.960  25.768  11.826  1.00  0.00     0.012 C 
ATOM     15  C   UNL     1      30.481  22.441  11.693  1.00  0.00     0.012 C 
ENDROOT
TORSDOF 0
ENDMDL
