MODEL 1
REMARK VINA RESULT:    -3.579      0.000      0.000
REMARK INTER + INTRA:          -6.230
REMARK INTER:                  -5.462
REMARK INTRA:                  -0.769
REMARK UNBOUND:                -0.769
REMARK SMILES CCCCCCCCCCC(=O)[O-]
REMARK SMILES IDX 7 1 8 2 9 3 10 4 11 5 12 6 13 7 6 8 5 9 4 10 3 11 2 12 1 13
REMARK H PARENT
REMARK Flexibility Score: inf
ROOT
ATOM      1  C   UNL     1      12.274  22.728  16.943  1.00  0.00     0.000 C 
ENDROOT
BRANCH   1   2
ATOM      2  C   UNL     1      12.978  22.958  18.293  1.00  0.00     0.000 C 
BRANCH   2   3
ATOM      3  C   UNL     1      12.003  22.925  19.479  1.00  0.00     0.006 C 
BRANCH   3   4
ATOM      4  C   UNL     1      11.906  21.536  20.124  1.00  0.00     0.053 C 
BRANCH   4   5
ATOM      5  C   UNL     1      11.307  21.636  21.491  1.00  0.00     0.041 C 
ATOM      6  O   UNL     1      10.176  21.135  21.726  1.00  0.00    -0.550 OA
ATOM      7  O   UNL     1      12.020  22.239  22.520  1.00  0.00    -0.550 OA
ENDBRANCH   4   5
ENDBRANCH   3   4
ENDBRANCH   2   3
ENDBRANCH   1   2
BRANCH   1   8
ATOM      8  C   UNL     1      12.814  21.498  16.197  1.00  0.00     0.000 C 
BRANCH   8   9
ATOM      9  C   UNL     1      11.729  20.439  15.936  1.00  0.00    -0.000 C 
BRANCH   9  10
ATOM     10  C   UNL     1      10.514  20.605  16.874  1.00  0.00    -0.000 C 
BRANCH  10  11
ATOM     11  C   UNL     1       9.372  19.612  16.588  1.00  0.00    -0.000 C 
BRANCH  11  12
ATOM     12  C   UNL     1       9.180  18.531  17.665  1.00  0.00    -0.003 C 
ATOM     13  C   UNL     1      10.314  18.505  18.688  1.00  0.00     0.004 C 
ENDBRANCH  11  12
ENDBRANCH  10  11
ENDBRANCH   9  10
ENDBRANCH   8   9
ENDBRANCH   1   8
TORSDOF 9
ENDMDL
MODEL 2
REMARK VINA RESULT:    -3.573      2.286      4.584
REMARK INTER + INTRA:          -6.222
REMARK INTER:                  -5.268
REMARK INTRA:                  -0.954
REMARK UNBOUND:                -0.769
REMARK SMILES CCCCCCCCCCC(=O)[O-]
REMARK SMILES IDX 7 1 8 2 9 3 10 4 11 5 12 6 13 7 6 8 5 9 4 10 3 11 2 12 1 13
REMARK H PARENT
REMARK Flexibility Score: inf
ROOT
ATOM      1  C   UNL     1      11.572  20.556  16.051  1.00  0.00     0.000 C 
ENDROOT
BRANCH   1   2
ATOM      2  C   UNL     1      10.215  21.236  16.309  1.00  0.00     0.000 C 
BRANCH   2   3
ATOM      3  C   UNL     1       9.027  20.363  15.875  1.00  0.00     0.006 C 
BRANCH   3   4
ATOM      4  C   UNL     1       8.298  19.726  17.066  1.00  0.00     0.053 C 
BRANCH   4   5
ATOM      5  C   UNL     1       8.882  18.385  17.379  1.00  0.00     0.041 C 
ATOM      6  O   UNL     1       8.617  17.393  16.650  1.00  0.00    -0.550 OA
ATOM      7  O   UNL     1       9.758  18.240  18.447  1.00  0.00    -0.550 OA
ENDBRANCH   4   5
ENDBRANCH   3   4
ENDBRANCH   2   3
ENDBRANCH   1   2
BRANCH   1   8
ATOM      8  C   UNL     1      12.759  21.509  16.264  1.00  0.00     0.000 C 
BRANCH   8   9
ATOM      9  C   UNL     1      12.372  22.771  17.055  1.00  0.00    -0.000 C 
BRANCH   9  10
ATOM     10  C   UNL     1      13.377  23.082  18.186  1.00  0.00    -0.000 C 
BRANCH  10  11
ATOM     11  C   UNL     1      12.857  22.726  19.591  1.00  0.00    -0.000 C 
BRANCH  11  12
ATOM     12  C   UNL     1      11.399  22.240  19.630  1.00  0.00    -0.003 C 
ATOM     13  C   UNL     1      11.255  20.843  20.234  1.00  0.00     0.004 C 
ENDBRANCH  11  12
ENDBRANCH  10  11
ENDBRANCH   9  10
ENDBRANCH   8   9
ENDBRANCH   1   8
TORSDOF 9
ENDMDL
MODEL 3
REMARK VINA RESULT:    -3.400      2.235      4.789
REMARK INTER + INTRA:          -5.958
REMARK INTER:                  -5.158
REMARK INTRA:                  -0.800
REMARK UNBOUND:                -0.769
REMARK SMILES CCCCCCCCCCC(=O)[O-]
REMARK SMILES IDX 7 1 8 2 9 3 10 4 11 5 12 6 13 7 6 8 5 9 4 10 3 11 2 12 1 13
REMARK H PARENT
REMARK Flexibility Score: inf
ROOT
ATOM      1  C   UNL     1      12.350  22.817  16.910  1.00  0.00     0.000 C 
ENDROOT
BRANCH   1   2
ATOM      2  C   UNL     1      12.959  21.624  16.151  1.00  0.00     0.000 C 
BRANCH   2   3
ATOM      3  C   UNL     1      11.948  20.488  15.931  1.00  0.00     0.006 C 
BRANCH   3   4
ATOM      4  C   UNL     1      10.494  20.958  16.070  1.00  0.00     0.053 C 
BRANCH   4   5
ATOM      5  C   UNL     1       9.730  20.033  16.964  1.00  0.00     0.041 C 
ATOM      6  O   UNL     1      10.342  19.235  17.722  1.00  0.00    -0.550 OA
ATOM      7  O   UNL     1       8.342  20.085  16.996  1.00  0.00    -0.550 OA
ENDBRANCH   4   5
ENDBRANCH   3   4
ENDBRANCH   2   3
ENDBRANCH   1   2
BRANCH   1   8
ATOM      8  C   UNL     1      12.797  22.872  18.380  1.00  0.00     0.000 C 
BRANCH   8   9
ATOM      9  C   UNL     1      11.614  22.809  19.362  1.00  0.00    -0.000 C 
BRANCH   9  10
ATOM     10  C   UNL     1      11.560  21.467  20.125  1.00  0.00    -0.000 C 
BRANCH  10  11
ATOM     11  C   UNL     1      11.323  21.626  21.638  1.00  0.00    -0.000 C 
BRANCH  11  12
ATOM     12  C   UNL     1      12.069  22.805  22.284  1.00  0.00    -0.003 C 
ATOM     13  C   UNL     1      13.347  22.376  23.002  1.00  0.00     0.004 C 
ENDBRANCH  11  12
ENDBRANCH  10  11
ENDBRANCH   9  10
ENDBRANCH   8   9
ENDBRANCH   1   8
TORSDOF 9
ENDMDL
MODEL 4
REMARK VINA RESULT:    -3.347      2.818      5.167
REMARK INTER + INTRA:          -5.877
REMARK INTER:                  -5.138
REMARK INTRA:                  -0.739
REMARK UNBOUND:                -0.769
REMARK SMILES CCCCCCCCCCC(=O)[O-]
REMARK SMILES IDX 7 1 8 2 9 3 10 4 11 5 12 6 13 7 6 8 5 9 4 10 3 11 2 12 1 13
REMARK H PARENT
REMARK Flexibility Score: inf
ROOT
ATOM      1  C   UNL     1      10.635  20.445  16.108  1.00  0.00     0.000 C 
ENDROOT
BRANCH   1   2
ATOM      2  C   UNL     1      10.280  19.663  17.386  1.00  0.00     0.000 C 
BRANCH   2   3
ATOM      3  C   UNL     1       9.114  18.686  17.174  1.00  0.00     0.006 C 
BRANCH   3   4
ATOM      4  C   UNL     1       8.184  19.116  16.032  1.00  0.00     0.053 C 
BRANCH   4   5
ATOM      5  C   UNL     1       6.814  19.407  16.556  1.00  0.00     0.041 C 
ATOM      6  O   UNL     1       6.667  20.112  17.589  1.00  0.00    -0.550 OA
ATOM      7  O   UNL     1       5.696  18.940  15.876  1.00  0.00    -0.550 OA
ENDBRANCH   4   5
ENDBRANCH   3   4
ENDBRANCH   2   3
ENDBRANCH   1   2
BRANCH   1   8
ATOM      8  C   UNL     1      12.113  20.864  16.064  1.00  0.00     0.000 C 
BRANCH   8   9
ATOM      9  C   UNL     1      12.320  22.348  16.415  1.00  0.00    -0.000 C 
BRANCH   9  10
ATOM     10  C   UNL     1      12.923  22.535  17.825  1.00  0.00    -0.000 C 
BRANCH  10  11
ATOM     11  C   UNL     1      11.865  22.717  18.929  1.00  0.00    -0.000 C 
BRANCH  11  12
ATOM     12  C   UNL     1      12.231  22.078  20.278  1.00  0.00    -0.003 C 
ATOM     13  C   UNL     1      11.299  20.928  20.661  1.00  0.00     0.004 C 
ENDBRANCH  11  12
ENDBRANCH  10  11
ENDBRANCH   9  10
ENDBRANCH   8   9
ENDBRANCH   1   8
TORSDOF 9
ENDMDL
MODEL 5
REMARK VINA RESULT:    -3.300      1.998      3.940
REMARK INTER + INTRA:          -5.806
REMARK INTER:                  -4.563
REMARK INTRA:                  -1.243
REMARK UNBOUND:                -0.769
REMARK SMILES CCCCCCCCCCC(=O)[O-]
REMARK SMILES IDX 7 1 8 2 9 3 10 4 11 5 12 6 13 7 6 8 5 9 4 10 3 11 2 12 1 13
REMARK H PARENT
REMARK Flexibility Score: inf
ROOT
ATOM      1  C   UNL     1      11.226  20.192  16.399  1.00  0.00     0.000 C 
ENDROOT
BRANCH   1   2
ATOM      2  C   UNL     1       9.992  20.948  15.875  1.00  0.00     0.000 C 
BRANCH   2   3
ATOM      3  C   UNL     1       8.746  20.713  16.742  1.00  0.00     0.006 C 
BRANCH   3   4
ATOM      4  C   UNL     1       8.281  21.985  17.463  1.00  0.00     0.053 C 
BRANCH   4   5
ATOM      5  C   UNL     1       8.005  21.696  18.905  1.00  0.00     0.041 C 
ATOM      6  O   UNL     1       8.196  22.583  19.777  1.00  0.00    -0.550 OA
ATOM      7  O   UNL     1       7.491  20.461  19.281  1.00  0.00    -0.550 OA
ENDBRANCH   4   5
ENDBRANCH   3   4
ENDBRANCH   2   3
ENDBRANCH   1   2
BRANCH   1   8
ATOM      8  C   UNL     1      12.537  20.954  16.145  1.00  0.00     0.000 C 
BRANCH   8   9
ATOM      9  C   UNL     1      12.416  22.459  16.442  1.00  0.00    -0.000 C 
BRANCH   9  10
ATOM     10  C   UNL     1      12.875  22.809  17.874  1.00  0.00    -0.000 C 
BRANCH  10  11
ATOM     11  C   UNL     1      11.734  22.796  18.909  1.00  0.00    -0.000 C 
BRANCH  11  12
ATOM     12  C   UNL     1      11.988  21.898  20.130  1.00  0.00    -0.003 C 
ATOM     13  C   UNL     1      11.177  20.602  20.092  1.00  0.00     0.004 C 
ENDBRANCH  11  12
ENDBRANCH  10  11
ENDBRANCH   9  10
ENDBRANCH   8   9
ENDBRANCH   1   8
TORSDOF 9
ENDMDL
MODEL 6
REMARK VINA RESULT:    -3.296      2.488      5.042
REMARK INTER + INTRA:          -5.799
REMARK INTER:                  -4.675
REMARK INTRA:                  -1.125
REMARK UNBOUND:                -0.769
REMARK SMILES CCCCCCCCCCC(=O)[O-]
REMARK SMILES IDX 7 1 8 2 9 3 10 4 11 5 12 6 13 7 6 8 5 9 4 10 3 11 2 12 1 13
REMARK H PARENT
REMARK Flexibility Score: inf
ROOT
ATOM      1  C   UNL     1      10.479  19.048  18.604  1.00  0.00     0.000 C 
ENDROOT
BRANCH   1   2
ATOM      2  C   UNL     1       9.849  19.492  17.272  1.00  0.00     0.000 C 
BRANCH   2   3
ATOM      3  C   UNL     1       8.666  18.604  16.855  1.00  0.00     0.006 C 
BRANCH   3   4
ATOM      4  C   UNL     1       7.385  19.410  16.603  1.00  0.00     0.053 C 
BRANCH   4   5
ATOM      5  C   UNL     1       7.084  20.291  17.775  1.00  0.00     0.041 C 
ATOM      6  O   UNL     1       6.975  21.536  17.620  1.00  0.00    -0.550 OA
ATOM      7  O   UNL     1       6.875  19.732  19.029  1.00  0.00    -0.550 OA
ENDBRANCH   4   5
ENDBRANCH   3   4
ENDBRANCH   2   3
ENDBRANCH   1   2
BRANCH   1   8
ATOM      8  C   UNL     1      10.604  20.202  19.612  1.00  0.00     0.000 C 
BRANCH   8   9
ATOM      9  C   UNL     1      10.289  21.572  18.986  1.00  0.00    -0.000 C 
BRANCH   9  10
ATOM     10  C   UNL     1      11.428  22.590  19.209  1.00  0.00    -0.000 C 
BRANCH  10  11
ATOM     11  C   UNL     1      12.627  22.392  18.263  1.00  0.00    -0.000 C 
BRANCH  11  12
ATOM     12  C   UNL     1      12.266  22.354  16.769  1.00  0.00    -0.003 C 
ATOM     13  C   UNL     1      12.935  21.198  16.026  1.00  0.00     0.004 C 
ENDBRANCH  11  12
ENDBRANCH  10  11
ENDBRANCH   9  10
ENDBRANCH   8   9
ENDBRANCH   1   8
TORSDOF 9
ENDMDL
MODEL 7
REMARK VINA RESULT:    -3.215     20.763     22.551
REMARK INTER + INTRA:          -5.676
REMARK INTER:                  -4.788
REMARK INTRA:                  -0.888
REMARK UNBOUND:                -0.769
REMARK SMILES CCCCCCCCCCC(=O)[O-]
REMARK SMILES IDX 7 1 8 2 9 3 10 4 11 5 12 6 13 7 6 8 5 9 4 10 3 11 2 12 1 13
REMARK H PARENT
REMARK Flexibility Score: inf
ROOT
ATOM      1  C   UNL     1      11.808   3.274  33.592  1.00  0.00     0.000 C 
ENDROOT
BRANCH   1   2
ATOM      2  C   UNL     1      12.719   3.273  32.351  1.00  0.00     0.000 C 
BRANCH   2   3
ATOM      3  C   UNL     1      11.935   3.467  31.044  1.00  0.00     0.006 C 
BRANCH   3   4
ATOM      4  C   UNL     1      10.849   4.544  31.164  1.00  0.00     0.053 C 
BRANCH   4   5
ATOM      5  C   UNL     1       9.602   4.108  30.462  1.00  0.00     0.041 C 
ATOM      6  O   UNL     1       9.675   3.448  29.392  1.00  0.00    -0.550 OA
ATOM      7  O   UNL     1       8.359   4.387  31.015  1.00  0.00    -0.550 OA
ENDBRANCH   4   5
ENDBRANCH   3   4
ENDBRANCH   2   3
ENDBRANCH   1   2
BRANCH   1   8
ATOM      8  C   UNL     1      12.590   3.490  34.898  1.00  0.00     0.000 C 
BRANCH   8   9
ATOM      9  C   UNL     1      11.697   3.990  36.047  1.00  0.00    -0.000 C 
BRANCH   9  10
ATOM     10  C   UNL     1      11.219   5.441  35.826  1.00  0.00    -0.000 C 
BRANCH  10  11
ATOM     11  C   UNL     1       9.701   5.563  35.592  1.00  0.00    -0.000 C 
BRANCH  11  12
ATOM     12  C   UNL     1       9.306   6.050  34.189  1.00  0.00    -0.003 C 
ATOM     13  C   UNL     1      10.188   7.194  33.688  1.00  0.00     0.004 C 
ENDBRANCH  11  12
ENDBRANCH  10  11
ENDBRANCH   9  10
ENDBRANCH   8   9
ENDBRANCH   1   8
TORSDOF 9
ENDMDL
MODEL 8
REMARK VINA RESULT:    -3.158     21.690     23.266
REMARK INTER + INTRA:          -5.588
REMARK INTER:                  -4.761
REMARK INTRA:                  -0.827
REMARK UNBOUND:                -0.769
REMARK SMILES CCCCCCCCCCC(=O)[O-]
REMARK SMILES IDX 7 1 8 2 9 3 10 4 11 5 12 6 13 7 6 8 5 9 4 10 3 11 2 12 1 13
REMARK H PARENT
REMARK Flexibility Score: inf
ROOT
ATOM      1  C   UNL     1      10.097   4.820  35.955  1.00  0.00     0.000 C 
ENDROOT
BRANCH   1   2
ATOM      2  C   UNL     1       9.229   5.555  34.918  1.00  0.00     0.000 C 
BRANCH   2   3
ATOM      3  C   UNL     1       7.744   5.178  35.018  1.00  0.00     0.006 C 
BRANCH   3   4
ATOM      4  C   UNL     1       6.953   5.557  33.759  1.00  0.00     0.053 C 
BRANCH   4   5
ATOM      5  C   UNL     1       5.548   5.927  34.117  1.00  0.00     0.041 C 
ATOM      6  O   UNL     1       5.255   6.231  35.303  1.00  0.00    -0.550 OA
ATOM      7  O   UNL     1       4.571   5.982  33.131  1.00  0.00    -0.550 OA
ENDBRANCH   4   5
ENDBRANCH   3   4
ENDBRANCH   2   3
ENDBRANCH   1   2
BRANCH   1   8
ATOM      8  C   UNL     1      11.510   5.414  36.070  1.00  0.00     0.000 C 
BRANCH   8   9
ATOM      9  C   UNL     1      12.605   4.333  36.125  1.00  0.00    -0.000 C 
BRANCH   9  10
ATOM     10  C   UNL     1      12.210   3.064  35.339  1.00  0.00    -0.000 C 
BRANCH  10  11
ATOM     11  C   UNL     1      12.711   3.059  33.882  1.00  0.00    -0.000 C 
BRANCH  11  12
ATOM     12  C   UNL     1      11.598   3.095  32.822  1.00  0.00    -0.003 C 
ATOM     13  C   UNL     1      11.387   4.490  32.233  1.00  0.00     0.004 C 
ENDBRANCH  11  12
ENDBRANCH  10  11
ENDBRANCH   9  10
ENDBRANCH   8   9
ENDBRANCH   1   8
TORSDOF 9
ENDMDL
MODEL 9
REMARK VINA RESULT:    -3.122     17.928     18.691
REMARK INTER + INTRA:          -5.533
REMARK INTER:                  -5.265
REMARK INTRA:                  -0.268
REMARK UNBOUND:                -0.769
REMARK SMILES CCCCCCCCCCC(=O)[O-]
REMARK SMILES IDX 7 1 8 2 9 3 10 4 11 5 12 6 13 7 6 8 5 9 4 10 3 11 2 12 1 13
REMARK H PARENT
REMARK Flexibility Score: inf
ROOT
ATOM      1  C   UNL     1      14.183   2.889  22.085  1.00  0.00     0.000 C 
ENDROOT
BRANCH   1   2
ATOM      2  C   UNL     1      15.230   2.875  23.214  1.00  0.00     0.000 C 
BRANCH   2   3
ATOM      3  C   UNL     1      16.663   3.051  22.690  1.00  0.00     0.006 C 
BRANCH   3   4
ATOM      4  C   UNL     1      16.736   3.985  21.474  1.00  0.00     0.053 C 
BRANCH   4   5
ATOM      5  C   UNL     1      17.928   3.654  20.633  1.00  0.00     0.041 C 
ATOM      6  O   UNL     1      17.870   3.763  19.380  1.00  0.00    -0.550 OA
ATOM      7  O   UNL     1      19.120   3.272  21.236  1.00  0.00    -0.550 OA
ENDBRANCH   4   5
ENDBRANCH   3   4
ENDBRANCH   2   3
ENDBRANCH   1   2
BRANCH   1   8
ATOM      8  C   UNL     1      12.742   2.954  22.617  1.00  0.00     0.000 C 
BRANCH   8   9
ATOM      9  C   UNL     1      11.755   3.528  21.586  1.00  0.00    -0.000 C 
BRANCH   9  10
ATOM     10  C   UNL     1      10.295   3.125  21.889  1.00  0.00    -0.000 C 
BRANCH  10  11
ATOM     11  C   UNL     1       9.594   4.056  22.897  1.00  0.00    -0.000 C 
BRANCH  11  12
ATOM     12  C   UNL     1       8.079   3.833  23.028  1.00  0.00    -0.003 C 
ATOM     13  C   UNL     1       7.289   4.427  21.862  1.00  0.00     0.004 C 
ENDBRANCH  11  12
ENDBRANCH  10  11
ENDBRANCH   9  10
ENDBRANCH   8   9
ENDBRANCH   1   8
TORSDOF 9
ENDMDL
