MODEL 1
REMARK VINA RESULT:    29.310      0.000      0.000
REMARK INTER + INTRA:          35.150
REMARK INTER:                  35.307
REMARK INTRA:                  -0.157
REMARK UNBOUND:                -0.157
REMARK SMILES O=c1c(O)c(-c2ccc(O)c(O)c2)oc2cc(O)cc(O)c12
REMARK SMILES IDX 5 1 3 2 2 3 1 4 22 5 20 6 19 7 17 8 16 9 15 10 14 11 6 12
REMARK SMILES IDX 7 13 8 14 9 15 13 16 11 17 10 18 12 20 4 22 21 24 18 26
REMARK H PARENT 10 19 12 21 4 23 21 25 18 27
REMARK Flexibility Score: inf
ROOT
ATOM      1  C   UNL     1      -2.122  -0.546   2.721  1.00  0.00     0.180 A 
ATOM      2  C   UNL     1      -3.031   0.117   3.563  1.00  0.00     0.208 A 
ATOM      3  C   UNL     1      -4.407   0.003   3.306  1.00  0.00     0.238 A 
ATOM      4  O   UNL     1      -5.210   0.659   4.018  1.00  0.00    -0.285 OA
ATOM      5  C   UNL     1      -4.860  -0.818   2.244  1.00  0.00     0.111 A 
ATOM      6  C   UNL     1      -6.232  -1.043   1.920  1.00  0.00     0.134 A 
ATOM      7  C   UNL     1      -6.559  -1.790   0.780  1.00  0.00     0.093 A 
ATOM      8  C   UNL     1      -5.568  -2.372  -0.008  1.00  0.00     0.123 A 
ATOM      9  C   UNL     1      -4.225  -2.204   0.331  1.00  0.00     0.094 A 
ATOM     10  C   UNL     1      -3.866  -1.434   1.439  1.00  0.00     0.146 A 
ATOM     11  O   UNL     1      -2.576  -1.282   1.713  1.00  0.00    -0.452 OA
ENDROOT
BRANCH   1  12
ATOM     12  C   UNL     1      -0.658  -0.461   2.919  1.00  0.00     0.025 A 
ATOM     13  C   UNL     1       0.132   0.194   1.960  1.00  0.00     0.016 A 
ATOM     14  C   UNL     1       1.513   0.305   2.137  1.00  0.00     0.051 A 
ATOM     15  C   UNL     1       2.122  -0.223   3.282  1.00  0.00     0.157 A 
ATOM     16  C   UNL     1      -0.044  -0.972   4.077  1.00  0.00     0.062 A 
ATOM     17  C   UNL     1       1.342  -0.858   4.256  1.00  0.00     0.158 A 
BRANCH  15  18
ATOM     18  O   UNL     1       3.501  -0.116   3.462  1.00  0.00    -0.504 OA
ATOM     19  H   UNL     1       3.896   0.347   4.273  1.00  0.00     0.293 HD
ENDBRANCH  15  18
BRANCH  17  20
ATOM     20  O   UNL     1       1.950  -1.371   5.402  1.00  0.00    -0.504 OA
ATOM     21  H   UNL     1       2.662  -0.852   5.901  1.00  0.00     0.293 HD
ENDBRANCH  17  20
ENDBRANCH   1  12
BRANCH   2  22
ATOM     22  O   UNL     1      -2.567   0.860   4.653  1.00  0.00    -0.502 OA
ATOM     23  H   UNL     1      -3.118   1.591   5.087  1.00  0.00     0.293 HD
ENDBRANCH   2  22
BRANCH   6  24
ATOM     24  O   UNL     1      -7.305  -0.582   2.689  1.00  0.00    -0.507 OA
ATOM     25  H   UNL     1      -8.215  -1.014   2.731  1.00  0.00     0.293 HD
ENDBRANCH   6  24
BRANCH   8  26
ATOM     26  O   UNL     1      -5.931  -3.123  -1.124  1.00  0.00    -0.508 OA
ATOM     27  H   UNL     1      -6.676  -2.826  -1.743  1.00  0.00     0.293 HD
ENDBRANCH   8  26
TORSDOF 6
ENDMDL
