MODEL 1
REMARK VINA RESULT:    -2.299      0.000      0.000
REMARK INTER + INTRA:          -2.299
REMARK INTER:                  -2.299
REMARK INTRA:                   0.000
REMARK UNBOUND:                 0.000
REMARK SMILES CC(=O)[O-]
REMARK SMILES IDX 1 1 2 2 3 3 4 4
REMARK H PARENT
REMARK Flexibility Score: inf
ROOT
ATOM      1  C   UNL     1      59.125  -5.249   0.138  1.00  0.00     0.063 C 
ATOM      2  C   UNL     1      58.418  -6.108   1.131  1.00  0.00     0.038 C 
ATOM      3  O   UNL     1      57.173  -6.006   1.282  1.00  0.00    -0.550 OA
ATOM      4  O   UNL     1      59.125  -7.060   1.853  1.00  0.00    -0.550 OA
ENDROOT
TORSDOF 0
ENDMDL
MODEL 2
REMARK VINA RESULT:    -2.211      1.412      1.763
REMARK INTER + INTRA:          -2.211
REMARK INTER:                  -2.211
REMARK INTRA:                   0.000
REMARK UNBOUND:                 0.000
REMARK SMILES CC(=O)[O-]
REMARK SMILES IDX 1 1 2 2 3 3 4 4
REMARK H PARENT
REMARK Flexibility Score: inf
ROOT
ATOM      1  C   UNL     1      59.125  -7.072   1.695  1.00  0.00     0.063 C 
ATOM      2  C   UNL     1      58.318  -6.003   1.037  1.00  0.00     0.038 C 
ATOM      3  O   UNL     1      57.062  -6.018   1.121  1.00  0.00    -0.550 OA
ATOM      4  O   UNL     1      58.953  -4.960   0.376  1.00  0.00    -0.550 OA
ENDROOT
TORSDOF 0
ENDMDL
MODEL 3
REMARK VINA RESULT:    -2.063      7.929      8.459
REMARK INTER + INTRA:          -2.063
REMARK INTER:                  -2.063
REMARK INTRA:                   0.000
REMARK UNBOUND:                 0.000
REMARK SMILES CC(=O)[O-]
REMARK SMILES IDX 1 1 2 2 3 3 4 4
REMARK H PARENT
REMARK Flexibility Score: inf
ROOT
ATOM      1  C   UNL     1      58.814  -2.985  -4.919  1.00  0.00     0.063 C 
ATOM      2  C   UNL     1      58.575  -1.987  -6.002  1.00  0.00     0.038 C 
ATOM      3  O   UNL     1      59.125  -2.130  -7.125  1.00  0.00    -0.550 OA
ATOM      4  O   UNL     1      57.704  -0.927  -5.790  1.00  0.00    -0.550 OA
ENDROOT
TORSDOF 0
ENDMDL
MODEL 4
REMARK VINA RESULT:    -2.048      7.726      8.277
REMARK INTER + INTRA:          -2.048
REMARK INTER:                  -2.048
REMARK INTRA:                   0.000
REMARK UNBOUND:                 0.000
REMARK SMILES CC(=O)[O-]
REMARK SMILES IDX 1 1 2 2 3 3 4 4
REMARK H PARENT
REMARK Flexibility Score: inf
ROOT
ATOM      1  C   UNL     1      58.851  -3.028  -4.921  1.00  0.00     0.063 C 
ATOM      2  C   UNL     1      58.382  -1.975  -5.868  1.00  0.00     0.038 C 
ATOM      3  O   UNL     1      57.478  -1.171  -5.520  1.00  0.00    -0.550 OA
ATOM      4  O   UNL     1      58.978  -1.845  -7.115  1.00  0.00    -0.550 OA
ENDROOT
TORSDOF 0
ENDMDL
MODEL 5
REMARK VINA RESULT:    -2.040      7.845      8.353
REMARK INTER + INTRA:          -2.040
REMARK INTER:                  -2.040
REMARK INTRA:                   0.000
REMARK UNBOUND:                 0.000
REMARK SMILES CC(=O)[O-]
REMARK SMILES IDX 1 1 2 2 3 3 4 4
REMARK H PARENT
REMARK Flexibility Score: inf
ROOT
ATOM      1  C   UNL     1      58.357  -0.749  -6.318  1.00  0.00     0.063 C 
ATOM      2  C   UNL     1      58.749  -2.166  -6.066  1.00  0.00     0.038 C 
ATOM      3  O   UNL     1      58.693  -2.639  -4.901  1.00  0.00    -0.550 OA
ATOM      4  O   UNL     1      59.125  -2.982  -7.125  1.00  0.00    -0.550 OA
ENDROOT
TORSDOF 0
ENDMDL
MODEL 6
REMARK VINA RESULT:    -2.027      7.888      8.386
REMARK INTER + INTRA:          -2.027
REMARK INTER:                  -2.027
REMARK INTRA:                   0.000
REMARK UNBOUND:                 0.000
REMARK SMILES CC(=O)[O-]
REMARK SMILES IDX 1 1 2 2 3 3 4 4
REMARK H PARENT
REMARK Flexibility Score: inf
ROOT
ATOM      1  C   UNL     1      57.631  -0.748  -6.000  1.00  0.00     0.063 C 
ATOM      2  C   UNL     1      58.531  -1.938  -6.027  1.00  0.00     0.038 C 
ATOM      3  O   UNL     1      59.124  -2.257  -7.089  1.00  0.00    -0.550 OA
ATOM      4  O   UNL     1      58.757  -2.665  -4.866  1.00  0.00    -0.550 OA
ENDROOT
TORSDOF 0
ENDMDL
MODEL 7
REMARK VINA RESULT:    -2.023      7.202      7.840
REMARK INTER + INTRA:          -2.023
REMARK INTER:                  -2.023
REMARK INTRA:                   0.000
REMARK UNBOUND:                 0.000
REMARK SMILES CC(=O)[O-]
REMARK SMILES IDX 1 1 2 2 3 3 4 4
REMARK H PARENT
REMARK Flexibility Score: inf
ROOT
ATOM      1  C   UNL     1      59.010  -2.693  -6.914  1.00  0.00     0.063 C 
ATOM      2  C   UNL     1      58.519  -2.420  -5.532  1.00  0.00     0.038 C 
ATOM      3  O   UNL     1      59.003  -3.048  -4.554  1.00  0.00    -0.550 OA
ATOM      4  O   UNL     1      57.564  -1.436  -5.315  1.00  0.00    -0.550 OA
ENDROOT
TORSDOF 0
ENDMDL
MODEL 8
REMARK VINA RESULT:    -1.957     24.975     25.504
REMARK INTER + INTRA:          -1.957
REMARK INTER:                  -1.957
REMARK INTRA:                   0.000
REMARK UNBOUND:                 0.000
REMARK SMILES CC(=O)[O-]
REMARK SMILES IDX 1 1 2 2 3 3 4 4
REMARK H PARENT
REMARK Flexibility Score: inf
ROOT
ATOM      1  C   UNL     1      41.379   6.729  13.125  1.00  0.00     0.063 C 
ATOM      2  C   UNL     1      40.076   7.220  12.589  1.00  0.00     0.038 C 
ATOM      3  O   UNL     1      39.282   6.420  12.029  1.00  0.00    -0.550 OA
ATOM      4  O   UNL     1      39.713   8.550  12.755  1.00  0.00    -0.550 OA
ENDROOT
TORSDOF 0
ENDMDL
MODEL 9
REMARK VINA RESULT:    -1.916     25.156     25.602
REMARK INTER + INTRA:          -1.916
REMARK INTER:                  -1.916
REMARK INTRA:                   0.000
REMARK UNBOUND:                 0.000
REMARK SMILES CC(=O)[O-]
REMARK SMILES IDX 1 1 2 2 3 3 4 4
REMARK H PARENT
REMARK Flexibility Score: inf
ROOT
ATOM      1  C   UNL     1      39.653   8.729  12.750  1.00  0.00     0.063 C 
ATOM      2  C   UNL     1      40.103   7.313  12.627  1.00  0.00     0.038 C 
ATOM      3  O   UNL     1      41.202   6.954  13.125  1.00  0.00    -0.550 OA
ATOM      4  O   UNL     1      39.287   6.375  12.010  1.00  0.00    -0.550 OA
ENDROOT
TORSDOF 0
ENDMDL
