MODEL 1
REMARK VINA RESULT:    -2.748      0.000      0.000
REMARK INTER + INTRA:          -4.452
REMARK INTER:                  -4.193
REMARK INTRA:                  -0.259
REMARK UNBOUND:                -0.259
REMARK SMILES CC1=CCC[C@H](C)C(=O)C[C@@H](C(C)C)C(=O)C1
REMARK SMILES IDX 8 1 9 2 6 3 7 4 5 5 4 6 3 7 2 8 1 9 10 11 11 12 15 13 16 14
REMARK SMILES IDX 17 15 12 17 13 18 14 19
REMARK H PARENT
REMARK Flexibility Score: 70.00
ROOT
ATOM      1  C   UNL     1      81.640  -5.122  27.455  1.00  0.00     0.136 C 
ATOM      2  O   UNL     1      80.792  -4.245  27.544  1.00  0.00    -0.299 OA
ENDROOT
BRANCH   1   3
ATOM      3  C   UNL     1      83.113  -4.756  27.404  1.00  0.00     0.053 C 
ATOM      4  C   UNL     1      83.357  -3.420  26.686  1.00  0.00     0.016 C 
BRANCH   3   5
ATOM      5  C   UNL     1      83.747  -4.772  28.811  1.00  0.00     0.015 C 
BRANCH   5   6
ATOM      6  C   UNL     1      84.826  -5.858  28.999  1.00  0.00     0.028 C 
BRANCH   6   7
ATOM      7  C   UNL     1      84.545  -6.701  30.218  1.00  0.00    -0.028 C 
ATOM      8  C   UNL     1      83.870  -7.875  30.204  1.00  0.00    -0.070 CG0
ATOM      9  C   UNL     1      83.709  -8.614  31.509  1.00  0.00     0.039 C 
ATOM     10  G   UNL     1      83.263  -8.472  28.943  1.00  0.00     0.000 G0
ENDBRANCH   6   7
ENDBRANCH   5   6
ENDBRANCH   3   5
ENDBRANCH   1   3
BRANCH   1  11
ATOM     11  C   UNL     1      81.197  -6.564  27.400  1.00  0.00     0.087 C 
BRANCH  11  12
ATOM     12  C   UNL     1      80.985  -7.164  28.815  1.00  0.00     0.066 C 
BRANCH  12  13
ATOM     13  C   UNL     1      81.745  -8.477  28.928  1.00  0.00     0.140 C 
ATOM     14  O   UNL     1      81.125  -9.518  29.101  1.00  0.00    -0.299 OA
BRANCH  13  15
ATOM     15  C   UNL     1      83.253  -8.493  28.935  1.00  0.00     0.106 CG0
ATOM     16  G   UNL     1      83.838  -7.893  30.204  1.00  0.00     0.000 G0
ENDBRANCH  13  15
ENDBRANCH  12  13
BRANCH  12  17
ATOM     17  C   UNL     1      79.475  -7.374  29.162  1.00  0.00    -0.006 C 
ATOM     18  C   UNL     1      78.587  -7.436  27.905  1.00  0.00     0.008 C 
ATOM     19  C   UNL     1      78.954  -6.250  30.080  1.00  0.00     0.008 C 
ENDBRANCH  12  17
ENDBRANCH  11  12
ENDBRANCH   1  11
TORSDOF 1
ENDMDL
MODEL 2
REMARK VINA RESULT:    -2.747      2.241      4.905
REMARK INTER + INTRA:          -4.451
REMARK INTER:                  -4.294
REMARK INTRA:                  -0.157
REMARK UNBOUND:                -0.259
REMARK SMILES CC1=CCC[C@H](C)C(=O)C[C@@H](C(C)C)C(=O)C1
REMARK SMILES IDX 8 1 9 2 6 3 7 4 5 5 4 6 3 7 2 8 1 9 10 11 11 12 15 13 16 14
REMARK SMILES IDX 17 15 12 17 13 18 14 19
REMARK H PARENT
REMARK Flexibility Score: 70.00
ROOT
ATOM      1  C   UNL     1      79.781  -5.637  28.095  1.00  0.00     0.136 C 
ATOM      2  O   UNL     1      79.783  -4.500  27.645  1.00  0.00    -0.299 OA
ENDROOT
BRANCH   1   3
ATOM      3  C   UNL     1      78.473  -6.393  28.249  1.00  0.00     0.053 C 
ATOM      4  C   UNL     1      77.329  -5.488  28.732  1.00  0.00     0.016 C 
BRANCH   3   5
ATOM      5  C   UNL     1      78.099  -7.143  26.954  1.00  0.00     0.015 C 
BRANCH   5   6
ATOM      6  C   UNL     1      78.666  -8.576  26.875  1.00  0.00     0.028 C 
BRANCH   6   7
ATOM      7  C   UNL     1      79.555  -8.746  25.668  1.00  0.00    -0.028 C 
ATOM      8  C   UNL     1      80.906  -8.823  25.711  1.00  0.00    -0.070 CG0
ATOM      9  C   UNL     1      81.644  -9.031  24.412  1.00  0.00     0.039 C 
ATOM     10  G   UNL     1      81.706  -8.700  26.999  1.00  0.00     0.000 G0
ENDBRANCH   6   7
ENDBRANCH   5   6
ENDBRANCH   3   5
ENDBRANCH   1   3
BRANCH   1  11
ATOM     11  C   UNL     1      81.094  -6.270  28.489  1.00  0.00     0.087 C 
BRANCH  11  12
ATOM     12  C   UNL     1      82.163  -6.140  27.372  1.00  0.00     0.066 C 
BRANCH  12  13
ATOM     13  C   UNL     1      82.649  -7.524  26.972  1.00  0.00     0.140 C 
ATOM     14  O   UNL     1      83.788  -7.663  26.548  1.00  0.00    -0.299 OA
BRANCH  13  15
ATOM     15  C   UNL     1      81.709  -8.704  26.993  1.00  0.00     0.106 CG0
ATOM     16  G   UNL     1      80.897  -8.826  25.712  1.00  0.00     0.000 G0
ENDBRANCH  13  15
ENDBRANCH  12  13
BRANCH  12  17
ATOM     17  C   UNL     1      83.368  -5.237  27.792  1.00  0.00    -0.006 C 
ATOM     18  C   UNL     1      83.442  -5.028  29.317  1.00  0.00     0.008 C 
ATOM     19  C   UNL     1      83.295  -3.858  27.108  1.00  0.00     0.008 C 
ENDBRANCH  12  17
ENDBRANCH  11  12
ENDBRANCH   1  11
TORSDOF 1
ENDMDL
MODEL 3
REMARK VINA RESULT:    -2.691      2.232      4.143
REMARK INTER + INTRA:          -4.366
REMARK INTER:                  -4.900
REMARK INTRA:                   0.534
REMARK UNBOUND:                -0.259
REMARK SMILES CC1=CCC[C@H](C)C(=O)C[C@@H](C(C)C)C(=O)C1
REMARK SMILES IDX 8 1 9 2 6 3 7 4 5 5 4 6 3 7 2 8 1 9 10 11 11 12 15 13 16 14
REMARK SMILES IDX 17 15 12 17 13 18 14 19
REMARK H PARENT
REMARK Flexibility Score: 70.00
ROOT
ATOM      1  C   UNL     1      85.623  -5.865  29.920  1.00  0.00     0.136 C 
ATOM      2  O   UNL     1      85.626  -4.848  30.599  1.00  0.00    -0.299 OA
ENDROOT
BRANCH   1   3
ATOM      3  C   UNL     1      86.470  -7.057  30.328  1.00  0.00     0.053 C 
ATOM      4  C   UNL     1      87.780  -6.634  31.012  1.00  0.00     0.016 C 
BRANCH   3   5
ATOM      5  C   UNL     1      85.669  -8.049  31.196  1.00  0.00     0.015 C 
BRANCH   5   6
ATOM      6  C   UNL     1      84.538  -8.774  30.436  1.00  0.00     0.028 C 
BRANCH   6   7
ATOM      7  C   UNL     1      83.241  -8.717  31.204  1.00  0.00    -0.028 C 
ATOM      8  C   UNL     1      82.140  -8.034  30.809  1.00  0.00    -0.070 CG0
ATOM      9  C   UNL     1      80.910  -8.113  31.677  1.00  0.00     0.039 C 
ATOM     10  G   UNL     1      82.094  -7.189  29.545  1.00  0.00     0.000 G0
ENDBRANCH   6   7
ENDBRANCH   5   6
ENDBRANCH   3   5
ENDBRANCH   1   3
BRANCH   1  11
ATOM     11  C   UNL     1      84.764  -5.913  28.679  1.00  0.00     0.087 C 
BRANCH  11  12
ATOM     12  C   UNL     1      83.475  -5.062  28.828  1.00  0.00     0.066 C 
BRANCH  12  13
ATOM     13  C   UNL     1      82.516  -5.756  29.782  1.00  0.00     0.140 C 
ATOM     14  O   UNL     1      82.159  -5.180  30.802  1.00  0.00    -0.299 OA
BRANCH  13  15
ATOM     15  C   UNL     1      82.088  -7.182  29.539  1.00  0.00     0.106 CG0
ATOM     16  G   UNL     1      82.113  -8.023  30.806  1.00  0.00     0.000 G0
ENDBRANCH  13  15
ENDBRANCH  12  13
BRANCH  12  17
ATOM     17  C   UNL     1      82.776  -4.780  27.458  1.00  0.00    -0.006 C 
ATOM     18  C   UNL     1      82.842  -5.989  26.506  1.00  0.00     0.008 C 
ATOM     19  C   UNL     1      83.404  -3.562  26.753  1.00  0.00     0.008 C 
ENDBRANCH  12  17
ENDBRANCH  11  12
ENDBRANCH   1  11
TORSDOF 1
ENDMDL
MODEL 4
REMARK VINA RESULT:    -2.521      2.644      4.794
REMARK INTER + INTRA:          -4.107
REMARK INTER:                  -3.949
REMARK INTRA:                  -0.157
REMARK UNBOUND:                -0.259
REMARK SMILES CC1=CCC[C@H](C)C(=O)C[C@@H](C(C)C)C(=O)C1
REMARK SMILES IDX 8 1 9 2 6 3 7 4 5 5 4 6 3 7 2 8 1 9 10 11 11 12 15 13 16 14
REMARK SMILES IDX 17 15 12 17 13 18 14 19
REMARK H PARENT
REMARK Flexibility Score: 70.00
ROOT
ATOM      1  C   UNL     1      83.121  -6.541  28.146  1.00  0.00     0.136 C 
ATOM      2  O   UNL     1      84.228  -6.923  28.500  1.00  0.00    -0.299 OA
ENDROOT
BRANCH   1   3
ATOM      3  C   UNL     1      82.417  -7.221  26.985  1.00  0.00     0.053 C 
ATOM      4  C   UNL     1      83.377  -8.071  26.138  1.00  0.00     0.016 C 
BRANCH   3   5
ATOM      5  C   UNL     1      81.200  -8.039  27.463  1.00  0.00     0.015 C 
BRANCH   5   6
ATOM      6  C   UNL     1      79.845  -7.500  26.959  1.00  0.00     0.028 C 
BRANCH   6   7
ATOM      7  C   UNL     1      78.802  -7.543  28.047  1.00  0.00    -0.028 C 
ATOM      8  C   UNL     1      78.603  -6.566  28.964  1.00  0.00    -0.070 CG0
ATOM      9  C   UNL     1      77.488  -6.749  29.963  1.00  0.00     0.039 C 
ATOM     10  G   UNL     1      79.455  -5.308  29.036  1.00  0.00     0.000 G0
ENDBRANCH   6   7
ENDBRANCH   5   6
ENDBRANCH   3   5
ENDBRANCH   1   3
BRANCH   1  11
ATOM     11  C   UNL     1      82.473  -5.394  28.882  1.00  0.00     0.087 C 
BRANCH  11  12
ATOM     12  C   UNL     1      81.762  -5.860  30.180  1.00  0.00     0.066 C 
BRANCH  12  13
ATOM     13  C   UNL     1      80.367  -5.257  30.238  1.00  0.00     0.140 C 
ATOM     14  O   UNL     1      79.948  -4.811  31.298  1.00  0.00    -0.299 OA
BRANCH  13  15
ATOM     15  C   UNL     1      79.460  -5.299  29.034  1.00  0.00     0.106 CG0
ATOM     16  G   UNL     1      78.619  -6.566  28.981  1.00  0.00     0.000 G0
ENDBRANCH  13  15
ENDBRANCH  12  13
BRANCH  12  17
ATOM     17  C   UNL     1      82.568  -5.503  31.471  1.00  0.00    -0.006 C 
ATOM     18  C   UNL     1      83.460  -4.261  31.282  1.00  0.00     0.008 C 
ATOM     19  C   UNL     1      83.452  -6.683  31.919  1.00  0.00     0.008 C 
ENDBRANCH  12  17
ENDBRANCH  11  12
ENDBRANCH   1  11
TORSDOF 1
ENDMDL
MODEL 5
REMARK VINA RESULT:    -2.512      3.099      4.494
REMARK INTER + INTRA:          -4.093
REMARK INTER:                  -3.879
REMARK INTRA:                  -0.213
REMARK UNBOUND:                -0.259
REMARK SMILES CC1=CCC[C@H](C)C(=O)C[C@@H](C(C)C)C(=O)C1
REMARK SMILES IDX 8 1 9 2 6 3 7 4 5 5 4 6 3 7 2 8 1 9 10 11 11 12 15 13 16 14
REMARK SMILES IDX 17 15 12 17 13 18 14 19
REMARK H PARENT
REMARK Flexibility Score: 70.00
ROOT
ATOM      1  C   UNL     1      77.338  -6.332  27.923  1.00  0.00     0.136 C 
ATOM      2  O   UNL     1      76.209  -6.736  28.167  1.00  0.00    -0.299 OA
ENDROOT
BRANCH   1   3
ATOM      3  C   UNL     1      78.069  -5.461  28.928  1.00  0.00     0.053 C 
ATOM      4  C   UNL     1      78.283  -6.174  30.271  1.00  0.00     0.016 C 
BRANCH   3   5
ATOM      5  C   UNL     1      79.395  -4.923  28.350  1.00  0.00     0.015 C 
BRANCH   5   6
ATOM      6  C   UNL     1      80.642  -5.704  28.813  1.00  0.00     0.028 C 
BRANCH   6   7
ATOM      7  C   UNL     1      81.619  -5.895  27.680  1.00  0.00    -0.028 C 
ATOM      8  C   UNL     1      81.721  -7.018  26.930  1.00  0.00    -0.070 CG0
ATOM      9  C   UNL     1      82.727  -7.029  25.807  1.00  0.00     0.039 C 
ATOM     10  G   UNL     1      80.880  -8.261  27.175  1.00  0.00     0.000 G0
ENDBRANCH   6   7
ENDBRANCH   5   6
ENDBRANCH   3   5
ENDBRANCH   1   3
BRANCH   1  11
ATOM     11  C   UNL     1      77.984  -6.718  26.614  1.00  0.00     0.087 C 
BRANCH  11  12
ATOM     12  C   UNL     1      78.313  -8.233  26.549  1.00  0.00     0.066 C 
BRANCH  12  13
ATOM     13  C   UNL     1      79.768  -8.419  26.147  1.00  0.00     0.140 C 
ATOM     14  O   UNL     1      80.037  -8.767  25.005  1.00  0.00    -0.299 OA
BRANCH  13  15
ATOM     15  C   UNL     1      80.870  -8.282  27.167  1.00  0.00     0.106 CG0
ATOM     16  G   UNL     1      81.716  -7.037  26.948  1.00  0.00     0.000 G0
ENDBRANCH  13  15
ENDBRANCH  12  13
BRANCH  12  17
ATOM     17  C   UNL     1      77.371  -9.014  25.575  1.00  0.00    -0.006 C 
ATOM     18  C   UNL     1      76.518  -8.073  24.703  1.00  0.00     0.008 C 
ATOM     19  C   UNL     1      76.431  -9.958  26.349  1.00  0.00     0.008 C 
ENDBRANCH  12  17
ENDBRANCH  11  12
ENDBRANCH   1  11
TORSDOF 1
ENDMDL
MODEL 6
REMARK VINA RESULT:    -2.440      2.188      2.858
REMARK INTER + INTRA:          -3.982
REMARK INTER:                  -4.029
REMARK INTRA:                   0.047
REMARK UNBOUND:                -0.259
REMARK SMILES CC1=CCC[C@H](C)C(=O)C[C@@H](C(C)C)C(=O)C1
REMARK SMILES IDX 8 1 9 2 6 3 7 4 5 5 4 6 3 7 2 8 1 9 10 11 11 12 15 13 16 14
REMARK SMILES IDX 17 15 12 17 13 18 14 19
REMARK H PARENT
REMARK Flexibility Score: 70.00
ROOT
ATOM      1  C   UNL     1      81.741  -5.334  29.802  1.00  0.00     0.136 C 
ATOM      2  O   UNL     1      81.141  -5.733  30.791  1.00  0.00    -0.299 OA
ENDROOT
BRANCH   1   3
ATOM      3  C   UNL     1      83.202  -4.936  29.907  1.00  0.00     0.053 C 
ATOM      4  C   UNL     1      83.492  -4.109  31.169  1.00  0.00     0.016 C 
BRANCH   3   5
ATOM      5  C   UNL     1      84.131  -6.163  29.803  1.00  0.00     0.015 C 
BRANCH   5   6
ATOM      6  C   UNL     1      84.781  -6.341  28.415  1.00  0.00     0.028 C 
BRANCH   6   7
ATOM      7  C   UNL     1      84.447  -7.688  27.824  1.00  0.00    -0.028 C 
ATOM      8  C   UNL     1      83.404  -7.929  26.995  1.00  0.00    -0.070 CG0
ATOM      9  C   UNL     1      83.233  -9.329  26.461  1.00  0.00     0.039 C 
ATOM     10  G   UNL     1      82.399  -6.861  26.590  1.00  0.00     0.000 G0
ENDBRANCH   6   7
ENDBRANCH   5   6
ENDBRANCH   3   5
ENDBRANCH   1   3
BRANCH   1  11
ATOM     11  C   UNL     1      81.005  -5.249  28.486  1.00  0.00     0.087 C 
BRANCH  11  12
ATOM     12  C   UNL     1      80.287  -6.578  28.132  1.00  0.00     0.066 C 
BRANCH  12  13
ATOM     13  C   UNL     1      80.963  -7.214  26.927  1.00  0.00     0.140 C 
ATOM     14  O   UNL     1      80.377  -8.084  26.297  1.00  0.00    -0.299 OA
BRANCH  13  15
ATOM     15  C   UNL     1      82.384  -6.859  26.567  1.00  0.00     0.106 CG0
ATOM     16  G   UNL     1      83.379  -7.928  26.996  1.00  0.00     0.000 G0
ENDBRANCH  13  15
ENDBRANCH  12  13
BRANCH  12  17
ATOM     17  C   UNL     1      78.759  -6.386  27.864  1.00  0.00    -0.006 C 
ATOM     18  C   UNL     1      78.312  -4.922  28.042  1.00  0.00     0.008 C 
ATOM     19  C   UNL     1      77.914  -7.277  28.796  1.00  0.00     0.008 C 
ENDBRANCH  12  17
ENDBRANCH  11  12
ENDBRANCH   1  11
TORSDOF 1
ENDMDL
MODEL 7
REMARK VINA RESULT:    -2.393      2.220      4.816
REMARK INTER + INTRA:          -3.911
REMARK INTER:                  -3.818
REMARK INTRA:                  -0.093
REMARK UNBOUND:                -0.259
REMARK SMILES CC1=CCC[C@H](C)C(=O)C[C@@H](C(C)C)C(=O)C1
REMARK SMILES IDX 8 1 9 2 6 3 7 4 5 5 4 6 3 7 2 8 1 9 10 11 11 12 15 13 16 14
REMARK SMILES IDX 17 15 12 17 13 18 14 19
REMARK H PARENT
REMARK Flexibility Score: 70.00
ROOT
ATOM      1  C   UNL     1      83.449  -7.694  26.511  1.00  0.00     0.136 C 
ATOM      2  O   UNL     1      82.905  -6.910  25.745  1.00  0.00    -0.299 OA
ENDROOT
BRANCH   1   3
ATOM      3  C   UNL     1      83.305  -9.190  26.299  1.00  0.00     0.053 C 
ATOM      4  C   UNL     1      84.025 -10.005  27.384  1.00  0.00     0.016 C 
BRANCH   3   5
ATOM      5  C   UNL     1      81.824  -9.601  26.166  1.00  0.00     0.015 C 
BRANCH   5   6
ATOM      6  C   UNL     1      81.004  -9.416  27.460  1.00  0.00     0.028 C 
BRANCH   6   7
ATOM      7  C   UNL     1      80.038  -8.265  27.334  1.00  0.00    -0.028 C 
ATOM      8  C   UNL     1      80.007  -7.190  28.157  1.00  0.00    -0.070 CG0
ATOM      9  C   UNL     1      79.000  -6.106  27.868  1.00  0.00     0.039 C 
ATOM     10  G   UNL     1      80.930  -7.034  29.357  1.00  0.00     0.000 G0
ENDBRANCH   6   7
ENDBRANCH   5   6
ENDBRANCH   3   5
ENDBRANCH   1   3
BRANCH   1  11
ATOM     11  C   UNL     1      84.263  -7.147  27.659  1.00  0.00     0.087 C 
BRANCH  11  12
ATOM     12  C   UNL     1      83.525  -7.286  29.016  1.00  0.00     0.066 C 
BRANCH  12  13
ATOM     13  C   UNL     1      82.271  -6.425  29.002  1.00  0.00     0.140 C 
ATOM     14  O   UNL     1      82.368  -5.225  28.784  1.00  0.00    -0.299 OA
BRANCH  13  15
ATOM     15  C   UNL     1      80.930  -7.016  29.356  1.00  0.00     0.106 CG0
ATOM     16  G   UNL     1      80.030  -7.191  28.143  1.00  0.00     0.000 G0
ENDBRANCH  13  15
ENDBRANCH  12  13
BRANCH  12  17
ATOM     17  C   UNL     1      84.430  -6.914  30.237  1.00  0.00    -0.006 C 
ATOM     18  C   UNL     1      85.882  -6.611  29.820  1.00  0.00     0.008 C 
ATOM     19  C   UNL     1      84.443  -8.045  31.284  1.00  0.00     0.008 C 
ENDBRANCH  12  17
ENDBRANCH  11  12
ENDBRANCH   1  11
TORSDOF 1
ENDMDL
MODEL 8
REMARK VINA RESULT:    -2.364      2.389      3.350
REMARK INTER + INTRA:          -3.866
REMARK INTER:                  -3.519
REMARK INTRA:                  -0.347
REMARK UNBOUND:                -0.259
REMARK SMILES CC1=CCC[C@H](C)C(=O)C[C@@H](C(C)C)C(=O)C1
REMARK SMILES IDX 8 1 9 2 6 3 7 4 5 5 4 6 3 7 2 8 1 9 10 11 11 12 15 13 16 14
REMARK SMILES IDX 17 15 12 17 13 18 14 19
REMARK H PARENT
REMARK Flexibility Score: 70.00
ROOT
ATOM      1  C   UNL     1      79.163  -5.274  28.929  1.00  0.00     0.136 C 
ATOM      2  O   UNL     1      78.090  -4.797  29.270  1.00  0.00    -0.299 OA
ENDROOT
BRANCH   1   3
ATOM      3  C   UNL     1      80.338  -5.275  29.891  1.00  0.00     0.053 C 
ATOM      4  C   UNL     1      80.249  -6.414  30.918  1.00  0.00     0.016 C 
BRANCH   3   5
ATOM      5  C   UNL     1      81.684  -5.290  29.138  1.00  0.00     0.015 C 
BRANCH   5   6
ATOM      6  C   UNL     1      82.497  -6.587  29.333  1.00  0.00     0.028 C 
BRANCH   6   7
ATOM      7  C   UNL     1      83.135  -7.031  28.040  1.00  0.00    -0.028 C 
ATOM      8  C   UNL     1      82.604  -7.943  27.192  1.00  0.00    -0.070 CG0
ATOM      9  C   UNL     1      83.354  -8.246  25.919  1.00  0.00     0.039 C 
ATOM     10  G   UNL     1      81.301  -8.677  27.469  1.00  0.00     0.000 G0
ENDBRANCH   6   7
ENDBRANCH   5   6
ENDBRANCH   3   5
ENDBRANCH   1   3
BRANCH   1  11
ATOM     11  C   UNL     1      79.295  -5.860  27.543  1.00  0.00     0.087 C 
BRANCH  11  12
ATOM     12  C   UNL     1      79.018  -7.387  27.526  1.00  0.00     0.066 C 
BRANCH  12  13
ATOM     13  C   UNL     1      80.116  -8.092  26.745  1.00  0.00     0.140 C 
ATOM     14  O   UNL     1      79.990  -8.252  25.539  1.00  0.00    -0.299 OA
BRANCH  13  15
ATOM     15  C   UNL     1      81.305  -8.687  27.458  1.00  0.00     0.106 CG0
ATOM     16  G   UNL     1      82.597  -7.940  27.162  1.00  0.00     0.000 G0
ENDBRANCH  13  15
ENDBRANCH  12  13
BRANCH  12  17
ATOM     17  C   UNL     1      77.614  -7.739  26.936  1.00  0.00    -0.006 C 
ATOM     18  C   UNL     1      76.991  -6.563  26.159  1.00  0.00     0.008 C 
ATOM     19  C   UNL     1      76.636  -8.170  28.046  1.00  0.00     0.008 C 
ENDBRANCH  12  17
ENDBRANCH  11  12
ENDBRANCH   1  11
TORSDOF 1
ENDMDL
MODEL 9
REMARK VINA RESULT:    -2.331      2.951      5.104
REMARK INTER + INTRA:          -3.817
REMARK INTER:                  -3.590
REMARK INTRA:                  -0.226
REMARK UNBOUND:                -0.259
REMARK SMILES CC1=CCC[C@H](C)C(=O)C[C@@H](C(C)C)C(=O)C1
REMARK SMILES IDX 8 1 9 2 6 3 7 4 5 5 4 6 3 7 2 8 1 9 10 11 11 12 15 13 16 14
REMARK SMILES IDX 17 15 12 17 13 18 14 19
REMARK H PARENT
REMARK Flexibility Score: 70.00
ROOT
ATOM      1  C   UNL     1      81.019  -5.968  29.054  1.00  0.00     0.136 C 
ATOM      2  O   UNL     1      81.642  -5.018  28.601  1.00  0.00    -0.299 OA
ENDROOT
BRANCH   1   3
ATOM      3  C   UNL     1      79.748  -5.735  29.852  1.00  0.00     0.053 C 
ATOM      4  C   UNL     1      80.037  -5.249  31.281  1.00  0.00     0.016 C 
BRANCH   3   5
ATOM      5  C   UNL     1      78.783  -4.786  29.111  1.00  0.00     0.015 C 
BRANCH   5   6
ATOM      6  C   UNL     1      78.232  -5.359  27.789  1.00  0.00     0.028 C 
BRANCH   6   7
ATOM      7  C   UNL     1      77.335  -6.546  28.040  1.00  0.00    -0.028 C 
ATOM      8  C   UNL     1      77.548  -7.791  27.552  1.00  0.00    -0.070 CG0
ATOM      9  C   UNL     1      76.572  -8.876  27.931  1.00  0.00     0.039 C 
ATOM     10  G   UNL     1      78.712  -8.138  26.636  1.00  0.00     0.000 G0
ENDBRANCH   6   7
ENDBRANCH   5   6
ENDBRANCH   3   5
ENDBRANCH   1   3
BRANCH   1  11
ATOM     11  C   UNL     1      81.532  -7.365  28.804  1.00  0.00     0.087 C 
BRANCH  11  12
ATOM     12  C   UNL     1      81.213  -7.856  27.367  1.00  0.00     0.066 C 
BRANCH  12  13
ATOM     13  C   UNL     1      79.917  -8.651  27.378  1.00  0.00     0.140 C 
ATOM     14  O   UNL     1      79.888  -9.746  27.925  1.00  0.00    -0.299 OA
BRANCH  13  15
ATOM     15  C   UNL     1      78.704  -8.153  26.635  1.00  0.00     0.106 CG0
ATOM     16  G   UNL     1      77.556  -7.792  27.565  1.00  0.00     0.000 G0
ENDBRANCH  13  15
ENDBRANCH  12  13
BRANCH  12  17
ATOM     17  C   UNL     1      82.372  -8.705  26.748  1.00  0.00    -0.006 C 
ATOM     18  C   UNL     1      83.750  -8.043  26.936  1.00  0.00     0.008 C 
ATOM     19  C   UNL     1      82.142  -8.946  25.243  1.00  0.00     0.008 C 
ENDBRANCH  12  17
ENDBRANCH  11  12
ENDBRANCH   1  11
TORSDOF 1
ENDMDL
