MODEL 1
REMARK VINA RESULT:    -4.457      0.000      0.000
REMARK INTER + INTRA:          -6.434
REMARK INTER:                  -6.021
REMARK INTRA:                  -0.413
REMARK UNBOUND:                -0.413
REMARK SMILES CCCCCCCC(=O)[O-]
REMARK SMILES IDX 5 1 6 2 7 3 8 4 9 5 10 6 4 7 3 8 2 9 1 10
REMARK H PARENT
REMARK Flexibility Score: inf
ROOT
ATOM      1  C   UNL     1       8.702  53.961  22.447  1.00  0.00     0.000 C 
ENDROOT
BRANCH   1   2
ATOM      2  C   UNL     1       8.177  55.174  21.657  1.00  0.00     0.006 C 
BRANCH   2   3
ATOM      3  C   UNL     1       7.614  56.265  22.578  1.00  0.00     0.053 C 
BRANCH   3   4
ATOM      4  C   UNL     1       6.120  56.334  22.508  1.00  0.00     0.041 C 
ATOM      5  O   UNL     1       5.550  57.418  22.214  1.00  0.00    -0.550 OA
ATOM      6  O   UNL     1       5.356  55.212  22.802  1.00  0.00    -0.550 OA
ENDBRANCH   3   4
ENDBRANCH   2   3
ENDBRANCH   1   2
BRANCH   1   7
ATOM      7  C   UNL     1      10.136  54.166  22.960  1.00  0.00     0.000 C 
BRANCH   7   8
ATOM      8  C   UNL     1      10.305  53.739  24.426  1.00  0.00    -0.000 C 
BRANCH   8   9
ATOM      9  C   UNL     1      10.195  54.946  25.364  1.00  0.00    -0.003 C 
ATOM     10  C   UNL     1       8.948  54.852  26.239  1.00  0.00     0.004 C 
ENDBRANCH   8   9
ENDBRANCH   7   8
ENDBRANCH   1   7
TORSDOF 6
ENDMDL
MODEL 2
REMARK VINA RESULT:    -4.447      2.128      2.911
REMARK INTER + INTRA:          -6.420
REMARK INTER:                  -5.893
REMARK INTRA:                  -0.527
REMARK UNBOUND:                -0.413
REMARK SMILES CCCCCCCC(=O)[O-]
REMARK SMILES IDX 5 1 6 2 7 3 8 4 9 5 10 6 4 7 3 8 2 9 1 10
REMARK H PARENT
REMARK Flexibility Score: inf
ROOT
ATOM      1  C   UNL     1       7.655  54.038  24.572  1.00  0.00     0.000 C 
ENDROOT
BRANCH   1   2
ATOM      2  C   UNL     1       6.757  54.584  23.448  1.00  0.00     0.006 C 
BRANCH   2   3
ATOM      3  C   UNL     1       6.969  53.838  22.123  1.00  0.00     0.053 C 
BRANCH   3   4
ATOM      4  C   UNL     1       7.591  54.718  21.083  1.00  0.00     0.041 C 
ATOM      5  O   UNL     1       7.472  54.435  19.862  1.00  0.00    -0.550 OA
ATOM      6  O   UNL     1       8.332  55.829  21.464  1.00  0.00    -0.550 OA
ENDBRANCH   3   4
ENDBRANCH   2   3
ENDBRANCH   1   2
BRANCH   1   7
ATOM      7  C   UNL     1       8.926  54.876  24.773  1.00  0.00     0.000 C 
BRANCH   7   8
ATOM      8  C   UNL     1      10.209  54.036  24.685  1.00  0.00    -0.000 C 
BRANCH   8   9
ATOM      9  C   UNL     1      10.401  53.478  23.270  1.00  0.00    -0.003 C 
ATOM     10  C   UNL     1      10.283  51.956  23.257  1.00  0.00     0.004 C 
ENDBRANCH   8   9
ENDBRANCH   7   8
ENDBRANCH   1   7
TORSDOF 6
ENDMDL
MODEL 3
REMARK VINA RESULT:    -4.442      3.004      4.640
REMARK INTER + INTRA:          -6.414
REMARK INTER:                  -5.869
REMARK INTRA:                  -0.545
REMARK UNBOUND:                -0.413
REMARK SMILES CCCCCCCC(=O)[O-]
REMARK SMILES IDX 5 1 6 2 7 3 8 4 9 5 10 6 4 7 3 8 2 9 1 10
REMARK H PARENT
REMARK Flexibility Score: inf
ROOT
ATOM      1  C   UNL     1       7.225  53.403  24.241  1.00  0.00     0.000 C 
ENDROOT
BRANCH   1   2
ATOM      2  C   UNL     1       7.876  54.089  25.455  1.00  0.00     0.006 C 
BRANCH   2   3
ATOM      3  C   UNL     1       8.951  55.103  25.039  1.00  0.00     0.053 C 
BRANCH   3   4
ATOM      4  C   UNL     1      10.280  54.447  24.821  1.00  0.00     0.041 C 
ATOM      5  O   UNL     1      11.090  54.325  25.778  1.00  0.00    -0.550 OA
ATOM      6  O   UNL     1      10.637  54.001  23.556  1.00  0.00    -0.550 OA
ENDBRANCH   3   4
ENDBRANCH   2   3
ENDBRANCH   1   2
BRANCH   1   7
ATOM      7  C   UNL     1       6.534  54.401  23.299  1.00  0.00     0.000 C 
BRANCH   7   8
ATOM      8  C   UNL     1       6.927  54.196  21.828  1.00  0.00    -0.000 C 
BRANCH   8   9
ATOM      9  C   UNL     1       7.936  55.260  21.378  1.00  0.00    -0.003 C 
ATOM     10  C   UNL     1       7.612  56.621  21.990  1.00  0.00     0.004 C 
ENDBRANCH   8   9
ENDBRANCH   7   8
ENDBRANCH   1   7
TORSDOF 6
ENDMDL
MODEL 4
REMARK VINA RESULT:    -4.442      2.079      2.459
REMARK INTER + INTRA:          -6.413
REMARK INTER:                  -5.952
REMARK INTRA:                  -0.461
REMARK UNBOUND:                -0.413
REMARK SMILES CCCCCCCC(=O)[O-]
REMARK SMILES IDX 5 1 6 2 7 3 8 4 9 5 10 6 4 7 3 8 2 9 1 10
REMARK H PARENT
REMARK Flexibility Score: inf
ROOT
ATOM      1  C   UNL     1       7.363  53.900  24.485  1.00  0.00     0.000 C 
ENDROOT
BRANCH   1   2
ATOM      2  C   UNL     1       6.448  54.383  23.346  1.00  0.00     0.006 C 
BRANCH   2   3
ATOM      3  C   UNL     1       6.865  53.808  21.985  1.00  0.00     0.053 C 
BRANCH   3   4
ATOM      4  C   UNL     1       7.435  54.861  21.087  1.00  0.00     0.041 C 
ATOM      5  O   UNL     1       7.114  54.897  19.870  1.00  0.00    -0.550 OA
ATOM      6  O   UNL     1       8.348  55.782  21.586  1.00  0.00    -0.550 OA
ENDBRANCH   3   4
ENDBRANCH   2   3
ENDBRANCH   1   2
BRANCH   1   7
ATOM      7  C   UNL     1       8.409  52.879  24.010  1.00  0.00     0.000 C 
BRANCH   7   8
ATOM      8  C   UNL     1       9.838  53.442  24.035  1.00  0.00    -0.000 C 
BRANCH   8   9
ATOM      9  C   UNL     1       9.896  54.755  24.825  1.00  0.00    -0.003 C 
ATOM     10  C   UNL     1      10.796  54.621  26.051  1.00  0.00     0.004 C 
ENDBRANCH   8   9
ENDBRANCH   7   8
ENDBRANCH   1   7
TORSDOF 6
ENDMDL
MODEL 5
REMARK VINA RESULT:    -4.407      2.930      5.070
REMARK INTER + INTRA:          -6.366
REMARK INTER:                  -6.071
REMARK INTRA:                  -0.295
REMARK UNBOUND:                -0.413
REMARK SMILES CCCCCCCC(=O)[O-]
REMARK SMILES IDX 5 1 6 2 7 3 8 4 9 5 10 6 4 7 3 8 2 9 1 10
REMARK H PARENT
REMARK Flexibility Score: inf
ROOT
ATOM      1  C   UNL     1       8.984  54.004  22.131  1.00  0.00     0.000 C 
ENDROOT
BRANCH   1   2
ATOM      2  C   UNL     1      10.263  53.958  22.985  1.00  0.00     0.006 C 
BRANCH   2   3
ATOM      3  C   UNL     1       9.978  53.532  24.432  1.00  0.00     0.053 C 
BRANCH   3   4
ATOM      4  C   UNL     1      10.235  54.645  25.400  1.00  0.00     0.041 C 
ATOM      5  O   UNL     1      11.129  54.526  26.278  1.00  0.00    -0.550 OA
ATOM      6  O   UNL     1       9.464  55.799  25.354  1.00  0.00    -0.550 OA
ENDBRANCH   3   4
ENDBRANCH   2   3
ENDBRANCH   1   2
BRANCH   1   7
ATOM      7  C   UNL     1       8.386  55.416  22.038  1.00  0.00     0.000 C 
BRANCH   7   8
ATOM      8  C   UNL     1       7.116  55.464  21.175  1.00  0.00    -0.000 C 
BRANCH   8   9
ATOM      9  C   UNL     1       7.010  54.220  20.286  1.00  0.00    -0.003 C 
ATOM     10  C   UNL     1       6.963  54.601  18.809  1.00  0.00     0.004 C 
ENDBRANCH   8   9
ENDBRANCH   7   8
ENDBRANCH   1   7
TORSDOF 6
ENDMDL
MODEL 6
REMARK VINA RESULT:    -4.368      2.962      4.928
REMARK INTER + INTRA:          -6.314
REMARK INTER:                  -5.847
REMARK INTRA:                  -0.466
REMARK UNBOUND:                -0.413
REMARK SMILES CCCCCCCC(=O)[O-]
REMARK SMILES IDX 5 1 6 2 7 3 8 4 9 5 10 6 4 7 3 8 2 9 1 10
REMARK H PARENT
REMARK Flexibility Score: inf
ROOT
ATOM      1  C   UNL     1       6.696  54.586  23.160  1.00  0.00     0.000 C 
ENDROOT
BRANCH   1   2
ATOM      2  C   UNL     1       7.362  53.943  24.389  1.00  0.00     0.006 C 
BRANCH   2   3
ATOM      3  C   UNL     1       8.216  52.724  24.014  1.00  0.00     0.053 C 
BRANCH   3   4
ATOM      4  C   UNL     1       9.621  53.113  23.673  1.00  0.00     0.041 C 
ATOM      5  O   UNL     1      10.253  52.486  22.783  1.00  0.00    -0.550 OA
ATOM      6  O   UNL     1      10.243  54.146  24.361  1.00  0.00    -0.550 OA
ENDBRANCH   3   4
ENDBRANCH   2   3
ENDBRANCH   1   2
BRANCH   1   7
ATOM      7  C   UNL     1       7.416  55.861  22.696  1.00  0.00     0.000 C 
BRANCH   7   8
ATOM      8  C   UNL     1       7.629  55.901  21.176  1.00  0.00    -0.000 C 
BRANCH   8   9
ATOM      9  C   UNL     1       7.684  54.484  20.593  1.00  0.00    -0.003 C 
ATOM     10  C   UNL     1       6.992  54.420  19.234  1.00  0.00     0.004 C 
ENDBRANCH   8   9
ENDBRANCH   7   8
ENDBRANCH   1   7
TORSDOF 6
ENDMDL
MODEL 7
REMARK VINA RESULT:    -4.332      2.756      4.544
REMARK INTER + INTRA:          -6.264
REMARK INTER:                  -5.977
REMARK INTRA:                  -0.287
REMARK UNBOUND:                -0.413
REMARK SMILES CCCCCCCC(=O)[O-]
REMARK SMILES IDX 5 1 6 2 7 3 8 4 9 5 10 6 4 7 3 8 2 9 1 10
REMARK H PARENT
REMARK Flexibility Score: inf
ROOT
ATOM      1  C   UNL     1       8.058  53.394  23.065  1.00  0.00     0.000 C 
ENDROOT
BRANCH   1   2
ATOM      2  C   UNL     1       9.467  54.013  23.030  1.00  0.00     0.006 C 
BRANCH   2   3
ATOM      3  C   UNL     1      10.301  53.622  24.258  1.00  0.00     0.053 C 
BRANCH   3   4
ATOM      4  C   UNL     1      10.245  54.670  25.325  1.00  0.00     0.041 C 
ATOM      5  O   UNL     1       9.480  55.663  25.198  1.00  0.00    -0.550 OA
ATOM      6  O   UNL     1      11.061  54.570  26.444  1.00  0.00    -0.550 OA
ENDBRANCH   3   4
ENDBRANCH   2   3
ENDBRANCH   1   2
BRANCH   1   7
ATOM      7  C   UNL     1       7.037  54.202  22.249  1.00  0.00     0.000 C 
BRANCH   7   8
ATOM      8  C   UNL     1       7.691  55.014  21.121  1.00  0.00    -0.000 C 
BRANCH   8   9
ATOM      9  C   UNL     1       7.495  56.518  21.345  1.00  0.00    -0.003 C 
ATOM     10  C   UNL     1       6.296  56.789  22.251  1.00  0.00     0.004 C 
ENDBRANCH   8   9
ENDBRANCH   7   8
ENDBRANCH   1   7
TORSDOF 6
ENDMDL
MODEL 8
REMARK VINA RESULT:    -4.279      1.827      2.234
REMARK INTER + INTRA:          -6.194
REMARK INTER:                  -5.892
REMARK INTRA:                  -0.302
REMARK UNBOUND:                -0.413
REMARK SMILES CCCCCCCC(=O)[O-]
REMARK SMILES IDX 5 1 6 2 7 3 8 4 9 5 10 6 4 7 3 8 2 9 1 10
REMARK H PARENT
REMARK Flexibility Score: inf
ROOT
ATOM      1  C   UNL     1       8.520  55.186  23.142  1.00  0.00     0.000 C 
ENDROOT
BRANCH   1   2
ATOM      2  C   UNL     1       8.312  55.958  21.827  1.00  0.00     0.006 C 
BRANCH   2   3
ATOM      3  C   UNL     1       6.945  55.662  21.192  1.00  0.00     0.053 C 
BRANCH   3   4
ATOM      4  C   UNL     1       6.890  54.285  20.607  1.00  0.00     0.041 C 
ATOM      5  O   UNL     1       6.154  53.406  21.128  1.00  0.00    -0.550 OA
ATOM      6  O   UNL     1       7.676  53.963  19.509  1.00  0.00    -0.550 OA
ENDBRANCH   3   4
ENDBRANCH   2   3
ENDBRANCH   1   2
BRANCH   1   7
ATOM      7  C   UNL     1       9.698  54.202  23.069  1.00  0.00     0.000 C 
BRANCH   7   8
ATOM      8  C   UNL     1      10.289  53.883  24.451  1.00  0.00    -0.000 C 
BRANCH   8   9
ATOM      9  C   UNL     1      10.183  55.095  25.383  1.00  0.00    -0.003 C 
ATOM     10  C   UNL     1       9.433  54.741  26.665  1.00  0.00     0.004 C 
ENDBRANCH   8   9
ENDBRANCH   7   8
ENDBRANCH   1   7
TORSDOF 6
ENDMDL
MODEL 9
REMARK VINA RESULT:    -4.017      2.837      4.783
REMARK INTER + INTRA:          -5.839
REMARK INTER:                  -5.461
REMARK INTRA:                  -0.379
REMARK UNBOUND:                -0.413
REMARK SMILES CCCCCCCC(=O)[O-]
REMARK SMILES IDX 5 1 6 2 7 3 8 4 9 5 10 6 4 7 3 8 2 9 1 10
REMARK H PARENT
REMARK Flexibility Score: inf
ROOT
ATOM      1  C   UNL     1       8.939  55.348  24.210  1.00  0.00     0.000 C 
ENDROOT
BRANCH   1   2
ATOM      2  C   UNL     1      10.145  54.417  24.429  1.00  0.00     0.006 C 
BRANCH   2   3
ATOM      3  C   UNL     1      10.282  53.375  23.310  1.00  0.00     0.053 C 
BRANCH   3   4
ATOM      4  C   UNL     1       9.662  52.066  23.690  1.00  0.00     0.041 C 
ATOM      5  O   UNL     1      10.300  50.993  23.530  1.00  0.00    -0.550 OA
ATOM      6  O   UNL     1       8.366  52.029  24.189  1.00  0.00    -0.550 OA
ENDBRANCH   3   4
ENDBRANCH   2   3
ENDBRANCH   1   2
BRANCH   1   7
ATOM      7  C   UNL     1       8.453  55.353  22.752  1.00  0.00     0.000 C 
BRANCH   7   8
ATOM      8  C   UNL     1       7.093  56.048  22.585  1.00  0.00    -0.000 C 
BRANCH   8   9
ATOM      9  C   UNL     1       5.960  55.019  22.498  1.00  0.00    -0.003 C 
ATOM     10  C   UNL     1       6.429  53.738  21.813  1.00  0.00     0.004 C 
ENDBRANCH   8   9
ENDBRANCH   7   8
ENDBRANCH   1   7
TORSDOF 6
ENDMDL
