MODEL 1
REMARK VINA RESULT:    -4.705      0.000      0.000
REMARK INTER + INTRA:          -5.827
REMARK INTER:                  -5.530
REMARK INTRA:                  -0.297
REMARK UNBOUND:                -0.297
REMARK SMILES O=c1cc(-c2ccc(O)c(O)c2)oc2cc(O)cc(O)c12
REMARK SMILES IDX 4 1 3 2 2 3 1 4 21 5 19 6 18 7 16 8 15 9 14 10 13 11 5 12
REMARK SMILES IDX 6 13 7 14 8 15 12 16 10 17 9 18 11 20 20 22 17 24
REMARK H PARENT 9 19 11 21 20 23 17 25
REMARK Flexibility Score: inf
ROOT
ATOM      1  C   UNL     1      24.881  28.078   5.388  1.00  0.00     0.138 A 
ATOM      2  C   UNL     1      26.053  28.330   6.113  1.00  0.00     0.100 A 
ATOM      3  C   UNL     1      26.800  27.261   6.611  1.00  0.00     0.197 A 
ATOM      4  O   UNL     1      27.876  27.519   7.210  1.00  0.00    -0.289 OA
ATOM      5  C   UNL     1      26.349  25.934   6.414  1.00  0.00     0.107 A 
ATOM      6  C   UNL     1      27.008  24.768   6.905  1.00  0.00     0.134 A 
ATOM      7  C   UNL     1      26.519  23.501   6.559  1.00  0.00     0.093 A 
ATOM      8  C   UNL     1      25.364  23.359   5.792  1.00  0.00     0.123 A 
ATOM      9  C   UNL     1      24.682  24.492   5.349  1.00  0.00     0.094 A 
ATOM     10  C   UNL     1      25.164  25.769   5.646  1.00  0.00     0.146 A 
ATOM     11  O   UNL     1      24.496  26.822   5.188  1.00  0.00    -0.456 OA
ENDROOT
BRANCH   1  12
ATOM     12  C   UNL     1      24.047  29.177   4.838  1.00  0.00     0.021 A 
ATOM     13  C   UNL     1      22.922  28.865   4.059  1.00  0.00     0.016 A 
ATOM     14  C   UNL     1      22.126  29.879   3.525  1.00  0.00     0.051 A 
ATOM     15  C   UNL     1      22.436  31.225   3.747  1.00  0.00     0.157 A 
ATOM     16  C   UNL     1      24.370  30.530   5.051  1.00  0.00     0.062 A 
ATOM     17  C   UNL     1      23.577  31.555   4.516  1.00  0.00     0.158 A 
BRANCH  15  18
ATOM     18  O   UNL     1      21.596  32.190   3.190  1.00  0.00    -0.504 OA
ATOM     19  H   UNL     1      21.808  33.177   3.165  1.00  0.00     0.293 HD
ENDBRANCH  15  18
BRANCH  17  20
ATOM     20  O   UNL     1      23.961  32.873   4.767  1.00  0.00    -0.504 OA
ATOM     21  H   UNL     1      23.359  33.566   5.189  1.00  0.00     0.293 HD
ENDBRANCH  17  20
ENDBRANCH   1  12
BRANCH   6  22
ATOM     22  O   UNL     1      28.125  24.794   7.746  1.00  0.00    -0.507 OA
ATOM     23  H   UNL     1      29.053  25.076   7.469  1.00  0.00     0.293 HD
ENDBRANCH   6  22
BRANCH   8  24
ATOM     24  O   UNL     1      24.898  22.083   5.482  1.00  0.00    -0.508 OA
ATOM     25  H   UNL     1      24.528  21.466   6.196  1.00  0.00     0.293 HD
ENDBRANCH   8  24
TORSDOF 5
ENDMDL
MODEL 2
REMARK VINA RESULT:    -4.485      1.439      7.337
REMARK INTER + INTRA:          -5.568
REMARK INTER:                  -5.251
REMARK INTRA:                  -0.318
REMARK UNBOUND:                -0.297
REMARK SMILES O=c1cc(-c2ccc(O)c(O)c2)oc2cc(O)cc(O)c12
REMARK SMILES IDX 4 1 3 2 2 3 1 4 21 5 19 6 18 7 16 8 15 9 14 10 13 11 5 12
REMARK SMILES IDX 6 13 7 14 8 15 12 16 10 17 9 18 11 20 20 22 17 24
REMARK H PARENT 9 19 11 21 20 23 17 25
REMARK Flexibility Score: inf
ROOT
ATOM      1  C   UNL     1      23.930  26.870   4.893  1.00  0.00     0.138 A 
ATOM      2  C   UNL     1      22.766  26.632   4.148  1.00  0.00     0.100 A 
ATOM      3  C   UNL     1      22.024  27.711   3.665  1.00  0.00     0.197 A 
ATOM      4  O   UNL     1      21.016  27.464   2.952  1.00  0.00    -0.289 OA
ATOM      5  C   UNL     1      22.428  29.034   3.962  1.00  0.00     0.107 A 
ATOM      6  C   UNL     1      21.731  30.210   3.553  1.00  0.00     0.134 A 
ATOM      7  C   UNL     1      22.284  31.469   3.823  1.00  0.00     0.093 A 
ATOM      8  C   UNL     1      23.474  31.596   4.537  1.00  0.00     0.123 A 
ATOM      9  C   UNL     1      24.139  30.454   4.986  1.00  0.00     0.094 A 
ATOM     10  C   UNL     1      23.632  29.183   4.702  1.00  0.00     0.146 A 
ATOM     11  O   UNL     1      24.306  28.122   5.132  1.00  0.00    -0.456 OA
ENDROOT
BRANCH   1  12
ATOM     12  C   UNL     1      24.756  25.761   5.434  1.00  0.00     0.021 A 
ATOM     13  C   UNL     1      24.299  24.439   5.316  1.00  0.00     0.016 A 
ATOM     14  C   UNL     1      25.053  23.380   5.823  1.00  0.00     0.051 A 
ATOM     15  C   UNL     1      26.273  23.614   6.465  1.00  0.00     0.157 A 
ATOM     16  C   UNL     1      25.976  26.000   6.093  1.00  0.00     0.062 A 
ATOM     17  C   UNL     1      26.739  24.942   6.607  1.00  0.00     0.158 A 
BRANCH  15  18
ATOM     18  O   UNL     1      26.982  22.511   6.944  1.00  0.00    -0.504 OA
ATOM     19  H   UNL     1      27.428  22.475   7.849  1.00  0.00     0.293 HD
ENDBRANCH  15  18
BRANCH  17  20
ATOM     20  O   UNL     1      27.937  25.256   7.250  1.00  0.00    -0.504 OA
ATOM     21  H   UNL     1      28.123  25.065   8.224  1.00  0.00     0.293 HD
ENDBRANCH  17  20
ENDBRANCH   1  12
BRANCH   6  22
ATOM     22  O   UNL     1      20.493  30.202   2.903  1.00  0.00    -0.507 OA
ATOM     23  H   UNL     1      20.216  29.542   2.192  1.00  0.00     0.293 HD
ENDBRANCH   6  22
BRANCH   8  24
ATOM     24  O   UNL     1      23.985  32.865   4.800  1.00  0.00    -0.508 OA
ATOM     25  H   UNL     1      24.956  33.093   4.621  1.00  0.00     0.293 HD
ENDBRANCH   8  24
TORSDOF 5
ENDMDL
MODEL 3
REMARK VINA RESULT:    -4.473      3.321      6.526
REMARK INTER + INTRA:          -5.554
REMARK INTER:                  -5.252
REMARK INTRA:                  -0.302
REMARK UNBOUND:                -0.297
REMARK SMILES O=c1cc(-c2ccc(O)c(O)c2)oc2cc(O)cc(O)c12
REMARK SMILES IDX 4 1 3 2 2 3 1 4 21 5 19 6 18 7 16 8 15 9 14 10 13 11 5 12
REMARK SMILES IDX 6 13 7 14 8 15 12 16 10 17 9 18 11 20 20 22 17 24
REMARK H PARENT 9 19 11 21 20 23 17 25
REMARK Flexibility Score: inf
ROOT
ATOM      1  C   UNL     1      23.071  24.449   5.243  1.00  0.00     0.138 A 
ATOM      2  C   UNL     1      24.302  24.025   5.761  1.00  0.00     0.100 A 
ATOM      3  C   UNL     1      25.215  24.969   6.233  1.00  0.00     0.197 A 
ATOM      4  O   UNL     1      26.287  24.552   6.744  1.00  0.00    -0.289 OA
ATOM      5  C   UNL     1      24.908  26.348   6.150  1.00  0.00     0.107 A 
ATOM      6  C   UNL     1      25.775  27.402   6.568  1.00  0.00     0.134 A 
ATOM      7  C   UNL     1      25.320  28.726   6.530  1.00  0.00     0.093 A 
ATOM      8  C   UNL     1      24.056  29.040   6.034  1.00  0.00     0.123 A 
ATOM      9  C   UNL     1      23.218  28.022   5.576  1.00  0.00     0.094 A 
ATOM     10  C   UNL     1      23.628  26.688   5.634  1.00  0.00     0.146 A 
ATOM     11  O   UNL     1      22.793  25.748   5.205  1.00  0.00    -0.456 OA
ENDROOT
BRANCH   1  12
ATOM     12  C   UNL     1      22.064  23.489   4.724  1.00  0.00     0.021 A 
ATOM     13  C   UNL     1      22.494  22.331   4.058  1.00  0.00     0.016 A 
ATOM     14  C   UNL     1      21.567  21.417   3.555  1.00  0.00     0.051 A 
ATOM     15  C   UNL     1      20.194  21.639   3.695  1.00  0.00     0.157 A 
ATOM     16  C   UNL     1      20.682  23.722   4.854  1.00  0.00     0.062 A 
ATOM     17  C   UNL     1      19.745  22.811   4.348  1.00  0.00     0.158 A 
BRANCH  15  18
ATOM     18  O   UNL     1      19.320  20.683   3.175  1.00  0.00    -0.504 OA
ATOM     19  H   UNL     1      18.328  20.829   3.059  1.00  0.00     0.293 HD
ENDBRANCH  15  18
BRANCH  17  20
ATOM     20  O   UNL     1      18.392  23.110   4.513  1.00  0.00    -0.504 OA
ATOM     21  H   UNL     1      17.982  24.009   4.303  1.00  0.00     0.293 HD
ENDBRANCH  17  20
ENDBRANCH   1  12
BRANCH   6  22
ATOM     22  O   UNL     1      27.089  27.209   7.006  1.00  0.00    -0.507 OA
ATOM     23  H   UNL     1      27.355  26.693   7.831  1.00  0.00     0.293 HD
ENDBRANCH   6  22
BRANCH   8  24
ATOM     24  O   UNL     1      23.644  30.371   5.996  1.00  0.00    -0.508 OA
ATOM     25  H   UNL     1      24.182  31.105   6.440  1.00  0.00     0.293 HD
ENDBRANCH   8  24
TORSDOF 5
ENDMDL
MODEL 4
REMARK VINA RESULT:    -4.416      4.399      7.726
REMARK INTER + INTRA:          -5.487
REMARK INTER:                  -5.190
REMARK INTRA:                  -0.297
REMARK UNBOUND:                -0.297
REMARK SMILES O=c1cc(-c2ccc(O)c(O)c2)oc2cc(O)cc(O)c12
REMARK SMILES IDX 4 1 3 2 2 3 1 4 21 5 19 6 18 7 16 8 15 9 14 10 13 11 5 12
REMARK SMILES IDX 6 13 7 14 8 15 12 16 10 17 9 18 11 20 20 22 17 24
REMARK H PARENT 9 19 11 21 20 23 17 25
REMARK Flexibility Score: inf
ROOT
ATOM      1  C   UNL     1      20.576  25.153   3.857  1.00  0.00     0.138 A 
ATOM      2  C   UNL     1      20.102  26.324   3.250  1.00  0.00     0.100 A 
ATOM      3  C   UNL     1      20.731  27.542   3.514  1.00  0.00     0.197 A 
ATOM      4  O   UNL     1      20.317  28.565   2.910  1.00  0.00    -0.289 OA
ATOM      5  C   UNL     1      21.818  27.591   4.420  1.00  0.00     0.107 A 
ATOM      6  C   UNL     1      22.514  28.780   4.792  1.00  0.00     0.134 A 
ATOM      7  C   UNL     1      23.639  28.690   5.622  1.00  0.00     0.093 A 
ATOM      8  C   UNL     1      24.057  27.465   6.140  1.00  0.00     0.123 A 
ATOM      9  C   UNL     1      23.353  26.302   5.823  1.00  0.00     0.094 A 
ATOM     10  C   UNL     1      22.249  26.354   4.970  1.00  0.00     0.146 A 
ATOM     11  O   UNL     1      21.618  25.221   4.679  1.00  0.00    -0.456 OA
ENDROOT
BRANCH   1  12
ATOM     12  C   UNL     1      19.944  23.832   3.615  1.00  0.00     0.021 A 
ATOM     13  C   UNL     1      18.544  23.737   3.557  1.00  0.00     0.016 A 
ATOM     14  C   UNL     1      17.926  22.506   3.338  1.00  0.00     0.051 A 
ATOM     15  C   UNL     1      18.684  21.342   3.181  1.00  0.00     0.157 A 
ATOM     16  C   UNL     1      20.709  22.659   3.471  1.00  0.00     0.062 A 
ATOM     17  C   UNL     1      20.095  21.418   3.254  1.00  0.00     0.158 A 
BRANCH  15  18
ATOM     18  O   UNL     1      18.004  20.143   2.959  1.00  0.00    -0.504 OA
ATOM     19  H   UNL     1      18.449  19.288   2.658  1.00  0.00     0.293 HD
ENDBRANCH  15  18
BRANCH  17  20
ATOM     20  O   UNL     1      20.918  20.298   3.123  1.00  0.00    -0.504 OA
ATOM     21  H   UNL     1      21.223  19.922   2.237  1.00  0.00     0.293 HD
ENDBRANCH  17  20
ENDBRANCH   1  12
BRANCH   6  22
ATOM     22  O   UNL     1      22.136  30.067   4.397  1.00  0.00    -0.507 OA
ATOM     23  H   UNL     1      22.220  30.896   4.965  1.00  0.00     0.293 HD
ENDBRANCH   6  22
BRANCH   8  24
ATOM     24  O   UNL     1      25.171  27.416   6.976  1.00  0.00    -0.508 OA
ATOM     25  H   UNL     1      26.078  27.121   6.633  1.00  0.00     0.293 HD
ENDBRANCH   8  24
TORSDOF 5
ENDMDL
MODEL 5
REMARK VINA RESULT:    -4.383      3.499      7.228
REMARK INTER + INTRA:          -5.448
REMARK INTER:                  -5.185
REMARK INTRA:                  -0.264
REMARK UNBOUND:                -0.297
REMARK SMILES O=c1cc(-c2ccc(O)c(O)c2)oc2cc(O)cc(O)c12
REMARK SMILES IDX 4 1 3 2 2 3 1 4 21 5 19 6 18 7 16 8 15 9 14 10 13 11 5 12
REMARK SMILES IDX 6 13 7 14 8 15 12 16 10 17 9 18 11 20 20 22 17 24
REMARK H PARENT 9 19 11 21 20 23 17 25
REMARK Flexibility Score: inf
ROOT
ATOM      1  C   UNL     1      21.805  25.609   4.194  1.00  0.00     0.138 A 
ATOM      2  C   UNL     1      21.254  26.691   3.496  1.00  0.00     0.100 A 
ATOM      3  C   UNL     1      21.693  27.987   3.773  1.00  0.00     0.197 A 
ATOM      4  O   UNL     1      21.219  28.931   3.088  1.00  0.00    -0.289 OA
ATOM      5  C   UNL     1      22.662  28.202   4.781  1.00  0.00     0.107 A 
ATOM      6  C   UNL     1      23.159  29.481   5.174  1.00  0.00     0.134 A 
ATOM      7  C   UNL     1      24.192  29.561   6.117  1.00  0.00     0.093 A 
ATOM      8  C   UNL     1      24.703  28.415   6.724  1.00  0.00     0.123 A 
ATOM      9  C   UNL     1      24.190  27.162   6.385  1.00  0.00     0.094 A 
ATOM     10  C   UNL     1      23.185  27.047   5.422  1.00  0.00     0.146 A 
ATOM     11  O   UNL     1      22.737  25.834   5.115  1.00  0.00    -0.456 OA
ENDROOT
BRANCH   1  12
ATOM     12  C   UNL     1      21.374  24.210   3.943  1.00  0.00     0.021 A 
ATOM     13  C   UNL     1      22.163  23.380   3.132  1.00  0.00     0.016 A 
ATOM     14  C   UNL     1      21.775  22.064   2.876  1.00  0.00     0.051 A 
ATOM     15  C   UNL     1      20.591  21.549   3.412  1.00  0.00     0.157 A 
ATOM     16  C   UNL     1      20.174  23.699   4.473  1.00  0.00     0.062 A 
ATOM     17  C   UNL     1      19.776  22.379   4.217  1.00  0.00     0.158 A 
BRANCH  15  18
ATOM     18  O   UNL     1      20.264  20.224   3.122  1.00  0.00    -0.504 OA
ATOM     19  H   UNL     1      20.154  19.503   3.820  1.00  0.00     0.293 HD
ENDBRANCH  15  18
BRANCH  17  20
ATOM     20  O   UNL     1      18.573  21.943   4.774  1.00  0.00    -0.504 OA
ATOM     21  H   UNL     1      17.684  21.976   4.296  1.00  0.00     0.293 HD
ENDBRANCH  17  20
ENDBRANCH   1  12
BRANCH   6  22
ATOM     22  O   UNL     1      22.665  30.697   4.690  1.00  0.00    -0.507 OA
ATOM     23  H   UNL     1      23.100  31.253   3.969  1.00  0.00     0.293 HD
ENDBRANCH   6  22
BRANCH   8  24
ATOM     24  O   UNL     1      25.719  28.534   7.670  1.00  0.00    -0.508 OA
ATOM     25  H   UNL     1      26.696  28.529   7.402  1.00  0.00     0.293 HD
ENDBRANCH   8  24
TORSDOF 5
ENDMDL
MODEL 6
REMARK VINA RESULT:    -4.315      2.275      3.558
REMARK INTER + INTRA:          -5.369
REMARK INTER:                  -5.067
REMARK INTRA:                  -0.302
REMARK UNBOUND:                -0.297
REMARK SMILES O=c1cc(-c2ccc(O)c(O)c2)oc2cc(O)cc(O)c12
REMARK SMILES IDX 4 1 3 2 2 3 1 4 21 5 19 6 18 7 16 8 15 9 14 10 13 11 5 12
REMARK SMILES IDX 6 13 7 14 8 15 12 16 10 17 9 18 11 20 20 22 17 24
REMARK H PARENT 9 19 11 21 20 23 17 25
REMARK Flexibility Score: inf
ROOT
ATOM      1  C   UNL     1      23.516  27.053   4.629  1.00  0.00     0.138 A 
ATOM      2  C   UNL     1      24.705  26.316   4.549  1.00  0.00     0.100 A 
ATOM      3  C   UNL     1      24.654  24.921   4.552  1.00  0.00     0.197 A 
ATOM      4  O   UNL     1      25.735  24.289   4.422  1.00  0.00    -0.289 OA
ATOM      5  C   UNL     1      23.408  24.262   4.674  1.00  0.00     0.107 A 
ATOM      6  C   UNL     1      23.237  22.846   4.722  1.00  0.00     0.134 A 
ATOM      7  C   UNL     1      21.944  22.307   4.743  1.00  0.00     0.093 A 
ATOM      8  C   UNL     1      20.820  23.131   4.777  1.00  0.00     0.123 A 
ATOM      9  C   UNL     1      20.976  24.517   4.781  1.00  0.00     0.094 A 
ATOM     10  C   UNL     1      22.251  25.086   4.724  1.00  0.00     0.146 A 
ATOM     11  O   UNL     1      22.355  26.410   4.710  1.00  0.00    -0.456 OA
ENDROOT
BRANCH   1  12
ATOM     12  C   UNL     1      23.511  28.538   4.634  1.00  0.00     0.021 A 
ATOM     13  C   UNL     1      24.549  29.229   5.277  1.00  0.00     0.016 A 
ATOM     14  C   UNL     1      24.564  30.624   5.301  1.00  0.00     0.051 A 
ATOM     15  C   UNL     1      23.541  31.361   4.695  1.00  0.00     0.157 A 
ATOM     16  C   UNL     1      22.473  29.277   4.035  1.00  0.00     0.062 A 
ATOM     17  C   UNL     1      22.478  30.678   4.058  1.00  0.00     0.158 A 
BRANCH  15  18
ATOM     18  O   UNL     1      23.618  32.754   4.750  1.00  0.00    -0.504 OA
ATOM     19  H   UNL     1      24.485  33.272   4.747  1.00  0.00     0.293 HD
ENDBRANCH  15  18
BRANCH  17  20
ATOM     20  O   UNL     1      21.415  31.343   3.446  1.00  0.00    -0.504 OA
ATOM     21  H   UNL     1      21.238  31.331   2.452  1.00  0.00     0.293 HD
ENDBRANCH  17  20
ENDBRANCH   1  12
BRANCH   6  22
ATOM     22  O   UNL     1      24.292  21.929   4.773  1.00  0.00    -0.507 OA
ATOM     23  H   UNL     1      24.190  20.926   4.752  1.00  0.00     0.293 HD
ENDBRANCH   6  22
BRANCH   8  24
ATOM     24  O   UNL     1      19.550  22.559   4.815  1.00  0.00    -0.508 OA
ATOM     25  H   UNL     1      19.422  21.555   4.859  1.00  0.00     0.293 HD
ENDBRANCH   8  24
TORSDOF 5
ENDMDL
MODEL 7
REMARK VINA RESULT:    -4.257      2.841      7.174
REMARK INTER + INTRA:          -5.300
REMARK INTER:                  -5.003
REMARK INTRA:                  -0.297
REMARK UNBOUND:                -0.297
REMARK SMILES O=c1cc(-c2ccc(O)c(O)c2)oc2cc(O)cc(O)c12
REMARK SMILES IDX 4 1 3 2 2 3 1 4 21 5 19 6 18 7 16 8 15 9 14 10 13 11 5 12
REMARK SMILES IDX 6 13 7 14 8 15 12 16 10 17 9 18 11 20 20 22 17 24
REMARK H PARENT 9 19 11 21 20 23 17 25
REMARK Flexibility Score: inf
ROOT
ATOM      1  C   UNL     1      23.298  24.341   5.140  1.00  0.00     0.138 A 
ATOM      2  C   UNL     1      22.301  25.326   5.135  1.00  0.00     0.100 A 
ATOM      3  C   UNL     1      22.611  26.624   5.544  1.00  0.00     0.197 A 
ATOM      4  O   UNL     1      21.708  27.498   5.475  1.00  0.00    -0.289 OA
ATOM      5  C   UNL     1      23.918  26.927   5.994  1.00  0.00     0.107 A 
ATOM      6  C   UNL     1      24.341  28.207   6.465  1.00  0.00     0.134 A 
ATOM      7  C   UNL     1      25.688  28.411   6.791  1.00  0.00     0.093 A 
ATOM      8  C   UNL     1      26.614  27.371   6.719  1.00  0.00     0.123 A 
ATOM      9  C   UNL     1      26.201  26.104   6.307  1.00  0.00     0.094 A 
ATOM     10  C   UNL     1      24.873  25.876   5.941  1.00  0.00     0.146 A 
ATOM     11  O   UNL     1      24.525  24.659   5.537  1.00  0.00    -0.456 OA
ENDROOT
BRANCH   1  12
ATOM     12  C   UNL     1      23.023  22.944   4.719  1.00  0.00     0.021 A 
ATOM     13  C   UNL     1      24.037  21.979   4.826  1.00  0.00     0.016 A 
ATOM     14  C   UNL     1      23.805  20.661   4.431  1.00  0.00     0.051 A 
ATOM     15  C   UNL     1      22.564  20.276   3.914  1.00  0.00     0.157 A 
ATOM     16  C   UNL     1      21.778  22.562   4.186  1.00  0.00     0.062 A 
ATOM     17  C   UNL     1      21.538  21.241   3.784  1.00  0.00     0.158 A 
BRANCH  15  18
ATOM     18  O   UNL     1      22.396  18.941   3.543  1.00  0.00    -0.504 OA
ATOM     19  H   UNL     1      22.327  18.177   4.199  1.00  0.00     0.293 HD
ENDBRANCH  15  18
BRANCH  17  20
ATOM     20  O   UNL     1      20.280  20.937   3.262  1.00  0.00    -0.504 OA
ATOM     21  H   UNL     1      20.016  21.089   2.299  1.00  0.00     0.293 HD
ENDBRANCH  17  20
ENDBRANCH   1  12
BRANCH   6  22
ATOM     22  O   UNL     1      23.485  29.296   6.653  1.00  0.00    -0.507 OA
ATOM     23  H   UNL     1      22.904  29.444   7.465  1.00  0.00     0.293 HD
ENDBRANCH   6  22
BRANCH   8  24
ATOM     24  O   UNL     1      27.942  27.608   7.067  1.00  0.00    -0.508 OA
ATOM     25  H   UNL     1      28.195  28.332   7.729  1.00  0.00     0.293 HD
ENDBRANCH   8  24
TORSDOF 5
ENDMDL
MODEL 8
REMARK VINA RESULT:    -2.912      2.580      4.495
REMARK INTER + INTRA:          -3.720
REMARK INTER:                  -3.433
REMARK INTRA:                  -0.286
REMARK UNBOUND:                -0.297
REMARK SMILES O=c1cc(-c2ccc(O)c(O)c2)oc2cc(O)cc(O)c12
REMARK SMILES IDX 4 1 3 2 2 3 1 4 21 5 19 6 18 7 16 8 15 9 14 10 13 11 5 12
REMARK SMILES IDX 6 13 7 14 8 15 12 16 10 17 9 18 11 20 20 22 17 24
REMARK H PARENT 9 19 11 21 20 23 17 25
REMARK Flexibility Score: inf
ROOT
ATOM      1  C   UNL     1      22.240  27.129   4.315  1.00  0.00     0.138 A 
ATOM      2  C   UNL     1      20.938  26.763   3.948  1.00  0.00     0.100 A 
ATOM      3  C   UNL     1      20.598  25.412   3.862  1.00  0.00     0.197 A 
ATOM      4  O   UNL     1      19.406  25.118   3.585  1.00  0.00    -0.289 OA
ATOM      5  C   UNL     1      21.579  24.423   4.110  1.00  0.00     0.107 A 
ATOM      6  C   UNL     1      21.356  23.015   4.021  1.00  0.00     0.134 A 
ATOM      7  C   UNL     1      22.379  22.130   4.387  1.00  0.00     0.093 A 
ATOM      8  C   UNL     1      23.631  22.599   4.783  1.00  0.00     0.123 A 
ATOM      9  C   UNL     1      23.875  23.972   4.826  1.00  0.00     0.094 A 
ATOM     10  C   UNL     1      22.866  24.881   4.501  1.00  0.00     0.146 A 
ATOM     11  O   UNL     1      23.134  26.180   4.574  1.00  0.00    -0.456 OA
ENDROOT
BRANCH   1  12
ATOM     12  C   UNL     1      22.658  28.550   4.418  1.00  0.00     0.021 A 
ATOM     13  C   UNL     1      23.616  28.920   5.374  1.00  0.00     0.016 A 
ATOM     14  C   UNL     1      24.020  30.251   5.494  1.00  0.00     0.051 A 
ATOM     15  C   UNL     1      23.473  31.242   4.674  1.00  0.00     0.157 A 
ATOM     16  C   UNL     1      22.095  29.548   3.600  1.00  0.00     0.062 A 
ATOM     17  C   UNL     1      22.492  30.887   3.718  1.00  0.00     0.158 A 
BRANCH  15  18
ATOM     18  O   UNL     1      23.924  32.552   4.842  1.00  0.00    -0.504 OA
ATOM     19  H   UNL     1      23.340  33.316   5.150  1.00  0.00     0.293 HD
ENDBRANCH  15  18
BRANCH  17  20
ATOM     20  O   UNL     1      21.889  31.822   2.875  1.00  0.00    -0.504 OA
ATOM     21  H   UNL     1      20.958  32.189   3.013  1.00  0.00     0.293 HD
ENDBRANCH  17  20
ENDBRANCH   1  12
BRANCH   6  22
ATOM     22  O   UNL     1      20.170  22.437   3.561  1.00  0.00    -0.507 OA
ATOM     23  H   UNL     1      19.243  22.794   3.741  1.00  0.00     0.293 HD
ENDBRANCH   6  22
BRANCH   8  24
ATOM     24  O   UNL     1      24.629  21.688   5.124  1.00  0.00    -0.508 OA
ATOM     25  H   UNL     1      25.046  21.682   6.048  1.00  0.00     0.293 HD
ENDBRANCH   8  24
TORSDOF 5
ENDMDL
