MODEL 1
REMARK VINA RESULT:    -3.572      0.000      0.000
REMARK INTER + INTRA:         -15.368
REMARK INTER:                  -9.419
REMARK INTRA:                  -5.949
REMARK UNBOUND:                -5.949
REMARK SMILES CCCCCCCCCCCCCCCCCCCCCCCCCCCCCC(=O)[O-]
REMARK SMILES IDX 16 1 17 2 18 3 19 4 20 5 21 6 22 7 23 8 24 9 25 10 26 11
REMARK SMILES IDX 27 12 28 13 29 14 30 15 31 16 32 17 15 18 14 19 13 20 12 21
REMARK SMILES IDX 11 22 10 23 9 24 8 25 7 26 6 27 5 28 4 29 3 30 2 31 1 32
REMARK H PARENT
REMARK Flexibility Score: inf
ROOT
ATOM      1  C   UNL     1       5.074   3.094  48.428  1.00  0.00     0.000 C 
ENDROOT
BRANCH   1   2
ATOM      2  C   UNL     1       5.308   4.306  49.351  1.00  0.00     0.000 C 
BRANCH   2   3
ATOM      3  C   UNL     1       6.726   4.903  49.229  1.00  0.00     0.000 C 
BRANCH   3   4
ATOM      4  C   UNL     1       7.474   4.935  50.575  1.00  0.00     0.000 C 
BRANCH   4   5
ATOM      5  C   UNL     1       7.216   6.247  51.344  1.00  0.00     0.000 C 
BRANCH   5   6
ATOM      6  C   UNL     1       6.221   6.062  52.504  1.00  0.00     0.000 C 
BRANCH   6   7
ATOM      7  C   UNL     1       5.100   7.120  52.520  1.00  0.00     0.000 C 
BRANCH   7   8
ATOM      8  C   UNL     1       3.843   6.652  51.765  1.00  0.00     0.000 C 
BRANCH   8   9
ATOM      9  C   UNL     1       3.570   7.484  50.501  1.00  0.00     0.000 C 
BRANCH   9  10
ATOM     10  C   UNL     1       4.537   8.676  50.369  1.00  0.00     0.000 C 
BRANCH  10  11
ATOM     11  C   UNL     1       4.320   9.478  49.074  1.00  0.00     0.000 C 
BRANCH  11  12
ATOM     12  C   UNL     1       5.549   9.472  48.139  1.00  0.00     0.000 C 
BRANCH  12  13
ATOM     13  C   UNL     1       6.699   8.621  48.703  1.00  0.00     0.006 C 
BRANCH  13  14
ATOM     14  C   UNL     1       7.593   8.042  47.596  1.00  0.00     0.053 C 
BRANCH  14  15
ATOM     15  C   UNL     1       9.043   8.319  47.845  1.00  0.00     0.041 C 
ATOM     16  O   UNL     1       9.404   9.427  48.321  1.00  0.00    -0.550 OA
ATOM     17  O   UNL     1       9.995   7.342  47.579  1.00  0.00    -0.550 OA
ENDBRANCH  14  15
ENDBRANCH  13  14
ENDBRANCH  12  13
ENDBRANCH  11  12
ENDBRANCH  10  11
ENDBRANCH   9  10
ENDBRANCH   8   9
ENDBRANCH   7   8
ENDBRANCH   6   7
ENDBRANCH   5   6
ENDBRANCH   4   5
ENDBRANCH   3   4
ENDBRANCH   2   3
ENDBRANCH   1   2
BRANCH   1  18
ATOM     18  C   UNL     1       6.387   2.550  47.846  1.00  0.00     0.000 C 
BRANCH  18  19
ATOM     19  C   UNL     1       6.802   1.241  48.531  1.00  0.00     0.000 C 
BRANCH  19  20
ATOM     20  C   UNL     1       5.641   0.680  49.367  1.00  0.00     0.000 C 
BRANCH  20  21
ATOM     21  C   UNL     1       6.013   0.450  50.843  1.00  0.00     0.000 C 
BRANCH  21  22
ATOM     22  C   UNL     1       6.844   1.575  51.495  1.00  0.00     0.000 C 
BRANCH  22  23
ATOM     23  C   UNL     1       6.170   2.289  52.681  1.00  0.00     0.000 C 
BRANCH  23  24
ATOM     24  C   UNL     1       4.697   1.897  52.864  1.00  0.00    -0.000 C 
BRANCH  24  25
ATOM     25  C   UNL     1       3.776   3.091  52.566  1.00  0.00    -0.000 C 
BRANCH  25  26
ATOM     26  C   UNL     1       2.843   2.834  51.363  1.00  0.00    -0.000 C 
BRANCH  26  27
ATOM     27  C   UNL     1       2.438   1.360  51.192  1.00  0.00    -0.000 C 
BRANCH  27  28
ATOM     28  C   UNL     1       1.973   1.023  49.767  1.00  0.00    -0.000 C 
BRANCH  28  29
ATOM     29  C   UNL     1       1.468  -0.425  49.677  1.00  0.00    -0.000 C 
BRANCH  29  30
ATOM     30  C   UNL     1       2.050  -1.332  50.777  1.00  0.00    -0.000 C 
BRANCH  30  31
ATOM     31  C   UNL     1       3.354  -2.058  50.395  1.00  0.00    -0.003 C 
ATOM     32  C   UNL     1       3.400  -2.474  48.924  1.00  0.00     0.004 C 
ENDBRANCH  30  31
ENDBRANCH  29  30
ENDBRANCH  28  29
ENDBRANCH  27  28
ENDBRANCH  26  27
ENDBRANCH  25  26
ENDBRANCH  24  25
ENDBRANCH  23  24
ENDBRANCH  22  23
ENDBRANCH  21  22
ENDBRANCH  20  21
ENDBRANCH  19  20
ENDBRANCH  18  19
ENDBRANCH   1  18
TORSDOF 28
ENDMDL
MODEL 2
REMARK VINA RESULT:    -3.506      1.205      3.205
REMARK INTER + INTRA:         -15.195
REMARK INTER:                  -9.997
REMARK INTRA:                  -5.198
REMARK UNBOUND:                -5.949
REMARK SMILES CCCCCCCCCCCCCCCCCCCCCCCCCCCCCC(=O)[O-]
REMARK SMILES IDX 16 1 17 2 18 3 19 4 20 5 21 6 22 7 23 8 24 9 25 10 26 11
REMARK SMILES IDX 27 12 28 13 29 14 30 15 31 16 32 17 15 18 14 19 13 20 12 21
REMARK SMILES IDX 11 22 10 23 9 24 8 25 7 26 6 27 5 28 4 29 3 30 2 31 1 32
REMARK H PARENT
REMARK Flexibility Score: inf
ROOT
ATOM      1  C   UNL     1       6.742   4.270  48.225  1.00  0.00     0.000 C 
ENDROOT
BRANCH   1   2
ATOM      2  C   UNL     1       6.400   5.034  49.519  1.00  0.00     0.000 C 
BRANCH   2   3
ATOM      3  C   UNL     1       7.105   4.466  50.769  1.00  0.00     0.000 C 
BRANCH   3   4
ATOM      4  C   UNL     1       7.182   5.485  51.921  1.00  0.00     0.000 C 
BRANCH   4   5
ATOM      5  C   UNL     1       7.501   6.905  51.411  1.00  0.00     0.000 C 
BRANCH   5   6
ATOM      6  C   UNL     1       6.553   7.966  51.999  1.00  0.00     0.000 C 
BRANCH   6   7
ATOM      7  C   UNL     1       5.210   7.383  52.483  1.00  0.00     0.000 C 
BRANCH   7   8
ATOM      8  C   UNL     1       4.002   8.064  51.814  1.00  0.00     0.000 C 
BRANCH   8   9
ATOM      9  C   UNL     1       3.985   7.872  50.289  1.00  0.00     0.000 C 
BRANCH   9  10
ATOM     10  C   UNL     1       3.365   9.077  49.558  1.00  0.00     0.000 C 
BRANCH  10  11
ATOM     11  C   UNL     1       4.305  10.294  49.514  1.00  0.00     0.000 C 
BRANCH  11  12
ATOM     12  C   UNL     1       5.256  10.289  48.298  1.00  0.00     0.000 C 
BRANCH  12  13
ATOM     13  C   UNL     1       6.669   9.810  48.673  1.00  0.00     0.006 C 
BRANCH  13  14
ATOM     14  C   UNL     1       7.005   8.444  48.058  1.00  0.00     0.053 C 
BRANCH  14  15
ATOM     15  C   UNL     1       8.482   8.202  48.004  1.00  0.00     0.041 C 
ATOM     16  O   UNL     1       8.928   7.034  47.851  1.00  0.00    -0.550 OA
ATOM     17  O   UNL     1       9.367   9.270  48.092  1.00  0.00    -0.550 OA
ENDBRANCH  14  15
ENDBRANCH  13  14
ENDBRANCH  12  13
ENDBRANCH  11  12
ENDBRANCH  10  11
ENDBRANCH   9  10
ENDBRANCH   8   9
ENDBRANCH   7   8
ENDBRANCH   6   7
ENDBRANCH   5   6
ENDBRANCH   4   5
ENDBRANCH   3   4
ENDBRANCH   2   3
ENDBRANCH   1   2
BRANCH   1  18
ATOM     18  C   UNL     1       5.795   3.086  47.985  1.00  0.00     0.000 C 
BRANCH  18  19
ATOM     19  C   UNL     1       6.574   1.799  47.681  1.00  0.00     0.000 C 
BRANCH  19  20
ATOM     20  C   UNL     1       6.952   1.079  48.985  1.00  0.00     0.000 C 
BRANCH  20  21
ATOM     21  C   UNL     1       5.754   0.399  49.670  1.00  0.00     0.000 C 
BRANCH  21  22
ATOM     22  C   UNL     1       5.301  -0.934  49.036  1.00  0.00     0.000 C 
BRANCH  22  23
ATOM     23  C   UNL     1       4.886  -2.030  50.034  1.00  0.00     0.000 C 
BRANCH  23  24
ATOM     24  C   UNL     1       3.588  -1.702  50.786  1.00  0.00    -0.000 C 
BRANCH  24  25
ATOM     25  C   UNL     1       2.430  -1.476  49.801  1.00  0.00    -0.000 C 
BRANCH  25  26
ATOM     26  C   UNL     1       1.542  -0.278  50.196  1.00  0.00    -0.000 C 
BRANCH  26  27
ATOM     27  C   UNL     1       2.122   1.088  49.794  1.00  0.00    -0.000 C 
BRANCH  27  28
ATOM     28  C   UNL     1       2.256   2.059  50.976  1.00  0.00    -0.000 C 
BRANCH  28  29
ATOM     29  C   UNL     1       3.504   2.944  50.828  1.00  0.00    -0.000 C 
BRANCH  29  30
ATOM     30  C   UNL     1       3.226   4.428  51.126  1.00  0.00    -0.000 C 
BRANCH  30  31
ATOM     31  C   UNL     1       1.951   4.695  51.948  1.00  0.00    -0.003 C 
ATOM     32  C   UNL     1       1.040   5.749  51.317  1.00  0.00     0.004 C 
ENDBRANCH  30  31
ENDBRANCH  29  30
ENDBRANCH  28  29
ENDBRANCH  27  28
ENDBRANCH  26  27
ENDBRANCH  25  26
ENDBRANCH  24  25
ENDBRANCH  23  24
ENDBRANCH  22  23
ENDBRANCH  21  22
ENDBRANCH  20  21
ENDBRANCH  19  20
ENDBRANCH  18  19
ENDBRANCH   1  18
TORSDOF 28
ENDMDL
MODEL 3
REMARK VINA RESULT:    -3.453      2.070      3.880
REMARK INTER + INTRA:         -15.053
REMARK INTER:                  -9.700
REMARK INTRA:                  -5.353
REMARK UNBOUND:                -5.949
REMARK SMILES CCCCCCCCCCCCCCCCCCCCCCCCCCCCCC(=O)[O-]
REMARK SMILES IDX 16 1 17 2 18 3 19 4 20 5 21 6 22 7 23 8 24 9 25 10 26 11
REMARK SMILES IDX 27 12 28 13 29 14 30 15 31 16 32 17 15 18 14 19 13 20 12 21
REMARK SMILES IDX 11 22 10 23 9 24 8 25 7 26 6 27 5 28 4 29 3 30 2 31 1 32
REMARK H PARENT
REMARK Flexibility Score: inf
ROOT
ATOM      1  C   UNL     1       6.787   1.470  48.075  1.00  0.00     0.000 C 
ENDROOT
BRANCH   1   2
ATOM      2  C   UNL     1       5.907   0.722  49.094  1.00  0.00     0.000 C 
BRANCH   2   3
ATOM      3  C   UNL     1       6.558   0.595  50.488  1.00  0.00     0.000 C 
BRANCH   3   4
ATOM      4  C   UNL     1       5.653   1.124  51.617  1.00  0.00     0.000 C 
BRANCH   4   5
ATOM      5  C   UNL     1       6.240   2.387  52.279  1.00  0.00     0.000 C 
BRANCH   5   6
ATOM      6  C   UNL     1       7.555   2.838  51.619  1.00  0.00     0.000 C 
BRANCH   6   7
ATOM      7  C   UNL     1       8.057   4.204  52.130  1.00  0.00     0.000 C 
BRANCH   7   8
ATOM      8  C   UNL     1       6.904   5.190  52.389  1.00  0.00     0.000 C 
BRANCH   8   9
ATOM      9  C   UNL     1       7.079   6.517  51.632  1.00  0.00     0.000 C 
BRANCH   9  10
ATOM     10  C   UNL     1       7.732   6.316  50.252  1.00  0.00     0.000 C 
BRANCH  10  11
ATOM     11  C   UNL     1       7.902   7.633  49.477  1.00  0.00     0.000 C 
BRANCH  11  12
ATOM     12  C   UNL     1       7.004   7.726  48.224  1.00  0.00     0.000 C 
BRANCH  12  13
ATOM     13  C   UNL     1       6.115   8.982  48.245  1.00  0.00     0.006 C 
BRANCH  13  14
ATOM     14  C   UNL     1       5.897   9.519  49.667  1.00  0.00     0.053 C 
BRANCH  14  15
ATOM     15  C   UNL     1       4.545   9.158  50.201  1.00  0.00     0.041 C 
ATOM     16  O   UNL     1       4.353   9.086  51.443  1.00  0.00    -0.550 OA
ATOM     17  O   UNL     1       3.488   8.933  49.327  1.00  0.00    -0.550 OA
ENDBRANCH  14  15
ENDBRANCH  13  14
ENDBRANCH  12  13
ENDBRANCH  11  12
ENDBRANCH  10  11
ENDBRANCH   9  10
ENDBRANCH   8   9
ENDBRANCH   7   8
ENDBRANCH   6   7
ENDBRANCH   5   6
ENDBRANCH   4   5
ENDBRANCH   3   4
ENDBRANCH   2   3
ENDBRANCH   1   2
BRANCH   1  18
ATOM     18  C   UNL     1       6.316   2.914  47.854  1.00  0.00     0.000 C 
BRANCH  18  19
ATOM     19  C   UNL     1       4.925   3.148  48.459  1.00  0.00     0.000 C 
BRANCH  19  20
ATOM     20  C   UNL     1       4.941   4.373  49.386  1.00  0.00     0.000 C 
BRANCH  20  21
ATOM     21  C   UNL     1       3.849   4.327  50.469  1.00  0.00     0.000 C 
BRANCH  21  22
ATOM     22  C   UNL     1       3.426   5.698  51.037  1.00  0.00     0.000 C 
BRANCH  22  23
ATOM     23  C   UNL     1       1.966   6.102  50.764  1.00  0.00     0.000 C 
BRANCH  23  24
ATOM     24  C   UNL     1       1.094   6.108  52.029  1.00  0.00    -0.000 C 
BRANCH  24  25
ATOM     25  C   UNL     1       0.126   4.915  52.029  1.00  0.00    -0.000 C 
BRANCH  25  26
ATOM     26  C   UNL     1       0.653   3.724  52.858  1.00  0.00    -0.000 C 
BRANCH  26  27
ATOM     27  C   UNL     1       0.610   2.379  52.114  1.00  0.00    -0.000 C 
BRANCH  27  28
ATOM     28  C   UNL     1       2.005   1.811  51.814  1.00  0.00    -0.000 C 
BRANCH  28  29
ATOM     29  C   UNL     1       2.050   1.160  50.422  1.00  0.00    -0.000 C 
BRANCH  29  30
ATOM     30  C   UNL     1       2.425  -0.332  50.469  1.00  0.00    -0.000 C 
BRANCH  30  31
ATOM     31  C   UNL     1       1.683  -1.219  49.452  1.00  0.00    -0.003 C 
ATOM     32  C   UNL     1       0.666  -0.445  48.611  1.00  0.00     0.004 C 
ENDBRANCH  30  31
ENDBRANCH  29  30
ENDBRANCH  28  29
ENDBRANCH  27  28
ENDBRANCH  26  27
ENDBRANCH  25  26
ENDBRANCH  24  25
ENDBRANCH  23  24
ENDBRANCH  22  23
ENDBRANCH  21  22
ENDBRANCH  20  21
ENDBRANCH  19  20
ENDBRANCH  18  19
ENDBRANCH   1  18
TORSDOF 28
ENDMDL
MODEL 4
REMARK VINA RESULT:    -3.443      3.405      7.703
REMARK INTER + INTRA:         -15.029
REMARK INTER:                  -9.431
REMARK INTRA:                  -5.598
REMARK UNBOUND:                -5.949
REMARK SMILES CCCCCCCCCCCCCCCCCCCCCCCCCCCCCC(=O)[O-]
REMARK SMILES IDX 16 1 17 2 18 3 19 4 20 5 21 6 22 7 23 8 24 9 25 10 26 11
REMARK SMILES IDX 27 12 28 13 29 14 30 15 31 16 32 17 15 18 14 19 13 20 12 21
REMARK SMILES IDX 11 22 10 23 9 24 8 25 7 26 6 27 5 28 4 29 3 30 2 31 1 32
REMARK H PARENT
REMARK Flexibility Score: inf
ROOT
ATOM      1  C   UNL     1       6.638   2.046  47.544  1.00  0.00     0.000 C 
ENDROOT
BRANCH   1   2
ATOM      2  C   UNL     1       6.427   0.922  48.576  1.00  0.00     0.000 C 
BRANCH   2   3
ATOM      3  C   UNL     1       7.060   1.227  49.950  1.00  0.00     0.000 C 
BRANCH   3   4
ATOM      4  C   UNL     1       6.129   0.872  51.125  1.00  0.00     0.000 C 
BRANCH   4   5
ATOM      5  C   UNL     1       4.963   1.872  51.256  1.00  0.00     0.000 C 
BRANCH   5   6
ATOM      6  C   UNL     1       4.981   2.622  52.600  1.00  0.00     0.000 C 
BRANCH   6   7
ATOM      7  C   UNL     1       4.127   3.906  52.593  1.00  0.00     0.000 C 
BRANCH   7   8
ATOM      8  C   UNL     1       3.298   4.050  51.304  1.00  0.00     0.000 C 
BRANCH   8   9
ATOM      9  C   UNL     1       1.856   4.510  51.578  1.00  0.00     0.000 C 
BRANCH   9  10
ATOM     10  C   UNL     1       1.180   3.677  52.681  1.00  0.00     0.000 C 
BRANCH  10  11
ATOM     11  C   UNL     1       0.062   2.769  52.140  1.00  0.00     0.000 C 
BRANCH  11  12
ATOM     12  C   UNL     1       0.294   1.271  52.433  1.00  0.00     0.000 C 
BRANCH  12  13
ATOM     13  C   UNL     1       1.593   0.753  51.790  1.00  0.00     0.006 C 
BRANCH  13  14
ATOM     14  C   UNL     1       1.562   0.845  50.257  1.00  0.00     0.053 C 
BRANCH  14  15
ATOM     15  C   UNL     1       0.951  -0.373  49.635  1.00  0.00     0.041 C 
ATOM     16  O   UNL     1       0.824  -1.431  50.306  1.00  0.00    -0.550 OA
ATOM     17  O   UNL     1       0.493  -0.331  48.324  1.00  0.00    -0.550 OA
ENDBRANCH  14  15
ENDBRANCH  13  14
ENDBRANCH  12  13
ENDBRANCH  11  12
ENDBRANCH  10  11
ENDBRANCH   9  10
ENDBRANCH   8   9
ENDBRANCH   7   8
ENDBRANCH   6   7
ENDBRANCH   5   6
ENDBRANCH   4   5
ENDBRANCH   3   4
ENDBRANCH   2   3
ENDBRANCH   1   2
BRANCH   1  18
ATOM     18  C   UNL     1       5.828   3.304  47.886  1.00  0.00     0.000 C 
BRANCH  18  19
ATOM     19  C   UNL     1       6.737   4.441  48.371  1.00  0.00     0.000 C 
BRANCH  19  20
ATOM     20  C   UNL     1       6.283   4.942  49.751  1.00  0.00     0.000 C 
BRANCH  20  21
ATOM     21  C   UNL     1       7.379   4.835  50.825  1.00  0.00     0.000 C 
BRANCH  21  22
ATOM     22  C   UNL     1       7.332   5.917  51.925  1.00  0.00     0.000 C 
BRANCH  22  23
ATOM     23  C   UNL     1       6.871   7.310  51.459  1.00  0.00     0.000 C 
BRANCH  23  24
ATOM     24  C   UNL     1       5.857   7.960  52.412  1.00  0.00    -0.000 C 
BRANCH  24  25
ATOM     25  C   UNL     1       4.429   7.490  52.090  1.00  0.00    -0.000 C 
BRANCH  25  26
ATOM     26  C   UNL     1       4.059   7.696  50.606  1.00  0.00    -0.000 C 
BRANCH  26  27
ATOM     27  C   UNL     1       3.411   9.058  50.307  1.00  0.00    -0.000 C 
BRANCH  27  28
ATOM     28  C   UNL     1       4.349  10.023  49.567  1.00  0.00    -0.000 C 
BRANCH  28  29
ATOM     29  C   UNL     1       5.310   9.261  48.642  1.00  0.00    -0.000 C 
BRANCH  29  30
ATOM     30  C   UNL     1       6.655   9.985  48.446  1.00  0.00    -0.000 C 
BRANCH  30  31
ATOM     31  C   UNL     1       7.899   9.088  48.581  1.00  0.00    -0.003 C 
ATOM     32  C   UNL     1       7.849   7.853  47.681  1.00  0.00     0.004 C 
ENDBRANCH  30  31
ENDBRANCH  29  30
ENDBRANCH  28  29
ENDBRANCH  27  28
ENDBRANCH  26  27
ENDBRANCH  25  26
ENDBRANCH  24  25
ENDBRANCH  23  24
ENDBRANCH  22  23
ENDBRANCH  21  22
ENDBRANCH  20  21
ENDBRANCH  19  20
ENDBRANCH  18  19
ENDBRANCH   1  18
TORSDOF 28
ENDMDL
MODEL 5
REMARK VINA RESULT:    -3.430      3.778      8.259
REMARK INTER + INTRA:         -14.992
REMARK INTER:                  -9.129
REMARK INTRA:                  -5.863
REMARK UNBOUND:                -5.949
REMARK SMILES CCCCCCCCCCCCCCCCCCCCCCCCCCCCCC(=O)[O-]
REMARK SMILES IDX 16 1 17 2 18 3 19 4 20 5 21 6 22 7 23 8 24 9 25 10 26 11
REMARK SMILES IDX 27 12 28 13 29 14 30 15 31 16 32 17 15 18 14 19 13 20 12 21
REMARK SMILES IDX 11 22 10 23 9 24 8 25 7 26 6 27 5 28 4 29 3 30 2 31 1 32
REMARK H PARENT
REMARK Flexibility Score: inf
ROOT
ATOM      1  C   UNL     1       6.646   2.184  47.609  1.00  0.00     0.000 C 
ENDROOT
BRANCH   1   2
ATOM      2  C   UNL     1       6.136   3.494  48.238  1.00  0.00     0.000 C 
BRANCH   2   3
ATOM      3  C   UNL     1       4.639   3.451  48.612  1.00  0.00     0.000 C 
BRANCH   3   4
ATOM      4  C   UNL     1       4.371   3.948  50.045  1.00  0.00     0.000 C 
BRANCH   4   5
ATOM      5  C   UNL     1       3.334   3.068  50.772  1.00  0.00     0.000 C 
BRANCH   5   6
ATOM      6  C   UNL     1       2.779   1.949  49.872  1.00  0.00     0.000 C 
BRANCH   6   7
ATOM      7  C   UNL     1       1.860   0.964  50.622  1.00  0.00     0.000 C 
BRANCH   7   8
ATOM      8  C   UNL     1       2.396   0.615  52.022  1.00  0.00     0.000 C 
BRANCH   8   9
ATOM      9  C   UNL     1       2.125  -0.849  52.410  1.00  0.00     0.000 C 
BRANCH   9  10
ATOM     10  C   UNL     1       3.403  -1.706  52.371  1.00  0.00     0.000 C 
BRANCH  10  11
ATOM     11  C   UNL     1       3.277  -2.918  51.431  1.00  0.00     0.000 C 
BRANCH  11  12
ATOM     12  C   UNL     1       2.680  -2.564  50.052  1.00  0.00     0.000 C 
BRANCH  12  13
ATOM     13  C   UNL     1       3.675  -2.825  48.908  1.00  0.00     0.006 C 
BRANCH  13  14
ATOM     14  C   UNL     1       5.021  -3.362  49.418  1.00  0.00     0.053 C 
BRANCH  14  15
ATOM     15  C   UNL     1       5.349  -4.700  48.828  1.00  0.00     0.041 C 
ATOM     16  O   UNL     1       6.244  -5.418  49.345  1.00  0.00    -0.550 OA
ATOM     17  O   UNL     1       4.643  -5.167  47.725  1.00  0.00    -0.550 OA
ENDBRANCH  14  15
ENDBRANCH  13  14
ENDBRANCH  12  13
ENDBRANCH  11  12
ENDBRANCH  10  11
ENDBRANCH   9  10
ENDBRANCH   8   9
ENDBRANCH   7   8
ENDBRANCH   6   7
ENDBRANCH   5   6
ENDBRANCH   4   5
ENDBRANCH   3   4
ENDBRANCH   2   3
ENDBRANCH   1   2
BRANCH   1  18
ATOM     18  C   UNL     1       7.111   1.176  48.670  1.00  0.00     0.000 C 
BRANCH  18  19
ATOM     19  C   UNL     1       6.008   0.164  49.003  1.00  0.00     0.000 C 
BRANCH  19  20
ATOM     20  C   UNL     1       5.753   0.124  50.518  1.00  0.00     0.000 C 
BRANCH  20  21
ATOM     21  C   UNL     1       6.786   0.928  51.326  1.00  0.00     0.000 C 
BRANCH  21  22
ATOM     22  C   UNL     1       6.208   1.767  52.485  1.00  0.00     0.000 C 
BRANCH  22  23
ATOM     23  C   UNL     1       6.922   3.104  52.751  1.00  0.00     0.000 C 
BRANCH  23  24
ATOM     24  C   UNL     1       7.871   3.518  51.617  1.00  0.00    -0.000 C 
BRANCH  24  25
ATOM     25  C   UNL     1       7.585   4.960  51.168  1.00  0.00    -0.000 C 
BRANCH  25  26
ATOM     26  C   UNL     1       7.497   5.944  52.354  1.00  0.00    -0.000 C 
BRANCH  26  27
ATOM     27  C   UNL     1       6.894   7.310  51.987  1.00  0.00    -0.000 C 
BRANCH  27  28
ATOM     28  C   UNL     1       5.454   7.213  51.463  1.00  0.00    -0.000 C 
BRANCH  28  29
ATOM     29  C   UNL     1       5.292   7.982  50.143  1.00  0.00    -0.000 C 
BRANCH  29  30
ATOM     30  C   UNL     1       6.639   8.379  49.511  1.00  0.00    -0.000 C 
BRANCH  30  31
ATOM     31  C   UNL     1       7.003   7.611  48.227  1.00  0.00    -0.003 C 
ATOM     32  C   UNL     1       8.479   7.217  48.161  1.00  0.00     0.004 C 
ENDBRANCH  30  31
ENDBRANCH  29  30
ENDBRANCH  28  29
ENDBRANCH  27  28
ENDBRANCH  26  27
ENDBRANCH  25  26
ENDBRANCH  24  25
ENDBRANCH  23  24
ENDBRANCH  22  23
ENDBRANCH  21  22
ENDBRANCH  20  21
ENDBRANCH  19  20
ENDBRANCH  18  19
ENDBRANCH   1  18
TORSDOF 28
ENDMDL
MODEL 6
REMARK VINA RESULT:    -3.426      3.253      7.926
REMARK INTER + INTRA:         -14.982
REMARK INTER:                  -9.214
REMARK INTRA:                  -5.768
REMARK UNBOUND:                -5.949
REMARK SMILES CCCCCCCCCCCCCCCCCCCCCCCCCCCCCC(=O)[O-]
REMARK SMILES IDX 16 1 17 2 18 3 19 4 20 5 21 6 22 7 23 8 24 9 25 10 26 11
REMARK SMILES IDX 27 12 28 13 29 14 30 15 31 16 32 17 15 18 14 19 13 20 12 21
REMARK SMILES IDX 11 22 10 23 9 24 8 25 7 26 6 27 5 28 4 29 3 30 2 31 1 32
REMARK H PARENT
REMARK Flexibility Score: inf
ROOT
ATOM      1  C   UNL     1       6.387   2.237  47.544  1.00  0.00     0.000 C 
ENDROOT
BRANCH   1   2
ATOM      2  C   UNL     1       7.012   1.246  48.543  1.00  0.00     0.000 C 
BRANCH   2   3
ATOM      3  C   UNL     1       5.966   0.453  49.355  1.00  0.00     0.000 C 
BRANCH   3   4
ATOM      4  C   UNL     1       6.299   0.397  50.858  1.00  0.00     0.000 C 
BRANCH   4   5
ATOM      5  C   UNL     1       6.796   1.758  51.387  1.00  0.00     0.000 C 
BRANCH   5   6
ATOM      6  C   UNL     1       6.168   2.125  52.743  1.00  0.00     0.000 C 
BRANCH   6   7
ATOM      7  C   UNL     1       5.438   3.484  52.730  1.00  0.00     0.000 C 
BRANCH   7   8
ATOM      8  C   UNL     1       4.367   3.561  51.628  1.00  0.00     0.000 C 
BRANCH   8   9
ATOM      9  C   UNL     1       2.936   3.549  52.193  1.00  0.00     0.000 C 
BRANCH   9  10
ATOM     10  C   UNL     1       2.073   2.440  51.564  1.00  0.00     0.000 C 
BRANCH  10  11
ATOM     11  C   UNL     1       2.666   1.895  50.253  1.00  0.00     0.000 C 
BRANCH  11  12
ATOM     12  C   UNL     1       2.352   0.402  50.014  1.00  0.00     0.000 C 
BRANCH  12  13
ATOM     13  C   UNL     1       2.720  -0.467  51.229  1.00  0.00     0.006 C 
BRANCH  13  14
ATOM     14  C   UNL     1       2.623  -1.969  50.923  1.00  0.00     0.053 C 
BRANCH  14  15
ATOM     15  C   UNL     1       3.805  -2.459  50.145  1.00  0.00     0.041 C 
ATOM     16  O   UNL     1       4.843  -2.844  50.746  1.00  0.00    -0.550 OA
ATOM     17  O   UNL     1       3.750  -2.521  48.758  1.00  0.00    -0.550 OA
ENDBRANCH  14  15
ENDBRANCH  13  14
ENDBRANCH  12  13
ENDBRANCH  11  12
ENDBRANCH  10  11
ENDBRANCH   9  10
ENDBRANCH   8   9
ENDBRANCH   7   8
ENDBRANCH   6   7
ENDBRANCH   5   6
ENDBRANCH   4   5
ENDBRANCH   3   4
ENDBRANCH   2   3
ENDBRANCH   1   2
BRANCH   1  18
ATOM     18  C   UNL     1       5.782   3.461  48.248  1.00  0.00     0.000 C 
BRANCH  18  19
ATOM     19  C   UNL     1       6.770   4.634  48.278  1.00  0.00     0.000 C 
BRANCH  19  20
ATOM     20  C   UNL     1       7.016   5.092  49.724  1.00  0.00     0.000 C 
BRANCH  20  21
ATOM     21  C   UNL     1       6.142   6.289  50.138  1.00  0.00     0.000 C 
BRANCH  21  22
ATOM     22  C   UNL     1       6.483   6.913  51.507  1.00  0.00     0.000 C 
BRANCH  22  23
ATOM     23  C   UNL     1       5.353   7.730  52.158  1.00  0.00     0.000 C 
BRANCH  23  24
ATOM     24  C   UNL     1       3.955   7.326  51.669  1.00  0.00    -0.000 C 
BRANCH  24  25
ATOM     25  C   UNL     1       3.184   8.551  51.150  1.00  0.00    -0.000 C 
BRANCH  25  26
ATOM     26  C   UNL     1       3.388   8.782  49.638  1.00  0.00    -0.000 C 
BRANCH  26  27
ATOM     27  C   UNL     1       4.271   9.997  49.306  1.00  0.00    -0.000 C 
BRANCH  27  28
ATOM     28  C   UNL     1       5.587   9.616  48.612  1.00  0.00    -0.000 C 
BRANCH  28  29
ATOM     29  C   UNL     1       6.800  10.055  49.447  1.00  0.00    -0.000 C 
BRANCH  29  30
ATOM     30  C   UNL     1       8.114   9.397  48.988  1.00  0.00    -0.000 C 
BRANCH  30  31
ATOM     31  C   UNL     1       7.954   8.336  47.882  1.00  0.00    -0.003 C 
ATOM     32  C   UNL     1       9.235   7.543  47.622  1.00  0.00     0.004 C 
ENDBRANCH  30  31
ENDBRANCH  29  30
ENDBRANCH  28  29
ENDBRANCH  27  28
ENDBRANCH  26  27
ENDBRANCH  25  26
ENDBRANCH  24  25
ENDBRANCH  23  24
ENDBRANCH  22  23
ENDBRANCH  21  22
ENDBRANCH  20  21
ENDBRANCH  19  20
ENDBRANCH  18  19
ENDBRANCH   1  18
TORSDOF 28
ENDMDL
MODEL 7
REMARK VINA RESULT:    -3.395      3.234      8.053
REMARK INTER + INTRA:         -14.901
REMARK INTER:                  -9.093
REMARK INTRA:                  -5.809
REMARK UNBOUND:                -5.949
REMARK SMILES CCCCCCCCCCCCCCCCCCCCCCCCCCCCCC(=O)[O-]
REMARK SMILES IDX 16 1 17 2 18 3 19 4 20 5 21 6 22 7 23 8 24 9 25 10 26 11
REMARK SMILES IDX 27 12 28 13 29 14 30 15 31 16 32 17 15 18 14 19 13 20 12 21
REMARK SMILES IDX 11 22 10 23 9 24 8 25 7 26 6 27 5 28 4 29 3 30 2 31 1 32
REMARK H PARENT
REMARK Flexibility Score: inf
ROOT
ATOM      1  C   UNL     1       5.995   0.588  49.003  1.00  0.00     0.000 C 
ENDROOT
BRANCH   1   2
ATOM      2  C   UNL     1       6.352   0.521  50.499  1.00  0.00     0.000 C 
BRANCH   2   3
ATOM      3  C   UNL     1       7.144   1.750  50.995  1.00  0.00     0.000 C 
BRANCH   3   4
ATOM      4  C   UNL     1       6.586   2.324  52.311  1.00  0.00     0.000 C 
BRANCH   4   5
ATOM      5  C   UNL     1       5.059   2.139  52.416  1.00  0.00     0.000 C 
BRANCH   5   6
ATOM      6  C   UNL     1       4.306   3.482  52.452  1.00  0.00     0.000 C 
BRANCH   6   7
ATOM      7  C   UNL     1       3.072   3.513  51.528  1.00  0.00     0.000 C 
BRANCH   7   8
ATOM      8  C   UNL     1       3.345   2.853  50.165  1.00  0.00     0.000 C 
BRANCH   8   9
ATOM      9  C   UNL     1       2.477   1.605  49.928  1.00  0.00     0.000 C 
BRANCH   9  10
ATOM     10  C   UNL     1       1.571   1.292  51.132  1.00  0.00     0.000 C 
BRANCH  10  11
ATOM     11  C   UNL     1       1.989   0.010  51.874  1.00  0.00     0.000 C 
BRANCH  11  12
ATOM     12  C   UNL     1       3.037  -0.826  51.107  1.00  0.00     0.000 C 
BRANCH  12  13
ATOM     13  C   UNL     1       2.416  -2.076  50.461  1.00  0.00     0.006 C 
BRANCH  13  14
ATOM     14  C   UNL     1       3.244  -3.342  50.726  1.00  0.00     0.053 C 
BRANCH  14  15
ATOM     15  C   UNL     1       4.699  -3.130  50.440  1.00  0.00     0.041 C 
ATOM     16  O   UNL     1       5.540  -3.164  51.376  1.00  0.00    -0.550 OA
ATOM     17  O   UNL     1       5.130  -2.925  49.134  1.00  0.00    -0.550 OA
ENDBRANCH  14  15
ENDBRANCH  13  14
ENDBRANCH  12  13
ENDBRANCH  11  12
ENDBRANCH  10  11
ENDBRANCH   9  10
ENDBRANCH   8   9
ENDBRANCH   7   8
ENDBRANCH   6   7
ENDBRANCH   5   6
ENDBRANCH   4   5
ENDBRANCH   3   4
ENDBRANCH   2   3
ENDBRANCH   1   2
BRANCH   1  18
ATOM     18  C   UNL     1       6.839   1.628  48.253  1.00  0.00     0.000 C 
BRANCH  18  19
ATOM     19  C   UNL     1       5.995   2.840  47.836  1.00  0.00     0.000 C 
BRANCH  19  20
ATOM     20  C   UNL     1       6.721   4.148  48.189  1.00  0.00     0.000 C 
BRANCH  20  21
ATOM     21  C   UNL     1       6.065   4.909  49.354  1.00  0.00     0.000 C 
BRANCH  21  22
ATOM     22  C   UNL     1       7.037   5.411  50.443  1.00  0.00     0.000 C 
BRANCH  22  23
ATOM     23  C   UNL     1       6.444   6.426  51.437  1.00  0.00     0.000 C 
BRANCH  23  24
ATOM     24  C   UNL     1       5.061   6.945  51.019  1.00  0.00    -0.000 C 
BRANCH  24  25
ATOM     25  C   UNL     1       4.807   8.346  51.598  1.00  0.00    -0.000 C 
BRANCH  25  26
ATOM     26  C   UNL     1       3.605   9.052  50.936  1.00  0.00    -0.000 C 
BRANCH  26  27
ATOM     27  C   UNL     1       3.682   9.106  49.400  1.00  0.00    -0.000 C 
BRANCH  27  28
ATOM     28  C   UNL     1       4.601  10.220  48.880  1.00  0.00    -0.000 C 
BRANCH  28  29
ATOM     29  C   UNL     1       5.831   9.636  48.169  1.00  0.00    -0.000 C 
BRANCH  29  30
ATOM     30  C   UNL     1       7.122   9.768  48.998  1.00  0.00    -0.000 C 
BRANCH  30  31
ATOM     31  C   UNL     1       8.103   8.589  48.859  1.00  0.00    -0.003 C 
ATOM     32  C   UNL     1       7.831   7.723  47.628  1.00  0.00     0.004 C 
ENDBRANCH  30  31
ENDBRANCH  29  30
ENDBRANCH  28  29
ENDBRANCH  27  28
ENDBRANCH  26  27
ENDBRANCH  25  26
ENDBRANCH  24  25
ENDBRANCH  23  24
ENDBRANCH  22  23
ENDBRANCH  21  22
ENDBRANCH  20  21
ENDBRANCH  19  20
ENDBRANCH  18  19
ENDBRANCH   1  18
TORSDOF 28
ENDMDL
MODEL 8
REMARK VINA RESULT:    -3.391      3.487      8.378
REMARK INTER + INTRA:         -14.891
REMARK INTER:                  -8.962
REMARK INTRA:                  -5.930
REMARK UNBOUND:                -5.949
REMARK SMILES CCCCCCCCCCCCCCCCCCCCCCCCCCCCCC(=O)[O-]
REMARK SMILES IDX 16 1 17 2 18 3 19 4 20 5 21 6 22 7 23 8 24 9 25 10 26 11
REMARK SMILES IDX 27 12 28 13 29 14 30 15 31 16 32 17 15 18 14 19 13 20 12 21
REMARK SMILES IDX 11 22 10 23 9 24 8 25 7 26 6 27 5 28 4 29 3 30 2 31 1 32
REMARK H PARENT
REMARK Flexibility Score: inf
ROOT
ATOM      1  C   UNL     1       6.736   4.491  48.279  1.00  0.00     0.000 C 
ENDROOT
BRANCH   1   2
ATOM      2  C   UNL     1       5.856   3.291  47.881  1.00  0.00     0.000 C 
BRANCH   2   3
ATOM      3  C   UNL     1       6.651   1.978  47.717  1.00  0.00     0.000 C 
BRANCH   3   4
ATOM      4  C   UNL     1       6.313   0.939  48.803  1.00  0.00     0.000 C 
BRANCH   4   5
ATOM      5  C   UNL     1       6.791   1.390  50.198  1.00  0.00     0.000 C 
BRANCH   5   6
ATOM      6  C   UNL     1       6.405   0.390  51.302  1.00  0.00     0.000 C 
BRANCH   6   7
ATOM      7  C   UNL     1       5.803   1.063  52.552  1.00  0.00     0.000 C 
BRANCH   7   8
ATOM      8  C   UNL     1       5.567   2.570  52.347  1.00  0.00     0.000 C 
BRANCH   8   9
ATOM      9  C   UNL     1       4.103   2.976  52.582  1.00  0.00     0.000 C 
BRANCH   9  10
ATOM     10  C   UNL     1       3.490   3.675  51.355  1.00  0.00     0.000 C 
BRANCH  10  11
ATOM     11  C   UNL     1       3.193   2.701  50.202  1.00  0.00     0.000 C 
BRANCH  11  12
ATOM     12  C   UNL     1       2.327   1.495  50.627  1.00  0.00     0.000 C 
BRANCH  12  13
ATOM     13  C   UNL     1       2.942   0.158  50.182  1.00  0.00     0.006 C 
BRANCH  13  14
ATOM     14  C   UNL     1       2.692  -0.967  51.198  1.00  0.00     0.053 C 
BRANCH  14  15
ATOM     15  C   UNL     1       2.449  -2.284  50.527  1.00  0.00     0.041 C 
ATOM     16  O   UNL     1       2.660  -2.415  49.293  1.00  0.00    -0.550 OA
ATOM     17  O   UNL     1       2.019  -3.376  51.272  1.00  0.00    -0.550 OA
ENDBRANCH  14  15
ENDBRANCH  13  14
ENDBRANCH  12  13
ENDBRANCH  11  12
ENDBRANCH  10  11
ENDBRANCH   9  10
ENDBRANCH   8   9
ENDBRANCH   7   8
ENDBRANCH   6   7
ENDBRANCH   5   6
ENDBRANCH   4   5
ENDBRANCH   3   4
ENDBRANCH   2   3
ENDBRANCH   1   2
BRANCH   1  18
ATOM     18  C   UNL     1       6.312   5.097  49.624  1.00  0.00     0.000 C 
BRANCH  18  19
ATOM     19  C   UNL     1       7.488   5.152  50.609  1.00  0.00     0.000 C 
BRANCH  19  20
ATOM     20  C   UNL     1       7.311   6.319  51.593  1.00  0.00     0.000 C 
BRANCH  20  21
ATOM     21  C   UNL     1       5.971   6.277  52.348  1.00  0.00     0.000 C 
BRANCH  21  22
ATOM     22  C   UNL     1       5.089   7.534  52.198  1.00  0.00     0.000 C 
BRANCH  22  23
ATOM     23  C   UNL     1       3.943   7.417  51.177  1.00  0.00     0.000 C 
BRANCH  23  24
ATOM     24  C   UNL     1       3.273   8.763  50.864  1.00  0.00    -0.000 C 
BRANCH  24  25
ATOM     25  C   UNL     1       3.570   9.196  49.420  1.00  0.00    -0.000 C 
BRANCH  25  26
ATOM     26  C   UNL     1       4.379  10.508  49.349  1.00  0.00    -0.000 C 
BRANCH  26  27
ATOM     27  C   UNL     1       5.494  10.498  48.289  1.00  0.00    -0.000 C 
BRANCH  27  28
ATOM     28  C   UNL     1       5.963   9.083  47.921  1.00  0.00    -0.000 C 
BRANCH  28  29
ATOM     29  C   UNL     1       7.152   8.649  48.791  1.00  0.00    -0.000 C 
BRANCH  29  30
ATOM     30  C   UNL     1       7.944   9.840  49.362  1.00  0.00    -0.000 C 
BRANCH  30  31
ATOM     31  C   UNL     1       8.249   9.753  50.869  1.00  0.00    -0.003 C 
ATOM     32  C   UNL     1       7.252  10.530  51.729  1.00  0.00     0.004 C 
ENDBRANCH  30  31
ENDBRANCH  29  30
ENDBRANCH  28  29
ENDBRANCH  27  28
ENDBRANCH  26  27
ENDBRANCH  25  26
ENDBRANCH  24  25
ENDBRANCH  23  24
ENDBRANCH  22  23
ENDBRANCH  21  22
ENDBRANCH  20  21
ENDBRANCH  19  20
ENDBRANCH  18  19
ENDBRANCH   1  18
TORSDOF 28
ENDMDL
MODEL 9
REMARK VINA RESULT:    -3.387      3.253      8.226
REMARK INTER + INTRA:         -14.880
REMARK INTER:                  -8.842
REMARK INTRA:                  -6.039
REMARK UNBOUND:                -5.949
REMARK SMILES CCCCCCCCCCCCCCCCCCCCCCCCCCCCCC(=O)[O-]
REMARK SMILES IDX 16 1 17 2 18 3 19 4 20 5 21 6 22 7 23 8 24 9 25 10 26 11
REMARK SMILES IDX 27 12 28 13 29 14 30 15 31 16 32 17 15 18 14 19 13 20 12 21
REMARK SMILES IDX 11 22 10 23 9 24 8 25 7 26 6 27 5 28 4 29 3 30 2 31 1 32
REMARK H PARENT
REMARK Flexibility Score: inf
ROOT
ATOM      1  C   UNL     1       7.046   5.746  48.271  1.00  0.00     0.000 C 
ENDROOT
BRANCH   1   2
ATOM      2  C   UNL     1       6.772   4.343  48.845  1.00  0.00     0.000 C 
BRANCH   2   3
ATOM      3  C   UNL     1       5.834   3.493  47.961  1.00  0.00     0.000 C 
BRANCH   3   4
ATOM      4  C   UNL     1       6.474   2.162  47.523  1.00  0.00     0.000 C 
BRANCH   4   5
ATOM      5  C   UNL     1       7.085   1.400  48.716  1.00  0.00     0.000 C 
BRANCH   5   6
ATOM      6  C   UNL     1       6.017   0.685  49.564  1.00  0.00     0.000 C 
BRANCH   6   7
ATOM      7  C   UNL     1       6.223   0.865  51.082  1.00  0.00     0.000 C 
BRANCH   7   8
ATOM      8  C   UNL     1       7.195   2.013  51.408  1.00  0.00     0.000 C 
BRANCH   8   9
ATOM      9  C   UNL     1       6.625   2.992  52.448  1.00  0.00     0.000 C 
BRANCH   9  10
ATOM     10  C   UNL     1       5.089   3.080  52.382  1.00  0.00     0.000 C 
BRANCH  10  11
ATOM     11  C   UNL     1       4.595   4.355  51.677  1.00  0.00     0.000 C 
BRANCH  11  12
ATOM     12  C   UNL     1       3.432   4.099  50.694  1.00  0.00     0.000 C 
BRANCH  12  13
ATOM     13  C   UNL     1       2.685   2.792  51.013  1.00  0.00     0.006 C 
BRANCH  13  14
ATOM     14  C   UNL     1       2.680   1.818  49.826  1.00  0.00     0.053 C 
BRANCH  14  15
ATOM     15  C   UNL     1       2.091   0.491  50.193  1.00  0.00     0.041 C 
ATOM     16  O   UNL     1       0.922   0.423  50.654  1.00  0.00    -0.550 OA
ATOM     17  O   UNL     1       2.822  -0.675  49.996  1.00  0.00    -0.550 OA
ENDBRANCH  14  15
ENDBRANCH  13  14
ENDBRANCH  12  13
ENDBRANCH  11  12
ENDBRANCH  10  11
ENDBRANCH   9  10
ENDBRANCH   8   9
ENDBRANCH   7   8
ENDBRANCH   6   7
ENDBRANCH   5   6
ENDBRANCH   4   5
ENDBRANCH   3   4
ENDBRANCH   2   3
ENDBRANCH   1   2
BRANCH   1  18
ATOM     18  C   UNL     1       8.074   6.521  49.107  1.00  0.00     0.000 C 
BRANCH  18  19
ATOM     19  C   UNL     1       7.392   7.373  50.185  1.00  0.00     0.000 C 
BRANCH  19  20
ATOM     20  C   UNL     1       7.515   6.700  51.561  1.00  0.00     0.000 C 
BRANCH  20  21
ATOM     21  C   UNL     1       6.568   7.299  52.615  1.00  0.00     0.000 C 
BRANCH  21  22
ATOM     22  C   UNL     1       6.304   8.813  52.479  1.00  0.00     0.000 C 
BRANCH  22  23
ATOM     23  C   UNL     1       4.848   9.203  52.166  1.00  0.00     0.000 C 
BRANCH  23  24
ATOM     24  C   UNL     1       3.994   8.018  51.693  1.00  0.00    -0.000 C 
BRANCH  24  25
ATOM     25  C   UNL     1       3.677   8.140  50.194  1.00  0.00    -0.000 C 
BRANCH  25  26
ATOM     26  C   UNL     1       4.103   9.502  49.607  1.00  0.00    -0.000 C 
BRANCH  26  27
ATOM     27  C   UNL     1       5.018   9.393  48.376  1.00  0.00    -0.000 C 
BRANCH  27  28
ATOM     28  C   UNL     1       6.032  10.542  48.274  1.00  0.00    -0.000 C 
BRANCH  28  29
ATOM     29  C   UNL     1       5.838  11.555  49.414  1.00  0.00    -0.000 C 
BRANCH  29  30
ATOM     30  C   UNL     1       7.073  11.676  50.325  1.00  0.00    -0.000 C 
BRANCH  30  31
ATOM     31  C   UNL     1       8.317  10.910  49.836  1.00  0.00    -0.003 C 
ATOM     32  C   UNL     1       9.277  10.540  50.966  1.00  0.00     0.004 C 
ENDBRANCH  30  31
ENDBRANCH  29  30
ENDBRANCH  28  29
ENDBRANCH  27  28
ENDBRANCH  26  27
ENDBRANCH  25  26
ENDBRANCH  24  25
ENDBRANCH  23  24
ENDBRANCH  22  23
ENDBRANCH  21  22
ENDBRANCH  20  21
ENDBRANCH  19  20
ENDBRANCH  18  19
ENDBRANCH   1  18
TORSDOF 28
ENDMDL
