MODEL 1
REMARK VINA RESULT:    13.745      0.000      0.000
REMARK INTER + INTRA:          23.670
REMARK INTER:                  24.191
REMARK INTRA:                  -0.521
REMARK UNBOUND:                -0.521
REMARK SMILES CCCCCCCCCCCCCCC(=O)[O-]
REMARK SMILES IDX 9 1 10 2 11 3 12 4 13 5 14 6 15 7 16 8 17 9 8 10 7 11 6 12
REMARK SMILES IDX 5 13 4 14 3 15 2 16 1 17
REMARK H PARENT
REMARK Flexibility Score: inf
ROOT
ATOM      1  C   UNL     1      -6.132 -11.494  24.135  1.00  0.00     0.000 C 
ENDROOT
BRANCH   1   2
ATOM      2  C   UNL     1      -6.538 -12.762  24.903  1.00  0.00     0.000 C 
BRANCH   2   3
ATOM      3  C   UNL     1      -5.418 -13.818  24.955  1.00  0.00     0.000 C 
BRANCH   3   4
ATOM      4  C   UNL     1      -5.134 -14.409  26.348  1.00  0.00     0.000 C 
BRANCH   4   5
ATOM      5  C   UNL     1      -5.107 -15.947  26.355  1.00  0.00     0.006 C 
BRANCH   5   6
ATOM      6  C   UNL     1      -4.331 -16.517  25.160  1.00  0.00     0.053 C 
BRANCH   6   7
ATOM      7  C   UNL     1      -5.011 -17.715  24.572  1.00  0.00     0.041 C 
ATOM      8  O   UNL     1      -4.956 -17.930  23.333  1.00  0.00    -0.550 OA
ATOM      9  O   UNL     1      -5.682 -18.610  25.397  1.00  0.00    -0.550 OA
ENDBRANCH   6   7
ENDBRANCH   5   6
ENDBRANCH   4   5
ENDBRANCH   3   4
ENDBRANCH   2   3
ENDBRANCH   1   2
BRANCH   1  10
ATOM     10  C   UNL     1      -5.854 -10.299  25.062  1.00  0.00     0.000 C 
BRANCH  10  11
ATOM     11  C   UNL     1      -5.108  -9.138  24.370  1.00  0.00    -0.000 C 
BRANCH  11  12
ATOM     12  C   UNL     1      -3.827  -8.743  25.125  1.00  0.00    -0.000 C 
BRANCH  12  13
ATOM     13  C   UNL     1      -2.578  -8.730  24.223  1.00  0.00    -0.000 C 
BRANCH  13  14
ATOM     14  C   UNL     1      -1.263  -9.111  24.927  1.00  0.00    -0.000 C 
BRANCH  14  15
ATOM     15  C   UNL     1      -0.263  -7.944  24.999  1.00  0.00    -0.000 C 
BRANCH  15  16
ATOM     16  C   UNL     1       0.479  -7.887  26.344  1.00  0.00    -0.003 C 
ATOM     17  C   UNL     1       0.664  -9.265  26.978  1.00  0.00     0.004 C 
ENDBRANCH  15  16
ENDBRANCH  14  15
ENDBRANCH  13  14
ENDBRANCH  12  13
ENDBRANCH  11  12
ENDBRANCH  10  11
ENDBRANCH   1  10
TORSDOF 13
ENDMDL
MODEL 2
REMARK VINA RESULT:    13.836      0.756      1.215
REMARK INTER + INTRA:          23.830
REMARK INTER:                  24.468
REMARK INTRA:                  -0.638
REMARK UNBOUND:                -0.521
REMARK SMILES CCCCCCCCCCCCCCC(=O)[O-]
REMARK SMILES IDX 9 1 10 2 11 3 12 4 13 5 14 6 15 7 16 8 17 9 8 10 7 11 6 12
REMARK SMILES IDX 5 13 4 14 3 15 2 16 1 17
REMARK H PARENT
REMARK Flexibility Score: inf
ROOT
ATOM      1  C   UNL     1      -6.469 -12.166  23.800  1.00  0.00     0.000 C 
ENDROOT
BRANCH   1   2
ATOM      2  C   UNL     1      -6.349 -12.811  25.191  1.00  0.00     0.000 C 
BRANCH   2   3
ATOM      3  C   UNL     1      -5.181 -13.809  25.292  1.00  0.00     0.000 C 
BRANCH   3   4
ATOM      4  C   UNL     1      -5.356 -14.925  26.339  1.00  0.00     0.000 C 
BRANCH   4   5
ATOM      5  C   UNL     1      -4.520 -16.177  26.029  1.00  0.00     0.006 C 
BRANCH   5   6
ATOM      6  C   UNL     1      -5.382 -17.445  25.950  1.00  0.00     0.053 C 
BRANCH   6   7
ATOM      7  C   UNL     1      -5.257 -18.123  24.621  1.00  0.00     0.041 C 
ATOM      8  O   UNL     1      -5.859 -19.209  24.405  1.00  0.00    -0.550 OA
ATOM      9  O   UNL     1      -4.500 -17.544  23.610  1.00  0.00    -0.550 OA
ENDBRANCH   6   7
ENDBRANCH   5   6
ENDBRANCH   4   5
ENDBRANCH   3   4
ENDBRANCH   2   3
ENDBRANCH   1   2
BRANCH   1  10
ATOM     10  C   UNL     1      -5.929 -10.726  23.763  1.00  0.00     0.000 C 
BRANCH  10  11
ATOM     11  C   UNL     1      -5.863 -10.054  25.151  1.00  0.00    -0.000 C 
BRANCH  11  12
ATOM     12  C   UNL     1      -4.745  -8.999  25.230  1.00  0.00    -0.000 C 
BRANCH  12  13
ATOM     13  C   UNL     1      -3.549  -9.322  24.315  1.00  0.00    -0.000 C 
BRANCH  13  14
ATOM     14  C   UNL     1      -2.315  -8.423  24.514  1.00  0.00    -0.000 C 
BRANCH  14  15
ATOM     15  C   UNL     1      -1.073  -9.206  24.975  1.00  0.00    -0.000 C 
BRANCH  15  16
ATOM     16  C   UNL     1      -0.017  -8.301  25.628  1.00  0.00    -0.003 C 
ATOM     17  C   UNL     1       0.651  -8.949  26.841  1.00  0.00     0.004 C 
ENDBRANCH  15  16
ENDBRANCH  14  15
ENDBRANCH  13  14
ENDBRANCH  12  13
ENDBRANCH  11  12
ENDBRANCH  10  11
ENDBRANCH   1  10
TORSDOF 13
ENDMDL
MODEL 3
REMARK VINA RESULT:    14.377      4.074      8.167
REMARK INTER + INTRA:          24.782
REMARK INTER:                  25.367
REMARK INTRA:                  -0.585
REMARK UNBOUND:                -0.521
REMARK SMILES CCCCCCCCCCCCCCC(=O)[O-]
REMARK SMILES IDX 9 1 10 2 11 3 12 4 13 5 14 6 15 7 16 8 17 9 8 10 7 11 6 12
REMARK SMILES IDX 5 13 4 14 3 15 2 16 1 17
REMARK H PARENT
REMARK Flexibility Score: inf
ROOT
ATOM      1  C   UNL     1      -5.375 -10.320  23.976  1.00  0.00     0.000 C 
ENDROOT
BRANCH   1   2
ATOM      2  C   UNL     1      -5.188  -9.125  24.924  1.00  0.00     0.000 C 
BRANCH   2   3
ATOM      3  C   UNL     1      -3.708  -8.782  25.175  1.00  0.00     0.000 C 
BRANCH   3   4
ATOM      4  C   UNL     1      -2.889  -8.434  23.918  1.00  0.00     0.000 C 
BRANCH   4   5
ATOM      5  C   UNL     1      -1.386  -8.277  24.204  1.00  0.00     0.006 C 
BRANCH   5   6
ATOM      6  C   UNL     1      -0.932  -9.128  25.399  1.00  0.00     0.053 C 
BRANCH   6   7
ATOM      7  C   UNL     1       0.226  -8.507  26.118  1.00  0.00     0.041 C 
ATOM      8  O   UNL     1       0.596  -7.338  25.832  1.00  0.00    -0.550 OA
ATOM      9  O   UNL     1       0.878  -9.208  27.125  1.00  0.00    -0.550 OA
ENDBRANCH   6   7
ENDBRANCH   5   6
ENDBRANCH   4   5
ENDBRANCH   3   4
ENDBRANCH   2   3
ENDBRANCH   1   2
BRANCH   1  10
ATOM     10  C   UNL     1      -6.506 -11.263  24.423  1.00  0.00     0.000 C 
BRANCH  10  11
ATOM     11  C   UNL     1      -6.155 -12.760  24.284  1.00  0.00    -0.000 C 
BRANCH  11  12
ATOM     12  C   UNL     1      -6.204 -13.493  25.636  1.00  0.00    -0.000 C 
BRANCH  12  13
ATOM     13  C   UNL     1      -4.924 -14.296  25.931  1.00  0.00    -0.000 C 
BRANCH  13  14
ATOM     14  C   UNL     1      -5.157 -15.721  26.464  1.00  0.00    -0.000 C 
BRANCH  14  15
ATOM     15  C   UNL     1      -4.455 -16.798  25.619  1.00  0.00    -0.000 C 
BRANCH  15  16
ATOM     16  C   UNL     1      -5.441 -17.826  25.041  1.00  0.00    -0.003 C 
ATOM     17  C   UNL     1      -5.433 -17.861  23.513  1.00  0.00     0.004 C 
ENDBRANCH  15  16
ENDBRANCH  14  15
ENDBRANCH  13  14
ENDBRANCH  12  13
ENDBRANCH  11  12
ENDBRANCH  10  11
ENDBRANCH   1  10
TORSDOF 13
ENDMDL
MODEL 4
REMARK VINA RESULT:    15.061      4.050      8.238
REMARK INTER + INTRA:          25.986
REMARK INTER:                  26.542
REMARK INTRA:                  -0.556
REMARK UNBOUND:                -0.521
REMARK SMILES CCCCCCCCCCCCCCC(=O)[O-]
REMARK SMILES IDX 9 1 10 2 11 3 12 4 13 5 14 6 15 7 16 8 17 9 8 10 7 11 6 12
REMARK SMILES IDX 5 13 4 14 3 15 2 16 1 17
REMARK H PARENT
REMARK Flexibility Score: inf
ROOT
ATOM      1  C   UNL     1      -5.614 -11.170  23.760  1.00  0.00     0.000 C 
ENDROOT
BRANCH   1   2
ATOM      2  C   UNL     1      -5.610  -9.875  24.588  1.00  0.00     0.000 C 
BRANCH   2   3
ATOM      3  C   UNL     1      -4.524  -8.879  24.143  1.00  0.00     0.000 C 
BRANCH   3   4
ATOM      4  C   UNL     1      -3.326  -8.738  25.101  1.00  0.00     0.000 C 
BRANCH   4   5
ATOM      5  C   UNL     1      -1.990  -8.531  24.367  1.00  0.00     0.006 C 
BRANCH   5   6
ATOM      6  C   UNL     1      -0.852  -9.348  24.993  1.00  0.00     0.053 C 
BRANCH   6   7
ATOM      7  C   UNL     1       0.038  -8.501  25.849  1.00  0.00     0.041 C 
ATOM      8  O   UNL     1       0.581  -8.989  26.875  1.00  0.00    -0.550 OA
ATOM      9  O   UNL     1       0.292  -7.181  25.498  1.00  0.00    -0.550 OA
ENDBRANCH   6   7
ENDBRANCH   5   6
ENDBRANCH   4   5
ENDBRANCH   3   4
ENDBRANCH   2   3
ENDBRANCH   1   2
BRANCH   1  10
ATOM     10  C   UNL     1      -6.753 -12.126  24.154  1.00  0.00     0.000 C 
BRANCH  10  11
ATOM     11  C   UNL     1      -6.477 -12.914  25.452  1.00  0.00    -0.000 C 
BRANCH  11  12
ATOM     12  C   UNL     1      -5.398 -13.993  25.256  1.00  0.00    -0.000 C 
BRANCH  12  13
ATOM     13  C   UNL     1      -4.932 -14.625  26.580  1.00  0.00    -0.000 C 
BRANCH  13  14
ATOM     14  C   UNL     1      -5.036 -16.160  26.642  1.00  0.00    -0.000 C 
BRANCH  14  15
ATOM     15  C   UNL     1      -4.784 -16.832  25.281  1.00  0.00    -0.000 C 
BRANCH  15  16
ATOM     16  C   UNL     1      -5.449 -18.213  25.175  1.00  0.00    -0.003 C 
ATOM     17  C   UNL     1      -5.908 -18.544  23.756  1.00  0.00     0.004 C 
ENDBRANCH  15  16
ENDBRANCH  14  15
ENDBRANCH  13  14
ENDBRANCH  12  13
ENDBRANCH  11  12
ENDBRANCH  10  11
ENDBRANCH   1  10
TORSDOF 13
ENDMDL
MODEL 5
REMARK VINA RESULT:    15.070      1.776      2.851
REMARK INTER + INTRA:          26.002
REMARK INTER:                  26.681
REMARK INTRA:                  -0.678
REMARK UNBOUND:                -0.521
REMARK SMILES CCCCCCCCCCCCCCC(=O)[O-]
REMARK SMILES IDX 9 1 10 2 11 3 12 4 13 5 14 6 15 7 16 8 17 9 8 10 7 11 6 12
REMARK SMILES IDX 5 13 4 14 3 15 2 16 1 17
REMARK H PARENT
REMARK Flexibility Score: inf
ROOT
ATOM      1  C   UNL     1      -6.578 -12.137  23.804  1.00  0.00     0.000 C 
ENDROOT
BRANCH   1   2
ATOM      2  C   UNL     1      -6.350 -12.872  25.135  1.00  0.00     0.000 C 
BRANCH   2   3
ATOM      3  C   UNL     1      -5.374 -14.056  25.009  1.00  0.00     0.000 C 
BRANCH   3   4
ATOM      4  C   UNL     1      -5.063 -14.797  26.323  1.00  0.00     0.000 C 
BRANCH   4   5
ATOM      5  C   UNL     1      -4.479 -16.202  26.097  1.00  0.00     0.006 C 
BRANCH   5   6
ATOM      6  C   UNL     1      -5.569 -17.245  25.820  1.00  0.00     0.053 C 
BRANCH   6   7
ATOM      7  C   UNL     1      -5.253 -18.079  24.617  1.00  0.00     0.041 C 
ATOM      8  O   UNL     1      -5.663 -19.267  24.544  1.00  0.00    -0.550 OA
ATOM      9  O   UNL     1      -4.527 -17.535  23.563  1.00  0.00    -0.550 OA
ENDBRANCH   6   7
ENDBRANCH   5   6
ENDBRANCH   4   5
ENDBRANCH   3   4
ENDBRANCH   2   3
ENDBRANCH   1   2
BRANCH   1  10
ATOM     10  C   UNL     1      -5.719 -10.868  23.670  1.00  0.00     0.000 C 
BRANCH  10  11
ATOM     11  C   UNL     1      -5.774  -9.950  24.910  1.00  0.00    -0.000 C 
BRANCH  11  12
ATOM     12  C   UNL     1      -4.868  -8.716  24.755  1.00  0.00    -0.000 C 
BRANCH  12  13
ATOM     13  C   UNL     1      -3.386  -9.079  24.553  1.00  0.00    -0.000 C 
BRANCH  13  14
ATOM     14  C   UNL     1      -2.539  -8.000  23.854  1.00  0.00    -0.000 C 
BRANCH  14  15
ATOM     15  C   UNL     1      -3.317  -7.245  22.761  1.00  0.00    -0.000 C 
BRANCH  15  16
ATOM     16  C   UNL     1      -2.499  -7.073  21.471  1.00  0.00    -0.003 C 
ATOM     17  C   UNL     1      -3.358  -7.151  20.210  1.00  0.00     0.004 C 
ENDBRANCH  15  16
ENDBRANCH  14  15
ENDBRANCH  13  14
ENDBRANCH  12  13
ENDBRANCH  11  12
ENDBRANCH  10  11
ENDBRANCH   1  10
TORSDOF 13
ENDMDL
MODEL 6
REMARK VINA RESULT:    15.772      4.385      7.790
REMARK INTER + INTRA:          27.238
REMARK INTER:                  27.847
REMARK INTRA:                  -0.609
REMARK UNBOUND:                -0.521
REMARK SMILES CCCCCCCCCCCCCCC(=O)[O-]
REMARK SMILES IDX 9 1 10 2 11 3 12 4 13 5 14 6 15 7 16 8 17 9 8 10 7 11 6 12
REMARK SMILES IDX 5 13 4 14 3 15 2 16 1 17
REMARK H PARENT
REMARK Flexibility Score: inf
ROOT
ATOM      1  C   UNL     1      -6.751 -12.103  23.697  1.00  0.00     0.000 C 
ENDROOT
BRANCH   1   2
ATOM      2  C   UNL     1      -6.406 -12.740  25.054  1.00  0.00     0.000 C 
BRANCH   2   3
ATOM      3  C   UNL     1      -5.581 -14.033  24.919  1.00  0.00     0.000 C 
BRANCH   3   4
ATOM      4  C   UNL     1      -5.096 -14.647  26.246  1.00  0.00     0.000 C 
BRANCH   4   5
ATOM      5  C   UNL     1      -4.428 -16.020  26.064  1.00  0.00     0.006 C 
BRANCH   5   6
ATOM      6  C   UNL     1      -5.455 -17.152  25.934  1.00  0.00     0.053 C 
BRANCH   6   7
ATOM      7  C   UNL     1      -5.234 -17.968  24.699  1.00  0.00     0.041 C 
ATOM      8  O   UNL     1      -4.553 -17.504  23.746  1.00  0.00    -0.550 OA
ATOM      9  O   UNL     1      -5.756 -19.253  24.609  1.00  0.00    -0.550 OA
ENDBRANCH   6   7
ENDBRANCH   5   6
ENDBRANCH   4   5
ENDBRANCH   3   4
ENDBRANCH   2   3
ENDBRANCH   1   2
BRANCH   1  10
ATOM     10  C   UNL     1      -7.246 -13.131  22.666  1.00  0.00     0.000 C 
BRANCH  10  11
ATOM     11  C   UNL     1      -8.134 -12.520  21.561  1.00  0.00    -0.000 C 
BRANCH  11  12
ATOM     12  C   UNL     1      -9.048 -13.571  20.907  1.00  0.00    -0.000 C 
BRANCH  12  13
ATOM     13  C   UNL     1      -8.412 -14.235  19.671  1.00  0.00    -0.000 C 
BRANCH  13  14
ATOM     14  C   UNL     1      -9.131 -13.956  18.339  1.00  0.00    -0.000 C 
BRANCH  14  15
ATOM     15  C   UNL     1      -9.399 -15.233  17.524  1.00  0.00    -0.000 C 
BRANCH  15  16
ATOM     16  C   UNL     1      -9.839 -16.411  18.406  1.00  0.00    -0.003 C 
ATOM     17  C   UNL     1      -9.675 -17.764  17.714  1.00  0.00     0.004 C 
ENDBRANCH  15  16
ENDBRANCH  14  15
ENDBRANCH  13  14
ENDBRANCH  12  13
ENDBRANCH  11  12
ENDBRANCH  10  11
ENDBRANCH   1  10
TORSDOF 13
ENDMDL
