MODEL 1
REMARK VINA RESULT:    -5.056      0.000      0.000
REMARK INTER + INTRA:          -5.847
REMARK INTER:                  -5.795
REMARK INTRA:                  -0.052
REMARK UNBOUND:                -0.052
REMARK SMILES O=C([O-])c1cc(O)c(O)c(O)c1
REMARK SMILES IDX 4 1 5 2 12 3 6 4 10 5 8 6 2 7 1 8 3 9 7 10 11 12 9 14
REMARK H PARENT 7 11 11 13 9 15
REMARK Flexibility Score: inf
ROOT
ATOM      1  C   UNL     1      31.230   6.346 -23.677  1.00  0.00     0.005 A 
ATOM      2  C   UNL     1      30.213   5.996 -22.779  1.00  0.00     0.060 A 
ATOM      3  C   UNL     1      32.197   7.284 -23.279  1.00  0.00     0.060 A 
ATOM      4  C   UNL     1      30.157   6.567 -21.505  1.00  0.00     0.162 A 
ATOM      5  C   UNL     1      32.156   7.866 -22.007  1.00  0.00     0.162 A 
ATOM      6  C   UNL     1      31.125   7.507 -21.106  1.00  0.00     0.200 A 
ENDROOT
BRANCH   1   7
ATOM      7  C   UNL     1      31.280   5.735 -25.025  1.00  0.00     0.072 C 
ATOM      8  O   UNL     1      31.977   6.255 -25.938  1.00  0.00    -0.545 OA
ATOM      9  O   UNL     1      30.560   4.580 -25.302  1.00  0.00    -0.545 OA
ENDBRANCH   1   7
BRANCH   4  10
ATOM     10  O   UNL     1      29.126   6.187 -20.645  1.00  0.00    -0.504 OA
ATOM     11  H   UNL     1      28.158   6.429 -20.820  1.00  0.00     0.293 HD
ENDBRANCH   4  10
BRANCH   5  12
ATOM     12  O   UNL     1      33.153   8.790 -21.686  1.00  0.00    -0.504 OA
ATOM     13  H   UNL     1      33.545   9.452 -22.341  1.00  0.00     0.293 HD
ENDBRANCH   5  12
BRANCH   6  14
ATOM     14  O   UNL     1      31.033   8.054 -19.824  1.00  0.00    -0.502 OA
ATOM     15  H   UNL     1      31.821   8.397 -19.295  1.00  0.00     0.293 HD
ENDBRANCH   6  14
TORSDOF 4
ENDMDL
MODEL 2
REMARK VINA RESULT:    -5.052      0.099      2.616
REMARK INTER + INTRA:          -5.843
REMARK INTER:                  -5.792
REMARK INTRA:                  -0.051
REMARK UNBOUND:                -0.052
REMARK SMILES O=C([O-])c1cc(O)c(O)c(O)c1
REMARK SMILES IDX 4 1 5 2 12 3 6 4 10 5 8 6 2 7 1 8 3 9 7 10 11 12 9 14
REMARK H PARENT 7 11 11 13 9 15
REMARK Flexibility Score: inf
ROOT
ATOM      1  C   UNL     1      31.216   6.333 -23.635  1.00  0.00     0.005 A 
ATOM      2  C   UNL     1      32.189   7.269 -23.256  1.00  0.00     0.060 A 
ATOM      3  C   UNL     1      30.203   5.997 -22.722  1.00  0.00     0.060 A 
ATOM      4  C   UNL     1      32.156   7.861 -21.991  1.00  0.00     0.162 A 
ATOM      5  C   UNL     1      30.155   6.580 -21.451  1.00  0.00     0.162 A 
ATOM      6  C   UNL     1      31.142   7.524 -21.076  1.00  0.00     0.200 A 
ENDROOT
BRANCH   1   7
ATOM      7  C   UNL     1      31.260   5.711 -24.977  1.00  0.00     0.072 C 
ATOM      8  O   UNL     1      30.741   4.580 -25.177  1.00  0.00    -0.545 OA
ATOM      9  O   UNL     1      31.876   6.366 -26.037  1.00  0.00    -0.545 OA
ENDBRANCH   1   7
BRANCH   4  10
ATOM     10  O   UNL     1      33.145   8.788 -21.659  1.00  0.00    -0.504 OA
ATOM     11  H   UNL     1      34.015   8.517 -21.217  1.00  0.00     0.293 HD
ENDBRANCH   4  10
BRANCH   5  12
ATOM     12  O   UNL     1      29.117   6.193 -20.600  1.00  0.00    -0.504 OA
ATOM     13  H   UNL     1      29.231   5.570 -19.813  1.00  0.00     0.293 HD
ENDBRANCH   5  12
BRANCH   6  14
ATOM     14  O   UNL     1      31.144   8.140 -19.822  1.00  0.00    -0.502 OA
ATOM     15  H   UNL     1      31.299   9.126 -19.674  1.00  0.00     0.293 HD
ENDBRANCH   6  14
TORSDOF 4
ENDMDL
MODEL 3
REMARK VINA RESULT:    -4.823      1.164      4.193
REMARK INTER + INTRA:          -5.580
REMARK INTER:                  -5.534
REMARK INTRA:                  -0.047
REMARK UNBOUND:                -0.052
REMARK SMILES O=C([O-])c1cc(O)c(O)c(O)c1
REMARK SMILES IDX 4 1 5 2 12 3 6 4 10 5 8 6 2 7 1 8 3 9 7 10 11 12 9 14
REMARK H PARENT 7 11 11 13 9 15
REMARK Flexibility Score: inf
ROOT
ATOM      1  C   UNL     1      32.341   7.466 -21.936  1.00  0.00     0.005 A 
ATOM      2  C   UNL     1      32.300   7.074 -23.281  1.00  0.00     0.060 A 
ATOM      3  C   UNL     1      31.225   7.218 -21.120  1.00  0.00     0.060 A 
ATOM      4  C   UNL     1      31.169   6.446 -23.808  1.00  0.00     0.162 A 
ATOM      5  C   UNL     1      30.083   6.590 -21.632  1.00  0.00     0.162 A 
ATOM      6  C   UNL     1      30.050   6.198 -22.992  1.00  0.00     0.200 A 
ENDROOT
BRANCH   1   7
ATOM      7  C   UNL     1      33.544   8.132 -21.387  1.00  0.00     0.072 C 
ATOM      8  O   UNL     1      33.462   9.278 -20.868  1.00  0.00    -0.545 OA
ATOM      9  O   UNL     1      34.782   7.502 -21.437  1.00  0.00    -0.545 OA
ENDBRANCH   1   7
BRANCH   4  10
ATOM     10  O   UNL     1      31.175   6.073 -25.152  1.00  0.00    -0.504 OA
ATOM     11  H   UNL     1      31.243   6.751 -25.902  1.00  0.00     0.293 HD
ENDBRANCH   4  10
BRANCH   5  12
ATOM     12  O   UNL     1      29.014   6.379 -20.758  1.00  0.00    -0.504 OA
ATOM     13  H   UNL     1      29.074   6.479 -19.755  1.00  0.00     0.293 HD
ENDBRANCH   5  12
BRANCH   6  14
ATOM     14  O   UNL     1      28.940   5.566 -23.558  1.00  0.00    -0.502 OA
ATOM     15  H   UNL     1      28.757   5.519 -24.549  1.00  0.00     0.293 HD
ENDBRANCH   6  14
TORSDOF 4
ENDMDL
MODEL 4
REMARK VINA RESULT:    -4.813      1.172      3.791
REMARK INTER + INTRA:          -5.569
REMARK INTER:                  -5.521
REMARK INTRA:                  -0.048
REMARK UNBOUND:                -0.052
REMARK SMILES O=C([O-])c1cc(O)c(O)c(O)c1
REMARK SMILES IDX 4 1 5 2 12 3 6 4 10 5 8 6 2 7 1 8 3 9 7 10 11 12 9 14
REMARK H PARENT 7 11 11 13 9 15
REMARK Flexibility Score: inf
ROOT
ATOM      1  C   UNL     1      32.349   7.443 -22.028  1.00  0.00     0.005 A 
ATOM      2  C   UNL     1      31.239   7.213 -21.204  1.00  0.00     0.060 A 
ATOM      3  C   UNL     1      32.296   7.036 -23.371  1.00  0.00     0.060 A 
ATOM      4  C   UNL     1      30.094   6.589 -21.706  1.00  0.00     0.162 A 
ATOM      5  C   UNL     1      31.157   6.409 -23.890  1.00  0.00     0.162 A 
ATOM      6  C   UNL     1      30.041   6.180 -23.051  1.00  0.00     0.200 A 
ENDROOT
BRANCH   1   7
ATOM      7  C   UNL     1      33.558   8.104 -21.487  1.00  0.00     0.072 C 
ATOM      8  O   UNL     1      33.461   9.168 -20.817  1.00  0.00    -0.545 OA
ATOM      9  O   UNL     1      34.818   7.561 -21.709  1.00  0.00    -0.545 OA
ENDBRANCH   1   7
BRANCH   4  10
ATOM     10  O   UNL     1      29.013   6.382 -20.847  1.00  0.00    -0.504 OA
ATOM     11  H   UNL     1      28.056   6.557 -21.130  1.00  0.00     0.293 HD
ENDBRANCH   4  10
BRANCH   5  12
ATOM     12  O   UNL     1      31.182   6.033 -25.235  1.00  0.00    -0.504 OA
ATOM     13  H   UNL     1      32.019   6.001 -25.800  1.00  0.00     0.293 HD
ENDBRANCH   5  12
BRANCH   6  14
ATOM     14  O   UNL     1      28.877   5.560 -23.513  1.00  0.00    -0.502 OA
ATOM     15  H   UNL     1      28.113   5.272 -22.920  1.00  0.00     0.293 HD
ENDBRANCH   6  14
TORSDOF 4
ENDMDL
MODEL 5
REMARK VINA RESULT:    -4.761     10.549     11.843
REMARK INTER + INTRA:          -5.509
REMARK INTER:                  -5.463
REMARK INTRA:                  -0.047
REMARK UNBOUND:                -0.052
REMARK SMILES O=C([O-])c1cc(O)c(O)c(O)c1
REMARK SMILES IDX 4 1 5 2 12 3 6 4 10 5 8 6 2 7 1 8 3 9 7 10 11 12 9 14
REMARK H PARENT 7 11 11 13 9 15
REMARK Flexibility Score: inf
ROOT
ATOM      1  C   UNL     1      28.033   9.967 -32.703  1.00  0.00     0.005 A 
ATOM      2  C   UNL     1      28.739   9.018 -33.454  1.00  0.00     0.060 A 
ATOM      3  C   UNL     1      28.535  11.275 -32.614  1.00  0.00     0.060 A 
ATOM      4  C   UNL     1      29.924   9.363 -34.108  1.00  0.00     0.162 A 
ATOM      5  C   UNL     1      29.721  11.638 -33.262  1.00  0.00     0.162 A 
ATOM      6  C   UNL     1      30.428  10.673 -34.019  1.00  0.00     0.200 A 
ENDROOT
BRANCH   1   7
ATOM      7  C   UNL     1      26.778   9.591 -32.013  1.00  0.00     0.072 C 
ATOM      8  O   UNL     1      26.768   8.664 -31.159  1.00  0.00    -0.545 OA
ATOM      9  O   UNL     1      25.591  10.256 -32.299  1.00  0.00    -0.545 OA
ENDBRANCH   1   7
BRANCH   4  10
ATOM     10  O   UNL     1      30.592   8.384 -34.845  1.00  0.00    -0.504 OA
ATOM     11  H   UNL     1      31.394   8.596 -35.427  1.00  0.00     0.293 HD
ENDBRANCH   4  10
BRANCH   5  12
ATOM     12  O   UNL     1      30.155  12.958 -33.126  1.00  0.00    -0.504 OA
ATOM     13  H   UNL     1      30.670  13.306 -32.329  1.00  0.00     0.293 HD
ENDBRANCH   5  12
BRANCH   6  14
ATOM     14  O   UNL     1      31.616  10.977 -34.689  1.00  0.00    -0.502 OA
ATOM     15  H   UNL     1      32.318  10.296 -34.938  1.00  0.00     0.293 HD
ENDBRANCH   6  14
TORSDOF 4
ENDMDL
MODEL 6
REMARK VINA RESULT:    -4.753      1.480      2.968
REMARK INTER + INTRA:          -5.499
REMARK INTER:                  -5.447
REMARK INTRA:                  -0.052
REMARK UNBOUND:                -0.052
REMARK SMILES O=C([O-])c1cc(O)c(O)c(O)c1
REMARK SMILES IDX 4 1 5 2 12 3 6 4 10 5 8 6 2 7 1 8 3 9 7 10 11 12 9 14
REMARK H PARENT 7 11 11 13 9 15
REMARK Flexibility Score: inf
ROOT
ATOM      1  C   UNL     1      32.720   6.916 -22.498  1.00  0.00     0.005 A 
ATOM      2  C   UNL     1      31.736   6.272 -23.259  1.00  0.00     0.060 A 
ATOM      3  C   UNL     1      32.379   7.425 -21.234  1.00  0.00     0.060 A 
ATOM      4  C   UNL     1      30.433   6.134 -22.774  1.00  0.00     0.162 A 
ATOM      5  C   UNL     1      31.078   7.296 -20.732  1.00  0.00     0.162 A 
ATOM      6  C   UNL     1      30.090   6.644 -21.508  1.00  0.00     0.200 A 
ENDROOT
BRANCH   1   7
ATOM      7  C   UNL     1      34.098   7.057 -23.021  1.00  0.00     0.072 C 
ATOM      8  O   UNL     1      35.045   7.377 -22.254  1.00  0.00    -0.545 OA
ATOM      9  O   UNL     1      34.365   6.838 -24.367  1.00  0.00    -0.545 OA
ENDBRANCH   1   7
BRANCH   4  10
ATOM     10  O   UNL     1      29.488   5.484 -23.568  1.00  0.00    -0.504 OA
ATOM     11  H   UNL     1      29.739   4.992 -24.417  1.00  0.00     0.293 HD
ENDBRANCH   4  10
BRANCH   5  12
ATOM     12  O   UNL     1      30.817   7.829 -19.468  1.00  0.00    -0.504 OA
ATOM     13  H   UNL     1      29.956   8.293 -19.215  1.00  0.00     0.293 HD
ENDBRANCH   5  12
BRANCH   6  14
ATOM     14  O   UNL     1      28.777   6.485 -21.060  1.00  0.00    -0.502 OA
ATOM     15  H   UNL     1      28.132   7.246 -20.909  1.00  0.00     0.293 HD
ENDBRANCH   6  14
TORSDOF 4
ENDMDL
MODEL 7
REMARK VINA RESULT:    -4.722     11.574     12.328
REMARK INTER + INTRA:          -5.464
REMARK INTER:                  -5.415
REMARK INTRA:                  -0.050
REMARK UNBOUND:                -0.052
REMARK SMILES O=C([O-])c1cc(O)c(O)c(O)c1
REMARK SMILES IDX 4 1 5 2 12 3 6 4 10 5 8 6 2 7 1 8 3 9 7 10 11 12 9 14
REMARK H PARENT 7 11 11 13 9 15
REMARK Flexibility Score: inf
ROOT
ATOM      1  C   UNL     1      29.692  10.096 -34.652  1.00  0.00     0.005 A 
ATOM      2  C   UNL     1      30.399  11.163 -34.080  1.00  0.00     0.060 A 
ATOM      3  C   UNL     1      28.374   9.851 -34.234  1.00  0.00     0.060 A 
ATOM      4  C   UNL     1      29.806  11.973 -33.109  1.00  0.00     0.162 A 
ATOM      5  C   UNL     1      27.765  10.653 -33.262  1.00  0.00     0.162 A 
ATOM      6  C   UNL     1      28.487  11.728 -32.689  1.00  0.00     0.200 A 
ENDROOT
BRANCH   1   7
ATOM      7  C   UNL     1      30.329   9.243 -35.681  1.00  0.00     0.072 C 
ATOM      8  O   UNL     1      29.659   8.805 -36.655  1.00  0.00    -0.545 OA
ATOM      9  O   UNL     1      31.676   8.914 -35.588  1.00  0.00    -0.545 OA
ENDBRANCH   1   7
BRANCH   4  10
ATOM     10  O   UNL     1      30.550  13.024 -32.569  1.00  0.00    -0.504 OA
ATOM     11  H   UNL     1      31.176  13.589 -33.130  1.00  0.00     0.293 HD
ENDBRANCH   4  10
BRANCH   5  12
ATOM     12  O   UNL     1      26.452  10.345 -32.898  1.00  0.00    -0.504 OA
ATOM     13  H   UNL     1      25.671  10.347 -33.538  1.00  0.00     0.293 HD
ENDBRANCH   5  12
BRANCH   6  14
ATOM     14  O   UNL     1      27.931  12.562 -31.715  1.00  0.00    -0.502 OA
ATOM     15  H   UNL     1      28.336  13.438 -31.420  1.00  0.00     0.293 HD
ENDBRANCH   6  14
TORSDOF 4
ENDMDL
MODEL 8
REMARK VINA RESULT:    -4.720     11.263     11.915
REMARK INTER + INTRA:          -5.462
REMARK INTER:                  -5.413
REMARK INTRA:                  -0.048
REMARK UNBOUND:                -0.052
REMARK SMILES O=C([O-])c1cc(O)c(O)c(O)c1
REMARK SMILES IDX 4 1 5 2 12 3 6 4 10 5 8 6 2 7 1 8 3 9 7 10 11 12 9 14
REMARK H PARENT 7 11 11 13 9 15
REMARK Flexibility Score: inf
ROOT
ATOM      1  C   UNL     1      29.744  10.012 -34.546  1.00  0.00     0.005 A 
ATOM      2  C   UNL     1      28.532   9.600 -33.975  1.00  0.00     0.060 A 
ATOM      3  C   UNL     1      30.345  11.195 -34.087  1.00  0.00     0.060 A 
ATOM      4  C   UNL     1      27.927  10.350 -32.963  1.00  0.00     0.162 A 
ATOM      5  C   UNL     1      29.753  11.959 -33.075  1.00  0.00     0.162 A 
ATOM      6  C   UNL     1      28.529  11.535 -32.503  1.00  0.00     0.200 A 
ENDROOT
BRANCH   1   7
ATOM      7  C   UNL     1      30.376   9.210 -35.618  1.00  0.00     0.072 C 
ATOM      8  O   UNL     1      29.693   8.782 -36.587  1.00  0.00    -0.545 OA
ATOM      9  O   UNL     1      31.734   8.917 -35.570  1.00  0.00    -0.545 OA
ENDBRANCH   1   7
BRANCH   4  10
ATOM     10  O   UNL     1      26.722   9.899 -32.425  1.00  0.00    -0.504 OA
ATOM     11  H   UNL     1      26.273  10.358 -31.641  1.00  0.00     0.293 HD
ENDBRANCH   4  10
BRANCH   5  12
ATOM     12  O   UNL     1      30.412  13.123 -32.673  1.00  0.00    -0.504 OA
ATOM     13  H   UNL     1      30.277  14.028 -33.102  1.00  0.00     0.293 HD
ENDBRANCH   5  12
BRANCH   6  14
ATOM     14  O   UNL     1      27.892  12.256 -31.490  1.00  0.00    -0.502 OA
ATOM     15  H   UNL     1      26.919  12.150 -31.243  1.00  0.00     0.293 HD
ENDBRANCH   6  14
TORSDOF 4
ENDMDL
MODEL 9
REMARK VINA RESULT:    -4.709      1.526      3.316
REMARK INTER + INTRA:          -5.449
REMARK INTER:                  -5.398
REMARK INTRA:                  -0.052
REMARK UNBOUND:                -0.052
REMARK SMILES O=C([O-])c1cc(O)c(O)c(O)c1
REMARK SMILES IDX 4 1 5 2 12 3 6 4 10 5 8 6 2 7 1 8 3 9 7 10 11 12 9 14
REMARK H PARENT 7 11 11 13 9 15
REMARK Flexibility Score: inf
ROOT
ATOM      1  C   UNL     1      32.794   6.871 -22.462  1.00  0.00     0.005 A 
ATOM      2  C   UNL     1      32.435   7.453 -21.239  1.00  0.00     0.060 A 
ATOM      3  C   UNL     1      31.832   6.139 -23.176  1.00  0.00     0.060 A 
ATOM      4  C   UNL     1      31.140   7.311 -20.733  1.00  0.00     0.162 A 
ATOM      5  C   UNL     1      30.530   5.986 -22.684  1.00  0.00     0.162 A 
ATOM      6  C   UNL     1      30.176   6.577 -21.447  1.00  0.00     0.200 A 
ENDROOT
BRANCH   1   7
ATOM      7  C   UNL     1      34.168   7.027 -22.989  1.00  0.00     0.072 C 
ATOM      8  O   UNL     1      34.402   6.889 -24.220  1.00  0.00    -0.545 OA
ATOM      9  O   UNL     1      35.221   7.329 -22.133  1.00  0.00    -0.545 OA
ENDBRANCH   1   7
BRANCH   4  10
ATOM     10  O   UNL     1      30.829   7.909 -19.511  1.00  0.00    -0.504 OA
ATOM     11  H   UNL     1      29.878   7.974 -19.166  1.00  0.00     0.293 HD
ENDBRANCH   4  10
BRANCH   5  12
ATOM     12  O   UNL     1      29.631   5.243 -23.452  1.00  0.00    -0.504 OA
ATOM     13  H   UNL     1      29.237   5.558 -24.327  1.00  0.00     0.293 HD
ENDBRANCH   5  12
BRANCH   6  14
ATOM     14  O   UNL     1      28.893   6.459 -20.907  1.00  0.00    -0.502 OA
ATOM     15  H   UNL     1      28.678   5.958 -20.059  1.00  0.00     0.293 HD
ENDBRANCH   6  14
TORSDOF 4
ENDMDL
