MODEL 1
REMARK VINA RESULT:    -3.790      0.000      0.000
REMARK INTER + INTRA:          -4.425
REMARK INTER:                  -4.344
REMARK INTRA:                  -0.080
REMARK UNBOUND:                -0.080
REMARK SMILES COc1cc(C(=O)[O-])ccc1O
REMARK SMILES IDX 5 1 9 2 4 3 10 4 3 5 11 6 6 7 7 8 8 9 2 10 1 11 12 12
REMARK H PARENT 12 13
REMARK Flexibility Score: inf
ROOT
ATOM      1  C   UNL     1      15.810  35.100  22.431  1.00  0.00     0.001 A 
ATOM      2  C   UNL     1      15.526  33.934  21.704  1.00  0.00     0.014 A 
ATOM      3  C   UNL     1      14.751  35.942  22.816  1.00  0.00     0.060 A 
ATOM      4  C   UNL     1      14.209  33.614  21.368  1.00  0.00     0.051 A 
ATOM      5  C   UNL     1      13.420  35.624  22.479  1.00  0.00     0.161 A 
ATOM      6  C   UNL     1      13.157  34.450  21.749  1.00  0.00     0.157 A 
ENDROOT
BRANCH   1   7
ATOM      7  C   UNL     1      17.208  35.435  22.785  1.00  0.00     0.072 C 
ATOM      8  O   UNL     1      17.462  36.141  23.796  1.00  0.00    -0.545 OA
ATOM      9  O   UNL     1      18.262  34.973  22.004  1.00  0.00    -0.545 OA
ENDBRANCH   1   7
BRANCH   5  10
ATOM     10  O   UNL     1      12.342  36.445  22.849  1.00  0.00    -0.493 OA
ATOM     11  C   UNL     1      12.338  37.315  23.976  1.00  0.00     0.278 C 
ENDBRANCH   5  10
BRANCH   6  12
ATOM     12  O   UNL     1      11.855  34.098  21.396  1.00  0.00    -0.504 OA
ATOM     13  H   UNL     1      11.358  33.339  21.846  1.00  0.00     0.293 HD
ENDBRANCH   6  12
TORSDOF 3
ENDMDL
MODEL 2
REMARK VINA RESULT:    -3.769      1.185      4.363
REMARK INTER + INTRA:          -4.401
REMARK INTER:                  -4.316
REMARK INTRA:                  -0.084
REMARK UNBOUND:                -0.080
REMARK SMILES COc1cc(C(=O)[O-])ccc1O
REMARK SMILES IDX 5 1 9 2 4 3 10 4 3 5 11 6 6 7 7 8 8 9 2 10 1 11 12 12
REMARK H PARENT 12 13
REMARK Flexibility Score: inf
ROOT
ATOM      1  C   UNL     1      14.303  34.544  22.066  1.00  0.00     0.001 A 
ATOM      2  C   UNL     1      14.553  33.433  21.244  1.00  0.00     0.014 A 
ATOM      3  C   UNL     1      15.389  35.276  22.578  1.00  0.00     0.060 A 
ATOM      4  C   UNL     1      15.864  33.062  20.939  1.00  0.00     0.051 A 
ATOM      5  C   UNL     1      16.715  34.904  22.274  1.00  0.00     0.161 A 
ATOM      6  C   UNL     1      16.944  33.788  21.449  1.00  0.00     0.157 A 
ENDROOT
BRANCH   1   7
ATOM      7  C   UNL     1      12.911  34.934  22.385  1.00  0.00     0.072 C 
ATOM      8  O   UNL     1      11.952  34.161  22.125  1.00  0.00    -0.545 OA
ATOM      9  O   UNL     1      12.644  36.164  22.978  1.00  0.00    -0.545 OA
ENDBRANCH   1   7
BRANCH   5  10
ATOM     10  O   UNL     1      17.819  35.616  22.771  1.00  0.00    -0.493 OA
ATOM     11  C   UNL     1      17.881  36.216  24.060  1.00  0.00     0.278 C 
ENDBRANCH   5  10
BRANCH   6  12
ATOM     12  O   UNL     1      18.239  33.387  21.123  1.00  0.00    -0.504 OA
ATOM     13  H   UNL     1      18.815  32.851  21.759  1.00  0.00     0.293 HD
ENDBRANCH   6  12
TORSDOF 3
ENDMDL
MODEL 3
REMARK VINA RESULT:    -3.652     14.108     15.437
REMARK INTER + INTRA:          -4.266
REMARK INTER:                  -4.166
REMARK INTRA:                  -0.100
REMARK UNBOUND:                -0.080
REMARK SMILES COc1cc(C(=O)[O-])ccc1O
REMARK SMILES IDX 5 1 9 2 4 3 10 4 3 5 11 6 6 7 7 8 8 9 2 10 1 11 12 12
REMARK H PARENT 12 13
REMARK Flexibility Score: inf
ROOT
ATOM      1  C   UNL     1       1.580  43.155  24.467  1.00  0.00     0.001 A 
ATOM      2  C   UNL     1       1.256  41.796  24.337  1.00  0.00     0.014 A 
ATOM      3  C   UNL     1       2.413  43.562  25.525  1.00  0.00     0.060 A 
ATOM      4  C   UNL     1       1.754  40.861  25.245  1.00  0.00     0.051 A 
ATOM      5  C   UNL     1       2.918  42.622  26.447  1.00  0.00     0.161 A 
ATOM      6  C   UNL     1       2.581  41.264  26.298  1.00  0.00     0.157 A 
ENDROOT
BRANCH   1   7
ATOM      7  C   UNL     1       1.050  44.143  23.500  1.00  0.00     0.072 C 
ATOM      8  O   UNL     1       1.769  45.094  23.096  1.00  0.00    -0.545 OA
ATOM      9  O   UNL     1      -0.252  44.034  23.026  1.00  0.00    -0.545 OA
ENDBRANCH   1   7
BRANCH   5  10
ATOM     10  O   UNL     1       3.750  42.998  27.513  1.00  0.00    -0.493 OA
ATOM     11  C   UNL     1       3.288  43.514  28.757  1.00  0.00     0.278 C 
ENDBRANCH   5  10
BRANCH   6  12
ATOM     12  O   UNL     1       3.059  40.302  27.186  1.00  0.00    -0.504 OA
ATOM     13  H   UNL     1       2.712  40.220  28.134  1.00  0.00     0.293 HD
ENDBRANCH   6  12
TORSDOF 3
ENDMDL
MODEL 4
REMARK VINA RESULT:    -3.625     11.706     12.699
REMARK INTER + INTRA:          -4.235
REMARK INTER:                  -4.170
REMARK INTRA:                  -0.065
REMARK UNBOUND:                -0.080
REMARK SMILES COc1cc(C(=O)[O-])ccc1O
REMARK SMILES IDX 5 1 9 2 4 3 10 4 3 5 11 6 6 7 7 8 8 9 2 10 1 11 12 12
REMARK H PARENT 12 13
REMARK Flexibility Score: inf
ROOT
ATOM      1  C   UNL     1       9.865  41.181  32.197  1.00  0.00     0.001 A 
ATOM      2  C   UNL     1       8.489  41.283  32.450  1.00  0.00     0.014 A 
ATOM      3  C   UNL     1      10.460  42.065  31.279  1.00  0.00     0.060 A 
ATOM      4  C   UNL     1       7.721  42.250  31.799  1.00  0.00     0.051 A 
ATOM      5  C   UNL     1       9.689  43.043  30.617  1.00  0.00     0.161 A 
ATOM      6  C   UNL     1       8.311  43.128  30.886  1.00  0.00     0.157 A 
ENDROOT
BRANCH   1   7
ATOM      7  C   UNL     1      10.676  40.154  32.891  1.00  0.00     0.072 C 
ATOM      8  O   UNL     1      11.737  40.472  33.489  1.00  0.00    -0.545 OA
ATOM      9  O   UNL     1      10.275  38.823  32.890  1.00  0.00    -0.545 OA
ENDBRANCH   1   7
BRANCH   5  10
ATOM     10  O   UNL     1      10.255  43.938  29.696  1.00  0.00    -0.493 OA
ATOM     11  C   UNL     1      10.279  43.740  28.286  1.00  0.00     0.278 C 
ENDBRANCH   5  10
BRANCH   6  12
ATOM     12  O   UNL     1       7.512  44.080  30.254  1.00  0.00    -0.504 OA
ATOM     13  H   UNL     1       7.638  44.334  29.282  1.00  0.00     0.293 HD
ENDBRANCH   6  12
TORSDOF 3
ENDMDL
MODEL 5
REMARK VINA RESULT:    -3.558      1.820      4.996
REMARK INTER + INTRA:          -4.159
REMARK INTER:                  -4.064
REMARK INTRA:                  -0.095
REMARK UNBOUND:                -0.080
REMARK SMILES COc1cc(C(=O)[O-])ccc1O
REMARK SMILES IDX 5 1 9 2 4 3 10 4 3 5 11 6 6 7 7 8 8 9 2 10 1 11 12 12
REMARK H PARENT 12 13
REMARK Flexibility Score: inf
ROOT
ATOM      1  C   UNL     1      14.257  34.545  22.036  1.00  0.00     0.001 A 
ATOM      2  C   UNL     1      15.317  35.357  22.468  1.00  0.00     0.014 A 
ATOM      3  C   UNL     1      14.540  33.388  21.289  1.00  0.00     0.060 A 
ATOM      4  C   UNL     1      16.636  35.019  22.160  1.00  0.00     0.051 A 
ATOM      5  C   UNL     1      15.871  33.043  20.973  1.00  0.00     0.161 A 
ATOM      6  C   UNL     1      16.919  33.870  21.416  1.00  0.00     0.157 A 
ENDROOT
BRANCH   1   7
ATOM      7  C   UNL     1      12.859  34.907  22.367  1.00  0.00     0.072 C 
ATOM      8  O   UNL     1      11.911  34.129  22.083  1.00  0.00    -0.545 OA
ATOM      9  O   UNL     1      12.575  36.113  22.997  1.00  0.00    -0.545 OA
ENDBRANCH   1   7
BRANCH   5  10
ATOM     10  O   UNL     1      16.184  31.895  20.228  1.00  0.00    -0.493 OA
ATOM     11  C   UNL     1      16.404  30.603  20.786  1.00  0.00     0.278 C 
ENDBRANCH   5  10
BRANCH   6  12
ATOM     12  O   UNL     1      18.248  33.566  21.126  1.00  0.00    -0.504 OA
ATOM     13  H   UNL     1      18.886  34.246  20.733  1.00  0.00     0.293 HD
ENDBRANCH   6  12
TORSDOF 3
ENDMDL
MODEL 6
REMARK VINA RESULT:    -3.549      2.739      4.321
REMARK INTER + INTRA:          -4.148
REMARK INTER:                  -4.059
REMARK INTRA:                  -0.089
REMARK UNBOUND:                -0.080
REMARK SMILES COc1cc(C(=O)[O-])ccc1O
REMARK SMILES IDX 5 1 9 2 4 3 10 4 3 5 11 6 6 7 7 8 8 9 2 10 1 11 12 12
REMARK H PARENT 12 13
REMARK Flexibility Score: inf
ROOT
ATOM      1  C   UNL     1      14.106  34.894  21.482  1.00  0.00     0.001 A 
ATOM      2  C   UNL     1      14.550  33.562  21.506  1.00  0.00     0.014 A 
ATOM      3  C   UNL     1      14.503  35.730  20.423  1.00  0.00     0.060 A 
ATOM      4  C   UNL     1      15.375  33.075  20.491  1.00  0.00     0.051 A 
ATOM      5  C   UNL     1      15.338  35.243  19.396  1.00  0.00     0.161 A 
ATOM      6  C   UNL     1      15.772  33.905  19.439  1.00  0.00     0.157 A 
ENDROOT
BRANCH   1   7
ATOM      7  C   UNL     1      13.229  35.406  22.560  1.00  0.00     0.072 C 
ATOM      8  O   UNL     1      12.497  34.621  23.219  1.00  0.00    -0.545 OA
ATOM      9  O   UNL     1      13.203  36.763  22.860  1.00  0.00    -0.545 OA
ENDBRANCH   1   7
BRANCH   5  10
ATOM     10  O   UNL     1      15.751  36.053  18.327  1.00  0.00    -0.493 OA
ATOM     11  C   UNL     1      14.878  36.837  17.521  1.00  0.00     0.278 C 
ENDBRANCH   5  10
BRANCH   6  12
ATOM     12  O   UNL     1      16.597  33.384  18.444  1.00  0.00    -0.504 OA
ATOM     13  H   UNL     1      16.232  32.861  17.657  1.00  0.00     0.293 HD
ENDBRANCH   6  12
TORSDOF 3
ENDMDL
MODEL 7
REMARK VINA RESULT:    -3.542     13.983     15.972
REMARK INTER + INTRA:          -4.140
REMARK INTER:                  -4.038
REMARK INTRA:                  -0.102
REMARK UNBOUND:                -0.080
REMARK SMILES COc1cc(C(=O)[O-])ccc1O
REMARK SMILES IDX 5 1 9 2 4 3 10 4 3 5 11 6 6 7 7 8 8 9 2 10 1 11 12 12
REMARK H PARENT 12 13
REMARK Flexibility Score: inf
ROOT
ATOM      1  C   UNL     1       0.901  42.868  24.469  1.00  0.00     0.001 A 
ATOM      2  C   UNL     1       2.287  43.011  24.641  1.00  0.00     0.014 A 
ATOM      3  C   UNL     1       0.231  41.832  25.144  1.00  0.00     0.060 A 
ATOM      4  C   UNL     1       2.989  42.136  25.472  1.00  0.00     0.051 A 
ATOM      5  C   UNL     1       0.936  40.945  25.983  1.00  0.00     0.161 A 
ATOM      6  C   UNL     1       2.324  41.106  26.142  1.00  0.00     0.157 A 
ENDROOT
BRANCH   1   7
ATOM      7  C   UNL     1       0.160  43.799  23.588  1.00  0.00     0.072 C 
ATOM      8  O   UNL     1      -1.079  43.967  23.730  1.00  0.00    -0.545 OA
ATOM      9  O   UNL     1       0.825  44.501  22.589  1.00  0.00    -0.545 OA
ENDBRANCH   1   7
BRANCH   5  10
ATOM     10  O   UNL     1       0.294  39.901  26.669  1.00  0.00    -0.493 OA
ATOM     11  C   UNL     1      -0.392  40.049  27.909  1.00  0.00     0.278 C 
ENDBRANCH   5  10
BRANCH   6  12
ATOM     12  O   UNL     1       3.059  40.251  26.963  1.00  0.00    -0.504 OA
ATOM     13  H   UNL     1       2.995  40.283  27.972  1.00  0.00     0.293 HD
ENDBRANCH   6  12
TORSDOF 3
ENDMDL
MODEL 8
REMARK VINA RESULT:    -3.533     12.142     12.992
REMARK INTER + INTRA:          -4.130
REMARK INTER:                  -4.036
REMARK INTRA:                  -0.093
REMARK UNBOUND:                -0.080
REMARK SMILES COc1cc(C(=O)[O-])ccc1O
REMARK SMILES IDX 5 1 9 2 4 3 10 4 3 5 11 6 6 7 7 8 8 9 2 10 1 11 12 12
REMARK H PARENT 12 13
REMARK Flexibility Score: inf
ROOT
ATOM      1  C   UNL     1       9.859  41.112  32.248  1.00  0.00     0.001 A 
ATOM      2  C   UNL     1      10.674  41.943  31.464  1.00  0.00     0.014 A 
ATOM      3  C   UNL     1       8.473  41.351  32.286  1.00  0.00     0.060 A 
ATOM      4  C   UNL     1      10.116  42.992  30.732  1.00  0.00     0.051 A 
ATOM      5  C   UNL     1       7.905  42.410  31.550  1.00  0.00     0.161 A 
ATOM      6  C   UNL     1       8.740  43.231  30.771  1.00  0.00     0.157 A 
ENDROOT
BRANCH   1   7
ATOM      7  C   UNL     1      10.455  39.999  33.022  1.00  0.00     0.072 C 
ATOM      8  O   UNL     1      10.205  38.803  32.721  1.00  0.00    -0.545 OA
ATOM      9  O   UNL     1      11.300  40.262  34.094  1.00  0.00    -0.545 OA
ENDBRANCH   1   7
BRANCH   5  10
ATOM     10  O   UNL     1       6.526  42.673  31.569  1.00  0.00    -0.493 OA
ATOM     11  C   UNL     1       5.570  42.043  30.722  1.00  0.00     0.278 C 
ENDBRANCH   5  10
BRANCH   6  12
ATOM     12  O   UNL     1       8.219  44.289  30.027  1.00  0.00    -0.504 OA
ATOM     13  H   UNL     1       7.335  44.727  30.254  1.00  0.00     0.293 HD
ENDBRANCH   6  12
TORSDOF 3
ENDMDL
MODEL 9
REMARK VINA RESULT:    -3.529     14.096     14.761
REMARK INTER + INTRA:          -4.125
REMARK INTER:                  -4.043
REMARK INTRA:                  -0.082
REMARK UNBOUND:                -0.080
REMARK SMILES COc1cc(C(=O)[O-])ccc1O
REMARK SMILES IDX 5 1 9 2 4 3 10 4 3 5 11 6 6 7 7 8 8 9 2 10 1 11 12 12
REMARK H PARENT 12 13
REMARK Flexibility Score: inf
ROOT
ATOM      1  C   UNL     1       3.089  42.302  27.654  1.00  0.00     0.001 A 
ATOM      2  C   UNL     1       2.730  40.972  27.387  1.00  0.00     0.014 A 
ATOM      3  C   UNL     1       3.035  43.248  26.615  1.00  0.00     0.060 A 
ATOM      4  C   UNL     1       2.323  40.594  26.106  1.00  0.00     0.051 A 
ATOM      5  C   UNL     1       2.625  42.872  25.319  1.00  0.00     0.161 A 
ATOM      6  C   UNL     1       2.269  41.533  25.072  1.00  0.00     0.157 A 
ENDROOT
BRANCH   1   7
ATOM      7  C   UNL     1       3.519  42.698  29.014  1.00  0.00     0.072 C 
ATOM      8  O   UNL     1       2.739  43.330  29.775  1.00  0.00    -0.545 OA
ATOM      9  O   UNL     1       4.792  42.377  29.471  1.00  0.00    -0.545 OA
ENDBRANCH   1   7
BRANCH   5  10
ATOM     10  O   UNL     1       2.561  43.793  24.262  1.00  0.00    -0.493 OA
ATOM     11  C   UNL     1       1.413  44.568  23.932  1.00  0.00     0.278 C 
ENDBRANCH   5  10
BRANCH   6  12
ATOM     12  O   UNL     1       1.859  41.119  23.806  1.00  0.00    -0.504 OA
ATOM     13  H   UNL     1       2.517  40.875  23.077  1.00  0.00     0.293 HD
ENDBRANCH   6  12
TORSDOF 3
ENDMDL
