MODEL 1
REMARK VINA RESULT:    -5.801      0.000      0.000
REMARK INTER + INTRA:          -9.946
REMARK INTER:                  -8.006
REMARK INTRA:                  -1.940
REMARK UNBOUND:                -1.940
REMARK SMILES CC[C@@H](CC[C@@H](C)[C@@H]1CC[C@@H]2[C@H]3CC=C4C[C@@H](O)CC[C@@]4(C)[C@@H]3CC[C@@]21C)C(C)C
REMARK SMILES IDX 5 1 4 2 3 3 2 4 1 5 28 6 29 7 30 8 6 9 7 10 8 11 9 12 26 13
REMARK SMILES IDX 10 14 11 15 25 16 27 17 12 18 24 19 23 20 13 21 21 22 14 23
REMARK SMILES IDX 15 24 20 25 22 26 16 27 19 28 17 29 18 30
REMARK H PARENT 18 31
REMARK Flexibility Score: inf
ROOT
ATOM      1  C   UNL     1     176.635 170.924 186.973  1.00  0.00     0.004 C 
ENDROOT
BRANCH   1   2
ATOM      2  C   UNL     1     177.275 170.689 188.357  1.00  0.00     0.004 C 
BRANCH   2   3
ATOM      3  C   UNL     1     178.235 171.833 188.789  1.00  0.00    -0.009 C 
BRANCH   3   4
ATOM      4  C   UNL     1     177.785 173.248 188.327  1.00  0.00     0.000 C 
ATOM      5  C   UNL     1     178.397 174.416 189.099  1.00  0.00     0.004 C 
ENDBRANCH   3   4
BRANCH   3   6
ATOM      6  C   UNL     1     179.740 171.539 188.456  1.00  0.00    -0.014 C 
ATOM      7  C   UNL     1     180.124 170.103 188.851  1.00  0.00     0.007 C 
ATOM      8  C   UNL     1     180.125 171.781 186.983  1.00  0.00     0.007 C 
ENDBRANCH   3   6
ENDBRANCH   2   3
ENDBRANCH   1   2
BRANCH   1   9
ATOM      9  C   UNL     1     176.839 169.721 186.007  1.00  0.00    -0.011 C 
ATOM     10  C   UNL     1     177.604 170.183 184.752  1.00  0.00     0.008 C 
BRANCH   9  11
ATOM     11  C   UNL     1     177.463 168.503 186.779  1.00  0.00    -0.002 C 
ATOM     12  C   UNL     1     178.847 168.035 186.324  1.00  0.00     0.005 C 
ATOM     13  C   UNL     1     176.650 167.192 187.008  1.00  0.00    -0.026 C 
ATOM     14  C   UNL     1     179.033 166.652 186.962  1.00  0.00     0.005 C 
ATOM     15  C   UNL     1     177.725 166.326 187.717  1.00  0.00    -0.001 C 
ATOM     16  C   UNL     1     176.174 166.514 185.669  1.00  0.00     0.007 C 
ATOM     17  C   UNL     1     175.450 167.486 187.944  1.00  0.00     0.012 C 
ATOM     18  C   UNL     1     177.443 164.788 187.822  1.00  0.00     0.000 C 
ATOM     19  C   UNL     1     176.361 164.986 185.567  1.00  0.00     0.005 C 
ATOM     20  C   UNL     1     176.273 164.303 186.937  1.00  0.00     0.003 C 
ATOM     21  C   UNL     1     177.164 164.355 189.267  1.00  0.00     0.031 C 
ATOM     22  C   UNL     1     176.192 162.730 186.904  1.00  0.00    -0.008 C 
ATOM     23  C   UNL     1     176.825 162.890 189.361  1.00  0.00    -0.027 C 
ATOM     24  C   UNL     1     176.306 162.171 188.335  1.00  0.00    -0.065 C 
ATOM     25  C   UNL     1     174.808 162.304 186.312  1.00  0.00     0.014 C 
ATOM     26  C   UNL     1     177.326 162.116 186.039  1.00  0.00     0.016 C 
ATOM     27  C   UNL     1     175.924 160.724 188.580  1.00  0.00     0.063 C 
ATOM     28  C   UNL     1     174.466 160.819 186.527  1.00  0.00     0.033 C 
ATOM     29  C   UNL     1     174.534 160.428 188.011  1.00  0.00     0.118 C 
BRANCH  29  30
ATOM     30  O   UNL     1     173.565 161.127 188.750  1.00  0.00    -0.393 OA
ATOM     31  H   UNL     1     173.428 160.623 189.594  1.00  0.00     0.210 HD
ENDBRANCH  29  30
ENDBRANCH   9  11
ENDBRANCH   1   9
TORSDOF 7
ENDMDL
MODEL 2
REMARK VINA RESULT:    -5.754     13.956     17.563
REMARK INTER + INTRA:          -9.881
REMARK INTER:                  -8.088
REMARK INTRA:                  -1.793
REMARK UNBOUND:                -1.940
REMARK SMILES CC[C@@H](CC[C@@H](C)[C@@H]1CC[C@@H]2[C@H]3CC=C4C[C@@H](O)CC[C@@]4(C)[C@@H]3CC[C@@]21C)C(C)C
REMARK SMILES IDX 5 1 4 2 3 3 2 4 1 5 28 6 29 7 30 8 6 9 7 10 8 11 9 12 26 13
REMARK SMILES IDX 10 14 11 15 25 16 27 17 12 18 24 19 23 20 13 21 21 22 14 23
REMARK SMILES IDX 15 24 20 25 22 26 16 27 19 28 17 29 18 30
REMARK H PARENT 18 31
REMARK Flexibility Score: inf
ROOT
ATOM      1  C   UNL     1     163.412 163.610 186.499  1.00  0.00     0.004 C 
ENDROOT
BRANCH   1   2
ATOM      2  C   UNL     1     162.830 163.590 187.927  1.00  0.00     0.004 C 
BRANCH   2   3
ATOM      3  C   UNL     1     162.300 162.192 188.352  1.00  0.00    -0.009 C 
BRANCH   3   4
ATOM      4  C   UNL     1     163.050 161.001 187.692  1.00  0.00     0.000 C 
ATOM      5  C   UNL     1     164.008 160.240 188.607  1.00  0.00     0.004 C 
ENDBRANCH   3   4
BRANCH   3   6
ATOM      6  C   UNL     1     160.740 162.060 188.241  1.00  0.00    -0.014 C 
ATOM      7  C   UNL     1     160.033 163.211 188.976  1.00  0.00     0.007 C 
ATOM      8  C   UNL     1     160.209 161.977 186.797  1.00  0.00     0.007 C 
ENDBRANCH   3   6
ENDBRANCH   2   3
ENDBRANCH   1   2
BRANCH   1   9
ATOM      9  C   UNL     1     162.999 164.878 185.700  1.00  0.00    -0.011 C 
ATOM     10  C   UNL     1     162.432 164.469 184.326  1.00  0.00     0.008 C 
BRANCH   9  11
ATOM     11  C   UNL     1     162.071 165.795 186.576  1.00  0.00    -0.002 C 
ATOM     12  C   UNL     1     160.571 165.744 186.277  1.00  0.00     0.005 C 
ATOM     13  C   UNL     1     162.390 167.308 186.777  1.00  0.00    -0.026 C 
ATOM     14  C   UNL     1     159.979 166.970 186.984  1.00  0.00     0.005 C 
ATOM     15  C   UNL     1     161.160 167.736 187.621  1.00  0.00    -0.001 C 
ATOM     16  C   UNL     1     162.454 168.115 185.426  1.00  0.00     0.007 C 
ATOM     17  C   UNL     1     163.708 167.456 187.579  1.00  0.00     0.012 C 
ATOM     18  C   UNL     1     160.893 169.274 187.759  1.00  0.00     0.000 C 
ATOM     19  C   UNL     1     161.732 169.478 185.403  1.00  0.00     0.005 C 
ATOM     20  C   UNL     1     161.718 170.144 186.784  1.00  0.00     0.003 C 
ATOM     21  C   UNL     1     161.152 169.774 189.186  1.00  0.00     0.031 C 
ATOM     22  C   UNL     1     161.237 171.644 186.805  1.00  0.00    -0.008 C 
ATOM     23  C   UNL     1     160.962 171.264 189.304  1.00  0.00    -0.027 C 
ATOM     24  C   UNL     1     161.084 172.122 188.262  1.00  0.00    -0.065 C 
ATOM     25  C   UNL     1     162.312 172.533 186.099  1.00  0.00     0.014 C 
ATOM     26  C   UNL     1     159.875 171.819 186.080  1.00  0.00     0.016 C 
ATOM     27  C   UNL     1     160.957 173.610 188.526  1.00  0.00     0.063 C 
ATOM     28  C   UNL     1     162.131 174.043 186.338  1.00  0.00     0.033 C 
ATOM     29  C   UNL     1     162.086 174.381 187.836  1.00  0.00     0.118 C 
BRANCH  29  30
ATOM     30  O   UNL     1     163.311 174.068 188.449  1.00  0.00    -0.393 OA
ATOM     31  H   UNL     1     163.121 173.377 189.137  1.00  0.00     0.210 HD
ENDBRANCH  29  30
ENDBRANCH   9  11
ENDBRANCH   1   9
TORSDOF 7
ENDMDL
MODEL 3
REMARK VINA RESULT:    -5.740      2.053      4.013
REMARK INTER + INTRA:          -9.861
REMARK INTER:                  -8.110
REMARK INTRA:                  -1.751
REMARK UNBOUND:                -1.940
REMARK SMILES CC[C@@H](CC[C@@H](C)[C@@H]1CC[C@@H]2[C@H]3CC=C4C[C@@H](O)CC[C@@]4(C)[C@@H]3CC[C@@]21C)C(C)C
REMARK SMILES IDX 5 1 4 2 3 3 2 4 1 5 28 6 29 7 30 8 6 9 7 10 8 11 9 12 26 13
REMARK SMILES IDX 10 14 11 15 25 16 27 17 12 18 24 19 23 20 13 21 21 22 14 23
REMARK SMILES IDX 15 24 20 25 22 26 16 27 19 28 17 29 18 30
REMARK H PARENT 18 31
REMARK Flexibility Score: inf
ROOT
ATOM      1  C   UNL     1     179.057 173.619 188.137  1.00  0.00     0.004 C 
ENDROOT
BRANCH   1   2
ATOM      2  C   UNL     1     178.090 174.198 189.190  1.00  0.00     0.004 C 
BRANCH   2   3
ATOM      3  C   UNL     1     176.686 174.534 188.613  1.00  0.00    -0.009 C 
BRANCH   3   4
ATOM      4  C   UNL     1     176.403 176.057 188.478  1.00  0.00     0.000 C 
ATOM      5  C   UNL     1     175.956 176.521 187.092  1.00  0.00     0.004 C 
ENDBRANCH   3   4
BRANCH   3   6
ATOM      6  C   UNL     1     175.521 173.765 189.329  1.00  0.00    -0.014 C 
ATOM      7  C   UNL     1     174.540 173.168 188.305  1.00  0.00     0.007 C 
ATOM      8  C   UNL     1     175.987 172.655 190.291  1.00  0.00     0.007 C 
ENDBRANCH   3   6
ENDBRANCH   2   3
ENDBRANCH   1   2
BRANCH   1   9
ATOM      9  C   UNL     1     178.319 173.087 186.874  1.00  0.00    -0.011 C 
ATOM     10  C   UNL     1     178.459 174.101 185.722  1.00  0.00     0.008 C 
BRANCH   9  11
ATOM     11  C   UNL     1     178.780 171.620 186.553  1.00  0.00    -0.002 C 
ATOM     12  C   UNL     1     178.759 171.197 185.083  1.00  0.00     0.005 C 
ATOM     13  C   UNL     1     178.192 170.402 187.331  1.00  0.00    -0.026 C 
ATOM     14  C   UNL     1     178.877 169.667 185.103  1.00  0.00     0.005 C 
ATOM     15  C   UNL     1     178.899 169.238 186.588  1.00  0.00    -0.001 C 
ATOM     16  C   UNL     1     176.627 170.282 187.207  1.00  0.00     0.007 C 
ATOM     17  C   UNL     1     178.631 170.477 188.816  1.00  0.00     0.012 C 
ATOM     18  C   UNL     1     178.329 167.797 186.819  1.00  0.00     0.000 C 
ATOM     19  C   UNL     1     176.065 168.873 186.926  1.00  0.00     0.005 C 
ATOM     20  C   UNL     1     176.951 167.772 187.519  1.00  0.00     0.003 C 
ATOM     21  C   UNL     1     179.295 166.922 187.628  1.00  0.00     0.031 C 
ATOM     22  C   UNL     1     176.328 166.325 187.510  1.00  0.00    -0.008 C 
ATOM     23  C   UNL     1     178.720 165.559 187.911  1.00  0.00    -0.027 C 
ATOM     24  C   UNL     1     177.390 165.297 187.947  1.00  0.00    -0.065 C 
ATOM     25  C   UNL     1     175.140 166.276 188.525  1.00  0.00     0.014 C 
ATOM     26  C   UNL     1     175.810 165.934 186.099  1.00  0.00     0.016 C 
ATOM     27  C   UNL     1     176.933 163.902 188.330  1.00  0.00     0.063 C 
ATOM     28  C   UNL     1     174.659 164.852 188.857  1.00  0.00     0.033 C 
ATOM     29  C   UNL     1     175.807 163.967 189.366  1.00  0.00     0.118 C 
BRANCH  29  30
ATOM     30  O   UNL     1     176.312 164.465 190.579  1.00  0.00    -0.393 OA
ATOM     31  H   UNL     1     177.141 163.955 190.776  1.00  0.00     0.210 HD
ENDBRANCH  29  30
ENDBRANCH   9  11
ENDBRANCH   1   9
TORSDOF 7
ENDMDL
MODEL 4
REMARK VINA RESULT:    -5.624     12.743     15.648
REMARK INTER + INTRA:          -9.702
REMARK INTER:                  -8.344
REMARK INTRA:                  -1.357
REMARK UNBOUND:                -1.940
REMARK SMILES CC[C@@H](CC[C@@H](C)[C@@H]1CC[C@@H]2[C@H]3CC=C4C[C@@H](O)CC[C@@]4(C)[C@@H]3CC[C@@]21C)C(C)C
REMARK SMILES IDX 5 1 4 2 3 3 2 4 1 5 28 6 29 7 30 8 6 9 7 10 8 11 9 12 26 13
REMARK SMILES IDX 10 14 11 15 25 16 27 17 12 18 24 19 23 20 13 21 21 22 14 23
REMARK SMILES IDX 15 24 20 25 22 26 16 27 19 28 17 29 18 30
REMARK H PARENT 18 31
REMARK Flexibility Score: inf
ROOT
ATOM      1  C   UNL     1     170.151 178.282 188.278  1.00  0.00     0.004 C 
ENDROOT
BRANCH   1   2
ATOM      2  C   UNL     1     171.025 179.552 188.246  1.00  0.00     0.004 C 
BRANCH   2   3
ATOM      3  C   UNL     1     172.177 179.476 187.205  1.00  0.00    -0.009 C 
BRANCH   3   4
ATOM      4  C   UNL     1     171.716 179.075 185.775  1.00  0.00     0.000 C 
ATOM      5  C   UNL     1     170.791 180.073 185.081  1.00  0.00     0.004 C 
ENDBRANCH   3   4
BRANCH   3   6
ATOM      6  C   UNL     1     173.407 178.635 187.701  1.00  0.00    -0.014 C 
ATOM      7  C   UNL     1     173.581 177.360 186.859  1.00  0.00     0.007 C 
ATOM      8  C   UNL     1     174.738 179.410 187.731  1.00  0.00     0.007 C 
ENDBRANCH   3   6
ENDBRANCH   2   3
ENDBRANCH   1   2
BRANCH   1   9
ATOM      9  C   UNL     1     168.637 178.599 188.440  1.00  0.00    -0.011 C 
ATOM     10  C   UNL     1     168.426 180.125 188.497  1.00  0.00     0.008 C 
BRANCH   9  11
ATOM     11  C   UNL     1     167.802 177.834 187.350  1.00  0.00    -0.002 C 
ATOM     12  C   UNL     1     167.466 178.605 186.072  1.00  0.00     0.005 C 
ATOM     13  C   UNL     1     166.488 177.081 187.724  1.00  0.00    -0.026 C 
ATOM     14  C   UNL     1     166.364 177.785 185.387  1.00  0.00     0.005 C 
ATOM     15  C   UNL     1     166.044 176.594 186.319  1.00  0.00    -0.001 C 
ATOM     16  C   UNL     1     165.397 178.017 188.367  1.00  0.00     0.007 C 
ATOM     17  C   UNL     1     166.823 175.890 188.658  1.00  0.00     0.012 C 
ATOM     18  C   UNL     1     164.571 176.082 186.177  1.00  0.00     0.000 C 
ATOM     19  C   UNL     1     163.954 177.849 187.847  1.00  0.00     0.005 C 
ATOM     20  C   UNL     1     163.671 176.414 187.388  1.00  0.00     0.003 C 
ATOM     21  C   UNL     1     164.513 174.567 185.937  1.00  0.00     0.031 C 
ATOM     22  C   UNL     1     162.159 176.086 187.088  1.00  0.00    -0.008 C 
ATOM     23  C   UNL     1     163.095 174.061 185.869  1.00  0.00    -0.027 C 
ATOM     24  C   UNL     1     162.045 174.686 186.455  1.00  0.00    -0.065 C 
ATOM     25  C   UNL     1     161.361 176.091 188.433  1.00  0.00     0.014 C 
ATOM     26  C   UNL     1     161.530 177.123 186.119  1.00  0.00     0.016 C 
ATOM     27  C   UNL     1     160.679 174.030 186.390  1.00  0.00     0.063 C 
ATOM     28  C   UNL     1     159.957 175.468 188.330  1.00  0.00     0.033 C 
ATOM     29  C   UNL     1     160.008 174.040 187.766  1.00  0.00     0.118 C 
BRANCH  29  30
ATOM     30  O   UNL     1     160.712 173.191 188.638  1.00  0.00    -0.393 OA
ATOM     31  H   UNL     1     161.046 172.431 188.093  1.00  0.00     0.210 HD
ENDBRANCH  29  30
ENDBRANCH   9  11
ENDBRANCH   1   9
TORSDOF 7
ENDMDL
MODEL 5
REMARK VINA RESULT:    -5.574      3.111      9.125
REMARK INTER + INTRA:          -9.632
REMARK INTER:                  -8.125
REMARK INTRA:                  -1.507
REMARK UNBOUND:                -1.940
REMARK SMILES CC[C@@H](CC[C@@H](C)[C@@H]1CC[C@@H]2[C@H]3CC=C4C[C@@H](O)CC[C@@]4(C)[C@@H]3CC[C@@]21C)C(C)C
REMARK SMILES IDX 5 1 4 2 3 3 2 4 1 5 28 6 29 7 30 8 6 9 7 10 8 11 9 12 26 13
REMARK SMILES IDX 10 14 11 15 25 16 27 17 12 18 24 19 23 20 13 21 21 22 14 23
REMARK SMILES IDX 15 24 20 25 22 26 16 27 19 28 17 29 18 30
REMARK H PARENT 18 31
REMARK Flexibility Score: inf
ROOT
ATOM      1  C   UNL     1     177.938 165.276 186.581  1.00  0.00     0.004 C 
ENDROOT
BRANCH   1   2
ATOM      2  C   UNL     1     176.637 164.766 187.232  1.00  0.00     0.004 C 
BRANCH   2   3
ATOM      3  C   UNL     1     176.616 164.942 188.777  1.00  0.00    -0.009 C 
BRANCH   3   4
ATOM      4  C   UNL     1     177.126 163.703 189.564  1.00  0.00     0.000 C 
ATOM      5  C   UNL     1     176.831 162.349 188.919  1.00  0.00     0.004 C 
ENDBRANCH   3   4
BRANCH   3   6
ATOM      6  C   UNL     1     175.245 165.481 189.321  1.00  0.00    -0.014 C 
ATOM      7  C   UNL     1     174.098 165.160 188.348  1.00  0.00     0.007 C 
ATOM      8  C   UNL     1     174.875 164.973 190.728  1.00  0.00     0.007 C 
ENDBRANCH   3   6
ENDBRANCH   2   3
ENDBRANCH   1   2
BRANCH   1   9
ATOM      9  C   UNL     1     178.589 166.444 187.375  1.00  0.00    -0.011 C 
ATOM     10  C   UNL     1     179.943 165.991 187.957  1.00  0.00     0.008 C 
BRANCH   9  11
ATOM     11  C   UNL     1     178.624 167.746 186.497  1.00  0.00    -0.002 C 
ATOM     12  C   UNL     1     179.994 168.196 185.984  1.00  0.00     0.005 C 
ATOM     13  C   UNL     1     177.921 169.056 186.969  1.00  0.00    -0.026 C 
ATOM     14  C   UNL     1     179.790 169.640 185.507  1.00  0.00     0.005 C 
ATOM     15  C   UNL     1     178.322 170.012 185.814  1.00  0.00    -0.001 C 
ATOM     16  C   UNL     1     178.459 169.587 188.351  1.00  0.00     0.007 C 
ATOM     17  C   UNL     1     176.388 168.832 187.015  1.00  0.00     0.012 C 
ATOM     18  C   UNL     1     178.115 171.546 186.056  1.00  0.00     0.000 C 
ATOM     19  C   UNL     1     178.741 171.100 188.444  1.00  0.00     0.005 C 
ATOM     20  C   UNL     1     177.821 171.915 187.528  1.00  0.00     0.003 C 
ATOM     21  C   UNL     1     176.988 172.115 185.184  1.00  0.00     0.031 C 
ATOM     22  C   UNL     1     177.858 173.475 187.747  1.00  0.00    -0.008 C 
ATOM     23  C   UNL     1     176.741 173.575 185.466  1.00  0.00    -0.027 C 
ATOM     24  C   UNL     1     177.045 174.176 186.642  1.00  0.00    -0.065 C 
ATOM     25  C   UNL     1     177.209 173.809 189.130  1.00  0.00     0.014 C 
ATOM     26  C   UNL     1     179.311 174.023 187.720  1.00  0.00     0.016 C 
ATOM     27  C   UNL     1     176.667 175.632 186.835  1.00  0.00     0.063 C 
ATOM     28  C   UNL     1     176.883 175.301 189.324  1.00  0.00     0.033 C 
ATOM     29  C   UNL     1     175.993 175.840 188.194  1.00  0.00     0.118 C 
BRANCH  29  30
ATOM     30  O   UNL     1     174.743 175.198 188.201  1.00  0.00    -0.393 OA
ATOM     31  H   UNL     1     174.654 174.729 187.330  1.00  0.00     0.210 HD
ENDBRANCH  29  30
ENDBRANCH   9  11
ENDBRANCH   1   9
TORSDOF 7
ENDMDL
MODEL 6
REMARK VINA RESULT:    -5.552      7.096     11.074
REMARK INTER + INTRA:          -9.602
REMARK INTER:                  -8.092
REMARK INTRA:                  -1.510
REMARK UNBOUND:                -1.940
REMARK SMILES CC[C@@H](CC[C@@H](C)[C@@H]1CC[C@@H]2[C@H]3CC=C4C[C@@H](O)CC[C@@]4(C)[C@@H]3CC[C@@]21C)C(C)C
REMARK SMILES IDX 5 1 4 2 3 3 2 4 1 5 28 6 29 7 30 8 6 9 7 10 8 11 9 12 26 13
REMARK SMILES IDX 10 14 11 15 25 16 27 17 12 18 24 19 23 20 13 21 21 22 14 23
REMARK SMILES IDX 15 24 20 25 22 26 16 27 19 28 17 29 18 30
REMARK H PARENT 18 31
REMARK Flexibility Score: inf
ROOT
ATOM      1  C   UNL     1     170.326 176.556 186.989  1.00  0.00     0.004 C 
ENDROOT
BRANCH   1   2
ATOM      2  C   UNL     1     170.411 177.459 188.237  1.00  0.00     0.004 C 
BRANCH   2   3
ATOM      3  C   UNL     1     169.313 178.559 188.272  1.00  0.00    -0.009 C 
BRANCH   3   4
ATOM      4  C   UNL     1     169.864 180.000 188.473  1.00  0.00     0.000 C 
ATOM      5  C   UNL     1     171.387 180.123 188.496  1.00  0.00     0.004 C 
ENDBRANCH   3   4
BRANCH   3   6
ATOM      6  C   UNL     1     168.130 178.224 189.247  1.00  0.00    -0.014 C 
ATOM      7  C   UNL     1     166.782 178.234 188.506  1.00  0.00     0.007 C 
ATOM      8  C   UNL     1     168.285 176.888 190.000  1.00  0.00     0.007 C 
ENDBRANCH   3   6
ENDBRANCH   2   3
ENDBRANCH   1   2
BRANCH   1   9
ATOM      9  C   UNL     1     171.510 176.779 186.005  1.00  0.00    -0.011 C 
ATOM     10  C   UNL     1     171.157 177.901 185.009  1.00  0.00     0.008 C 
BRANCH   9  11
ATOM     11  C   UNL     1     172.851 176.969 186.802  1.00  0.00    -0.002 C 
ATOM     12  C   UNL     1     173.719 178.169 186.416  1.00  0.00     0.005 C 
ATOM     13  C   UNL     1     173.854 175.789 186.984  1.00  0.00    -0.026 C 
ATOM     14  C   UNL     1     175.086 177.899 187.055  1.00  0.00     0.005 C 
ATOM     15  C   UNL     1     174.996 176.517 187.743  1.00  0.00    -0.001 C 
ATOM     16  C   UNL     1     174.373 175.197 185.620  1.00  0.00     0.007 C 
ATOM     17  C   UNL     1     173.203 174.688 187.860  1.00  0.00     0.012 C 
ATOM     18  C   UNL     1     176.376 175.781 187.826  1.00  0.00     0.000 C 
ATOM     19  C   UNL     1     175.887 174.921 185.521  1.00  0.00     0.005 C 
ATOM     20  C   UNL     1     176.497 174.564 186.881  1.00  0.00     0.003 C 
ATOM     21  C   UNL     1     176.690 175.314 189.254  1.00  0.00     0.031 C 
ATOM     22  C   UNL     1     177.973 174.015 186.837  1.00  0.00    -0.008 C 
ATOM     23  C   UNL     1     177.984 174.545 189.324  1.00  0.00    -0.027 C 
ATOM     24  C   UNL     1     178.525 173.886 188.270  1.00  0.00    -0.065 C 
ATOM     25  C   UNL     1     177.970 172.599 186.175  1.00  0.00     0.014 C 
ATOM     26  C   UNL     1     178.909 174.954 186.027  1.00  0.00     0.016 C 
ATOM     27  C   UNL     1     179.787 173.074 188.489  1.00  0.00     0.063 C 
ATOM     28  C   UNL     1     179.281 171.815 186.365  1.00  0.00     0.033 C 
ATOM     29  C   UNL     1     179.658 171.689 187.849  1.00  0.00     0.118 C 
BRANCH  29  30
ATOM     30  O   UNL     1     178.691 170.940 188.541  1.00  0.00    -0.393 OA
ATOM     31  H   UNL     1     178.938 169.984 188.436  1.00  0.00     0.210 HD
ENDBRANCH  29  30
ENDBRANCH   9  11
ENDBRANCH   1   9
TORSDOF 7
ENDMDL
MODEL 7
REMARK VINA RESULT:    -5.515      6.884     10.623
REMARK INTER + INTRA:          -9.551
REMARK INTER:                  -7.863
REMARK INTRA:                  -1.688
REMARK UNBOUND:                -1.940
REMARK SMILES CC[C@@H](CC[C@@H](C)[C@@H]1CC[C@@H]2[C@H]3CC=C4C[C@@H](O)CC[C@@]4(C)[C@@H]3CC[C@@]21C)C(C)C
REMARK SMILES IDX 5 1 4 2 3 3 2 4 1 5 28 6 29 7 30 8 6 9 7 10 8 11 9 12 26 13
REMARK SMILES IDX 10 14 11 15 25 16 27 17 12 18 24 19 23 20 13 21 21 22 14 23
REMARK SMILES IDX 15 24 20 25 22 26 16 27 19 28 17 29 18 30
REMARK H PARENT 18 31
REMARK Flexibility Score: inf
ROOT
ATOM      1  C   UNL     1     173.110 163.494 187.186  1.00  0.00     0.004 C 
ENDROOT
BRANCH   1   2
ATOM      2  C   UNL     1     174.424 162.719 186.961  1.00  0.00     0.004 C 
BRANCH   2   3
ATOM      3  C   UNL     1     174.920 161.973 188.232  1.00  0.00    -0.009 C 
BRANCH   3   4
ATOM      4  C   UNL     1     176.317 162.435 188.735  1.00  0.00     0.000 C 
ATOM      5  C   UNL     1     176.358 163.823 189.374  1.00  0.00     0.004 C 
ENDBRANCH   3   4
BRANCH   3   6
ATOM      6  C   UNL     1     174.806 160.412 188.118  1.00  0.00    -0.014 C 
ATOM      7  C   UNL     1     173.547 159.896 188.836  1.00  0.00     0.007 C 
ATOM      8  C   UNL     1     174.822 159.875 186.674  1.00  0.00     0.007 C 
ENDBRANCH   3   6
ENDBRANCH   2   3
ENDBRANCH   1   2
BRANCH   1   9
ATOM      9  C   UNL     1     171.977 163.047 186.218  1.00  0.00    -0.011 C 
ATOM     10  C   UNL     1     172.584 162.604 184.872  1.00  0.00     0.008 C 
BRANCH   9  11
ATOM     11  C   UNL     1     171.041 162.001 186.923  1.00  0.00    -0.002 C 
ATOM     12  C   UNL     1     171.099 160.563 186.402  1.00  0.00     0.005 C 
ATOM     13  C   UNL     1     169.523 162.291 187.135  1.00  0.00    -0.026 C 
ATOM     14  C   UNL     1     169.857 159.875 186.983  1.00  0.00     0.005 C 
ATOM     15  C   UNL     1     169.076 160.950 187.773  1.00  0.00    -0.001 C 
ATOM     16  C   UNL     1     168.748 162.561 185.791  1.00  0.00     0.007 C 
ATOM     17  C   UNL     1     169.357 163.474 188.123  1.00  0.00     0.012 C 
ATOM     18  C   UNL     1     167.536 160.670 187.834  1.00  0.00     0.000 C 
ATOM     19  C   UNL     1     167.386 161.855 185.628  1.00  0.00     0.005 C 
ATOM     20  C   UNL     1     166.688 161.635 186.975  1.00  0.00     0.003 C 
ATOM     21  C   UNL     1     167.003 160.712 189.272  1.00  0.00     0.031 C 
ATOM     22  C   UNL     1     165.188 161.161 186.889  1.00  0.00    -0.008 C 
ATOM     23  C   UNL     1     165.510 160.512 189.326  1.00  0.00    -0.027 C 
ATOM     24  C   UNL     1     164.676 160.792 188.295  1.00  0.00    -0.065 C 
ATOM     25  C   UNL     1     164.315 162.334 186.333  1.00  0.00     0.014 C 
ATOM     26  C   UNL     1     165.030 159.925 185.963  1.00  0.00     0.016 C 
ATOM     27  C   UNL     1     163.183 160.631 188.502  1.00  0.00     0.063 C 
ATOM     28  C   UNL     1     162.800 162.123 186.507  1.00  0.00     0.033 C 
ATOM     29  C   UNL     1     162.428 161.854 187.973  1.00  0.00     0.118 C 
BRANCH  29  30
ATOM     30  O   UNL     1     162.727 162.972 188.771  1.00  0.00    -0.393 OA
ATOM     31  H   UNL     1     163.615 162.803 189.182  1.00  0.00     0.210 HD
ENDBRANCH  29  30
ENDBRANCH   9  11
ENDBRANCH   1   9
TORSDOF 7
ENDMDL
MODEL 8
REMARK VINA RESULT:    -5.515     11.923     14.935
REMARK INTER + INTRA:          -9.551
REMARK INTER:                  -7.817
REMARK INTRA:                  -1.734
REMARK UNBOUND:                -1.940
REMARK SMILES CC[C@@H](CC[C@@H](C)[C@@H]1CC[C@@H]2[C@H]3CC=C4C[C@@H](O)CC[C@@]4(C)[C@@H]3CC[C@@]21C)C(C)C
REMARK SMILES IDX 5 1 4 2 3 3 2 4 1 5 28 6 29 7 30 8 6 9 7 10 8 11 9 12 26 13
REMARK SMILES IDX 10 14 11 15 25 16 27 17 12 18 24 19 23 20 13 21 21 22 14 23
REMARK SMILES IDX 15 24 20 25 22 26 16 27 19 28 17 29 18 30
REMARK H PARENT 18 31
REMARK Flexibility Score: inf
ROOT
ATOM      1  C   UNL     1     171.444 176.329 186.435  1.00  0.00     0.004 C 
ENDROOT
BRANCH   1   2
ATOM      2  C   UNL     1     172.247 176.731 187.689  1.00  0.00     0.004 C 
BRANCH   2   3
ATOM      3  C   UNL     1     172.076 178.228 188.071  1.00  0.00    -0.009 C 
BRANCH   3   4
ATOM      4  C   UNL     1     170.809 178.897 187.467  1.00  0.00     0.000 C 
ATOM      5  C   UNL     1     169.755 179.340 188.480  1.00  0.00     0.004 C 
ENDBRANCH   3   4
BRANCH   3   6
ATOM      6  C   UNL     1     173.375 179.079 187.842  1.00  0.00    -0.014 C 
ATOM      7  C   UNL     1     173.556 180.124 188.957  1.00  0.00     0.007 C 
ATOM      8  C   UNL     1     174.666 178.248 187.712  1.00  0.00     0.007 C 
ENDBRANCH   3   6
ENDBRANCH   2   3
ENDBRANCH   1   2
BRANCH   1   9
ATOM      9  C   UNL     1     170.378 175.236 186.731  1.00  0.00    -0.011 C 
ATOM     10  C   UNL     1     171.051 174.013 187.385  1.00  0.00     0.008 C 
BRANCH   9  11
ATOM     11  C   UNL     1     169.169 175.855 187.522  1.00  0.00    -0.002 C 
ATOM     12  C   UNL     1     168.874 175.266 188.903  1.00  0.00     0.005 C 
ATOM     13  C   UNL     1     167.772 176.029 186.851  1.00  0.00    -0.026 C 
ATOM     14  C   UNL     1     167.470 175.768 189.263  1.00  0.00     0.005 C 
ATOM     15  C   UNL     1     166.961 176.584 188.052  1.00  0.00    -0.001 C 
ATOM     16  C   UNL     1     167.157 174.674 186.335  1.00  0.00     0.007 C 
ATOM     17  C   UNL     1     167.874 177.068 185.706  1.00  0.00     0.012 C 
ATOM     18  C   UNL     1     165.400 176.577 187.920  1.00  0.00     0.000 C 
ATOM     19  C   UNL     1     165.667 174.429 186.652  1.00  0.00     0.005 C 
ATOM     20  C   UNL     1     164.874 175.738 186.734  1.00  0.00     0.003 C 
ATOM     21  C   UNL     1     164.830 177.996 187.796  1.00  0.00     0.031 C 
ATOM     22  C   UNL     1     163.308 175.577 186.793  1.00  0.00    -0.008 C 
ATOM     23  C   UNL     1     163.336 177.988 187.599  1.00  0.00    -0.027 C 
ATOM     24  C   UNL     1     162.653 176.944 187.069  1.00  0.00    -0.065 C 
ATOM     25  C   UNL     1     162.798 175.051 185.412  1.00  0.00     0.014 C 
ATOM     26  C   UNL     1     162.877 174.585 187.907  1.00  0.00     0.016 C 
ATOM     27  C   UNL     1     161.161 177.092 186.840  1.00  0.00     0.063 C 
ATOM     28  C   UNL     1     161.274 175.162 185.224  1.00  0.00     0.033 C 
ATOM     29  C   UNL     1     160.777 176.599 185.443  1.00  0.00     0.118 C 
BRANCH  29  30
ATOM     30  O   UNL     1     161.320 177.461 184.475  1.00  0.00    -0.393 OA
ATOM     31  H   UNL     1     161.054 178.383 184.729  1.00  0.00     0.210 HD
ENDBRANCH  29  30
ENDBRANCH   9  11
ENDBRANCH   1   9
TORSDOF 7
ENDMDL
