MODEL 1
REMARK VINA RESULT:    -3.339      0.000      0.000
REMARK INTER + INTRA:          -5.588
REMARK INTER:                  -4.608
REMARK INTRA:                  -0.981
REMARK UNBOUND:                -0.981
REMARK SMILES CCCCc1cccc(O)c1CCCC
REMARK SMILES IDX 5 1 11 2 9 3 8 4 7 5 6 6 4 7 3 8 2 9 1 10 12 11 13 12 14 13
REMARK SMILES IDX 15 14 10 15
REMARK H PARENT 10 16
REMARK Flexibility Score: inf
ROOT
ATOM      1  C   UNL     1      10.397   6.913  -1.348  1.00  0.00    -0.041 A 
ATOM      2  C   UNL     1      11.477   7.499  -2.074  1.00  0.00    -0.003 A 
ATOM      3  C   UNL     1      12.695   6.786  -2.184  1.00  0.00     0.119 A 
ATOM      4  C   UNL     1      12.830   5.522  -1.599  1.00  0.00     0.046 A 
ATOM      5  C   UNL     1      11.769   4.949  -0.908  1.00  0.00     0.004 A 
ATOM      6  C   UNL     1      10.564   5.636  -0.784  1.00  0.00     0.004 A 
ENDROOT
BRANCH   1   7
ATOM      7  C   UNL     1       9.061   7.604  -1.126  1.00  0.00     0.036 C 
BRANCH   7   8
ATOM      8  C   UNL     1       7.978   7.108  -2.102  1.00  0.00     0.004 C 
BRANCH   8   9
ATOM      9  C   UNL     1       7.177   8.242  -2.763  1.00  0.00    -0.003 C 
ATOM     10  C   UNL     1       7.370   9.582  -2.053  1.00  0.00     0.004 C 
ENDBRANCH   8   9
ENDBRANCH   7   8
ENDBRANCH   1   7
BRANCH   2  11
ATOM     11  C   UNL     1      11.346   8.842  -2.769  1.00  0.00     0.040 C 
BRANCH  11  12
ATOM     12  C   UNL     1      11.803  10.013  -1.877  1.00  0.00     0.005 C 
BRANCH  12  13
ATOM     13  C   UNL     1      10.686  11.010  -1.525  1.00  0.00    -0.003 C 
ATOM     14  C   UNL     1      11.139  12.081  -0.533  1.00  0.00     0.004 C 
ENDBRANCH  12  13
ENDBRANCH  11  12
ENDBRANCH   2  11
BRANCH   3  15
ATOM     15  O   UNL     1      13.774   7.336  -2.877  1.00  0.00    -0.508 OA
ATOM     16  H   UNL     1      14.115   6.930  -3.741  1.00  0.00     0.293 HD
ENDBRANCH   3  15
TORSDOF 7
ENDMDL
MODEL 2
REMARK VINA RESULT:    -3.254      1.809      4.763
REMARK INTER + INTRA:          -5.472
REMARK INTER:                  -4.675
REMARK INTRA:                  -0.797
REMARK UNBOUND:                -0.981
REMARK SMILES CCCCc1cccc(O)c1CCCC
REMARK SMILES IDX 5 1 11 2 9 3 8 4 7 5 6 6 4 7 3 8 2 9 1 10 12 11 13 12 14 13
REMARK SMILES IDX 15 14 10 15
REMARK H PARENT 10 16
REMARK Flexibility Score: inf
ROOT
ATOM      1  C   UNL     1      12.095  10.193  -2.044  1.00  0.00    -0.041 A 
ATOM      2  C   UNL     1      12.168   8.808  -2.379  1.00  0.00    -0.003 A 
ATOM      3  C   UNL     1      13.412   8.264  -2.781  1.00  0.00     0.119 A 
ATOM      4  C   UNL     1      14.552   9.073  -2.835  1.00  0.00     0.046 A 
ATOM      5  C   UNL     1      14.480  10.417  -2.491  1.00  0.00     0.004 A 
ATOM      6  C   UNL     1      13.265  10.973  -2.099  1.00  0.00     0.004 A 
ENDROOT
BRANCH   1   7
ATOM      7  C   UNL     1      10.807  10.895  -1.645  1.00  0.00     0.036 C 
BRANCH   7   8
ATOM      8  C   UNL     1      11.032  11.939  -0.536  1.00  0.00     0.004 C 
BRANCH   8   9
ATOM      9  C   UNL     1      10.692  13.377  -0.964  1.00  0.00    -0.003 C 
ATOM     10  C   UNL     1      11.926  14.281  -0.998  1.00  0.00     0.004 C 
ENDBRANCH   8   9
ENDBRANCH   7   8
ENDBRANCH   1   7
BRANCH   2  11
ATOM     11  C   UNL     1      10.963   7.890  -2.275  1.00  0.00     0.040 C 
BRANCH  11  12
ATOM     12  C   UNL     1      10.855   7.217  -0.894  1.00  0.00     0.005 C 
BRANCH  12  13
ATOM     13  C   UNL     1      10.738   5.684  -0.948  1.00  0.00    -0.003 C 
ATOM     14  C   UNL     1      12.030   4.977  -0.539  1.00  0.00     0.004 C 
ENDBRANCH  12  13
ENDBRANCH  11  12
ENDBRANCH   2  11
BRANCH   3  15
ATOM     15  O   UNL     1      13.514   6.916  -3.125  1.00  0.00    -0.508 OA
ATOM     16  H   UNL     1      14.261   6.572  -3.717  1.00  0.00     0.293 HD
ENDBRANCH   3  15
TORSDOF 7
ENDMDL
MODEL 3
REMARK VINA RESULT:    -3.230      5.652      8.697
REMARK INTER + INTRA:          -5.438
REMARK INTER:                  -4.458
REMARK INTRA:                  -0.980
REMARK UNBOUND:                -0.981
REMARK SMILES CCCCc1cccc(O)c1CCCC
REMARK SMILES IDX 5 1 11 2 9 3 8 4 7 5 6 6 4 7 3 8 2 9 1 10 12 11 13 12 14 13
REMARK SMILES IDX 15 14 10 15
REMARK H PARENT 10 16
REMARK Flexibility Score: inf
ROOT
ATOM      1  C   UNL     1      13.521  15.668  -0.748  1.00  0.00    -0.041 A 
ATOM      2  C   UNL     1      14.453  15.766  -1.824  1.00  0.00    -0.003 A 
ATOM      3  C   UNL     1      15.331  16.875  -1.872  1.00  0.00     0.119 A 
ATOM      4  C   UNL     1      15.290  17.852  -0.871  1.00  0.00     0.046 A 
ATOM      5  C   UNL     1      14.392  17.743   0.184  1.00  0.00     0.004 A 
ATOM      6  C   UNL     1      13.516  16.663   0.246  1.00  0.00     0.004 A 
ENDROOT
BRANCH   1   7
ATOM      7  C   UNL     1      12.501  14.548  -0.619  1.00  0.00     0.036 C 
BRANCH   7   8
ATOM      8  C   UNL     1      11.191  14.862  -1.365  1.00  0.00     0.004 C 
BRANCH   8   9
ATOM      9  C   UNL     1      10.110  13.782  -1.193  1.00  0.00    -0.003 C 
ATOM     10  C   UNL     1      10.673  12.479  -0.624  1.00  0.00     0.004 C 
ENDBRANCH   8   9
ENDBRANCH   7   8
ENDBRANCH   1   7
BRANCH   2  11
ATOM     11  C   UNL     1      14.563  14.694  -2.894  1.00  0.00     0.040 C 
BRANCH  11  12
ATOM     12  C   UNL     1      15.510  13.550  -2.484  1.00  0.00     0.005 C 
BRANCH  12  13
ATOM     13  C   UNL     1      15.089  12.166  -3.008  1.00  0.00    -0.003 C 
ATOM     14  C   UNL     1      13.574  11.960  -2.981  1.00  0.00     0.004 C 
ENDBRANCH  12  13
ENDBRANCH  11  12
ENDBRANCH   2  11
BRANCH   3  15
ATOM     15  O   UNL     1      16.247  17.006  -2.916  1.00  0.00    -0.508 OA
ATOM     16  H   UNL     1      16.046  17.568  -3.734  1.00  0.00     0.293 HD
ENDBRANCH   3  15
TORSDOF 7
ENDMDL
MODEL 4
REMARK VINA RESULT:    -3.220      5.728      8.385
REMARK INTER + INTRA:          -5.424
REMARK INTER:                  -4.342
REMARK INTRA:                  -1.083
REMARK UNBOUND:                -0.981
REMARK SMILES CCCCc1cccc(O)c1CCCC
REMARK SMILES IDX 5 1 11 2 9 3 8 4 7 5 6 6 4 7 3 8 2 9 1 10 12 11 13 12 14 13
REMARK SMILES IDX 15 14 10 15
REMARK H PARENT 10 16
REMARK Flexibility Score: inf
ROOT
ATOM      1  C   UNL     1      11.512  14.676  -1.383  1.00  0.00    -0.041 A 
ATOM      2  C   UNL     1      10.221  15.211  -1.094  1.00  0.00    -0.003 A 
ATOM      3  C   UNL     1       9.192  14.334  -0.677  1.00  0.00     0.119 A 
ATOM      4  C   UNL     1       9.444  12.964  -0.539  1.00  0.00     0.046 A 
ATOM      5  C   UNL     1      10.707  12.450  -0.806  1.00  0.00     0.004 A 
ATOM      6  C   UNL     1      11.731  13.296  -1.223  1.00  0.00     0.004 A 
ENDROOT
BRANCH   1   7
ATOM      7  C   UNL     1      12.678  15.514  -1.882  1.00  0.00     0.036 C 
BRANCH   7   8
ATOM      8  C   UNL     1      14.008  15.118  -1.216  1.00  0.00     0.004 C 
BRANCH   8   9
ATOM      9  C   UNL     1      15.142  14.843  -2.218  1.00  0.00    -0.003 C 
ATOM     10  C   UNL     1      15.206  13.372  -2.634  1.00  0.00     0.004 C 
ENDBRANCH   8   9
ENDBRANCH   7   8
ENDBRANCH   1   7
BRANCH   2  11
ATOM     11  C   UNL     1       9.930  16.699  -1.178  1.00  0.00     0.040 C 
BRANCH  11  12
ATOM     12  C   UNL     1      10.123  17.412   0.175  1.00  0.00     0.005 C 
BRANCH  12  13
ATOM     13  C   UNL     1      11.478  18.125   0.323  1.00  0.00    -0.003 C 
ATOM     14  C   UNL     1      12.400  17.439   1.332  1.00  0.00     0.004 C 
ENDBRANCH  12  13
ENDBRANCH  11  12
ENDBRANCH   2  11
BRANCH   3  15
ATOM     15  O   UNL     1       7.916  14.825  -0.397  1.00  0.00    -0.508 OA
ATOM     16  H   UNL     1       7.710  15.311   0.468  1.00  0.00     0.293 HD
ENDBRANCH   3  15
TORSDOF 7
ENDMDL
MODEL 5
REMARK VINA RESULT:    -3.208      3.690      5.902
REMARK INTER + INTRA:          -5.408
REMARK INTER:                  -4.274
REMARK INTRA:                  -1.134
REMARK UNBOUND:                -0.981
REMARK SMILES CCCCc1cccc(O)c1CCCC
REMARK SMILES IDX 5 1 11 2 9 3 8 4 7 5 6 6 4 7 3 8 2 9 1 10 12 11 13 12 14 13
REMARK SMILES IDX 15 14 10 15
REMARK H PARENT 10 16
REMARK Flexibility Score: inf
ROOT
ATOM      1  C   UNL     1      13.812  11.867  -2.756  1.00  0.00    -0.041 A 
ATOM      2  C   UNL     1      12.778  10.923  -2.481  1.00  0.00    -0.003 A 
ATOM      3  C   UNL     1      13.110   9.551  -2.385  1.00  0.00     0.119 A 
ATOM      4  C   UNL     1      14.435   9.131  -2.545  1.00  0.00     0.046 A 
ATOM      5  C   UNL     1      15.442  10.056  -2.796  1.00  0.00     0.004 A 
ATOM      6  C   UNL     1      15.135  11.410  -2.900  1.00  0.00     0.004 A 
ENDROOT
BRANCH   1   7
ATOM      7  C   UNL     1      13.566  13.357  -2.927  1.00  0.00     0.036 C 
BRANCH   7   8
ATOM      8  C   UNL     1      14.754  14.205  -2.435  1.00  0.00     0.004 C 
BRANCH   8   9
ATOM      9  C   UNL     1      14.392  15.173  -1.296  1.00  0.00    -0.003 C 
ATOM     10  C   UNL     1      12.922  15.064  -0.885  1.00  0.00     0.004 C 
ENDBRANCH   8   9
ENDBRANCH   7   8
ENDBRANCH   1   7
BRANCH   2  11
ATOM     11  C   UNL     1      11.340  11.350  -2.245  1.00  0.00     0.040 C 
BRANCH  11  12
ATOM     12  C   UNL     1      11.073  11.727  -0.774  1.00  0.00     0.005 C 
BRANCH  12  13
ATOM     13  C   UNL     1      10.025  12.837  -0.589  1.00  0.00    -0.003 C 
ATOM     14  C   UNL     1       9.637  13.510  -1.906  1.00  0.00     0.004 C 
ENDBRANCH  12  13
ENDBRANCH  11  12
ENDBRANCH   2  11
BRANCH   3  15
ATOM     15  O   UNL     1      12.120   8.601  -2.127  1.00  0.00    -0.508 OA
ATOM     16  H   UNL     1      12.322   7.741  -1.631  1.00  0.00     0.293 HD
ENDBRANCH   3  15
TORSDOF 7
ENDMDL
MODEL 6
REMARK VINA RESULT:    -3.188      6.221      9.120
REMARK INTER + INTRA:          -5.379
REMARK INTER:                  -3.910
REMARK INTRA:                  -1.469
REMARK UNBOUND:                -0.981
REMARK SMILES CCCCc1cccc(O)c1CCCC
REMARK SMILES IDX 5 1 11 2 9 3 8 4 7 5 6 6 4 7 3 8 2 9 1 10 12 11 13 12 14 13
REMARK SMILES IDX 15 14 10 15
REMARK H PARENT 10 16
REMARK Flexibility Score: inf
ROOT
ATOM      1  C   UNL     1      12.549  16.186  -0.942  1.00  0.00    -0.041 A 
ATOM      2  C   UNL     1      11.409  16.823  -0.365  1.00  0.00    -0.003 A 
ATOM      3  C   UNL     1      11.555  17.501   0.869  1.00  0.00     0.119 A 
ATOM      4  C   UNL     1      12.801  17.555   1.503  1.00  0.00     0.046 A 
ATOM      5  C   UNL     1      13.911  16.948   0.928  1.00  0.00     0.004 A 
ATOM      6  C   UNL     1      13.788  16.271  -0.282  1.00  0.00     0.004 A 
ENDROOT
BRANCH   1   7
ATOM      7  C   UNL     1      12.501  15.392  -2.237  1.00  0.00     0.036 C 
BRANCH   7   8
ATOM      8  C   UNL     1      12.889  13.916  -2.031  1.00  0.00     0.004 C 
BRANCH   8   9
ATOM      9  C   UNL     1      11.684  12.961  -1.994  1.00  0.00    -0.003 C 
ATOM     10  C   UNL     1      11.262  12.611  -0.566  1.00  0.00     0.004 C 
ENDBRANCH   8   9
ENDBRANCH   7   8
ENDBRANCH   1   7
BRANCH   2  11
ATOM     11  C   UNL     1      10.057  16.833  -1.055  1.00  0.00     0.040 C 
BRANCH  11  12
ATOM     12  C   UNL     1       9.146  15.685  -0.578  1.00  0.00     0.005 C 
BRANCH  12  13
ATOM     13  C   UNL     1       8.494  14.884  -1.717  1.00  0.00    -0.003 C 
ATOM     14  C   UNL     1       8.933  15.360  -3.102  1.00  0.00     0.004 C 
ENDBRANCH  12  13
ENDBRANCH  11  12
ENDBRANCH   2  11
BRANCH   3  15
ATOM     15  O   UNL     1      10.458  18.125   1.465  1.00  0.00    -0.508 OA
ATOM     16  H   UNL     1      10.292  18.072   2.463  1.00  0.00     0.293 HD
ENDBRANCH   3  15
TORSDOF 7
ENDMDL
MODEL 7
REMARK VINA RESULT:    -3.170      4.279      8.026
REMARK INTER + INTRA:          -5.355
REMARK INTER:                  -4.475
REMARK INTRA:                  -0.880
REMARK UNBOUND:                -0.981
REMARK SMILES CCCCc1cccc(O)c1CCCC
REMARK SMILES IDX 5 1 11 2 9 3 8 4 7 5 6 6 4 7 3 8 2 9 1 10 12 11 13 12 14 13
REMARK SMILES IDX 15 14 10 15
REMARK H PARENT 10 16
REMARK Flexibility Score: inf
ROOT
ATOM      1  C   UNL     1      10.365  14.729  -1.548  1.00  0.00    -0.041 A 
ATOM      2  C   UNL     1       9.756  13.657  -0.829  1.00  0.00    -0.003 A 
ATOM      3  C   UNL     1       8.387  13.754  -0.483  1.00  0.00     0.119 A 
ATOM      4  C   UNL     1       7.642  14.880  -0.853  1.00  0.00     0.046 A 
ATOM      5  C   UNL     1       8.236  15.913  -1.568  1.00  0.00     0.004 A 
ATOM      6  C   UNL     1       9.583  15.839  -1.913  1.00  0.00     0.004 A 
ENDROOT
BRANCH   1   7
ATOM      7  C   UNL     1      11.835  14.755  -1.932  1.00  0.00     0.036 C 
BRANCH   7   8
ATOM      8  C   UNL     1      12.738  15.174  -0.757  1.00  0.00     0.004 C 
BRANCH   8   9
ATOM      9  C   UNL     1      14.176  15.524  -1.178  1.00  0.00    -0.003 C 
ATOM     10  C   UNL     1      14.809  14.435  -2.045  1.00  0.00     0.004 C 
ENDBRANCH   8   9
ENDBRANCH   7   8
ENDBRANCH   1   7
BRANCH   2  11
ATOM     11  C   UNL     1      10.520  12.397  -0.462  1.00  0.00     0.040 C 
BRANCH  11  12
ATOM     12  C   UNL     1      10.452  11.327  -1.568  1.00  0.00     0.005 C 
BRANCH  12  13
ATOM     13  C   UNL     1      11.724  10.471  -1.695  1.00  0.00    -0.003 C 
ATOM     14  C   UNL     1      12.851  11.193  -2.434  1.00  0.00     0.004 C 
ENDBRANCH  12  13
ENDBRANCH  11  12
ENDBRANCH   2  11
BRANCH   3  15
ATOM     15  O   UNL     1       7.765  12.728   0.229  1.00  0.00    -0.508 OA
ATOM     16  H   UNL     1       7.778  12.698   1.242  1.00  0.00     0.293 HD
ENDBRANCH   3  15
TORSDOF 7
ENDMDL
MODEL 8
REMARK VINA RESULT:    -3.159      4.901      7.242
REMARK INTER + INTRA:          -5.340
REMARK INTER:                  -4.419
REMARK INTRA:                  -0.921
REMARK UNBOUND:                -0.981
REMARK SMILES CCCCc1cccc(O)c1CCCC
REMARK SMILES IDX 5 1 11 2 9 3 8 4 7 5 6 6 4 7 3 8 2 9 1 10 12 11 13 12 14 13
REMARK SMILES IDX 15 14 10 15
REMARK H PARENT 10 16
REMARK Flexibility Score: inf
ROOT
ATOM      1  C   UNL     1      13.672  13.994  -2.318  1.00  0.00    -0.041 A 
ATOM      2  C   UNL     1      13.023  12.743  -2.544  1.00  0.00    -0.003 A 
ATOM      3  C   UNL     1      13.808  11.615  -2.882  1.00  0.00     0.119 A 
ATOM      4  C   UNL     1      15.200  11.726  -2.980  1.00  0.00     0.046 A 
ATOM      5  C   UNL     1      15.828  12.943  -2.742  1.00  0.00     0.004 A 
ATOM      6  C   UNL     1      15.073  14.066  -2.414  1.00  0.00     0.004 A 
ENDROOT
BRANCH   1   7
ATOM      7  C   UNL     1      12.928  15.280  -1.995  1.00  0.00     0.036 C 
BRANCH   7   8
ATOM      8  C   UNL     1      12.874  15.558  -0.481  1.00  0.00     0.004 C 
BRANCH   8   9
ATOM      9  C   UNL     1      13.854  16.649  -0.018  1.00  0.00    -0.003 C 
ATOM     10  C   UNL     1      13.431  17.287   1.306  1.00  0.00     0.004 C 
ENDBRANCH   8   9
ENDBRANCH   7   8
ENDBRANCH   1   7
BRANCH   2  11
ATOM     11  C   UNL     1      11.522  12.575  -2.389  1.00  0.00     0.040 C 
BRANCH  11  12
ATOM     12  C   UNL     1      11.107  12.326  -0.926  1.00  0.00     0.005 C 
BRANCH  12  13
ATOM     13  C   UNL     1       9.667  12.759  -0.599  1.00  0.00    -0.003 C 
ATOM     14  C   UNL     1       9.402  14.229  -0.926  1.00  0.00     0.004 C 
ENDBRANCH  12  13
ENDBRANCH  11  12
ENDBRANCH   2  11
BRANCH   3  15
ATOM     15  O   UNL     1      13.204  10.380  -3.120  1.00  0.00    -0.508 OA
ATOM     16  H   UNL     1      12.197  10.279  -3.164  1.00  0.00     0.293 HD
ENDBRANCH   3  15
TORSDOF 7
ENDMDL
MODEL 9
REMARK VINA RESULT:    -3.123      5.001      8.530
REMARK INTER + INTRA:          -5.290
REMARK INTER:                  -4.454
REMARK INTRA:                  -0.836
REMARK UNBOUND:                -0.981
REMARK SMILES CCCCc1cccc(O)c1CCCC
REMARK SMILES IDX 5 1 11 2 9 3 8 4 7 5 6 6 4 7 3 8 2 9 1 10 12 11 13 12 14 13
REMARK SMILES IDX 15 14 10 15
REMARK H PARENT 10 16
REMARK Flexibility Score: inf
ROOT
ATOM      1  C   UNL     1      13.340  14.875  -1.545  1.00  0.00    -0.041 A 
ATOM      2  C   UNL     1      11.968  15.207  -1.335  1.00  0.00    -0.003 A 
ATOM      3  C   UNL     1      11.647  16.267  -0.455  1.00  0.00     0.119 A 
ATOM      4  C   UNL     1      12.662  16.984   0.189  1.00  0.00     0.046 A 
ATOM      5  C   UNL     1      13.997  16.669  -0.033  1.00  0.00     0.004 A 
ATOM      6  C   UNL     1      14.334  15.625  -0.891  1.00  0.00     0.004 A 
ENDROOT
BRANCH   1   7
ATOM      7  C   UNL     1      13.802  13.729  -2.431  1.00  0.00     0.036 C 
BRANCH   7   8
ATOM      8  C   UNL     1      15.313  13.788  -2.722  1.00  0.00     0.004 C 
BRANCH   8   9
ATOM      9  C   UNL     1      15.918  12.431  -3.119  1.00  0.00    -0.003 C 
ATOM     10  C   UNL     1      14.909  11.288  -3.003  1.00  0.00     0.004 C 
ENDBRANCH   8   9
ENDBRANCH   7   8
ENDBRANCH   1   7
BRANCH   2  11
ATOM     11  C   UNL     1      10.846  14.487  -2.061  1.00  0.00     0.040 C 
BRANCH  11  12
ATOM     12  C   UNL     1      10.088  13.507  -1.146  1.00  0.00     0.005 C 
BRANCH  12  13
ATOM     13  C   UNL     1      10.992  12.497  -0.419  1.00  0.00    -0.003 C 
ATOM     14  C   UNL     1      11.287  11.255  -1.260  1.00  0.00     0.004 C 
ENDBRANCH  12  13
ENDBRANCH  11  12
ENDBRANCH   2  11
BRANCH   3  15
ATOM     15  O   UNL     1      10.315  16.610  -0.220  1.00  0.00    -0.508 OA
ATOM     16  H   UNL     1       9.974  17.554  -0.359  1.00  0.00     0.293 HD
ENDBRANCH   3  15
TORSDOF 7
ENDMDL
