MODEL 1
REMARK VINA RESULT:    -4.107      0.000      0.000
REMARK INTER + INTRA:          -4.107
REMARK INTER:                  -4.107
REMARK INTRA:                   0.000
REMARK UNBOUND:                 0.000
REMARK SMILES C=C1CCC[C@@]2(C)CC(=O)C(=C(C)C)C[C@H]12
REMARK SMILES IDX 13 1 12 2 11 3 15 4 16 5 2 6 1 7 3 8 4 9 5 10 6 11 8 12 9 13
REMARK SMILES IDX 10 14 7 15 14 16
REMARK H PARENT
REMARK Flexibility Score: inf
ROOT
ATOM      1  C   UNL     1      57.300   5.594   9.254  1.00  0.00     0.039 C 
ATOM      2  C   UNL     1      57.294   7.001   8.701  1.00  0.00    -0.070 C 
ATOM      3  C   UNL     1      56.730   7.286   7.490  1.00  0.00    -0.006 C 
ATOM      4  C   UNL     1      56.062   6.198   6.658  1.00  0.00     0.047 C 
ATOM      5  C   UNL     1      54.901   6.739   5.786  1.00  0.00     0.025 C 
ATOM      6  C   UNL     1      54.219   5.699   4.897  1.00  0.00    -0.073 C 
ATOM      7  C   UNL     1      54.579   4.402   4.839  1.00  0.00     0.008 C 
ATOM      8  C   UNL     1      53.045   6.186   4.081  1.00  0.00     0.031 C 
ATOM      9  C   UNL     1      53.441   7.416   3.259  1.00  0.00     0.005 C 
ATOM     10  C   UNL     1      54.091   8.500   4.137  1.00  0.00     0.008 C 
ATOM     11  C   UNL     1      55.324   7.979   4.938  1.00  0.00    -0.018 C 
ATOM     12  C   UNL     1      55.782   9.104   5.899  1.00  0.00     0.088 C 
ATOM     13  C   UNL     1      56.838   8.632   6.857  1.00  0.00     0.159 C 
ATOM     14  O   UNL     1      57.814   9.392   7.099  1.00  0.00    -0.295 OA
ATOM     15  C   UNL     1      56.478   7.642   3.954  1.00  0.00     0.012 C 
ATOM     16  C   UNL     1      57.907   8.078   9.568  1.00  0.00     0.039 C 
ENDROOT
TORSDOF 0
ENDMDL
MODEL 2
REMARK VINA RESULT:    -4.052      2.392      5.891
REMARK INTER + INTRA:          -4.052
REMARK INTER:                  -4.052
REMARK INTRA:                   0.000
REMARK UNBOUND:                 0.000
REMARK SMILES C=C1CCC[C@@]2(C)CC(=O)C(=C(C)C)C[C@H]12
REMARK SMILES IDX 13 1 12 2 11 3 15 4 16 5 2 6 1 7 3 8 4 9 5 10 6 11 8 12 9 13
REMARK SMILES IDX 10 14 7 15 14 16
REMARK H PARENT
REMARK Flexibility Score: inf
ROOT
ATOM      1  C   UNL     1      54.052   6.273   5.184  1.00  0.00     0.039 C 
ATOM      2  C   UNL     1      55.157   5.278   4.911  1.00  0.00    -0.070 C 
ATOM      3  C   UNL     1      56.268   5.217   5.704  1.00  0.00    -0.006 C 
ATOM      4  C   UNL     1      56.427   6.134   6.910  1.00  0.00     0.047 C 
ATOM      5  C   UNL     1      57.258   5.489   8.047  1.00  0.00     0.025 C 
ATOM      6  C   UNL     1      57.485   6.380   9.269  1.00  0.00    -0.073 C 
ATOM      7  C   UNL     1      57.023   7.641   9.381  1.00  0.00     0.008 C 
ATOM      8  C   UNL     1      58.242   5.757  10.418  1.00  0.00     0.031 C 
ATOM      9  C   UNL     1      59.569   5.172   9.927  1.00  0.00     0.005 C 
ATOM     10  C   UNL     1      59.366   4.235   8.724  1.00  0.00     0.008 C 
ATOM     11  C   UNL     1      58.617   4.917   7.538  1.00  0.00    -0.018 C 
ATOM     12  C   UNL     1      58.329   3.837   6.466  1.00  0.00     0.088 C 
ATOM     13  C   UNL     1      57.435   4.349   5.373  1.00  0.00     0.159 C 
ATOM     14  O   UNL     1      57.704   4.039   4.181  1.00  0.00    -0.295 OA
ATOM     15  C   UNL     1      59.518   6.023   6.922  1.00  0.00     0.012 C 
ATOM     16  C   UNL     1      54.956   4.336   3.746  1.00  0.00     0.039 C 
ENDROOT
TORSDOF 0
ENDMDL
MODEL 3
REMARK VINA RESULT:    -4.045      1.801      2.840
REMARK INTER + INTRA:          -4.045
REMARK INTER:                  -4.045
REMARK INTRA:                   0.000
REMARK UNBOUND:                 0.000
REMARK SMILES C=C1CCC[C@@]2(C)CC(=O)C(=C(C)C)C[C@H]12
REMARK SMILES IDX 13 1 12 2 11 3 15 4 16 5 2 6 1 7 3 8 4 9 5 10 6 11 8 12 9 13
REMARK SMILES IDX 10 14 7 15 14 16
REMARK H PARENT
REMARK Flexibility Score: inf
ROOT
ATOM      1  C   UNL     1      58.644   4.961   8.889  1.00  0.00     0.039 C 
ATOM      2  C   UNL     1      57.567   5.907   8.409  1.00  0.00    -0.070 C 
ATOM      3  C   UNL     1      56.911   5.696   7.230  1.00  0.00    -0.006 C 
ATOM      4  C   UNL     1      57.222   4.484   6.361  1.00  0.00     0.047 C 
ATOM      5  C   UNL     1      55.995   3.998   5.550  1.00  0.00     0.025 C 
ATOM      6  C   UNL     1      56.258   2.807   4.628  1.00  0.00    -0.073 C 
ATOM      7  C   UNL     1      57.456   2.205   4.494  1.00  0.00     0.008 C 
ATOM      8  C   UNL     1      55.066   2.274   3.869  1.00  0.00     0.031 C 
ATOM      9  C   UNL     1      54.374   3.404   3.101  1.00  0.00     0.005 C 
ATOM     10  C   UNL     1      54.056   4.600   4.015  1.00  0.00     0.008 C 
ATOM     11  C   UNL     1      55.313   5.154   4.755  1.00  0.00    -0.018 C 
ATOM     12  C   UNL     1      54.842   6.235   5.759  1.00  0.00     0.088 C 
ATOM     13  C   UNL     1      55.951   6.688   6.664  1.00  0.00     0.159 C 
ATOM     14  O   UNL     1      56.057   7.918   6.917  1.00  0.00    -0.295 OA
ATOM     15  C   UNL     1      56.280   5.798   3.724  1.00  0.00     0.012 C 
ATOM     16  C   UNL     1      57.230   7.072   9.312  1.00  0.00     0.039 C 
ENDROOT
TORSDOF 0
ENDMDL
MODEL 4
REMARK VINA RESULT:    -3.933     10.531     12.681
REMARK INTER + INTRA:          -3.933
REMARK INTER:                  -3.933
REMARK INTRA:                   0.000
REMARK UNBOUND:                 0.000
REMARK SMILES C=C1CCC[C@@]2(C)CC(=O)C(=C(C)C)C[C@H]12
REMARK SMILES IDX 13 1 12 2 11 3 15 4 16 5 2 6 1 7 3 8 4 9 5 10 6 11 8 12 9 13
REMARK SMILES IDX 10 14 7 15 14 16
REMARK H PARENT
REMARK Flexibility Score: inf
ROOT
ATOM      1  C   UNL     1      63.119  15.393  -2.763  1.00  0.00     0.039 C 
ATOM      2  C   UNL     1      62.669  14.600  -1.557  1.00  0.00    -0.070 C 
ATOM      3  C   UNL     1      62.000  15.195  -0.526  1.00  0.00    -0.006 C 
ATOM      4  C   UNL     1      61.658  16.679  -0.562  1.00  0.00     0.047 C 
ATOM      5  C   UNL     1      60.356  17.013   0.208  1.00  0.00     0.025 C 
ATOM      6  C   UNL     1      59.983  18.495   0.242  1.00  0.00    -0.073 C 
ATOM      7  C   UNL     1      60.714  19.470  -0.334  1.00  0.00     0.008 C 
ATOM      8  C   UNL     1      58.687  18.843   0.934  1.00  0.00     0.031 C 
ATOM      9  C   UNL     1      58.663  18.253   2.347  1.00  0.00     0.005 C 
ATOM     10  C   UNL     1      58.991  16.749   2.340  1.00  0.00     0.008 C 
ATOM     11  C   UNL     1      60.353  16.424   1.653  1.00  0.00    -0.018 C 
ATOM     12  C   UNL     1      60.489  14.884   1.561  1.00  0.00     0.088 C 
ATOM     13  C   UNL     1      61.674  14.470   0.736  1.00  0.00     0.159 C 
ATOM     14  O   UNL     1      62.385  13.512   1.143  1.00  0.00    -0.295 OA
ATOM     15  C   UNL     1      61.516  16.992   2.512  1.00  0.00     0.012 C 
ATOM     16  C   UNL     1      62.964  13.117  -1.566  1.00  0.00     0.039 C 
ENDROOT
TORSDOF 0
ENDMDL
MODEL 5
REMARK VINA RESULT:    -3.813      9.309     11.443
REMARK INTER + INTRA:          -3.813
REMARK INTER:                  -3.813
REMARK INTRA:                   0.000
REMARK UNBOUND:                 0.000
REMARK SMILES C=C1CCC[C@@]2(C)CC(=O)C(=C(C)C)C[C@H]12
REMARK SMILES IDX 13 1 12 2 11 3 15 4 16 5 2 6 1 7 3 8 4 9 5 10 6 11 8 12 9 13
REMARK SMILES IDX 10 14 7 15 14 16
REMARK H PARENT
REMARK Flexibility Score: inf
ROOT
ATOM      1  C   UNL     1      63.339  15.314  -3.390  1.00  0.00     0.039 C 
ATOM      2  C   UNL     1      63.459  15.099  -1.898  1.00  0.00    -0.070 C 
ATOM      3  C   UNL     1      62.823  14.061  -1.278  1.00  0.00    -0.006 C 
ATOM      4  C   UNL     1      61.986  13.064  -2.070  1.00  0.00     0.047 C 
ATOM      5  C   UNL     1      61.979  11.651  -1.436  1.00  0.00     0.025 C 
ATOM      6  C   UNL     1      61.121  10.616  -2.166  1.00  0.00    -0.073 C 
ATOM      7  C   UNL     1      60.401  10.880  -3.274  1.00  0.00     0.008 C 
ATOM      8  C   UNL     1      61.143   9.215  -1.604  1.00  0.00     0.031 C 
ATOM      9  C   UNL     1      60.805   9.234  -0.111  1.00  0.00     0.005 C 
ATOM     10  C   UNL     1      61.685  10.235   0.658  1.00  0.00     0.008 C 
ATOM     11  C   UNL     1      61.612  11.682   0.080  1.00  0.00    -0.018 C 
ATOM     12  C   UNL     1      62.656  12.550   0.825  1.00  0.00     0.088 C 
ATOM     13  C   UNL     1      62.805  13.910   0.206  1.00  0.00     0.159 C 
ATOM     14  O   UNL     1      62.900  14.911   0.966  1.00  0.00    -0.295 OA
ATOM     15  C   UNL     1      60.192  12.266   0.320  1.00  0.00     0.012 C 
ATOM     16  C   UNL     1      64.341  16.062  -1.137  1.00  0.00     0.039 C 
ENDROOT
TORSDOF 0
ENDMDL
MODEL 6
REMARK VINA RESULT:    -3.752     10.056     12.430
REMARK INTER + INTRA:          -3.752
REMARK INTER:                  -3.752
REMARK INTRA:                   0.000
REMARK UNBOUND:                 0.000
REMARK SMILES C=C1CCC[C@@]2(C)CC(=O)C(=C(C)C)C[C@H]12
REMARK SMILES IDX 13 1 12 2 11 3 15 4 16 5 2 6 1 7 3 8 4 9 5 10 6 11 8 12 9 13
REMARK SMILES IDX 10 14 7 15 14 16
REMARK H PARENT
REMARK Flexibility Score: inf
ROOT
ATOM      1  C   UNL     1      57.847  12.921  -1.045  1.00  0.00     0.039 C 
ATOM      2  C   UNL     1      59.159  12.235  -1.349  1.00  0.00    -0.070 C 
ATOM      3  C   UNL     1      60.339  12.923  -1.334  1.00  0.00    -0.006 C 
ATOM      4  C   UNL     1      60.382  14.406  -0.986  1.00  0.00     0.047 C 
ATOM      5  C   UNL     1      61.710  14.823  -0.306  1.00  0.00     0.025 C 
ATOM      6  C   UNL     1      61.827  16.310   0.030  1.00  0.00    -0.073 C 
ATOM      7  C   UNL     1      60.873  17.223  -0.240  1.00  0.00     0.008 C 
ATOM      8  C   UNL     1      63.086  16.736   0.748  1.00  0.00     0.031 C 
ATOM      9  C   UNL     1      64.323  16.261  -0.020  1.00  0.00     0.005 C 
ATOM     10  C   UNL     1      64.253  14.756  -0.333  1.00  0.00     0.008 C 
ATOM     11  C   UNL     1      62.962  14.352  -1.109  1.00  0.00    -0.018 C 
ATOM     12  C   UNL     1      62.929  12.808  -1.217  1.00  0.00     0.088 C 
ATOM     13  C   UNL     1      61.626  12.308  -1.770  1.00  0.00     0.159 C 
ATOM     14  O   UNL     1      61.650  11.373  -2.616  1.00  0.00    -0.295 OA
ATOM     15  C   UNL     1      62.999  14.966  -2.536  1.00  0.00     0.012 C 
ATOM     16  C   UNL     1      59.105  10.751  -1.634  1.00  0.00     0.039 C 
ENDROOT
TORSDOF 0
ENDMDL
MODEL 7
REMARK VINA RESULT:    -3.736      1.899      2.992
REMARK INTER + INTRA:          -3.736
REMARK INTER:                  -3.736
REMARK INTRA:                   0.000
REMARK UNBOUND:                 0.000
REMARK SMILES C=C1CCC[C@@]2(C)CC(=O)C(=C(C)C)C[C@H]12
REMARK SMILES IDX 13 1 12 2 11 3 15 4 16 5 2 6 1 7 3 8 4 9 5 10 6 11 8 12 9 13
REMARK SMILES IDX 10 14 7 15 14 16
REMARK H PARENT
REMARK Flexibility Score: inf
ROOT
ATOM      1  C   UNL     1      57.160   5.908   8.184  1.00  0.00     0.039 C 
ATOM      2  C   UNL     1      56.452   6.789   7.181  1.00  0.00    -0.070 C 
ATOM      3  C   UNL     1      55.931   6.274   6.027  1.00  0.00    -0.006 C 
ATOM      4  C   UNL     1      56.023   4.786   5.717  1.00  0.00     0.047 C 
ATOM      5  C   UNL     1      54.834   4.277   4.865  1.00  0.00     0.025 C 
ATOM      6  C   UNL     1      54.893   2.796   4.487  1.00  0.00    -0.073 C 
ATOM      7  C   UNL     1      55.893   1.966   4.841  1.00  0.00     0.008 C 
ATOM      8  C   UNL     1      53.717   2.259   3.707  1.00  0.00     0.031 C 
ATOM      9  C   UNL     1      53.464   3.119   2.464  1.00  0.00     0.005 C 
ATOM     10  C   UNL     1      53.356   4.612   2.820  1.00  0.00     0.008 C 
ATOM     11  C   UNL     1      54.601   5.148   3.591  1.00  0.00    -0.018 C 
ATOM     12  C   UNL     1      54.302   6.602   4.034  1.00  0.00     0.088 C 
ATOM     13  C   UNL     1      55.358   7.140   4.956  1.00  0.00     0.159 C 
ATOM     14  O   UNL     1      55.752   8.326   4.793  1.00  0.00    -0.295 OA
ATOM     15  C   UNL     1      55.837   5.142   2.651  1.00  0.00     0.012 C 
ATOM     16  C   UNL     1      56.317   8.253   7.532  1.00  0.00     0.039 C 
ENDROOT
TORSDOF 0
ENDMDL
MODEL 8
REMARK VINA RESULT:    -3.725      2.711      3.801
REMARK INTER + INTRA:          -3.725
REMARK INTER:                  -3.725
REMARK INTRA:                   0.000
REMARK UNBOUND:                 0.000
REMARK SMILES C=C1CCC[C@@]2(C)CC(=O)C(=C(C)C)C[C@H]12
REMARK SMILES IDX 13 1 12 2 11 3 15 4 16 5 2 6 1 7 3 8 4 9 5 10 6 11 8 12 9 13
REMARK SMILES IDX 10 14 7 15 14 16
REMARK H PARENT
REMARK Flexibility Score: inf
ROOT
ATOM      1  C   UNL     1      57.474   6.439   9.772  1.00  0.00     0.039 C 
ATOM      2  C   UNL     1      58.361   5.492   8.998  1.00  0.00    -0.070 C 
ATOM      3  C   UNL     1      58.013   5.052   7.752  1.00  0.00    -0.006 C 
ATOM      4  C   UNL     1      56.726   5.519   7.084  1.00  0.00     0.047 C 
ATOM      5  C   UNL     1      56.837   5.566   5.539  1.00  0.00     0.025 C 
ATOM      6  C   UNL     1      55.561   5.989   4.810  1.00  0.00    -0.073 C 
ATOM      7  C   UNL     1      54.403   6.294   5.429  1.00  0.00     0.008 C 
ATOM      8  C   UNL     1      55.657   6.102   3.307  1.00  0.00     0.031 C 
ATOM      9  C   UNL     1      56.210   4.805   2.710  1.00  0.00     0.005 C 
ATOM     10  C   UNL     1      57.520   4.378   3.395  1.00  0.00     0.008 C 
ATOM     11  C   UNL     1      57.381   4.232   4.942  1.00  0.00    -0.018 C 
ATOM     12  C   UNL     1      58.790   3.965   5.528  1.00  0.00     0.088 C 
ATOM     13  C   UNL     1      58.795   4.008   7.029  1.00  0.00     0.159 C 
ATOM     14  O   UNL     1      59.459   3.138   7.654  1.00  0.00    -0.295 OA
ATOM     15  C   UNL     1      56.453   3.029   5.268  1.00  0.00     0.012 C 
ATOM     16  C   UNL     1      59.663   5.086   9.652  1.00  0.00     0.039 C 
ENDROOT
TORSDOF 0
ENDMDL
MODEL 9
REMARK VINA RESULT:    -3.719      2.828      6.143
REMARK INTER + INTRA:          -3.719
REMARK INTER:                  -3.719
REMARK INTRA:                   0.000
REMARK UNBOUND:                 0.000
REMARK SMILES C=C1CCC[C@@]2(C)CC(=O)C(=C(C)C)C[C@H]12
REMARK SMILES IDX 13 1 12 2 11 3 15 4 16 5 2 6 1 7 3 8 4 9 5 10 6 11 8 12 9 13
REMARK SMILES IDX 10 14 7 15 14 16
REMARK H PARENT
REMARK Flexibility Score: inf
ROOT
ATOM      1  C   UNL     1      50.937   7.964   2.650  1.00  0.00     0.039 C 
ATOM      2  C   UNL     1      51.431   6.556   2.407  1.00  0.00    -0.070 C 
ATOM      3  C   UNL     1      52.623   6.124   2.917  1.00  0.00    -0.006 C 
ATOM      4  C   UNL     1      53.491   7.038   3.772  1.00  0.00     0.047 C 
ATOM      5  C   UNL     1      54.326   6.262   4.821  1.00  0.00     0.025 C 
ATOM      6  C   UNL     1      55.248   7.125   5.683  1.00  0.00    -0.073 C 
ATOM      7  C   UNL     1      55.364   8.462   5.561  1.00  0.00     0.008 C 
ATOM      8  C   UNL     1      56.029   6.402   6.755  1.00  0.00     0.031 C 
ATOM      9  C   UNL     1      56.805   5.228   6.149  1.00  0.00     0.005 C 
ATOM     10  C   UNL     1      55.891   4.317   5.312  1.00  0.00     0.008 C 
ATOM     11  C   UNL     1      55.127   5.083   4.188  1.00  0.00    -0.018 C 
ATOM     12  C   UNL     1      54.126   4.100   3.531  1.00  0.00     0.088 C 
ATOM     13  C   UNL     1      53.201   4.793   2.573  1.00  0.00     0.159 C 
ATOM     14  O   UNL     1      52.940   4.231   1.475  1.00  0.00    -0.295 OA
ATOM     15  C   UNL     1      56.138   5.578   3.118  1.00  0.00     0.012 C 
ATOM     16  C   UNL     1      50.529   5.644   1.606  1.00  0.00     0.039 C 
ENDROOT
TORSDOF 0
ENDMDL
