MODEL 1
REMARK VINA RESULT:    -4.133      0.000      0.000
REMARK INTER + INTRA:          -4.782
REMARK INTER:                  -4.737
REMARK INTRA:                  -0.045
REMARK UNBOUND:                -0.045
REMARK SMILES CC(C)[C@@H]([NH3+])C(=O)[O-]
REMARK SMILES IDX 4 1 5 2 6 6 7 7 8 8 2 9 1 10 3 11
REMARK H PARENT 5 3 5 4 5 5
REMARK Flexibility Score: inf
ROOT
ATOM      1  C   UNL     1      14.316  33.954  13.721  1.00  0.00     0.230 C 
ENDROOT
BRANCH   1   2
ATOM      2  N   UNL     1      15.781  34.019  13.630  1.00  0.00    -0.350 N 
ATOM      3  H   UNL     1      16.064  34.930  13.201  1.00  0.00     0.345 HD
ATOM      4  H   UNL     1      16.203  33.966  14.585  1.00  0.00     0.345 HD
ATOM      5  H   UNL     1      16.163  33.244  13.042  1.00  0.00     0.345 HD
ENDBRANCH   1   2
BRANCH   1   6
ATOM      6  C   UNL     1      13.697  35.259  13.276  1.00  0.00     0.099 C 
ATOM      7  O   UNL     1      12.769  35.778  13.950  1.00  0.00    -0.544 OA
ATOM      8  O   UNL     1      14.121  35.881  12.108  1.00  0.00    -0.544 OA
ENDBRANCH   1   6
BRANCH   1   9
ATOM      9  C   UNL     1      13.743  32.724  12.954  1.00  0.00     0.047 C 
ATOM     10  C   UNL     1      14.861  31.757  12.536  1.00  0.00     0.014 C 
ATOM     11  C   UNL     1      12.653  31.966  13.730  1.00  0.00     0.014 C 
ENDBRANCH   1   9
TORSDOF 3
ENDMDL
MODEL 2
REMARK VINA RESULT:    -4.006     14.455     15.122
REMARK INTER + INTRA:          -4.637
REMARK INTER:                  -4.579
REMARK INTRA:                  -0.058
REMARK UNBOUND:                -0.045
REMARK SMILES CC(C)[C@@H]([NH3+])C(=O)[O-]
REMARK SMILES IDX 4 1 5 2 6 6 7 7 8 8 2 9 1 10 3 11
REMARK H PARENT 5 3 5 4 5 5
REMARK Flexibility Score: inf
ROOT
ATOM      1  C   UNL     1       4.136  44.069   9.842  1.00  0.00     0.230 C 
ENDROOT
BRANCH   1   2
ATOM      2  N   UNL     1       3.753  43.158   8.755  1.00  0.00    -0.350 N 
ATOM      3  H   UNL     1       2.810  42.752   8.955  1.00  0.00     0.345 HD
ATOM      4  H   UNL     1       3.693  43.684   7.852  1.00  0.00     0.345 HD
ATOM      5  H   UNL     1       4.436  42.375   8.652  1.00  0.00     0.345 HD
ENDBRANCH   1   2
BRANCH   1   6
ATOM      6  C   UNL     1       3.975  45.508   9.413  1.00  0.00     0.099 C 
ATOM      7  O   UNL     1       4.979  46.267   9.365  1.00  0.00    -0.544 OA
ATOM      8  O   UNL     1       2.721  46.017   9.097  1.00  0.00    -0.544 OA
ENDBRANCH   1   6
BRANCH   1   9
ATOM      9  C   UNL     1       3.372  43.746  11.162  1.00  0.00     0.047 C 
ATOM     10  C   UNL     1       3.065  42.245  11.277  1.00  0.00     0.014 C 
ATOM     11  C   UNL     1       4.093  44.236  12.429  1.00  0.00     0.014 C 
ENDBRANCH   1   9
TORSDOF 3
ENDMDL
MODEL 3
REMARK VINA RESULT:    -3.958     13.017     14.215
REMARK INTER + INTRA:          -4.582
REMARK INTER:                  -4.536
REMARK INTRA:                  -0.046
REMARK UNBOUND:                -0.045
REMARK SMILES CC(C)[C@@H]([NH3+])C(=O)[O-]
REMARK SMILES IDX 4 1 5 2 6 6 7 7 8 8 2 9 1 10 3 11
REMARK H PARENT 5 3 5 4 5 5
REMARK Flexibility Score: inf
ROOT
ATOM      1  C   UNL     1       3.393  42.472  11.258  1.00  0.00     0.230 C 
ENDROOT
BRANCH   1   2
ATOM      2  N   UNL     1       4.636  42.753  10.527  1.00  0.00    -0.350 N 
ATOM      3  H   UNL     1       5.314  43.233  11.163  1.00  0.00     0.345 HD
ATOM      4  H   UNL     1       5.072  41.859  10.205  1.00  0.00     0.345 HD
ATOM      5  H   UNL     1       4.463  43.369   9.701  1.00  0.00     0.345 HD
ENDBRANCH   1   2
BRANCH   1   6
ATOM      6  C   UNL     1       3.579  41.298  12.192  1.00  0.00     0.099 C 
ATOM      7  O   UNL     1       4.736  40.971  12.569  1.00  0.00    -0.544 OA
ATOM      8  O   UNL     1       2.487  40.552  12.618  1.00  0.00    -0.544 OA
ENDBRANCH   1   6
BRANCH   1   9
ATOM      9  C   UNL     1       2.852  43.739  11.986  1.00  0.00     0.047 C 
ATOM     10  C   UNL     1       3.714  44.972  11.677  1.00  0.00     0.014 C 
ATOM     11  C   UNL     1       1.374  44.041  11.684  1.00  0.00     0.014 C 
ENDBRANCH   1   9
TORSDOF 3
ENDMDL
MODEL 4
REMARK VINA RESULT:    -3.943     14.150     14.814
REMARK INTER + INTRA:          -4.565
REMARK INTER:                  -4.497
REMARK INTRA:                  -0.068
REMARK UNBOUND:                -0.045
REMARK SMILES CC(C)[C@@H]([NH3+])C(=O)[O-]
REMARK SMILES IDX 4 1 5 2 6 6 7 7 8 8 2 9 1 10 3 11
REMARK H PARENT 5 3 5 4 5 5
REMARK Flexibility Score: inf
ROOT
ATOM      1  C   UNL     1       3.292  43.578  10.584  1.00  0.00     0.230 C 
ENDROOT
BRANCH   1   2
ATOM      2  N   UNL     1       4.465  42.941   9.971  1.00  0.00    -0.350 N 
ATOM      3  H   UNL     1       4.414  43.042   8.932  1.00  0.00     0.345 HD
ATOM      4  H   UNL     1       5.340  43.410  10.300  1.00  0.00     0.345 HD
ATOM      5  H   UNL     1       4.513  41.923  10.204  1.00  0.00     0.345 HD
ENDBRANCH   1   2
BRANCH   1   6
ATOM      6  C   UNL     1       2.516  42.580  11.411  1.00  0.00     0.099 C 
ATOM      7  O   UNL     1       1.417  42.911  11.930  1.00  0.00    -0.544 OA
ATOM      8  O   UNL     1       3.017  41.303  11.634  1.00  0.00    -0.544 OA
ENDBRANCH   1   6
BRANCH   1   9
ATOM      9  C   UNL     1       3.682  44.853  11.391  1.00  0.00     0.047 C 
ATOM     10  C   UNL     1       4.449  44.491  12.671  1.00  0.00     0.014 C 
ATOM     11  C   UNL     1       4.481  45.881  10.572  1.00  0.00     0.014 C 
ENDBRANCH   1   9
TORSDOF 3
ENDMDL
MODEL 5
REMARK VINA RESULT:    -3.899     13.912     14.766
REMARK INTER + INTRA:          -4.513
REMARK INTER:                  -4.509
REMARK INTRA:                  -0.004
REMARK UNBOUND:                -0.045
REMARK SMILES CC(C)[C@@H]([NH3+])C(=O)[O-]
REMARK SMILES IDX 4 1 5 2 6 6 7 7 8 8 2 9 1 10 3 11
REMARK H PARENT 5 3 5 4 5 5
REMARK Flexibility Score: inf
ROOT
ATOM      1  C   UNL     1       3.946  43.617  10.425  1.00  0.00     0.230 C 
ENDROOT
BRANCH   1   2
ATOM      2  N   UNL     1       3.904  44.152   9.057  1.00  0.00    -0.350 N 
ATOM      3  H   UNL     1       3.351  43.507   8.447  1.00  0.00     0.345 HD
ATOM      4  H   UNL     1       3.432  45.086   9.053  1.00  0.00     0.345 HD
ATOM      5  H   UNL     1       4.863  44.250   8.654  1.00  0.00     0.345 HD
ENDBRANCH   1   2
BRANCH   1   6
ATOM      6  C   UNL     1       4.187  44.726  11.422  1.00  0.00     0.099 C 
ATOM      7  O   UNL     1       4.139  45.929  11.051  1.00  0.00    -0.544 OA
ATOM      8  O   UNL     1       4.491  44.434  12.747  1.00  0.00    -0.544 OA
ENDBRANCH   1   6
BRANCH   1   9
ATOM      9  C   UNL     1       2.677  42.776  10.755  1.00  0.00     0.047 C 
ATOM     10  C   UNL     1       3.008  41.617  11.709  1.00  0.00     0.014 C 
ATOM     11  C   UNL     1       1.514  43.608  11.321  1.00  0.00     0.014 C 
ENDBRANCH   1   9
TORSDOF 3
ENDMDL
MODEL 6
REMARK VINA RESULT:    -3.884     14.012     14.948
REMARK INTER + INTRA:          -4.497
REMARK INTER:                  -4.443
REMARK INTRA:                  -0.055
REMARK UNBOUND:                -0.045
REMARK SMILES CC(C)[C@@H]([NH3+])C(=O)[O-]
REMARK SMILES IDX 4 1 5 2 6 6 7 7 8 8 2 9 1 10 3 11
REMARK H PARENT 5 3 5 4 5 5
REMARK Flexibility Score: inf
ROOT
ATOM      1  C   UNL     1       3.543  44.660  11.526  1.00  0.00     0.230 C 
ENDROOT
BRANCH   1   2
ATOM      2  N   UNL     1       4.543  44.398  12.570  1.00  0.00    -0.350 N 
ATOM      3  H   UNL     1       4.511  45.162  13.284  1.00  0.00     0.345 HD
ATOM      4  H   UNL     1       4.330  43.495  13.052  1.00  0.00     0.345 HD
ATOM      5  H   UNL     1       5.509  44.356  12.173  1.00  0.00     0.345 HD
ENDBRANCH   1   2
BRANCH   1   6
ATOM      6  C   UNL     1       4.206  45.185  10.274  1.00  0.00     0.099 C 
ATOM      7  O   UNL     1       4.158  44.515   9.208  1.00  0.00    -0.544 OA
ATOM      8  O   UNL     1       4.900  46.389  10.291  1.00  0.00    -0.544 OA
ENDBRANCH   1   6
BRANCH   1   9
ATOM      9  C   UNL     1       2.650  43.412  11.256  1.00  0.00     0.047 C 
ATOM     10  C   UNL     1       3.344  42.120  11.710  1.00  0.00     0.014 C 
ATOM     11  C   UNL     1       1.250  43.507  11.885  1.00  0.00     0.014 C 
ENDBRANCH   1   9
TORSDOF 3
ENDMDL
MODEL 7
REMARK VINA RESULT:    -3.840     14.747     15.269
REMARK INTER + INTRA:          -4.446
REMARK INTER:                  -4.380
REMARK INTRA:                  -0.066
REMARK UNBOUND:                -0.045
REMARK SMILES CC(C)[C@@H]([NH3+])C(=O)[O-]
REMARK SMILES IDX 4 1 5 2 6 6 7 7 8 8 2 9 1 10 3 11
REMARK H PARENT 5 3 5 4 5 5
REMARK Flexibility Score: inf
ROOT
ATOM      1  C   UNL     1       3.932  44.212  11.054  1.00  0.00     0.230 C 
ENDROOT
BRANCH   1   2
ATOM      2  N   UNL     1       4.500  43.128  10.241  1.00  0.00    -0.350 N 
ATOM      3  H   UNL     1       4.866  43.520   9.343  1.00  0.00     0.345 HD
ATOM      4  H   UNL     1       5.297  42.680  10.748  1.00  0.00     0.345 HD
ATOM      5  H   UNL     1       3.783  42.401  10.018  1.00  0.00     0.345 HD
ENDBRANCH   1   2
BRANCH   1   6
ATOM      6  C   UNL     1       4.113  45.544  10.365  1.00  0.00     0.099 C 
ATOM      7  O   UNL     1       3.935  46.614  11.006  1.00  0.00    -0.544 OA
ATOM      8  O   UNL     1       4.447  45.605   9.017  1.00  0.00    -0.544 OA
ENDBRANCH   1   6
BRANCH   1   9
ATOM      9  C   UNL     1       2.448  43.930  11.437  1.00  0.00     0.047 C 
ATOM     10  C   UNL     1       1.513  44.129  10.234  1.00  0.00     0.014 C 
ATOM     11  C   UNL     1       2.222  42.540  12.054  1.00  0.00     0.014 C 
ENDBRANCH   1   9
TORSDOF 3
ENDMDL
MODEL 8
REMARK VINA RESULT:    -3.834     14.626     15.117
REMARK INTER + INTRA:          -4.440
REMARK INTER:                  -4.436
REMARK INTRA:                  -0.003
REMARK UNBOUND:                -0.045
REMARK SMILES CC(C)[C@@H]([NH3+])C(=O)[O-]
REMARK SMILES IDX 4 1 5 2 6 6 7 7 8 8 2 9 1 10 3 11
REMARK H PARENT 5 3 5 4 5 5
REMARK Flexibility Score: inf
ROOT
ATOM      1  C   UNL     1       4.187  43.838   9.763  1.00  0.00     0.230 C 
ENDROOT
BRANCH   1   2
ATOM      2  N   UNL     1       3.609  43.045   8.669  1.00  0.00    -0.350 N 
ATOM      3  H   UNL     1       3.321  42.108   9.032  1.00  0.00     0.345 HD
ATOM      4  H   UNL     1       2.758  43.522   8.292  1.00  0.00     0.345 HD
ATOM      5  H   UNL     1       4.296  42.904   7.894  1.00  0.00     0.345 HD
ENDBRANCH   1   2
BRANCH   1   6
ATOM      6  C   UNL     1       3.928  45.311   9.545  1.00  0.00     0.099 C 
ATOM      7  O   UNL     1       2.761  45.716   9.302  1.00  0.00    -0.544 OA
ATOM      8  O   UNL     1       4.974  46.227   9.580  1.00  0.00    -0.544 OA
ENDBRANCH   1   6
BRANCH   1   9
ATOM      9  C   UNL     1       3.699  43.342  11.157  1.00  0.00     0.047 C 
ATOM     10  C   UNL     1       4.059  44.344  12.264  1.00  0.00     0.014 C 
ATOM     11  C   UNL     1       2.196  43.020  11.206  1.00  0.00     0.014 C 
ENDBRANCH   1   9
TORSDOF 3
ENDMDL
MODEL 9
REMARK VINA RESULT:    -3.722     14.687     15.519
REMARK INTER + INTRA:          -4.311
REMARK INTER:                  -4.346
REMARK INTRA:                   0.035
REMARK UNBOUND:                -0.045
REMARK SMILES CC(C)[C@@H]([NH3+])C(=O)[O-]
REMARK SMILES IDX 4 1 5 2 6 6 7 7 8 8 2 9 1 10 3 11
REMARK H PARENT 5 3 5 4 5 5
REMARK Flexibility Score: inf
ROOT
ATOM      1  C   UNL     1       3.508  44.054  10.369  1.00  0.00     0.230 C 
ENDROOT
BRANCH   1   2
ATOM      2  N   UNL     1       4.689  43.220  10.104  1.00  0.00    -0.350 N 
ATOM      3  H   UNL     1       4.450  42.494   9.389  1.00  0.00     0.345 HD
ATOM      4  H   UNL     1       5.464  43.808   9.721  1.00  0.00     0.345 HD
ATOM      5  H   UNL     1       5.019  42.737  10.970  1.00  0.00     0.345 HD
ENDBRANCH   1   2
BRANCH   1   6
ATOM      6  C   UNL     1       3.253  44.156  11.855  1.00  0.00     0.099 C 
ATOM      7  O   UNL     1       4.204  44.408  12.641  1.00  0.00    -0.544 OA
ATOM      8  O   UNL     1       1.980  43.945  12.371  1.00  0.00    -0.544 OA
ENDBRANCH   1   6
BRANCH   1   9
ATOM      9  C   UNL     1       3.619  45.447   9.681  1.00  0.00     0.047 C 
ATOM     10  C   UNL     1       2.432  46.350  10.051  1.00  0.00     0.014 C 
ATOM     11  C   UNL     1       4.943  46.175   9.968  1.00  0.00     0.014 C 
ENDBRANCH   1   9
TORSDOF 3
ENDMDL
