MODEL 1
REMARK VINA RESULT:    -5.412      0.000      0.000
REMARK INTER + INTRA:          -5.570
REMARK INTER:                  -5.570
REMARK INTRA:                   0.000
REMARK UNBOUND:                 0.000
REMARK SMILES CC1(C)[C@H]2CC[C@](C)(C2)[C@@H]1O
REMARK SMILES IDX 1 1 2 2 4 3 5 4 6 5 7 6 9 7 10 8 8 9 3 10 11 11
REMARK H PARENT 11 12
REMARK Flexibility Score: inf
ROOT
ATOM      1  C   UNL     1     119.504 116.467 119.967  1.00  0.00     0.014 C 
ATOM      2  C   UNL     1     120.205 117.618 119.206  1.00  0.00    -0.006 C 
ATOM      3  C   UNL     1     119.481 118.021 117.876  1.00  0.00    -0.002 C 
ATOM      4  C   UNL     1     117.966 118.212 118.096  1.00  0.00     0.005 C 
ATOM      5  C   UNL     1     117.905 119.472 118.970  1.00  0.00     0.010 C 
ATOM      6  C   UNL     1     119.387 119.905 119.049  1.00  0.00    -0.006 C 
ATOM      7  C   UNL     1     119.907 119.468 117.697  1.00  0.00     0.013 C 
ATOM      8  C   UNL     1     120.140 118.956 120.021  1.00  0.00     0.126 C 
ATOM      9  C   UNL     1     119.566 121.402 119.338  1.00  0.00     0.014 C 
ATOM     10  C   UNL     1     121.651 117.153 118.894  1.00  0.00     0.014 C 
ENDROOT
BRANCH   8  11
ATOM     11  O   UNL     1     121.419 119.463 120.316  1.00  0.00    -0.392 OA
ATOM     12  H   UNL     1     121.961 119.362 119.491  1.00  0.00     0.211 HD
ENDBRANCH   8  11
TORSDOF 1
ENDMDL
MODEL 2
REMARK VINA RESULT:    -5.392      1.673      2.802
REMARK INTER + INTRA:          -5.549
REMARK INTER:                  -5.549
REMARK INTRA:                   0.000
REMARK UNBOUND:                 0.000
REMARK SMILES CC1(C)[C@H]2CC[C@](C)(C2)[C@@H]1O
REMARK SMILES IDX 1 1 2 2 4 3 5 4 6 5 7 6 9 7 10 8 8 9 3 10 11 11
REMARK H PARENT 11 12
REMARK Flexibility Score: inf
ROOT
ATOM      1  C   UNL     1     121.158 119.500 119.965  1.00  0.00     0.014 C 
ATOM      2  C   UNL     1     119.984 120.158 119.200  1.00  0.00    -0.006 C 
ATOM      3  C   UNL     1     119.593 119.404 117.884  1.00  0.00    -0.002 C 
ATOM      4  C   UNL     1     119.444 117.888 118.128  1.00  0.00     0.005 C 
ATOM      5  C   UNL     1     118.191 117.806 119.011  1.00  0.00     0.010 C 
ATOM      6  C   UNL     1     117.719 119.277 119.070  1.00  0.00    -0.006 C 
ATOM      7  C   UNL     1     118.134 119.788 117.708  1.00  0.00     0.013 C 
ATOM      8  C   UNL     1     118.653 120.070 120.025  1.00  0.00     0.126 C 
ATOM      9  C   UNL     1     116.219 119.420 119.366  1.00  0.00     0.014 C 
ATOM     10  C   UNL     1     120.409 121.612 118.864  1.00  0.00     0.014 C 
ENDROOT
BRANCH   8  11
ATOM     11  O   UNL     1     118.113 121.339 120.304  1.00  0.00    -0.392 OA
ATOM     12  H   UNL     1     118.717 122.003 119.880  1.00  0.00     0.211 HD
ENDBRANCH   8  11
TORSDOF 1
ENDMDL
MODEL 3
REMARK VINA RESULT:    -5.387      1.703      2.781
REMARK INTER + INTRA:          -5.544
REMARK INTER:                  -5.544
REMARK INTRA:                   0.000
REMARK UNBOUND:                 0.000
REMARK SMILES CC1(C)[C@H]2CC[C@](C)(C2)[C@@H]1O
REMARK SMILES IDX 1 1 2 2 4 3 5 4 6 5 7 6 9 7 10 8 8 9 3 10 11 11
REMARK H PARENT 11 12
REMARK Flexibility Score: inf
ROOT
ATOM      1  C   UNL     1     116.427 118.099 119.995  1.00  0.00     0.014 C 
ATOM      2  C   UNL     1     117.590 117.430 119.222  1.00  0.00    -0.006 C 
ATOM      3  C   UNL     1     117.977 118.178 117.902  1.00  0.00    -0.002 C 
ATOM      4  C   UNL     1     118.140 119.694 118.141  1.00  0.00     0.005 C 
ATOM      5  C   UNL     1     119.400 119.767 119.015  1.00  0.00     0.010 C 
ATOM      6  C   UNL     1     119.861 118.292 119.074  1.00  0.00    -0.006 C 
ATOM      7  C   UNL     1     119.432 117.782 117.716  1.00  0.00     0.013 C 
ATOM      8  C   UNL     1     118.928 117.510 120.037  1.00  0.00     0.126 C 
ATOM      9  C   UNL     1     121.361 118.138 119.358  1.00  0.00     0.014 C 
ATOM     10  C   UNL     1     117.151 115.980 118.892  1.00  0.00     0.014 C 
ENDROOT
BRANCH   8  11
ATOM     11  O   UNL     1     119.459 116.237 120.315  1.00  0.00    -0.392 OA
ATOM     12  H   UNL     1     118.685 115.631 120.455  1.00  0.00     0.211 HD
ENDBRANCH   8  11
TORSDOF 1
ENDMDL
MODEL 4
REMARK VINA RESULT:    -5.363      1.985      3.929
REMARK INTER + INTRA:          -5.520
REMARK INTER:                  -5.520
REMARK INTRA:                   0.000
REMARK UNBOUND:                 0.000
REMARK SMILES CC1(C)[C@H]2CC[C@](C)(C2)[C@@H]1O
REMARK SMILES IDX 1 1 2 2 4 3 5 4 6 5 7 6 9 7 10 8 8 9 3 10 11 11
REMARK H PARENT 11 12
REMARK Flexibility Score: inf
ROOT
ATOM      1  C   UNL     1     118.174 121.225 119.995  1.00  0.00     0.014 C 
ATOM      2  C   UNL     1     117.477 120.074 119.230  1.00  0.00    -0.006 C 
ATOM      3  C   UNL     1     118.202 119.677 117.900  1.00  0.00    -0.002 C 
ATOM      4  C   UNL     1     119.718 119.490 118.120  1.00  0.00     0.005 C 
ATOM      5  C   UNL     1     119.782 118.228 118.991  1.00  0.00     0.010 C 
ATOM      6  C   UNL     1     118.301 117.790 119.068  1.00  0.00    -0.006 C 
ATOM      7  C   UNL     1     117.781 118.229 117.717  1.00  0.00     0.013 C 
ATOM      8  C   UNL     1     117.546 118.734 120.042  1.00  0.00     0.126 C 
ATOM      9  C   UNL     1     118.127 116.292 119.354  1.00  0.00     0.014 C 
ATOM     10  C   UNL     1     116.030 120.536 118.918  1.00  0.00     0.014 C 
ENDROOT
BRANCH   8  11
ATOM     11  O   UNL     1     116.268 118.223 120.335  1.00  0.00    -0.392 OA
ATOM     12  H   UNL     1     115.614 118.912 120.048  1.00  0.00     0.211 HD
ENDBRANCH   8  11
TORSDOF 1
ENDMDL
MODEL 5
REMARK VINA RESULT:    -5.222      1.385      2.266
REMARK INTER + INTRA:          -5.375
REMARK INTER:                  -5.375
REMARK INTRA:                   0.000
REMARK UNBOUND:                 0.000
REMARK SMILES CC1(C)[C@H]2CC[C@](C)(C2)[C@@H]1O
REMARK SMILES IDX 1 1 2 2 4 3 5 4 6 5 7 6 9 7 10 8 8 9 3 10 11 11
REMARK H PARENT 11 12
REMARK Flexibility Score: inf
ROOT
ATOM      1  C   UNL     1     121.263 117.734 119.166  1.00  0.00     0.014 C 
ATOM      2  C   UNL     1     120.323 118.955 119.319  1.00  0.00    -0.006 C 
ATOM      3  C   UNL     1     119.808 119.523 117.953  1.00  0.00    -0.002 C 
ATOM      4  C   UNL     1     119.273 118.399 117.042  1.00  0.00     0.005 C 
ATOM      5  C   UNL     1     118.006 117.940 117.776  1.00  0.00     0.010 C 
ATOM      6  C   UNL     1     117.916 118.933 118.958  1.00  0.00    -0.006 C 
ATOM      7  C   UNL     1     118.501 120.188 118.348  1.00  0.00     0.013 C 
ATOM      8  C   UNL     1     118.981 118.550 120.021  1.00  0.00     0.126 C 
ATOM      9  C   UNL     1     116.491 119.102 119.501  1.00  0.00     0.014 C 
ATOM     10  C   UNL     1     121.113 120.053 120.078  1.00  0.00     0.014 C 
ENDROOT
BRANCH   8  11
ATOM     11  O   UNL     1     118.767 119.264 121.215  1.00  0.00    -0.392 OA
ATOM     12  H   UNL     1     119.664 119.509 121.563  1.00  0.00     0.211 HD
ENDBRANCH   8  11
TORSDOF 1
ENDMDL
MODEL 6
REMARK VINA RESULT:    -4.964      1.946      3.283
REMARK INTER + INTRA:          -5.109
REMARK INTER:                  -5.109
REMARK INTRA:                   0.000
REMARK UNBOUND:                 0.000
REMARK SMILES CC1(C)[C@H]2CC[C@](C)(C2)[C@@H]1O
REMARK SMILES IDX 1 1 2 2 4 3 5 4 6 5 7 6 9 7 10 8 8 9 3 10 11 11
REMARK H PARENT 11 12
REMARK Flexibility Score: inf
ROOT
ATOM      1  C   UNL     1     118.560 118.547 121.088  1.00  0.00     0.014 C 
ATOM      2  C   UNL     1     118.681 119.544 119.911  1.00  0.00    -0.006 C 
ATOM      3  C   UNL     1     120.154 119.767 119.427  1.00  0.00    -0.002 C 
ATOM      4  C   UNL     1     120.888 118.425 119.223  1.00  0.00     0.005 C 
ATOM      5  C   UNL     1     120.166 117.823 118.010  1.00  0.00     0.010 C 
ATOM      6  C   UNL     1     119.183 118.945 117.605  1.00  0.00    -0.006 C 
ATOM      7  C   UNL     1     119.963 120.186 117.980  1.00  0.00     0.013 C 
ATOM      8  C   UNL     1     118.004 118.973 118.616  1.00  0.00     0.126 C 
ATOM      9  C   UNL     1     118.768 118.884 116.129  1.00  0.00     0.014 C 
ATOM     10  C   UNL     1     118.076 120.892 120.383  1.00  0.00     0.014 C 
ENDROOT
BRANCH   8  11
ATOM     11  O   UNL     1     116.969 119.802 118.146  1.00  0.00    -0.392 OA
ATOM     12  H   UNL     1     116.640 120.316 118.929  1.00  0.00     0.211 HD
ENDBRANCH   8  11
TORSDOF 1
ENDMDL
MODEL 7
REMARK VINA RESULT:    -4.945      1.436      2.519
REMARK INTER + INTRA:          -5.089
REMARK INTER:                  -5.089
REMARK INTRA:                   0.000
REMARK UNBOUND:                 0.000
REMARK SMILES CC1(C)[C@H]2CC[C@](C)(C2)[C@@H]1O
REMARK SMILES IDX 1 1 2 2 4 3 5 4 6 5 7 6 9 7 10 8 8 9 3 10 11 11
REMARK H PARENT 11 12
REMARK Flexibility Score: inf
ROOT
ATOM      1  C   UNL     1     118.552 119.051 121.161  1.00  0.00     0.014 C 
ATOM      2  C   UNL     1     119.542 118.980 119.974  1.00  0.00    -0.006 C 
ATOM      3  C   UNL     1     119.828 117.519 119.485  1.00  0.00    -0.002 C 
ATOM      4  C   UNL     1     118.520 116.724 119.291  1.00  0.00     0.005 C 
ATOM      5  C   UNL     1     117.873 117.421 118.086  1.00  0.00     0.010 C 
ATOM      6  C   UNL     1     118.946 118.455 117.673  1.00  0.00    -0.006 C 
ATOM      7  C   UNL     1     120.224 117.732 118.034  1.00  0.00     0.013 C 
ATOM      8  C   UNL     1     118.928 119.632 118.686  1.00  0.00     0.126 C 
ATOM      9  C   UNL     1     118.852 118.870 116.198  1.00  0.00     0.014 C 
ATOM     10  C   UNL     1     120.865 119.645 120.435  1.00  0.00     0.014 C 
ENDROOT
BRANCH   8  11
ATOM     11  O   UNL     1     119.704 120.705 118.211  1.00  0.00    -0.392 OA
ATOM     12  H   UNL     1     120.348 120.931 118.932  1.00  0.00     0.211 HD
ENDBRANCH   8  11
TORSDOF 1
ENDMDL
MODEL 8
REMARK VINA RESULT:    -4.934      1.695      2.451
REMARK INTER + INTRA:          -5.079
REMARK INTER:                  -5.079
REMARK INTRA:                   0.000
REMARK UNBOUND:                 0.000
REMARK SMILES CC1(C)[C@H]2CC[C@](C)(C2)[C@@H]1O
REMARK SMILES IDX 1 1 2 2 4 3 5 4 6 5 7 6 9 7 10 8 8 9 3 10 11 11
REMARK H PARENT 11 12
REMARK Flexibility Score: inf
ROOT
ATOM      1  C   UNL     1     119.135 118.984 121.155  1.00  0.00     0.014 C 
ATOM      2  C   UNL     1     119.040 118.039 119.933  1.00  0.00    -0.006 C 
ATOM      3  C   UNL     1     117.573 117.800 119.439  1.00  0.00    -0.002 C 
ATOM      4  C   UNL     1     116.804 119.131 119.296  1.00  0.00     0.005 C 
ATOM      5  C   UNL     1     117.510 119.806 118.112  1.00  0.00     0.010 C 
ATOM      6  C   UNL     1     118.522 118.728 117.657  1.00  0.00    -0.006 C 
ATOM      7  C   UNL     1     117.774 117.452 117.974  1.00  0.00     0.013 C 
ATOM      8  C   UNL     1     119.701 118.686 118.667  1.00  0.00     0.126 C 
ATOM      9  C   UNL     1     118.934 118.868 116.185  1.00  0.00     0.014 C 
ATOM     10  C   UNL     1     119.680 116.687 120.344  1.00  0.00     0.014 C 
ENDROOT
BRANCH   8  11
ATOM     11  O   UNL     1     120.757 117.906 118.160  1.00  0.00    -0.392 OA
ATOM     12  H   UNL     1     120.965 118.262 117.257  1.00  0.00     0.211 HD
ENDBRANCH   8  11
TORSDOF 1
ENDMDL
MODEL 9
REMARK VINA RESULT:    -4.920      2.079      3.273
REMARK INTER + INTRA:          -5.064
REMARK INTER:                  -5.064
REMARK INTRA:                   0.000
REMARK UNBOUND:                 0.000
REMARK SMILES CC1(C)[C@H]2CC[C@](C)(C2)[C@@H]1O
REMARK SMILES IDX 1 1 2 2 4 3 5 4 6 5 7 6 9 7 10 8 8 9 3 10 11 11
REMARK H PARENT 11 12
REMARK Flexibility Score: inf
ROOT
ATOM      1  C   UNL     1     119.148 118.459 121.152  1.00  0.00     0.014 C 
ATOM      2  C   UNL     1     118.125 118.561 119.995  1.00  0.00    -0.006 C 
ATOM      3  C   UNL     1     117.853 120.030 119.527  1.00  0.00    -0.002 C 
ATOM      4  C   UNL     1     119.169 120.803 119.303  1.00  0.00     0.005 C 
ATOM      5  C   UNL     1     119.768 120.107 118.073  1.00  0.00     0.010 C 
ATOM      6  C   UNL     1     118.665 119.096 117.682  1.00  0.00    -0.006 C 
ATOM      7  C   UNL     1     117.411 119.839 118.087  1.00  0.00     0.013 C 
ATOM      8  C   UNL     1     118.690 117.910 118.684  1.00  0.00     0.126 C 
ATOM      9  C   UNL     1     118.709 118.694 116.202  1.00  0.00     0.014 C 
ATOM     10  C   UNL     1     116.804 117.915 120.488  1.00  0.00     0.014 C 
ENDROOT
BRANCH   8  11
ATOM     11  O   UNL     1     117.881 116.855 118.222  1.00  0.00    -0.392 OA
ATOM     12  H   UNL     1     118.109 116.061 118.772  1.00  0.00     0.211 HD
ENDBRANCH   8  11
TORSDOF 1
ENDMDL
