MODEL 1
REMARK VINA RESULT:    -3.603      0.000      0.000
REMARK INTER + INTRA:          -3.708
REMARK INTER:                  -3.708
REMARK INTRA:                   0.000
REMARK UNBOUND:                 0.000
REMARK SMILES CC1(C)[C@@H]2CC[C@@]1(C)[C@H](O)C2
REMARK SMILES IDX 1 1 2 2 4 3 5 4 6 5 7 6 9 7 11 8 8 9 3 10 10 11
REMARK H PARENT 10 12
REMARK Flexibility Score: inf
ROOT
ATOM      1  C   UNL     1     140.277 147.446 145.031  1.00  0.00     0.012 C 
ATOM      2  C   UNL     1     138.829 147.214 145.562  1.00  0.00    -0.025 C 
ATOM      3  C   UNL     1     138.124 148.500 146.020  1.00  0.00    -0.002 C 
ATOM      4  C   UNL     1     136.696 148.015 146.374  1.00  0.00     0.005 C 
ATOM      5  C   UNL     1     136.435 146.921 145.320  1.00  0.00     0.010 C 
ATOM      6  C   UNL     1     137.749 146.929 144.489  1.00  0.00    -0.001 C 
ATOM      7  C   UNL     1     137.698 148.243 143.648  1.00  0.00     0.121 C 
ATOM      8  C   UNL     1     137.990 149.324 144.714  1.00  0.00     0.036 C 
ATOM      9  C   UNL     1     137.939 145.647 143.667  1.00  0.00     0.015 C 
ATOM     10  C   UNL     1     138.958 146.133 146.680  1.00  0.00     0.012 C 
ENDROOT
BRANCH   7  11
ATOM     11  O   UNL     1     138.666 148.271 142.629  1.00  0.00    -0.393 OA
ATOM     12  H   UNL     1     138.174 148.258 141.766  1.00  0.00     0.210 HD
ENDBRANCH   7  11
TORSDOF 1
ENDMDL
MODEL 2
REMARK VINA RESULT:    -3.580      8.976     10.434
REMARK INTER + INTRA:          -3.685
REMARK INTER:                  -3.685
REMARK INTRA:                   0.000
REMARK UNBOUND:                 0.000
REMARK SMILES CC1(C)[C@@H]2CC[C@@]1(C)[C@H](O)C2
REMARK SMILES IDX 1 1 2 2 4 3 5 4 6 5 7 6 9 7 11 8 8 9 3 10 10 11
REMARK H PARENT 10 12
REMARK Flexibility Score: inf
ROOT
ATOM      1  C   UNL     1     147.422 141.346 145.091  1.00  0.00     0.012 C 
ATOM      2  C   UNL     1     147.221 142.797 145.627  1.00  0.00    -0.025 C 
ATOM      3  C   UNL     1     148.524 143.476 146.078  1.00  0.00    -0.002 C 
ATOM      4  C   UNL     1     148.068 144.912 146.439  1.00  0.00     0.005 C 
ATOM      5  C   UNL     1     146.971 145.197 145.393  1.00  0.00     0.010 C 
ATOM      6  C   UNL     1     146.950 143.885 144.559  1.00  0.00    -0.001 C 
ATOM      7  C   UNL     1     148.259 143.913 143.709  1.00  0.00     0.121 C 
ATOM      8  C   UNL     1     149.341 143.598 144.767  1.00  0.00     0.036 C 
ATOM      9  C   UNL     1     145.658 143.721 143.745  1.00  0.00     0.015 C 
ATOM     10  C   UNL     1     146.145 142.685 146.753  1.00  0.00     0.012 C 
ENDROOT
BRANCH   7  11
ATOM     11  O   UNL     1     148.261 142.948 142.687  1.00  0.00    -0.393 OA
ATOM     12  H   UNL     1     147.576 142.272 142.930  1.00  0.00     0.210 HD
ENDBRANCH   7  11
TORSDOF 1
ENDMDL
MODEL 3
REMARK VINA RESULT:    -3.571     13.166     14.751
REMARK INTER + INTRA:          -3.676
REMARK INTER:                  -3.676
REMARK INTRA:                   0.000
REMARK UNBOUND:                 0.000
REMARK SMILES CC1(C)[C@@H]2CC[C@@]1(C)[C@H](O)C2
REMARK SMILES IDX 1 1 2 2 4 3 5 4 6 5 7 6 9 7 11 8 8 9 3 10 10 11
REMARK H PARENT 10 12
REMARK Flexibility Score: inf
ROOT
ATOM      1  C   UNL     1     141.315 134.181 145.054  1.00  0.00     0.012 C 
ATOM      2  C   UNL     1     142.777 134.371 145.562  1.00  0.00    -0.025 C 
ATOM      3  C   UNL     1     143.464 133.061 145.977  1.00  0.00    -0.002 C 
ATOM      4  C   UNL     1     144.908 133.508 146.315  1.00  0.00     0.005 C 
ATOM      5  C   UNL     1     145.172 134.621 145.282  1.00  0.00     0.010 C 
ATOM      6  C   UNL     1     143.843 134.659 144.476  1.00  0.00    -0.001 C 
ATOM      7  C   UNL     1     143.851 133.364 143.604  1.00  0.00     0.121 C 
ATOM      8  C   UNL     1     143.557 132.265 144.650  1.00  0.00     0.036 C 
ATOM      9  C   UNL     1     143.664 135.964 143.687  1.00  0.00     0.015 C 
ATOM     10  C   UNL     1     142.691 135.429 146.707  1.00  0.00     0.012 C 
ENDROOT
BRANCH   7  11
ATOM     11  O   UNL     1     142.865 133.380 142.603  1.00  0.00    -0.393 OA
ATOM     12  H   UNL     1     142.828 132.463 142.222  1.00  0.00     0.210 HD
ENDBRANCH   7  11
TORSDOF 1
ENDMDL
MODEL 4
REMARK VINA RESULT:    -3.569      9.009     10.424
REMARK INTER + INTRA:          -3.674
REMARK INTER:                  -3.674
REMARK INTRA:                   0.000
REMARK UNBOUND:                 0.000
REMARK SMILES CC1(C)[C@@H]2CC[C@@]1(C)[C@H](O)C2
REMARK SMILES IDX 1 1 2 2 4 3 5 4 6 5 7 6 9 7 11 8 8 9 3 10 10 11
REMARK H PARENT 10 12
REMARK Flexibility Score: inf
ROOT
ATOM      1  C   UNL     1     134.156 140.282 145.018  1.00  0.00     0.012 C 
ATOM      2  C   UNL     1     134.383 138.844 145.578  1.00  0.00    -0.025 C 
ATOM      3  C   UNL     1     133.095 138.155 146.055  1.00  0.00    -0.002 C 
ATOM      4  C   UNL     1     133.575 136.732 146.436  1.00  0.00     0.005 C 
ATOM      5  C   UNL     1     134.664 136.444 145.384  1.00  0.00     0.010 C 
ATOM      6  C   UNL     1     134.659 137.741 144.527  1.00  0.00    -0.001 C 
ATOM      7  C   UNL     1     133.342 137.679 143.691  1.00  0.00     0.121 C 
ATOM      8  C   UNL     1     132.266 137.997 144.754  1.00  0.00     0.036 C 
ATOM      9  C   UNL     1     135.940 137.909 143.696  1.00  0.00     0.015 C 
ATOM     10  C   UNL     1     135.469 138.992 146.690  1.00  0.00     0.012 C 
ENDROOT
BRANCH   7  11
ATOM     11  O   UNL     1     133.315 138.626 142.652  1.00  0.00    -0.393 OA
ATOM     12  H   UNL     1     132.562 139.243 142.846  1.00  0.00     0.210 HD
ENDBRANCH   7  11
TORSDOF 1
ENDMDL
MODEL 5
REMARK VINA RESULT:    -3.506      1.085      2.235
REMARK INTER + INTRA:          -3.609
REMARK INTER:                  -3.609
REMARK INTRA:                   0.000
REMARK UNBOUND:                 0.000
REMARK SMILES CC1(C)[C@@H]2CC[C@@]1(C)[C@H](O)C2
REMARK SMILES IDX 1 1 2 2 4 3 5 4 6 5 7 6 9 7 11 8 8 9 3 10 10 11
REMARK H PARENT 10 12
REMARK Flexibility Score: inf
ROOT
ATOM      1  C   UNL     1     137.629 148.693 146.564  1.00  0.00     0.012 C 
ATOM      2  C   UNL     1     137.630 147.414 145.672  1.00  0.00    -0.025 C 
ATOM      3  C   UNL     1     136.428 147.321 144.720  1.00  0.00    -0.002 C 
ATOM      4  C   UNL     1     136.734 146.052 143.885  1.00  0.00     0.005 C 
ATOM      5  C   UNL     1     138.267 146.102 143.735  1.00  0.00     0.010 C 
ATOM      6  C   UNL     1     138.641 147.404 144.498  1.00  0.00    -0.001 C 
ATOM      7  C   UNL     1     138.163 148.573 143.581  1.00  0.00     0.121 C 
ATOM      8  C   UNL     1     136.629 148.526 143.765  1.00  0.00     0.036 C 
ATOM      9  C   UNL     1     140.125 147.459 144.888  1.00  0.00     0.015 C 
ATOM     10  C   UNL     1     137.747 146.211 146.661  1.00  0.00     0.012 C 
ENDROOT
BRANCH   7  11
ATOM     11  O   UNL     1     138.677 149.819 143.979  1.00  0.00    -0.393 OA
ATOM     12  H   UNL     1     138.275 150.501 143.380  1.00  0.00     0.210 HD
ENDBRANCH   7  11
TORSDOF 1
ENDMDL
MODEL 6
REMARK VINA RESULT:    -3.498      8.989     10.324
REMARK INTER + INTRA:          -3.600
REMARK INTER:                  -3.600
REMARK INTRA:                   0.000
REMARK UNBOUND:                 0.000
REMARK SMILES CC1(C)[C@@H]2CC[C@@]1(C)[C@H](O)C2
REMARK SMILES IDX 1 1 2 2 4 3 5 4 6 5 7 6 9 7 11 8 8 9 3 10 10 11
REMARK H PARENT 10 12
REMARK Flexibility Score: inf
ROOT
ATOM      1  C   UNL     1     148.709 143.972 146.573  1.00  0.00     0.012 C 
ATOM      2  C   UNL     1     147.397 143.947 145.730  1.00  0.00    -0.025 C 
ATOM      3  C   UNL     1     147.248 145.145 144.780  1.00  0.00    -0.002 C 
ATOM      4  C   UNL     1     145.953 144.817 143.995  1.00  0.00     0.005 C 
ATOM      5  C   UNL     1     146.023 143.283 143.847  1.00  0.00     0.010 C 
ATOM      6  C   UNL     1     147.359 142.934 144.560  1.00  0.00    -0.001 C 
ATOM      7  C   UNL     1     148.484 143.429 143.597  1.00  0.00     0.121 C 
ATOM      8  C   UNL     1     148.418 144.962 143.781  1.00  0.00     0.036 C 
ATOM      9  C   UNL     1     147.454 141.451 144.950  1.00  0.00     0.015 C 
ATOM     10  C   UNL     1     146.235 143.813 146.765  1.00  0.00     0.012 C 
ENDROOT
BRANCH   7  11
ATOM     11  O   UNL     1     149.753 142.936 143.948  1.00  0.00    -0.393 OA
ATOM     12  H   UNL     1     149.702 142.669 144.903  1.00  0.00     0.210 HD
ENDBRANCH   7  11
TORSDOF 1
ENDMDL
MODEL 7
REMARK VINA RESULT:    -3.481     13.888     15.335
REMARK INTER + INTRA:          -3.583
REMARK INTER:                  -3.583
REMARK INTRA:                   0.000
REMARK UNBOUND:                 0.000
REMARK SMILES CC1(C)[C@@H]2CC[C@@]1(C)[C@H](O)C2
REMARK SMILES IDX 1 1 2 2 4 3 5 4 6 5 7 6 9 7 11 8 8 9 3 10 10 11
REMARK H PARENT 10 12
REMARK Flexibility Score: inf
ROOT
ATOM      1  C   UNL     1     144.193 135.515 143.987  1.00  0.00     0.012 C 
ATOM      2  C   UNL     1     144.447 134.487 145.132  1.00  0.00    -0.025 C 
ATOM      3  C   UNL     1     143.179 134.099 145.908  1.00  0.00    -0.002 C 
ATOM      4  C   UNL     1     143.680 133.002 146.881  1.00  0.00     0.005 C 
ATOM      5  C   UNL     1     144.740 132.259 146.042  1.00  0.00     0.010 C 
ATOM      6  C   UNL     1     144.699 133.025 144.689  1.00  0.00    -0.001 C 
ATOM      7  C   UNL     1     143.358 132.599 144.013  1.00  0.00     0.121 C 
ATOM      8  C   UNL     1     142.313 133.374 144.847  1.00  0.00     0.036 C 
ATOM      9  C   UNL     1     145.953 132.787 143.835  1.00  0.00     0.015 C 
ATOM     10  C   UNL     1     145.565 135.116 146.022  1.00  0.00     0.012 C 
ENDROOT
BRANCH   7  11
ATOM     11  O   UNL     1     143.293 132.970 142.659  1.00  0.00    -0.393 OA
ATOM     12  H   UNL     1     143.851 132.320 142.156  1.00  0.00     0.210 HD
ENDBRANCH   7  11
TORSDOF 1
ENDMDL
MODEL 8
REMARK VINA RESULT:    -3.476      9.750     10.964
REMARK INTER + INTRA:          -3.578
REMARK INTER:                  -3.578
REMARK INTRA:                   0.000
REMARK UNBOUND:                 0.000
REMARK SMILES CC1(C)[C@@H]2CC[C@@]1(C)[C@H](O)C2
REMARK SMILES IDX 1 1 2 2 4 3 5 4 6 5 7 6 9 7 11 8 8 9 3 10 10 11
REMARK H PARENT 10 12
REMARK Flexibility Score: inf
ROOT
ATOM      1  C   UNL     1     135.735 137.595 143.767  1.00  0.00     0.012 C 
ATOM      2  C   UNL     1     134.792 137.223 144.952  1.00  0.00    -0.025 C 
ATOM      3  C   UNL     1     134.329 138.432 145.779  1.00  0.00    -0.002 C 
ATOM      4  C   UNL     1     133.331 137.811 146.788  1.00  0.00     0.005 C 
ATOM      5  C   UNL     1     132.647 136.707 145.957  1.00  0.00     0.010 C 
ATOM      6  C   UNL     1     133.338 136.847 144.572  1.00  0.00    -0.001 C 
ATOM      7  C   UNL     1     132.760 138.158 143.952  1.00  0.00     0.121 C 
ATOM      8  C   UNL     1     133.477 139.252 144.777  1.00  0.00     0.036 C 
ATOM      9  C   UNL     1     133.174 135.596 143.697  1.00  0.00     0.015 C 
ATOM     10  C   UNL     1     135.562 136.148 145.782  1.00  0.00     0.012 C 
ENDROOT
BRANCH   7  11
ATOM     11  O   UNL     1     133.057 138.287 142.584  1.00  0.00    -0.393 OA
ATOM     12  H   UNL     1     132.424 138.957 142.215  1.00  0.00     0.210 HD
ENDBRANCH   7  11
TORSDOF 1
ENDMDL
MODEL 9
REMARK VINA RESULT:    -3.472      1.059      2.150
REMARK INTER + INTRA:          -3.573
REMARK INTER:                  -3.573
REMARK INTRA:                   0.000
REMARK UNBOUND:                 0.000
REMARK SMILES CC1(C)[C@@H]2CC[C@@]1(C)[C@H](O)C2
REMARK SMILES IDX 1 1 2 2 4 3 5 4 6 5 7 6 9 7 11 8 8 9 3 10 10 11
REMARK H PARENT 10 12
REMARK Flexibility Score: inf
ROOT
ATOM      1  C   UNL     1     137.593 145.891 143.794  1.00  0.00     0.012 C 
ATOM      2  C   UNL     1     137.223 146.839 144.976  1.00  0.00    -0.025 C 
ATOM      3  C   UNL     1     138.432 147.294 145.807  1.00  0.00    -0.002 C 
ATOM      4  C   UNL     1     137.814 148.299 146.812  1.00  0.00     0.005 C 
ATOM      5  C   UNL     1     136.718 148.989 145.975  1.00  0.00     0.010 C 
ATOM      6  C   UNL     1     136.860 148.295 144.592  1.00  0.00    -0.001 C 
ATOM      7  C   UNL     1     138.178 148.862 143.976  1.00  0.00     0.121 C 
ATOM      8  C   UNL     1     139.262 148.138 144.807  1.00  0.00     0.036 C 
ATOM      9  C   UNL     1     135.614 148.467 143.711  1.00  0.00     0.015 C 
ATOM     10  C   UNL     1     136.139 146.078 145.802  1.00  0.00     0.012 C 
ENDROOT
BRANCH   7  11
ATOM     11  O   UNL     1     138.310 148.562 142.610  1.00  0.00    -0.393 OA
ATOM     12  H   UNL     1     137.665 147.833 142.412  1.00  0.00     0.210 HD
ENDBRANCH   7  11
TORSDOF 1
ENDMDL
