MODEL 1
REMARK VINA RESULT:    -3.670      0.000      0.000
REMARK INTER + INTRA:          -8.864
REMARK INTER:                  -7.102
REMARK INTRA:                  -1.762
REMARK UNBOUND:                -1.762
REMARK SMILES CCCCCCCCCCCCCCCCCC(=O)[O-]
REMARK SMILES IDX 10 1 11 2 12 3 13 4 14 5 15 6 16 7 17 8 18 9 19 10 20 11
REMARK SMILES IDX 9 12 8 13 7 14 6 15 5 16 4 17 3 18 2 19 1 20
REMARK H PARENT
REMARK Flexibility Score: inf
ROOT
ATOM      1  C   UNL     1      58.324  25.978  49.957  1.00  0.00     0.000 C 
ENDROOT
BRANCH   1   2
ATOM      2  C   UNL     1      59.858  25.892  49.993  1.00  0.00     0.000 C 
BRANCH   2   3
ATOM      3  C   UNL     1      60.369  24.726  50.858  1.00  0.00     0.000 C 
BRANCH   3   4
ATOM      4  C   UNL     1      61.250  23.721  50.085  1.00  0.00     0.000 C 
BRANCH   4   5
ATOM      5  C   UNL     1      60.530  22.382  49.850  1.00  0.00     0.000 C 
BRANCH   5   6
ATOM      6  C   UNL     1      60.998  21.674  48.567  1.00  0.00     0.000 C 
BRANCH   6   7
ATOM      7  C   UNL     1      60.556  20.204  48.507  1.00  0.00     0.006 C 
BRANCH   7   8
ATOM      8  C   UNL     1      59.540  19.893  49.610  1.00  0.00     0.053 C 
BRANCH   8   9
ATOM      9  C   UNL     1      58.857  18.589  49.341  1.00  0.00     0.041 C 
ATOM     10  O   UNL     1      59.311  17.805  48.467  1.00  0.00    -0.550 OA
ATOM     11  O   UNL     1      57.749  18.216  50.091  1.00  0.00    -0.550 OA
ENDBRANCH   8   9
ENDBRANCH   7   8
ENDBRANCH   6   7
ENDBRANCH   5   6
ENDBRANCH   4   5
ENDBRANCH   3   4
ENDBRANCH   2   3
ENDBRANCH   1   2
BRANCH   1  12
ATOM     12  C   UNL     1      57.687  25.733  51.334  1.00  0.00     0.000 C 
BRANCH  12  13
ATOM     13  C   UNL     1      56.154  25.852  51.310  1.00  0.00    -0.000 C 
BRANCH  13  14
ATOM     14  C   UNL     1      55.684  26.624  50.070  1.00  0.00    -0.000 C 
BRANCH  14  15
ATOM     15  C   UNL     1      54.625  27.695  50.395  1.00  0.00    -0.000 C 
BRANCH  15  16
ATOM     16  C   UNL     1      55.193  29.056  50.841  1.00  0.00    -0.000 C 
BRANCH  16  17
ATOM     17  C   UNL     1      56.631  29.348  50.372  1.00  0.00    -0.000 C 
BRANCH  17  18
ATOM     18  C   UNL     1      57.659  29.421  51.521  1.00  0.00    -0.000 C 
BRANCH  18  19
ATOM     19  C   UNL     1      59.065  29.791  51.029  1.00  0.00    -0.003 C 
ATOM     20  C   UNL     1      59.192  29.590  49.522  1.00  0.00     0.004 C 
ENDBRANCH  18  19
ENDBRANCH  17  18
ENDBRANCH  16  17
ENDBRANCH  15  16
ENDBRANCH  14  15
ENDBRANCH  13  14
ENDBRANCH  12  13
ENDBRANCH   1  12
TORSDOF 16
ENDMDL
MODEL 2
REMARK VINA RESULT:    -3.616      1.230      3.046
REMARK INTER + INTRA:          -8.759
REMARK INTER:                  -7.593
REMARK INTRA:                  -1.166
REMARK UNBOUND:                -1.762
REMARK SMILES CCCCCCCCCCCCCCCCCC(=O)[O-]
REMARK SMILES IDX 10 1 11 2 12 3 13 4 14 5 15 6 16 7 17 8 18 9 19 10 20 11
REMARK SMILES IDX 9 12 8 13 7 14 6 15 5 16 4 17 3 18 2 19 1 20
REMARK H PARENT
REMARK Flexibility Score: inf
ROOT
ATOM      1  C   UNL     1      59.758  26.219  49.669  1.00  0.00     0.000 C 
ENDROOT
BRANCH   1   2
ATOM      2  C   UNL     1      58.894  25.365  50.610  1.00  0.00     0.000 C 
BRANCH   2   3
ATOM      3  C   UNL     1      59.610  24.088  51.082  1.00  0.00     0.000 C 
BRANCH   3   4
ATOM      4  C   UNL     1      61.136  24.112  50.852  1.00  0.00     0.000 C 
BRANCH   4   5
ATOM      5  C   UNL     1      61.612  22.921  50.002  1.00  0.00     0.000 C 
BRANCH   5   6
ATOM      6  C   UNL     1      60.463  21.985  49.596  1.00  0.00     0.000 C 
BRANCH   6   7
ATOM      7  C   UNL     1      60.899  20.913  48.586  1.00  0.00     0.006 C 
BRANCH   7   8
ATOM      8  C   UNL     1      59.818  19.841  48.424  1.00  0.00     0.053 C 
BRANCH   8   9
ATOM      9  C   UNL     1      59.996  18.760  49.443  1.00  0.00     0.041 C 
ATOM     10  O   UNL     1      60.769  17.793  49.212  1.00  0.00    -0.550 OA
ATOM     11  O   UNL     1      59.348  18.845  50.669  1.00  0.00    -0.550 OA
ENDBRANCH   8   9
ENDBRANCH   7   8
ENDBRANCH   6   7
ENDBRANCH   5   6
ENDBRANCH   4   5
ENDBRANCH   3   4
ENDBRANCH   2   3
ENDBRANCH   1   2
BRANCH   1  12
ATOM     12  C   UNL     1      59.869  27.680  50.133  1.00  0.00     0.000 C 
BRANCH  12  13
ATOM     13  C   UNL     1      59.391  28.681  49.069  1.00  0.00    -0.000 C 
BRANCH  13  14
ATOM     14  C   UNL     1      58.319  29.618  49.642  1.00  0.00    -0.000 C 
BRANCH  14  15
ATOM     15  C   UNL     1      57.504  28.974  50.779  1.00  0.00    -0.000 C 
BRANCH  15  16
ATOM     16  C   UNL     1      56.318  28.105  50.319  1.00  0.00    -0.000 C 
BRANCH  16  17
ATOM     17  C   UNL     1      54.940  28.791  50.393  1.00  0.00    -0.000 C 
BRANCH  17  18
ATOM     18  C   UNL     1      53.779  27.915  49.875  1.00  0.00    -0.000 C 
BRANCH  18  19
ATOM     19  C   UNL     1      54.244  26.515  49.450  1.00  0.00    -0.003 C 
ATOM     20  C   UNL     1      53.901  25.475  50.512  1.00  0.00     0.004 C 
ENDBRANCH  18  19
ENDBRANCH  17  18
ENDBRANCH  16  17
ENDBRANCH  15  16
ENDBRANCH  14  15
ENDBRANCH  13  14
ENDBRANCH  12  13
ENDBRANCH   1  12
TORSDOF 16
ENDMDL
MODEL 3
REMARK VINA RESULT:    -3.612      1.640      3.843
REMARK INTER + INTRA:          -8.752
REMARK INTER:                  -7.664
REMARK INTRA:                  -1.088
REMARK UNBOUND:                -1.762
REMARK SMILES CCCCCCCCCCCCCCCCCC(=O)[O-]
REMARK SMILES IDX 10 1 11 2 12 3 13 4 14 5 15 6 16 7 17 8 18 9 19 10 20 11
REMARK SMILES IDX 9 12 8 13 7 14 6 15 5 16 4 17 3 18 2 19 1 20
REMARK H PARENT
REMARK Flexibility Score: inf
ROOT
ATOM      1  C   UNL     1      61.664  22.780  50.267  1.00  0.00     0.000 C 
ENDROOT
BRANCH   1   2
ATOM      2  C   UNL     1      60.902  22.398  48.988  1.00  0.00     0.000 C 
BRANCH   2   3
ATOM      3  C   UNL     1      61.143  20.938  48.564  1.00  0.00     0.000 C 
BRANCH   3   4
ATOM      4  C   UNL     1      60.190  19.931  49.243  1.00  0.00     0.000 C 
BRANCH   4   5
ATOM      5  C   UNL     1      59.554  18.963  48.231  1.00  0.00     0.000 C 
BRANCH   5   6
ATOM      6  C   UNL     1      59.561  17.505  48.719  1.00  0.00     0.000 C 
BRANCH   6   7
ATOM      7  C   UNL     1      58.153  16.979  49.036  1.00  0.00     0.006 C 
BRANCH   7   8
ATOM      8  C   UNL     1      57.906  16.954  50.548  1.00  0.00     0.053 C 
BRANCH   8   9
ATOM      9  C   UNL     1      57.187  18.193  50.981  1.00  0.00     0.041 C 
ATOM     10  O   UNL     1      56.168  18.586  50.355  1.00  0.00    -0.550 OA
ATOM     11  O   UNL     1      57.611  18.885  52.109  1.00  0.00    -0.550 OA
ENDBRANCH   8   9
ENDBRANCH   7   8
ENDBRANCH   6   7
ENDBRANCH   5   6
ENDBRANCH   4   5
ENDBRANCH   3   4
ENDBRANCH   2   3
ENDBRANCH   1   2
BRANCH   1  12
ATOM     12  C   UNL     1      60.811  23.619  51.232  1.00  0.00     0.000 C 
BRANCH  12  13
ATOM     13  C   UNL     1      59.751  24.465  50.509  1.00  0.00    -0.000 C 
BRANCH  13  14
ATOM     14  C   UNL     1      59.995  25.963  50.742  1.00  0.00    -0.000 C 
BRANCH  14  15
ATOM     15  C   UNL     1      59.643  26.826  49.515  1.00  0.00    -0.000 C 
BRANCH  15  16
ATOM     16  C   UNL     1      60.525  28.074  49.324  1.00  0.00    -0.000 C 
BRANCH  16  17
ATOM     17  C   UNL     1      59.957  29.372  49.928  1.00  0.00    -0.000 C 
BRANCH  17  18
ATOM     18  C   UNL     1      58.470  29.617  49.593  1.00  0.00    -0.000 C 
BRANCH  18  19
ATOM     19  C   UNL     1      57.561  29.488  50.823  1.00  0.00    -0.003 C 
ATOM     20  C   UNL     1      56.424  28.503  50.567  1.00  0.00     0.004 C 
ENDBRANCH  18  19
ENDBRANCH  17  18
ENDBRANCH  16  17
ENDBRANCH  15  16
ENDBRANCH  14  15
ENDBRANCH  13  14
ENDBRANCH  12  13
ENDBRANCH   1  12
TORSDOF 16
ENDMDL
MODEL 4
REMARK VINA RESULT:    -3.577      3.431      5.498
REMARK INTER + INTRA:          -8.685
REMARK INTER:                  -5.996
REMARK INTRA:                  -2.688
REMARK UNBOUND:                -1.762
REMARK SMILES CCCCCCCCCCCCCCCCCC(=O)[O-]
REMARK SMILES IDX 10 1 11 2 12 3 13 4 14 5 15 6 16 7 17 8 18 9 19 10 20 11
REMARK SMILES IDX 9 12 8 13 7 14 6 15 5 16 4 17 3 18 2 19 1 20
REMARK H PARENT
REMARK Flexibility Score: inf
ROOT
ATOM      1  C   UNL     1      56.683  29.595  53.439  1.00  0.00     0.000 C 
ENDROOT
BRANCH   1   2
ATOM      2  C   UNL     1      57.759  28.997  52.518  1.00  0.00     0.000 C 
BRANCH   2   3
ATOM      3  C   UNL     1      58.287  30.007  51.484  1.00  0.00     0.000 C 
BRANCH   3   4
ATOM      4  C   UNL     1      57.960  29.625  50.024  1.00  0.00     0.000 C 
BRANCH   4   5
ATOM      5  C   UNL     1      59.226  29.284  49.218  1.00  0.00     0.000 C 
BRANCH   5   6
ATOM      6  C   UNL     1      59.521  27.775  49.185  1.00  0.00     0.000 C 
BRANCH   6   7
ATOM      7  C   UNL     1      60.927  27.435  49.701  1.00  0.00     0.006 C 
BRANCH   7   8
ATOM      8  C   UNL     1      60.854  26.501  50.913  1.00  0.00     0.053 C 
BRANCH   8   9
ATOM      9  C   UNL     1      61.221  25.104  50.520  1.00  0.00     0.041 C 
ATOM     10  O   UNL     1      62.372  24.658  50.768  1.00  0.00    -0.550 OA
ATOM     11  O   UNL     1      60.276  24.277  49.926  1.00  0.00    -0.550 OA
ENDBRANCH   8   9
ENDBRANCH   7   8
ENDBRANCH   6   7
ENDBRANCH   5   6
ENDBRANCH   4   5
ENDBRANCH   3   4
ENDBRANCH   2   3
ENDBRANCH   1   2
BRANCH   1  12
ATOM     12  C   UNL     1      55.260  29.180  53.031  1.00  0.00     0.000 C 
BRANCH  12  13
ATOM     13  C   UNL     1      54.561  30.231  52.155  1.00  0.00    -0.000 C 
BRANCH  13  14
ATOM     14  C   UNL     1      54.577  29.812  50.679  1.00  0.00    -0.000 C 
BRANCH  14  15
ATOM     15  C   UNL     1      53.375  28.929  50.292  1.00  0.00    -0.000 C 
BRANCH  15  16
ATOM     16  C   UNL     1      53.733  27.490  49.876  1.00  0.00    -0.000 C 
BRANCH  16  17
ATOM     17  C   UNL     1      55.239  27.168  49.872  1.00  0.00    -0.000 C 
BRANCH  17  18
ATOM     18  C   UNL     1      55.678  26.226  51.013  1.00  0.00    -0.000 C 
BRANCH  18  19
ATOM     19  C   UNL     1      57.175  25.891  50.956  1.00  0.00    -0.003 C 
ATOM     20  C   UNL     1      57.611  25.102  52.187  1.00  0.00     0.004 C 
ENDBRANCH  18  19
ENDBRANCH  17  18
ENDBRANCH  16  17
ENDBRANCH  15  16
ENDBRANCH  14  15
ENDBRANCH  13  14
ENDBRANCH  12  13
ENDBRANCH   1  12
TORSDOF 16
ENDMDL
MODEL 5
REMARK VINA RESULT:    -3.575      5.821      7.612
REMARK INTER + INTRA:          -8.681
REMARK INTER:                  -6.124
REMARK INTRA:                  -2.557
REMARK UNBOUND:                -1.762
REMARK SMILES CCCCCCCCCCCCCCCCCC(=O)[O-]
REMARK SMILES IDX 10 1 11 2 12 3 13 4 14 5 15 6 16 7 17 8 18 9 19 10 20 11
REMARK SMILES IDX 9 12 8 13 7 14 6 15 5 16 4 17 3 18 2 19 1 20
REMARK H PARENT
REMARK Flexibility Score: inf
ROOT
ATOM      1  C   UNL     1      58.420  30.132  51.537  1.00  0.00     0.000 C 
ENDROOT
BRANCH   1   2
ATOM      2  C   UNL     1      57.878  29.628  50.190  1.00  0.00     0.000 C 
BRANCH   2   3
ATOM      3  C   UNL     1      58.993  29.328  49.173  1.00  0.00     0.000 C 
BRANCH   3   4
ATOM      4  C   UNL     1      59.490  27.866  49.213  1.00  0.00     0.000 C 
BRANCH   4   5
ATOM      5  C   UNL     1      60.722  27.699  50.119  1.00  0.00     0.000 C 
BRANCH   5   6
ATOM      6  C   UNL     1      62.028  28.126  49.428  1.00  0.00     0.000 C 
BRANCH   6   7
ATOM      7  C   UNL     1      62.887  29.050  50.304  1.00  0.00     0.006 C 
BRANCH   7   8
ATOM      8  C   UNL     1      62.084  30.274  50.757  1.00  0.00     0.053 C 
BRANCH   8   9
ATOM      9  C   UNL     1      62.701  31.530  50.228  1.00  0.00     0.041 C 
ATOM     10  O   UNL     1      63.049  31.605  49.020  1.00  0.00    -0.550 OA
ATOM     11  O   UNL     1      62.846  32.637  51.055  1.00  0.00    -0.550 OA
ENDBRANCH   8   9
ENDBRANCH   7   8
ENDBRANCH   6   7
ENDBRANCH   5   6
ENDBRANCH   4   5
ENDBRANCH   3   4
ENDBRANCH   2   3
ENDBRANCH   1   2
BRANCH   1  12
ATOM     12  C   UNL     1      57.840  29.359  52.732  1.00  0.00     0.000 C 
BRANCH  12  13
ATOM     13  C   UNL     1      58.840  28.363  53.340  1.00  0.00    -0.000 C 
BRANCH  13  14
ATOM     14  C   UNL     1      58.493  26.924  52.937  1.00  0.00    -0.000 C 
BRANCH  14  15
ATOM     15  C   UNL     1      57.052  26.777  52.415  1.00  0.00    -0.000 C 
BRANCH  15  16
ATOM     16  C   UNL     1      56.889  25.826  51.213  1.00  0.00    -0.000 C 
BRANCH  16  17
ATOM     17  C   UNL     1      56.154  26.429  50.001  1.00  0.00    -0.000 C 
BRANCH  17  18
ATOM     18  C   UNL     1      55.021  27.407  50.382  1.00  0.00    -0.000 C 
BRANCH  18  19
ATOM     19  C   UNL     1      53.715  27.114  49.631  1.00  0.00    -0.003 C 
ATOM     20  C   UNL     1      53.728  25.711  49.031  1.00  0.00     0.004 C 
ENDBRANCH  18  19
ENDBRANCH  17  18
ENDBRANCH  16  17
ENDBRANCH  15  16
ENDBRANCH  14  15
ENDBRANCH  13  14
ENDBRANCH  12  13
ENDBRANCH   1  12
TORSDOF 16
ENDMDL
MODEL 6
REMARK VINA RESULT:    -3.575      0.971      2.814
REMARK INTER + INTRA:          -8.680
REMARK INTER:                  -7.189
REMARK INTRA:                  -1.491
REMARK UNBOUND:                -1.762
REMARK SMILES CCCCCCCCCCCCCCCCCC(=O)[O-]
REMARK SMILES IDX 10 1 11 2 12 3 13 4 14 5 15 6 16 7 17 8 18 9 19 10 20 11
REMARK SMILES IDX 9 12 8 13 7 14 6 15 5 16 4 17 3 18 2 19 1 20
REMARK H PARENT
REMARK Flexibility Score: inf
ROOT
ATOM      1  C   UNL     1      59.109  25.921  51.045  1.00  0.00     0.000 C 
ENDROOT
BRANCH   1   2
ATOM      2  C   UNL     1      59.276  24.393  51.067  1.00  0.00     0.000 C 
BRANCH   2   3
ATOM      3  C   UNL     1      60.744  23.952  50.937  1.00  0.00     0.000 C 
BRANCH   3   4
ATOM      4  C   UNL     1      61.039  23.157  49.646  1.00  0.00     0.000 C 
BRANCH   4   5
ATOM      5  C   UNL     1      60.671  21.669  49.787  1.00  0.00     0.000 C 
BRANCH   5   6
ATOM      6  C   UNL     1      60.751  20.910  48.452  1.00  0.00     0.000 C 
BRANCH   6   7
ATOM      7  C   UNL     1      59.807  19.699  48.402  1.00  0.00     0.006 C 
BRANCH   7   8
ATOM      8  C   UNL     1      59.242  19.388  49.791  1.00  0.00     0.053 C 
BRANCH   8   9
ATOM      9  C   UNL     1      58.606  18.034  49.807  1.00  0.00     0.041 C 
ATOM     10  O   UNL     1      57.351  17.924  49.794  1.00  0.00    -0.550 OA
ATOM     11  O   UNL     1      59.397  16.893  49.785  1.00  0.00    -0.550 OA
ENDBRANCH   8   9
ENDBRANCH   7   8
ENDBRANCH   6   7
ENDBRANCH   5   6
ENDBRANCH   4   5
ENDBRANCH   3   4
ENDBRANCH   2   3
ENDBRANCH   1   2
BRANCH   1  12
ATOM     12  C   UNL     1      59.296  26.514  49.639  1.00  0.00     0.000 C 
BRANCH  12  13
ATOM     13  C   UNL     1      60.537  27.413  49.533  1.00  0.00    -0.000 C 
BRANCH  13  14
ATOM     14  C   UNL     1      60.174  28.881  49.796  1.00  0.00    -0.000 C 
BRANCH  14  15
ATOM     15  C   UNL     1      58.709  29.209  49.451  1.00  0.00    -0.000 C 
BRANCH  15  16
ATOM     16  C   UNL     1      57.903  29.861  50.589  1.00  0.00    -0.000 C 
BRANCH  16  17
ATOM     17  C   UNL     1      56.874  28.938  51.270  1.00  0.00    -0.000 C 
BRANCH  17  18
ATOM     18  C   UNL     1      55.576  28.744  50.457  1.00  0.00    -0.000 C 
BRANCH  18  19
ATOM     19  C   UNL     1      54.929  27.373  50.701  1.00  0.00    -0.003 C 
ATOM     20  C   UNL     1      55.535  26.309  49.792  1.00  0.00     0.004 C 
ENDBRANCH  18  19
ENDBRANCH  17  18
ENDBRANCH  16  17
ENDBRANCH  15  16
ENDBRANCH  14  15
ENDBRANCH  13  14
ENDBRANCH  12  13
ENDBRANCH   1  12
TORSDOF 16
ENDMDL
MODEL 7
REMARK VINA RESULT:    -3.557      3.084      8.283
REMARK INTER + INTRA:          -8.647
REMARK INTER:                  -7.720
REMARK INTRA:                  -0.926
REMARK UNBOUND:                -1.762
REMARK SMILES CCCCCCCCCCCCCCCCCC(=O)[O-]
REMARK SMILES IDX 10 1 11 2 12 3 13 4 14 5 15 6 16 7 17 8 18 9 19 10 20 11
REMARK SMILES IDX 9 12 8 13 7 14 6 15 5 16 4 17 3 18 2 19 1 20
REMARK H PARENT
REMARK Flexibility Score: inf
ROOT
ATOM      1  C   UNL     1      60.596  26.568  50.013  1.00  0.00     0.000 C 
ENDROOT
BRANCH   1   2
ATOM      2  C   UNL     1      59.420  27.269  49.313  1.00  0.00     0.000 C 
BRANCH   2   3
ATOM      3  C   UNL     1      59.558  28.802  49.307  1.00  0.00     0.000 C 
BRANCH   3   4
ATOM      4  C   UNL     1      58.271  29.541  49.732  1.00  0.00     0.000 C 
BRANCH   4   5
ATOM      5  C   UNL     1      57.301  28.622  50.495  1.00  0.00     0.000 C 
BRANCH   5   6
ATOM      6  C   UNL     1      55.946  29.292  50.774  1.00  0.00     0.000 C 
BRANCH   6   7
ATOM      7  C   UNL     1      54.758  28.345  50.544  1.00  0.00     0.006 C 
BRANCH   7   8
ATOM      8  C   UNL     1      55.226  27.020  49.933  1.00  0.00     0.053 C 
BRANCH   8   9
ATOM      9  C   UNL     1      54.080  26.067  49.810  1.00  0.00     0.041 C 
ATOM     10  O   UNL     1      53.748  25.617  48.682  1.00  0.00    -0.550 OA
ATOM     11  O   UNL     1      53.410  25.634  50.947  1.00  0.00    -0.550 OA
ENDBRANCH   8   9
ENDBRANCH   7   8
ENDBRANCH   6   7
ENDBRANCH   5   6
ENDBRANCH   4   5
ENDBRANCH   3   4
ENDBRANCH   2   3
ENDBRANCH   1   2
BRANCH   1  12
ATOM     12  C   UNL     1      60.155  25.777  51.255  1.00  0.00     0.000 C 
BRANCH  12  13
ATOM     13  C   UNL     1      60.794  24.381  51.329  1.00  0.00    -0.000 C 
BRANCH  13  14
ATOM     14  C   UNL     1      60.843  23.727  49.941  1.00  0.00    -0.000 C 
BRANCH  14  15
ATOM     15  C   UNL     1      60.454  22.237  49.965  1.00  0.00    -0.000 C 
BRANCH  15  16
ATOM     16  C   UNL     1      60.797  21.455  48.683  1.00  0.00    -0.000 C 
BRANCH  16  17
ATOM     17  C   UNL     1      60.013  20.142  48.491  1.00  0.00    -0.000 C 
BRANCH  17  18
ATOM     18  C   UNL     1      60.598  18.947  49.273  1.00  0.00    -0.000 C 
BRANCH  18  19
ATOM     19  C   UNL     1      59.553  17.856  49.549  1.00  0.00    -0.003 C 
ATOM     20  C   UNL     1      59.028  17.256  48.248  1.00  0.00     0.004 C 
ENDBRANCH  18  19
ENDBRANCH  17  18
ENDBRANCH  16  17
ENDBRANCH  15  16
ENDBRANCH  14  15
ENDBRANCH  13  14
ENDBRANCH  12  13
ENDBRANCH   1  12
TORSDOF 16
ENDMDL
MODEL 8
REMARK VINA RESULT:    -3.455      3.977      6.707
REMARK INTER + INTRA:          -8.449
REMARK INTER:                  -5.496
REMARK INTRA:                  -2.953
REMARK UNBOUND:                -1.762
REMARK SMILES CCCCCCCCCCCCCCCCCC(=O)[O-]
REMARK SMILES IDX 10 1 11 2 12 3 13 4 14 5 15 6 16 7 17 8 18 9 19 10 20 11
REMARK SMILES IDX 9 12 8 13 7 14 6 15 5 16 4 17 3 18 2 19 1 20
REMARK H PARENT
REMARK Flexibility Score: inf
ROOT
ATOM      1  C   UNL     1      56.079  29.081  53.705  1.00  0.00     0.000 C 
ENDROOT
BRANCH   1   2
ATOM      2  C   UNL     1      54.713  29.064  53.000  1.00  0.00     0.000 C 
BRANCH   2   3
ATOM      3  C   UNL     1      54.564  30.191  51.964  1.00  0.00     0.000 C 
BRANCH   3   4
ATOM      4  C   UNL     1      53.996  29.715  50.609  1.00  0.00     0.000 C 
BRANCH   4   5
ATOM      5  C   UNL     1      54.657  28.411  50.131  1.00  0.00     0.000 C 
BRANCH   5   6
ATOM      6  C   UNL     1      53.636  27.378  49.625  1.00  0.00     0.000 C 
BRANCH   6   7
ATOM      7  C   UNL     1      54.031  25.935  49.971  1.00  0.00     0.006 C 
BRANCH   7   8
ATOM      8  C   UNL     1      55.209  25.911  50.949  1.00  0.00     0.053 C 
BRANCH   8   9
ATOM      9  C   UNL     1      54.773  25.388  52.282  1.00  0.00     0.041 C 
ATOM     10  O   UNL     1      53.587  25.558  52.671  1.00  0.00    -0.550 OA
ATOM     11  O   UNL     1      55.660  24.669  53.072  1.00  0.00    -0.550 OA
ENDBRANCH   8   9
ENDBRANCH   7   8
ENDBRANCH   6   7
ENDBRANCH   5   6
ENDBRANCH   4   5
ENDBRANCH   3   4
ENDBRANCH   2   3
ENDBRANCH   1   2
BRANCH   1  12
ATOM     12  C   UNL     1      57.157  28.316  52.921  1.00  0.00     0.000 C 
BRANCH  12  13
ATOM     13  C   UNL     1      58.424  29.152  52.680  1.00  0.00    -0.000 C 
BRANCH  13  14
ATOM     14  C   UNL     1      58.182  30.213  51.598  1.00  0.00    -0.000 C 
BRANCH  14  15
ATOM     15  C   UNL     1      58.024  29.609  50.190  1.00  0.00    -0.000 C 
BRANCH  15  16
ATOM     16  C   UNL     1      59.346  29.313  49.457  1.00  0.00    -0.000 C 
BRANCH  16  17
ATOM     17  C   UNL     1      59.611  27.823  49.168  1.00  0.00    -0.000 C 
BRANCH  17  18
ATOM     18  C   UNL     1      58.483  26.885  49.649  1.00  0.00    -0.000 C 
BRANCH  18  19
ATOM     19  C   UNL     1      59.022  25.637  50.362  1.00  0.00    -0.003 C 
ATOM     20  C   UNL     1      59.971  26.017  51.495  1.00  0.00     0.004 C 
ENDBRANCH  18  19
ENDBRANCH  17  18
ENDBRANCH  16  17
ENDBRANCH  15  16
ENDBRANCH  14  15
ENDBRANCH  13  14
ENDBRANCH  12  13
ENDBRANCH   1  12
TORSDOF 16
ENDMDL
MODEL 9
REMARK VINA RESULT:    -3.430      5.348      7.493
REMARK INTER + INTRA:          -8.400
REMARK INTER:                  -5.538
REMARK INTRA:                  -2.862
REMARK UNBOUND:                -1.762
REMARK SMILES CCCCCCCCCCCCCCCCCC(=O)[O-]
REMARK SMILES IDX 10 1 11 2 12 3 13 4 14 5 15 6 16 7 17 8 18 9 19 10 20 11
REMARK SMILES IDX 9 12 8 13 7 14 6 15 5 16 4 17 3 18 2 19 1 20
REMARK H PARENT
REMARK Flexibility Score: inf
ROOT
ATOM      1  C   UNL     1      58.302  28.020  52.885  1.00  0.00     0.000 C 
ENDROOT
BRANCH   1   2
ATOM      2  C   UNL     1      58.868  26.596  52.764  1.00  0.00     0.000 C 
BRANCH   2   3
ATOM      3  C   UNL     1      58.131  25.749  51.712  1.00  0.00     0.000 C 
BRANCH   3   4
ATOM      4  C   UNL     1      56.641  26.122  51.550  1.00  0.00     0.000 C 
BRANCH   4   5
ATOM      5  C   UNL     1      56.245  26.295  50.074  1.00  0.00     0.000 C 
BRANCH   5   6
ATOM      6  C   UNL     1      54.896  27.012  49.902  1.00  0.00     0.000 C 
BRANCH   6   7
ATOM      7  C   UNL     1      54.924  28.459  50.414  1.00  0.00     0.006 C 
BRANCH   7   8
ATOM      8  C   UNL     1      53.546  29.114  50.280  1.00  0.00     0.053 C 
BRANCH   8   9
ATOM      9  C   UNL     1      53.246  29.954  51.482  1.00  0.00     0.041 C 
ATOM     10  O   UNL     1      53.195  31.208  51.381  1.00  0.00    -0.550 OA
ATOM     11  O   UNL     1      52.972  29.350  52.702  1.00  0.00    -0.550 OA
ENDBRANCH   8   9
ENDBRANCH   7   8
ENDBRANCH   6   7
ENDBRANCH   5   6
ENDBRANCH   4   5
ENDBRANCH   3   4
ENDBRANCH   2   3
ENDBRANCH   1   2
BRANCH   1  12
ATOM     12  C   UNL     1      59.405  29.088  52.969  1.00  0.00     0.000 C 
BRANCH  12  13
ATOM     13  C   UNL     1      59.263  30.177  51.895  1.00  0.00    -0.000 C 
BRANCH  13  14
ATOM     14  C   UNL     1      58.205  29.785  50.854  1.00  0.00    -0.000 C 
BRANCH  14  15
ATOM     15  C   UNL     1      58.796  29.573  49.447  1.00  0.00    -0.000 C 
BRANCH  15  16
ATOM     16  C   UNL     1      59.383  28.172  49.192  1.00  0.00    -0.000 C 
BRANCH  16  17
ATOM     17  C   UNL     1      60.921  28.092  49.234  1.00  0.00    -0.000 C 
BRANCH  17  18
ATOM     18  C   UNL     1      61.461  26.942  50.111  1.00  0.00    -0.000 C 
BRANCH  18  19
ATOM     19  C   UNL     1      62.179  27.451  51.370  1.00  0.00    -0.003 C 
ATOM     20  C   UNL     1      62.615  26.291  52.260  1.00  0.00     0.004 C 
ENDBRANCH  18  19
ENDBRANCH  17  18
ENDBRANCH  16  17
ENDBRANCH  15  16
ENDBRANCH  14  15
ENDBRANCH  13  14
ENDBRANCH  12  13
ENDBRANCH   1  12
TORSDOF 16
ENDMDL
