MODEL 1
REMARK VINA RESULT:    49.552      0.000      0.000
REMARK INTER + INTRA:          74.740
REMARK INTER:                  72.727
REMARK INTRA:                   2.014
REMARK UNBOUND:                 2.014
REMARK SMILES Cc1cc2c(C(C)C)c(O)c(O)c(C=O)c2c(O)c1-c1c(C)cc2c(C(C)C)c(O)c(O)c(C=O)c2c1O
REMARK SMILES IDX 1 1 2 2 3 3 4 4 16 5 13 6 11 7 9 8 5 9 17 10 19 11 20 12
REMARK SMILES IDX 37 13 21 14 36 15 23 16 22 17 24 18 33 19 25 20 31 21 29 22
REMARK SMILES IDX 38 23 34 25 35 26 26 27 27 28 28 29 32 30 30 32 18 34 6 36
REMARK SMILES IDX 7 37 8 38 14 39 15 40 10 41 12 43
REMARK H PARENT 38 24 32 31 30 33 18 35 10 42 12 44
REMARK Flexibility Score: inf
ROOT
ATOM      1  C   UNL     1      32.877 -36.159  18.121  1.00  0.00     0.045 C 
ATOM      2  C   UNL     1      34.279 -35.637  17.917  1.00  0.00    -0.039 A 
ATOM      3  C   UNL     1      34.505 -34.618  16.990  1.00  0.00     0.013 A 
ATOM      4  C   UNL     1      35.792 -34.094  16.753  1.00  0.00    -0.006 A 
ATOM      5  C   UNL     1      36.905 -34.718  17.391  1.00  0.00     0.039 A 
ATOM      6  C   UNL     1      38.223 -34.361  16.988  1.00  0.00     0.072 A 
ATOM      7  C   UNL     1      38.417 -33.328  16.055  1.00  0.00     0.169 A 
ATOM      8  C   UNL     1      37.322 -32.599  15.557  1.00  0.00     0.162 A 
ATOM      9  C   UNL     1      35.997 -32.965  15.896  1.00  0.00     0.008 A 
ATOM     10  C   UNL     1      36.661 -35.670  18.425  1.00  0.00     0.132 A 
ATOM     11  C   UNL     1      35.352 -36.135  18.671  1.00  0.00     0.031 A 
ENDROOT
BRANCH  11  12
ATOM     12  C   UNL     1      35.105 -37.153  19.725  1.00  0.00     0.031 A 
ATOM     13  C   UNL     1      35.559 -38.478  19.552  1.00  0.00     0.132 A 
ATOM     14  C   UNL     1      34.409 -36.798  20.893  1.00  0.00    -0.039 A 
ATOM     15  C   UNL     1      35.267 -39.470  20.531  1.00  0.00     0.039 A 
ATOM     16  C   UNL     1      34.261 -37.737  21.916  1.00  0.00     0.013 A 
ATOM     17  C   UNL     1      33.886 -35.396  21.093  1.00  0.00     0.045 C 
ATOM     18  C   UNL     1      34.743 -39.058  21.790  1.00  0.00    -0.006 A 
ATOM     19  C   UNL     1      35.516 -40.853  20.307  1.00  0.00     0.072 A 
ATOM     20  C   UNL     1      34.688 -39.981  22.878  1.00  0.00     0.008 A 
ATOM     21  C   UNL     1      35.360 -41.777  21.353  1.00  0.00     0.169 A 
ATOM     22  C   UNL     1      34.912 -41.354  22.620  1.00  0.00     0.162 A 
BRANCH  13  23
ATOM     23  O   UNL     1      36.342 -38.800  18.438  1.00  0.00    -0.507 OA
ATOM     24  H   UNL     1      37.335 -38.613  18.376  1.00  0.00     0.293 HD
ENDBRANCH  13  23
BRANCH  19  25
ATOM     25  C   UNL     1      35.813 -41.410  18.968  1.00  0.00     0.264 C 
ATOM     26  O   UNL     1      35.114 -42.342  18.488  1.00  0.00    -0.298 OA
ENDBRANCH  19  25
BRANCH  20  27
ATOM     27  C   UNL     1      34.380 -39.512  24.312  1.00  0.00     0.017 C 
ATOM     28  C   UNL     1      35.047 -38.163  24.602  1.00  0.00     0.012 C 
ATOM     29  C   UNL     1      32.876 -39.477  24.645  1.00  0.00     0.012 C 
ENDBRANCH  20  27
BRANCH  21  30
ATOM     30  O   UNL     1      35.658 -43.122  21.096  1.00  0.00    -0.504 OA
ATOM     31  H   UNL     1      35.625 -43.858  21.786  1.00  0.00     0.293 HD
ENDBRANCH  21  30
BRANCH  22  32
ATOM     32  O   UNL     1      34.637 -42.282  23.628  1.00  0.00    -0.504 OA
ATOM     33  H   UNL     1      35.290 -42.973  23.967  1.00  0.00     0.293 HD
ENDBRANCH  22  32
ENDBRANCH  11  12
BRANCH  10  34
ATOM     34  O   UNL     1      37.713 -36.121  19.231  1.00  0.00    -0.507 OA
ATOM     35  H   UNL     1      38.682 -36.139  18.937  1.00  0.00     0.293 HD
ENDBRANCH  10  34
BRANCH   9  36
ATOM     36  C   UNL     1      34.850 -32.093  15.341  1.00  0.00     0.017 C 
ATOM     37  C   UNL     1      33.832 -31.717  16.425  1.00  0.00     0.012 C 
ATOM     38  C   UNL     1      35.317 -30.886  14.502  1.00  0.00     0.012 C 
ENDBRANCH   9  36
BRANCH   6  39
ATOM     39  C   UNL     1      39.410 -35.146  17.404  1.00  0.00     0.264 C 
ATOM     40  O   UNL     1      39.366 -36.404  17.472  1.00  0.00    -0.298 OA
ENDBRANCH   6  39
BRANCH   8  41
ATOM     41  O   UNL     1      37.528 -31.499  14.715  1.00  0.00    -0.504 OA
ATOM     42  H   UNL     1      37.061 -30.609  14.812  1.00  0.00     0.293 HD
ENDBRANCH   8  41
BRANCH   7  43
ATOM     43  O   UNL     1      39.719 -33.072  15.607  1.00  0.00    -0.504 OA
ATOM     44  H   UNL     1      40.026 -33.175  14.649  1.00  0.00     0.293 HD
ENDBRANCH   7  43
TORSDOF 11
ENDMDL
MODEL 2
REMARK VINA RESULT:    51.217      1.691      3.157
REMARK INTER + INTRA:          77.183
REMARK INTER:                  75.567
REMARK INTRA:                   1.616
REMARK UNBOUND:                 2.014
REMARK SMILES Cc1cc2c(C(C)C)c(O)c(O)c(C=O)c2c(O)c1-c1c(C)cc2c(C(C)C)c(O)c(O)c(C=O)c2c1O
REMARK SMILES IDX 1 1 2 2 3 3 4 4 16 5 13 6 11 7 9 8 5 9 17 10 19 11 20 12
REMARK SMILES IDX 37 13 21 14 36 15 23 16 22 17 24 18 33 19 25 20 31 21 29 22
REMARK SMILES IDX 38 23 34 25 35 26 26 27 27 28 28 29 32 30 30 32 18 34 6 36
REMARK SMILES IDX 7 37 8 38 14 39 15 40 10 41 12 43
REMARK H PARENT 38 24 32 31 30 33 18 35 10 42 12 44
REMARK Flexibility Score: inf
ROOT
ATOM      1  C   UNL     1      32.879 -36.423  17.216  1.00  0.00     0.045 C 
ATOM      2  C   UNL     1      34.085 -35.518  17.138  1.00  0.00    -0.039 A 
ATOM      3  C   UNL     1      34.006 -34.328  16.412  1.00  0.00     0.013 A 
ATOM      4  C   UNL     1      35.099 -33.445  16.301  1.00  0.00    -0.006 A 
ATOM      5  C   UNL     1      36.356 -33.852  16.840  1.00  0.00     0.039 A 
ATOM      6  C   UNL     1      37.519 -33.090  16.535  1.00  0.00     0.072 A 
ATOM      7  C   UNL     1      37.405 -31.894  15.806  1.00  0.00     0.169 A 
ATOM      8  C   UNL     1      36.141 -31.408  15.423  1.00  0.00     0.162 A 
ATOM      9  C   UNL     1      34.972 -32.169  15.663  1.00  0.00     0.008 A 
ATOM     10  C   UNL     1      36.403 -35.003  17.682  1.00  0.00     0.132 A 
ATOM     11  C   UNL     1      35.273 -35.837  17.814  1.00  0.00     0.031 A 
ENDROOT
BRANCH  11  12
ATOM     12  C   UNL     1      35.335 -37.054  18.663  1.00  0.00     0.031 A 
ATOM     13  C   UNL     1      34.787 -37.040  19.963  1.00  0.00     0.132 A 
ATOM     14  C   UNL     1      35.948 -38.220  18.174  1.00  0.00    -0.039 A 
ATOM     15  C   UNL     1      34.902 -38.185  20.803  1.00  0.00     0.039 A 
ATOM     16  C   UNL     1      35.921 -39.385  18.944  1.00  0.00     0.013 A 
ATOM     17  C   UNL     1      36.569 -38.256  16.799  1.00  0.00     0.045 C 
ATOM     18  C   UNL     1      35.341 -39.413  20.232  1.00  0.00    -0.006 A 
ATOM     19  C   UNL     1      34.557 -38.151  22.183  1.00  0.00     0.072 A 
ATOM     20  C   UNL     1      35.218 -40.630  20.969  1.00  0.00     0.008 A 
ATOM     21  C   UNL     1      34.537 -39.337  22.935  1.00  0.00     0.169 A 
ATOM     22  C   UNL     1      34.901 -40.563  22.346  1.00  0.00     0.162 A 
BRANCH  13  23
ATOM     23  O   UNL     1      34.084 -35.913  20.405  1.00  0.00    -0.507 OA
ATOM     24  H   UNL     1      34.397 -35.317  21.161  1.00  0.00     0.293 HD
ENDBRANCH  13  23
BRANCH  19  25
ATOM     25  C   UNL     1      34.338 -36.890  22.927  1.00  0.00     0.264 C 
ATOM     26  O   UNL     1      34.420 -36.859  24.183  1.00  0.00    -0.298 OA
ENDBRANCH  19  25
BRANCH  20  27
ATOM     27  C   UNL     1      35.431 -41.998  20.298  1.00  0.00     0.017 C 
ATOM     28  C   UNL     1      35.898 -43.043  21.317  1.00  0.00     0.012 C 
ATOM     29  C   UNL     1      34.209 -42.498  19.503  1.00  0.00     0.012 C 
ENDBRANCH  20  27
BRANCH  21  30
ATOM     30  O   UNL     1      34.149 -39.259  24.280  1.00  0.00    -0.504 OA
ATOM     31  H   UNL     1      33.602 -38.509  24.676  1.00  0.00     0.293 HD
ENDBRANCH  21  30
BRANCH  22  32
ATOM     32  O   UNL     1      35.002 -41.724  23.117  1.00  0.00    -0.504 OA
ATOM     33  H   UNL     1      35.650 -41.855  23.879  1.00  0.00     0.293 HD
ENDBRANCH  22  32
ENDBRANCH  11  12
BRANCH  10  34
ATOM     34  O   UNL     1      37.559 -35.292  18.416  1.00  0.00    -0.507 OA
ATOM     35  H   UNL     1      38.004 -34.639  19.049  1.00  0.00     0.293 HD
ENDBRANCH  10  34
BRANCH   9  36
ATOM     36  C   UNL     1      33.619 -31.551  15.249  1.00  0.00     0.017 C 
ATOM     37  C   UNL     1      33.317 -30.255  16.013  1.00  0.00     0.012 C 
ATOM     38  C   UNL     1      33.421 -31.417  13.724  1.00  0.00     0.012 C 
ENDBRANCH   9  36
BRANCH   6  39
ATOM     39  C   UNL     1      38.884 -33.591  16.830  1.00  0.00     0.264 C 
ATOM     40  O   UNL     1      39.122 -34.826  16.899  1.00  0.00    -0.298 OA
ENDBRANCH   6  39
BRANCH   8  41
ATOM     41  O   UNL     1      36.024 -30.162  14.796  1.00  0.00    -0.504 OA
ATOM     42  H   UNL     1      36.790 -29.521  14.648  1.00  0.00     0.293 HD
ENDBRANCH   8  41
BRANCH   7  43
ATOM     43  O   UNL     1      38.579 -31.224  15.438  1.00  0.00    -0.504 OA
ATOM     44  H   UNL     1      39.303 -31.617  14.854  1.00  0.00     0.293 HD
ENDBRANCH   7  43
TORSDOF 11
ENDMDL
