MODEL 1
REMARK VINA RESULT:    -4.202      0.000      0.000
REMARK INTER + INTRA:         -10.133
REMARK INTER:                  -8.133
REMARK INTRA:                  -2.000
REMARK UNBOUND:                -2.000
REMARK SMILES CCCCCCCCCCCCCCCCCC(=O)[O-]
REMARK SMILES IDX 10 1 11 2 12 3 13 4 14 5 15 6 16 7 17 8 18 9 19 10 20 11
REMARK SMILES IDX 9 12 8 13 7 14 6 15 5 16 4 17 3 18 2 19 1 20
REMARK H PARENT
REMARK Flexibility Score: inf
ROOT
ATOM      1  C   UNL     1      69.447 -36.066   6.471  1.00  0.00     0.000 C 
ENDROOT
BRANCH   1   2
ATOM      2  C   UNL     1      68.997 -34.876   7.337  1.00  0.00     0.000 C 
BRANCH   2   3
ATOM      3  C   UNL     1      69.641 -33.522   6.979  1.00  0.00     0.000 C 
BRANCH   3   4
ATOM      4  C   UNL     1      70.505 -33.527   5.702  1.00  0.00     0.000 C 
BRANCH   4   5
ATOM      5  C   UNL     1      71.981 -33.127   5.910  1.00  0.00     0.000 C 
BRANCH   5   6
ATOM      6  C   UNL     1      73.003 -34.239   5.612  1.00  0.00     0.000 C 
BRANCH   6   7
ATOM      7  C   UNL     1      73.066 -35.303   6.717  1.00  0.00     0.006 C 
BRANCH   7   8
ATOM      8  C   UNL     1      73.331 -36.690   6.124  1.00  0.00     0.053 C 
BRANCH   8   9
ATOM      9  C   UNL     1      74.667 -37.202   6.562  1.00  0.00     0.041 C 
ATOM     10  O   UNL     1      75.109 -38.288   6.106  1.00  0.00    -0.550 OA
ATOM     11  O   UNL     1      75.410 -36.497   7.500  1.00  0.00    -0.550 OA
ENDBRANCH   8   9
ENDBRANCH   7   8
ENDBRANCH   6   7
ENDBRANCH   5   6
ENDBRANCH   4   5
ENDBRANCH   3   4
ENDBRANCH   2   3
ENDBRANCH   1   2
BRANCH   1  12
ATOM     12  C   UNL     1      69.974 -37.244   7.305  1.00  0.00     0.000 C 
BRANCH  12  13
ATOM     13  C   UNL     1      69.778 -37.040   8.819  1.00  0.00    -0.000 C 
BRANCH  13  14
ATOM     14  C   UNL     1      70.059 -38.279   9.694  1.00  0.00    -0.000 C 
BRANCH  14  15
ATOM     15  C   UNL     1      71.362 -38.218  10.510  1.00  0.00    -0.000 C 
BRANCH  15  16
ATOM     16  C   UNL     1      72.110 -36.887  10.333  1.00  0.00    -0.000 C 
BRANCH  16  17
ATOM     17  C   UNL     1      73.636 -37.062  10.348  1.00  0.00    -0.000 C 
BRANCH  17  18
ATOM     18  C   UNL     1      74.102 -38.071  11.412  1.00  0.00    -0.000 C 
BRANCH  18  19
ATOM     19  C   UNL     1      75.529 -37.787  11.907  1.00  0.00    -0.003 C 
ATOM     20  C   UNL     1      76.313 -36.884  10.957  1.00  0.00     0.004 C 
ENDBRANCH  18  19
ENDBRANCH  17  18
ENDBRANCH  16  17
ENDBRANCH  15  16
ENDBRANCH  14  15
ENDBRANCH  13  14
ENDBRANCH  12  13
ENDBRANCH   1  12
TORSDOF 16
ENDMDL
MODEL 2
REMARK VINA RESULT:    -4.194      3.496      7.089
REMARK INTER + INTRA:         -10.117
REMARK INTER:                  -8.210
REMARK INTRA:                  -1.906
REMARK UNBOUND:                -2.000
REMARK SMILES CCCCCCCCCCCCCCCCCC(=O)[O-]
REMARK SMILES IDX 10 1 11 2 12 3 13 4 14 5 15 6 16 7 17 8 18 9 19 10 20 11
REMARK SMILES IDX 9 12 8 13 7 14 6 15 5 16 4 17 3 18 2 19 1 20
REMARK H PARENT
REMARK Flexibility Score: inf
ROOT
ATOM      1  C   UNL     1      74.288 -37.454  10.242  1.00  0.00     0.000 C 
ENDROOT
BRANCH   1   2
ATOM      2  C   UNL     1      72.838 -37.173  10.674  1.00  0.00     0.000 C 
BRANCH   2   3
ATOM      3  C   UNL     1      72.268 -38.139  11.731  1.00  0.00     0.000 C 
BRANCH   3   4
ATOM      4  C   UNL     1      70.924 -38.795  11.359  1.00  0.00     0.000 C 
BRANCH   4   5
ATOM      5  C   UNL     1      69.984 -37.921  10.502  1.00  0.00     0.000 C 
BRANCH   5   6
ATOM      6  C   UNL     1      69.289 -38.659   9.344  1.00  0.00     0.000 C 
BRANCH   6   7
ATOM      7  C   UNL     1      67.757 -38.613   9.441  1.00  0.00     0.006 C 
BRANCH   7   8
ATOM      8  C   UNL     1      67.305 -37.517  10.410  1.00  0.00     0.053 C 
BRANCH   8   9
ATOM      9  C   UNL     1      66.240 -36.671   9.788  1.00  0.00     0.041 C 
ATOM     10  O   UNL     1      66.420 -36.160   8.652  1.00  0.00    -0.550 OA
ATOM     11  O   UNL     1      65.061 -36.418  10.476  1.00  0.00    -0.550 OA
ENDBRANCH   8   9
ENDBRANCH   7   8
ENDBRANCH   6   7
ENDBRANCH   5   6
ENDBRANCH   4   5
ENDBRANCH   3   4
ENDBRANCH   2   3
ENDBRANCH   1   2
BRANCH   1  12
ATOM     12  C   UNL     1      74.680 -36.716   8.952  1.00  0.00     0.000 C 
BRANCH  12  13
ATOM     13  C   UNL     1      73.460 -36.250   8.136  1.00  0.00    -0.000 C 
BRANCH  13  14
ATOM     14  C   UNL     1      73.752 -35.872   6.669  1.00  0.00    -0.000 C 
BRANCH  14  15
ATOM     15  C   UNL     1      72.874 -34.745   6.099  1.00  0.00    -0.000 C 
BRANCH  15  16
ATOM     16  C   UNL     1      72.057 -34.025   7.184  1.00  0.00    -0.000 C 
BRANCH  16  17
ATOM     17  C   UNL     1      70.817 -33.318   6.617  1.00  0.00    -0.000 C 
BRANCH  17  18
ATOM     18  C   UNL     1      69.504 -33.892   7.179  1.00  0.00    -0.000 C 
BRANCH  18  19
ATOM     19  C   UNL     1      69.629 -35.374   7.567  1.00  0.00    -0.003 C 
ATOM     20  C   UNL     1      69.328 -36.315   6.402  1.00  0.00     0.004 C 
ENDBRANCH  18  19
ENDBRANCH  17  18
ENDBRANCH  16  17
ENDBRANCH  15  16
ENDBRANCH  14  15
ENDBRANCH  13  14
ENDBRANCH  12  13
ENDBRANCH   1  12
TORSDOF 16
ENDMDL
MODEL 3
REMARK VINA RESULT:    -4.184      1.287      5.365
REMARK INTER + INTRA:         -10.098
REMARK INTER:                  -8.298
REMARK INTRA:                  -1.800
REMARK UNBOUND:                -2.000
REMARK SMILES CCCCCCCCCCCCCCCCCC(=O)[O-]
REMARK SMILES IDX 10 1 11 2 12 3 13 4 14 5 15 6 16 7 17 8 18 9 19 10 20 11
REMARK SMILES IDX 9 12 8 13 7 14 6 15 5 16 4 17 3 18 2 19 1 20
REMARK H PARENT
REMARK Flexibility Score: inf
ROOT
ATOM      1  C   UNL     1      70.016 -36.257   8.321  1.00  0.00     0.000 C 
ENDROOT
BRANCH   1   2
ATOM      2  C   UNL     1      69.292 -37.540   8.765  1.00  0.00     0.000 C 
BRANCH   2   3
ATOM      3  C   UNL     1      70.207 -38.754   9.022  1.00  0.00     0.000 C 
BRANCH   3   4
ATOM      4  C   UNL     1      70.230 -39.257  10.479  1.00  0.00     0.000 C 
BRANCH   4   5
ATOM      5  C   UNL     1      71.237 -38.541  11.403  1.00  0.00     0.000 C 
BRANCH   5   6
ATOM      6  C   UNL     1      72.176 -37.548  10.693  1.00  0.00     0.000 C 
BRANCH   6   7
ATOM      7  C   UNL     1      73.423 -37.208  11.522  1.00  0.00     0.006 C 
BRANCH   7   8
ATOM      8  C   UNL     1      74.670 -37.866  10.926  1.00  0.00     0.053 C 
BRANCH   8   9
ATOM      9  C   UNL     1      75.691 -36.832  10.571  1.00  0.00     0.041 C 
ATOM     10  O   UNL     1      76.418 -36.326  11.465  1.00  0.00    -0.550 OA
ATOM     11  O   UNL     1      75.817 -36.400   9.258  1.00  0.00    -0.550 OA
ENDBRANCH   8   9
ENDBRANCH   7   8
ENDBRANCH   6   7
ENDBRANCH   5   6
ENDBRANCH   4   5
ENDBRANCH   3   4
ENDBRANCH   2   3
ENDBRANCH   1   2
BRANCH   1  12
ATOM     12  C   UNL     1      69.359 -35.595   7.098  1.00  0.00     0.000 C 
BRANCH  12  13
ATOM     13  C   UNL     1      69.105 -34.090   7.298  1.00  0.00    -0.000 C 
BRANCH  13  14
ATOM     14  C   UNL     1      70.005 -33.153   6.466  1.00  0.00    -0.000 C 
BRANCH  14  15
ATOM     15  C   UNL     1      71.509 -33.253   6.772  1.00  0.00    -0.000 C 
BRANCH  15  16
ATOM     16  C   UNL     1      72.371 -33.295   5.500  1.00  0.00    -0.000 C 
BRANCH  16  17
ATOM     17  C   UNL     1      73.427 -34.411   5.540  1.00  0.00    -0.000 C 
BRANCH  17  18
ATOM     18  C   UNL     1      73.221 -35.373   6.724  1.00  0.00    -0.000 C 
BRANCH  18  19
ATOM     19  C   UNL     1      73.391 -36.846   6.320  1.00  0.00    -0.003 C 
ATOM     20  C   UNL     1      72.181 -37.392   5.565  1.00  0.00     0.004 C 
ENDBRANCH  18  19
ENDBRANCH  17  18
ENDBRANCH  16  17
ENDBRANCH  15  16
ENDBRANCH  14  15
ENDBRANCH  13  14
ENDBRANCH  12  13
ENDBRANCH   1  12
TORSDOF 16
ENDMDL
MODEL 4
REMARK VINA RESULT:    -4.162      3.091      5.278
REMARK INTER + INTRA:         -10.055
REMARK INTER:                  -7.883
REMARK INTRA:                  -2.172
REMARK UNBOUND:                -2.000
REMARK SMILES CCCCCCCCCCCCCCCCCC(=O)[O-]
REMARK SMILES IDX 10 1 11 2 12 3 13 4 14 5 15 6 16 7 17 8 18 9 19 10 20 11
REMARK SMILES IDX 9 12 8 13 7 14 6 15 5 16 4 17 3 18 2 19 1 20
REMARK H PARENT
REMARK Flexibility Score: inf
ROOT
ATOM      1  C   UNL     1      72.182 -32.965   5.435  1.00  0.00     0.000 C 
ENDROOT
BRANCH   1   2
ATOM      2  C   UNL     1      71.389 -33.072   6.749  1.00  0.00     0.000 C 
BRANCH   2   3
ATOM      3  C   UNL     1      69.871 -33.289   6.585  1.00  0.00     0.000 C 
BRANCH   3   4
ATOM      4  C   UNL     1      69.286 -34.457   7.403  1.00  0.00     0.000 C 
BRANCH   4   5
ATOM      5  C   UNL     1      69.355 -35.836   6.715  1.00  0.00     0.000 C 
BRANCH   5   6
ATOM      6  C   UNL     1      68.038 -36.634   6.727  1.00  0.00     0.000 C 
BRANCH   6   7
ATOM      7  C   UNL     1      67.028 -36.102   7.753  1.00  0.00     0.006 C 
BRANCH   7   8
ATOM      8  C   UNL     1      66.459 -37.243   8.601  1.00  0.00     0.053 C 
BRANCH   8   9
ATOM      9  C   UNL     1      67.127 -37.287   9.939  1.00  0.00     0.041 C 
ATOM     10  O   UNL     1      66.514 -36.894  10.966  1.00  0.00    -0.550 OA
ATOM     11  O   UNL     1      68.438 -37.730  10.049  1.00  0.00    -0.550 OA
ENDBRANCH   8   9
ENDBRANCH   7   8
ENDBRANCH   6   7
ENDBRANCH   5   6
ENDBRANCH   4   5
ENDBRANCH   3   4
ENDBRANCH   2   3
ENDBRANCH   1   2
BRANCH   1  12
ATOM     12  C   UNL     1      73.199 -34.104   5.258  1.00  0.00     0.000 C 
BRANCH  12  13
ATOM     13  C   UNL     1      72.532 -35.460   4.964  1.00  0.00    -0.000 C 
BRANCH  13  14
ATOM     14  C   UNL     1      73.045 -36.644   5.810  1.00  0.00    -0.000 C 
BRANCH  14  15
ATOM     15  C   UNL     1      74.250 -36.328   6.711  1.00  0.00    -0.000 C 
BRANCH  15  16
ATOM     16  C   UNL     1      73.947 -36.542   8.202  1.00  0.00    -0.000 C 
BRANCH  16  17
ATOM     17  C   UNL     1      72.579 -35.975   8.614  1.00  0.00    -0.000 C 
BRANCH  17  18
ATOM     18  C   UNL     1      71.764 -36.966   9.464  1.00  0.00    -0.000 C 
BRANCH  18  19
ATOM     19  C   UNL     1      72.407 -37.231  10.835  1.00  0.00    -0.003 C 
ATOM     20  C   UNL     1      71.655 -38.286  11.644  1.00  0.00     0.004 C 
ENDBRANCH  18  19
ENDBRANCH  17  18
ENDBRANCH  16  17
ENDBRANCH  15  16
ENDBRANCH  14  15
ENDBRANCH  13  14
ENDBRANCH  12  13
ENDBRANCH   1  12
TORSDOF 16
ENDMDL
MODEL 5
REMARK VINA RESULT:    -4.145      1.511      2.379
REMARK INTER + INTRA:         -10.021
REMARK INTER:                  -8.367
REMARK INTRA:                  -1.654
REMARK UNBOUND:                -2.000
REMARK SMILES CCCCCCCCCCCCCCCCCC(=O)[O-]
REMARK SMILES IDX 10 1 11 2 12 3 13 4 14 5 15 6 16 7 17 8 18 9 19 10 20 11
REMARK SMILES IDX 9 12 8 13 7 14 6 15 5 16 4 17 3 18 2 19 1 20
REMARK H PARENT
REMARK Flexibility Score: inf
ROOT
ATOM      1  C   UNL     1      68.559 -38.173   8.955  1.00  0.00     0.000 C 
ENDROOT
BRANCH   1   2
ATOM      2  C   UNL     1      69.164 -36.801   8.612  1.00  0.00     0.000 C 
BRANCH   2   3
ATOM      3  C   UNL     1      68.314 -35.924   7.672  1.00  0.00     0.000 C 
BRANCH   3   4
ATOM      4  C   UNL     1      68.790 -34.465   7.530  1.00  0.00     0.000 C 
BRANCH   4   5
ATOM      5  C   UNL     1      69.854 -34.226   6.439  1.00  0.00     0.000 C 
BRANCH   5   6
ATOM      6  C   UNL     1      70.914 -33.166   6.787  1.00  0.00     0.000 C 
BRANCH   6   7
ATOM      7  C   UNL     1      72.212 -33.776   7.336  1.00  0.00     0.006 C 
BRANCH   7   8
ATOM      8  C   UNL     1      72.952 -34.555   6.245  1.00  0.00     0.053 C 
BRANCH   8   9
ATOM      9  C   UNL     1      73.208 -35.962   6.685  1.00  0.00     0.041 C 
ATOM     10  O   UNL     1      72.246 -36.724   6.962  1.00  0.00    -0.550 OA
ATOM     11  O   UNL     1      74.511 -36.422   6.823  1.00  0.00    -0.550 OA
ENDBRANCH   8   9
ENDBRANCH   7   8
ENDBRANCH   6   7
ENDBRANCH   5   6
ENDBRANCH   4   5
ENDBRANCH   3   4
ENDBRANCH   2   3
ENDBRANCH   1   2
BRANCH   1  12
ATOM     12  C   UNL     1      69.268 -39.333   8.237  1.00  0.00     0.000 C 
BRANCH  12  13
ATOM     13  C   UNL     1      69.572 -40.518   9.171  1.00  0.00    -0.000 C 
BRANCH  13  14
ATOM     14  C   UNL     1      69.557 -40.191  10.678  1.00  0.00    -0.000 C 
BRANCH  14  15
ATOM     15  C   UNL     1      70.920 -39.798  11.274  1.00  0.00    -0.000 C 
BRANCH  15  16
ATOM     16  C   UNL     1      71.025 -38.294  11.570  1.00  0.00    -0.000 C 
BRANCH  16  17
ATOM     17  C   UNL     1      72.481 -37.818  11.698  1.00  0.00    -0.000 C 
BRANCH  17  18
ATOM     18  C   UNL     1      73.028 -37.239  10.381  1.00  0.00    -0.000 C 
BRANCH  18  19
ATOM     19  C   UNL     1      74.564 -37.265  10.321  1.00  0.00    -0.003 C 
ATOM     20  C   UNL     1      75.191 -37.883  11.569  1.00  0.00     0.004 C 
ENDBRANCH  18  19
ENDBRANCH  17  18
ENDBRANCH  16  17
ENDBRANCH  15  16
ENDBRANCH  14  15
ENDBRANCH  13  14
ENDBRANCH  12  13
ENDBRANCH   1  12
TORSDOF 16
ENDMDL
MODEL 6
REMARK VINA RESULT:    -4.089      2.286      4.814
REMARK INTER + INTRA:          -9.915
REMARK INTER:                  -7.907
REMARK INTRA:                  -2.007
REMARK UNBOUND:                -2.000
REMARK SMILES CCCCCCCCCCCCCCCCCC(=O)[O-]
REMARK SMILES IDX 10 1 11 2 12 3 13 4 14 5 15 6 16 7 17 8 18 9 19 10 20 11
REMARK SMILES IDX 9 12 8 13 7 14 6 15 5 16 4 17 3 18 2 19 1 20
REMARK H PARENT
REMARK Flexibility Score: inf
ROOT
ATOM      1  C   UNL     1      69.502 -33.704   7.170  1.00  0.00     0.000 C 
ENDROOT
BRANCH   1   2
ATOM      2  C   UNL     1      69.123 -35.190   7.291  1.00  0.00     0.000 C 
BRANCH   2   3
ATOM      3  C   UNL     1      69.669 -36.101   6.174  1.00  0.00     0.000 C 
BRANCH   3   4
ATOM      4  C   UNL     1      69.636 -37.610   6.486  1.00  0.00     0.000 C 
BRANCH   4   5
ATOM      5  C   UNL     1      68.560 -38.044   7.503  1.00  0.00     0.000 C 
BRANCH   5   6
ATOM      6  C   UNL     1      69.082 -38.897   8.674  1.00  0.00     0.000 C 
BRANCH   6   7
ATOM      7  C   UNL     1      69.214 -38.101   9.980  1.00  0.00     0.006 C 
BRANCH   7   8
ATOM      8  C   UNL     1      70.668 -37.687  10.221  1.00  0.00     0.053 C 
BRANCH   8   9
ATOM      9  C   UNL     1      71.249 -38.451  11.368  1.00  0.00     0.041 C 
ATOM     10  O   UNL     1      70.871 -39.629  11.601  1.00  0.00    -0.550 OA
ATOM     11  O   UNL     1      72.183 -37.852  12.203  1.00  0.00    -0.550 OA
ENDBRANCH   8   9
ENDBRANCH   7   8
ENDBRANCH   6   7
ENDBRANCH   5   6
ENDBRANCH   4   5
ENDBRANCH   3   4
ENDBRANCH   2   3
ENDBRANCH   1   2
BRANCH   1  12
ATOM     12  C   UNL     1      70.272 -33.388   5.877  1.00  0.00     0.000 C 
BRANCH  12  13
ATOM     13  C   UNL     1      71.733 -32.978   6.137  1.00  0.00    -0.000 C 
BRANCH  13  14
ATOM     14  C   UNL     1      72.792 -33.771   5.343  1.00  0.00    -0.000 C 
BRANCH  14  15
ATOM     15  C   UNL     1      73.347 -35.014   6.058  1.00  0.00    -0.000 C 
BRANCH  15  16
ATOM     16  C   UNL     1      72.807 -35.164   7.490  1.00  0.00    -0.000 C 
BRANCH  16  17
ATOM     17  C   UNL     1      73.354 -36.412   8.199  1.00  0.00    -0.000 C 
BRANCH  17  18
ATOM     18  C   UNL     1      74.834 -36.676   7.867  1.00  0.00    -0.000 C 
BRANCH  18  19
ATOM     19  C   UNL     1      75.720 -36.714   9.122  1.00  0.00    -0.003 C 
ATOM     20  C   UNL     1      74.944 -37.099  10.380  1.00  0.00     0.004 C 
ENDBRANCH  18  19
ENDBRANCH  17  18
ENDBRANCH  16  17
ENDBRANCH  15  16
ENDBRANCH  14  15
ENDBRANCH  13  14
ENDBRANCH  12  13
ENDBRANCH   1  12
TORSDOF 16
ENDMDL
MODEL 7
REMARK VINA RESULT:    -4.011      2.692      4.624
REMARK INTER + INTRA:          -9.762
REMARK INTER:                  -8.030
REMARK INTRA:                  -1.732
REMARK UNBOUND:                -2.000
REMARK SMILES CCCCCCCCCCCCCCCCCC(=O)[O-]
REMARK SMILES IDX 10 1 11 2 12 3 13 4 14 5 15 6 16 7 17 8 18 9 19 10 20 11
REMARK SMILES IDX 9 12 8 13 7 14 6 15 5 16 4 17 3 18 2 19 1 20
REMARK H PARENT
REMARK Flexibility Score: inf
ROOT
ATOM      1  C   UNL     1      69.489 -36.056   6.632  1.00  0.00     0.000 C 
ENDROOT
BRANCH   1   2
ATOM      2  C   UNL     1      68.915 -34.862   7.414  1.00  0.00     0.000 C 
BRANCH   2   3
ATOM      3  C   UNL     1      69.506 -33.487   7.043  1.00  0.00     0.000 C 
BRANCH   3   4
ATOM      4  C   UNL     1      70.688 -33.530   6.054  1.00  0.00     0.000 C 
BRANCH   4   5
ATOM      5  C   UNL     1      72.083 -33.625   6.707  1.00  0.00     0.000 C 
BRANCH   5   6
ATOM      6  C   UNL     1      73.160 -34.302   5.840  1.00  0.00     0.000 C 
BRANCH   6   7
ATOM      7  C   UNL     1      73.420 -35.761   6.242  1.00  0.00     0.006 C 
BRANCH   7   8
ATOM      8  C   UNL     1      73.323 -35.934   7.760  1.00  0.00     0.053 C 
BRANCH   8   9
ATOM      9  C   UNL     1      74.522 -36.659   8.284  1.00  0.00     0.041 C 
ATOM     10  O   UNL     1      74.540 -37.080   9.470  1.00  0.00    -0.550 OA
ATOM     11  O   UNL     1      75.635 -36.842   7.474  1.00  0.00    -0.550 OA
ENDBRANCH   8   9
ENDBRANCH   7   8
ENDBRANCH   6   7
ENDBRANCH   5   6
ENDBRANCH   4   5
ENDBRANCH   3   4
ENDBRANCH   2   3
ENDBRANCH   1   2
BRANCH   1  12
ATOM     12  C   UNL     1      69.530 -37.349   7.463  1.00  0.00     0.000 C 
BRANCH  12  13
ATOM     13  C   UNL     1      69.991 -37.113   8.913  1.00  0.00    -0.000 C 
BRANCH  13  14
ATOM     14  C   UNL     1      69.118 -37.775   9.999  1.00  0.00    -0.000 C 
BRANCH  14  15
ATOM     15  C   UNL     1      67.837 -38.450   9.482  1.00  0.00    -0.000 C 
BRANCH  15  16
ATOM     16  C   UNL     1      66.626 -38.200  10.396  1.00  0.00    -0.000 C 
BRANCH  16  17
ATOM     17  C   UNL     1      66.172 -36.732  10.385  1.00  0.00    -0.000 C 
BRANCH  17  18
ATOM     18  C   UNL     1      64.899 -36.503  11.219  1.00  0.00    -0.000 C 
BRANCH  18  19
ATOM     19  C   UNL     1      65.163 -36.596  12.730  1.00  0.00    -0.003 C 
ATOM     20  C   UNL     1      66.304 -35.689  13.186  1.00  0.00     0.004 C 
ENDBRANCH  18  19
ENDBRANCH  17  18
ENDBRANCH  16  17
ENDBRANCH  15  16
ENDBRANCH  14  15
ENDBRANCH  13  14
ENDBRANCH  12  13
ENDBRANCH   1  12
TORSDOF 16
ENDMDL
MODEL 8
REMARK VINA RESULT:    -3.989      2.338      5.306
REMARK INTER + INTRA:          -9.721
REMARK INTER:                  -7.472
REMARK INTRA:                  -2.249
REMARK UNBOUND:                -2.000
REMARK SMILES CCCCCCCCCCCCCCCCCC(=O)[O-]
REMARK SMILES IDX 10 1 11 2 12 3 13 4 14 5 15 6 16 7 17 8 18 9 19 10 20 11
REMARK SMILES IDX 9 12 8 13 7 14 6 15 5 16 4 17 3 18 2 19 1 20
REMARK H PARENT
REMARK Flexibility Score: inf
ROOT
ATOM      1  C   UNL     1      68.988 -35.884   7.046  1.00  0.00     0.000 C 
ENDROOT
BRANCH   1   2
ATOM      2  C   UNL     1      67.508 -36.297   7.129  1.00  0.00     0.000 C 
BRANCH   2   3
ATOM      3  C   UNL     1      66.794 -35.925   8.443  1.00  0.00     0.000 C 
BRANCH   3   4
ATOM      4  C   UNL     1      66.575 -37.096   9.422  1.00  0.00     0.000 C 
BRANCH   4   5
ATOM      5  C   UNL     1      67.847 -37.600  10.135  1.00  0.00     0.000 C 
BRANCH   5   6
ATOM      6  C   UNL     1      68.353 -38.975   9.663  1.00  0.00     0.000 C 
BRANCH   6   7
ATOM      7  C   UNL     1      69.885 -39.081   9.668  1.00  0.00     0.006 C 
BRANCH   7   8
ATOM      8  C   UNL     1      70.524 -37.720   9.959  1.00  0.00     0.053 C 
BRANCH   8   9
ATOM      9  C   UNL     1      71.670 -37.871  10.910  1.00  0.00     0.041 C 
ATOM     10  O   UNL     1      71.786 -38.916  11.602  1.00  0.00    -0.550 OA
ATOM     11  O   UNL     1      72.591 -36.843  11.059  1.00  0.00    -0.550 OA
ENDBRANCH   8   9
ENDBRANCH   7   8
ENDBRANCH   6   7
ENDBRANCH   5   6
ENDBRANCH   4   5
ENDBRANCH   3   4
ENDBRANCH   2   3
ENDBRANCH   1   2
BRANCH   1  12
ATOM     12  C   UNL     1      69.229 -34.436   7.500  1.00  0.00     0.000 C 
BRANCH  12  13
ATOM     13  C   UNL     1      69.843 -33.557   6.395  1.00  0.00    -0.000 C 
BRANCH  13  14
ATOM     14  C   UNL     1      71.180 -32.879   6.759  1.00  0.00    -0.000 C 
BRANCH  14  15
ATOM     15  C   UNL     1      72.386 -33.319   5.912  1.00  0.00    -0.000 C 
BRANCH  15  16
ATOM     16  C   UNL     1      72.077 -34.541   5.032  1.00  0.00    -0.000 C 
BRANCH  16  17
ATOM     17  C   UNL     1      72.989 -35.738   5.344  1.00  0.00    -0.000 C 
BRANCH  17  18
ATOM     18  C   UNL     1      72.579 -36.469   6.635  1.00  0.00    -0.000 C 
BRANCH  18  19
ATOM     19  C   UNL     1      73.574 -36.235   7.783  1.00  0.00    -0.003 C 
ATOM     20  C   UNL     1      74.951 -36.831   7.499  1.00  0.00     0.004 C 
ENDBRANCH  18  19
ENDBRANCH  17  18
ENDBRANCH  16  17
ENDBRANCH  15  16
ENDBRANCH  14  15
ENDBRANCH  13  14
ENDBRANCH  12  13
ENDBRANCH   1  12
TORSDOF 16
ENDMDL
MODEL 9
REMARK VINA RESULT:    -3.989      5.833      8.445
REMARK INTER + INTRA:          -9.720
REMARK INTER:                  -7.822
REMARK INTRA:                  -1.898
REMARK UNBOUND:                -2.000
REMARK SMILES CCCCCCCCCCCCCCCCCC(=O)[O-]
REMARK SMILES IDX 10 1 11 2 12 3 13 4 14 5 15 6 16 7 17 8 18 9 19 10 20 11
REMARK SMILES IDX 9 12 8 13 7 14 6 15 5 16 4 17 3 18 2 19 1 20
REMARK H PARENT
REMARK Flexibility Score: inf
ROOT
ATOM      1  C   UNL     1      69.300 -37.867  10.204  1.00  0.00     0.000 C 
ENDROOT
BRANCH   1   2
ATOM      2  C   UNL     1      68.173 -38.819   9.766  1.00  0.00     0.000 C 
BRANCH   2   3
ATOM      3  C   UNL     1      66.765 -38.445  10.270  1.00  0.00     0.000 C 
BRANCH   3   4
ATOM      4  C   UNL     1      66.592 -36.974  10.696  1.00  0.00     0.000 C 
BRANCH   4   5
ATOM      5  C   UNL     1      65.736 -36.755  11.960  1.00  0.00     0.000 C 
BRANCH   5   6
ATOM      6  C   UNL     1      66.216 -35.618  12.881  1.00  0.00     0.000 C 
BRANCH   6   7
ATOM      7  C   UNL     1      65.557 -35.654  14.267  1.00  0.00     0.006 C 
BRANCH   7   8
ATOM      8  C   UNL     1      64.047 -35.877  14.148  1.00  0.00     0.053 C 
BRANCH   8   9
ATOM      9  C   UNL     1      63.335 -34.573  13.974  1.00  0.00     0.041 C 
ATOM     10  O   UNL     1      63.131 -33.825  14.966  1.00  0.00    -0.550 OA
ATOM     11  O   UNL     1      62.866 -34.197  12.722  1.00  0.00    -0.550 OA
ENDBRANCH   8   9
ENDBRANCH   7   8
ENDBRANCH   6   7
ENDBRANCH   5   6
ENDBRANCH   4   5
ENDBRANCH   3   4
ENDBRANCH   2   3
ENDBRANCH   1   2
BRANCH   1  12
ATOM     12  C   UNL     1      69.948 -37.128   9.023  1.00  0.00     0.000 C 
BRANCH  12  13
ATOM     13  C   UNL     1      69.287 -37.461   7.673  1.00  0.00    -0.000 C 
BRANCH  13  14
ATOM     14  C   UNL     1      68.977 -36.247   6.773  1.00  0.00    -0.000 C 
BRANCH  14  15
ATOM     15  C   UNL     1      68.567 -34.968   7.522  1.00  0.00    -0.000 C 
BRANCH  15  16
ATOM     16  C   UNL     1      69.450 -33.762   7.162  1.00  0.00    -0.000 C 
BRANCH  16  17
ATOM     17  C   UNL     1      70.703 -34.165   6.369  1.00  0.00    -0.000 C 
BRANCH  17  18
ATOM     18  C   UNL     1      72.002 -33.922   7.158  1.00  0.00    -0.000 C 
BRANCH  18  19
ATOM     19  C   UNL     1      72.771 -35.223   7.437  1.00  0.00    -0.003 C 
ATOM     20  C   UNL     1      72.637 -36.241   6.307  1.00  0.00     0.004 C 
ENDBRANCH  18  19
ENDBRANCH  17  18
ENDBRANCH  16  17
ENDBRANCH  15  16
ENDBRANCH  14  15
ENDBRANCH  13  14
ENDBRANCH  12  13
ENDBRANCH   1  12
TORSDOF 16
ENDMDL
