MODEL 1
REMARK VINA RESULT:    -4.456      0.000      0.000
REMARK INTER + INTRA:         -16.430
REMARK INTER:                 -11.229
REMARK INTRA:                  -5.202
REMARK UNBOUND:                -5.202
REMARK SMILES CCCCCCCCCCCCCCCCCCCCCCCCCCCC(=O)[O-]
REMARK SMILES IDX 15 1 16 2 17 3 18 4 19 5 20 6 21 7 22 8 23 9 24 10 25 11
REMARK SMILES IDX 26 12 27 13 28 14 29 15 30 16 14 17 13 18 12 19 11 20 10 21
REMARK SMILES IDX 9 22 8 23 7 24 6 25 5 26 4 27 3 28 2 29 1 30
REMARK H PARENT
REMARK Flexibility Score: inf
ROOT
ATOM      1  C   UNL     1      40.705  19.423 223.916  1.00  0.00     0.000 C 
ENDROOT
BRANCH   1   2
ATOM      2  C   UNL     1      41.361  19.811 222.579  1.00  0.00     0.000 C 
BRANCH   2   3
ATOM      3  C   UNL     1      41.654  21.319 222.472  1.00  0.00     0.000 C 
BRANCH   3   4
ATOM      4  C   UNL     1      40.563  22.244 223.041  1.00  0.00     0.000 C 
BRANCH   4   5
ATOM      5  C   UNL     1      41.124  23.572 223.577  1.00  0.00     0.000 C 
BRANCH   5   6
ATOM      6  C   UNL     1      42.081  23.369 224.764  1.00  0.00     0.000 C 
BRANCH   6   7
ATOM      7  C   UNL     1      42.425  24.684 225.487  1.00  0.00     0.000 C 
BRANCH   7   8
ATOM      8  C   UNL     1      41.313  25.131 226.450  1.00  0.00     0.000 C 
BRANCH   8   9
ATOM      9  C   UNL     1      41.048  26.646 226.382  1.00  0.00     0.000 C 
BRANCH   9  10
ATOM     10  C   UNL     1      39.622  26.980 225.910  1.00  0.00     0.000 C 
BRANCH  10  11
ATOM     11  C   UNL     1      38.672  25.771 225.786  1.00  0.00     0.000 C 
BRANCH  11  12
ATOM     12  C   UNL     1      37.640  25.863 224.644  1.00  0.00     0.006 C 
BRANCH  12  13
ATOM     13  C   UNL     1      37.736  24.739 223.601  1.00  0.00     0.053 C 
BRANCH  13  14
ATOM     14  C   UNL     1      36.389  24.325 223.093  1.00  0.00     0.041 C 
ATOM     15  O   UNL     1      35.420  24.216 223.889  1.00  0.00    -0.550 OA
ATOM     16  O   UNL     1      36.209  24.034 221.746  1.00  0.00    -0.550 OA
ENDBRANCH  13  14
ENDBRANCH  12  13
ENDBRANCH  11  12
ENDBRANCH  10  11
ENDBRANCH   9  10
ENDBRANCH   8   9
ENDBRANCH   7   8
ENDBRANCH   6   7
ENDBRANCH   5   6
ENDBRANCH   4   5
ENDBRANCH   3   4
ENDBRANCH   2   3
ENDBRANCH   1   2
BRANCH   1  17
ATOM     17  C   UNL     1      41.721  19.224 225.056  1.00  0.00     0.000 C 
BRANCH  17  18
ATOM     18  C   UNL     1      41.388  18.093 226.053  1.00  0.00     0.000 C 
BRANCH  18  19
ATOM     19  C   UNL     1      39.889  17.800 226.241  1.00  0.00     0.000 C 
BRANCH  19  20
ATOM     20  C   UNL     1      39.487  17.363 227.661  1.00  0.00     0.000 C 
BRANCH  20  21
ATOM     21  C   UNL     1      37.962  17.210 227.861  1.00  0.00     0.000 C 
BRANCH  21  22
ATOM     22  C   UNL     1      37.147  18.510 227.694  1.00  0.00    -0.000 C 
BRANCH  22  23
ATOM     23  C   UNL     1      35.970  18.450 226.697  1.00  0.00    -0.000 C 
BRANCH  23  24
ATOM     24  C   UNL     1      35.992  19.513 225.585  1.00  0.00    -0.000 C 
BRANCH  24  25
ATOM     25  C   UNL     1      37.287  20.347 225.575  1.00  0.00    -0.000 C 
BRANCH  25  26
ATOM     26  C   UNL     1      37.027  21.810 225.970  1.00  0.00    -0.000 C 
BRANCH  26  27
ATOM     27  C   UNL     1      38.285  22.497 226.528  1.00  0.00    -0.000 C 
BRANCH  27  28
ATOM     28  C   UNL     1      39.482  21.537 226.622  1.00  0.00    -0.000 C 
BRANCH  28  29
ATOM     29  C   UNL     1      40.289  21.741 227.914  1.00  0.00    -0.003 C 
ATOM     30  C   UNL     1      39.799  20.820 229.028  1.00  0.00     0.004 C 
ENDBRANCH  28  29
ENDBRANCH  27  28
ENDBRANCH  26  27
ENDBRANCH  25  26
ENDBRANCH  24  25
ENDBRANCH  23  24
ENDBRANCH  22  23
ENDBRANCH  21  22
ENDBRANCH  20  21
ENDBRANCH  19  20
ENDBRANCH  18  19
ENDBRANCH  17  18
ENDBRANCH   1  17
TORSDOF 26
ENDMDL
MODEL 2
REMARK VINA RESULT:    -4.369      2.172      6.381
REMARK INTER + INTRA:         -16.210
REMARK INTER:                 -11.668
REMARK INTRA:                  -4.542
REMARK UNBOUND:                -5.202
REMARK SMILES CCCCCCCCCCCCCCCCCCCCCCCCCCCC(=O)[O-]
REMARK SMILES IDX 15 1 16 2 17 3 18 4 19 5 20 6 21 7 22 8 23 9 24 10 25 11
REMARK SMILES IDX 26 12 27 13 28 14 29 15 30 16 14 17 13 18 12 19 11 20 10 21
REMARK SMILES IDX 9 22 8 23 7 24 6 25 5 26 4 27 3 28 2 29 1 30
REMARK H PARENT
REMARK Flexibility Score: inf
ROOT
ATOM      1  C   UNL     1      39.579  23.134 223.436  1.00  0.00     0.000 C 
ENDROOT
BRANCH   1   2
ATOM      2  C   UNL     1      41.057  22.984 223.034  1.00  0.00     0.000 C 
BRANCH   2   3
ATOM      3  C   UNL     1      41.451  21.526 222.733  1.00  0.00     0.000 C 
BRANCH   3   4
ATOM      4  C   UNL     1      42.665  20.997 223.517  1.00  0.00     0.000 C 
BRANCH   4   5
ATOM      5  C   UNL     1      42.346  19.735 224.336  1.00  0.00     0.000 C 
BRANCH   5   6
ATOM      6  C   UNL     1      40.998  19.105 223.942  1.00  0.00     0.000 C 
BRANCH   6   7
ATOM      7  C   UNL     1      40.083  18.845 225.153  1.00  0.00     0.000 C 
BRANCH   7   8
ATOM      8  C   UNL     1      40.599  17.700 226.041  1.00  0.00     0.000 C 
BRANCH   8   9
ATOM      9  C   UNL     1      40.763  18.125 227.512  1.00  0.00     0.000 C 
BRANCH   9  10
ATOM     10  C   UNL     1      40.256  19.553 227.780  1.00  0.00     0.000 C 
BRANCH  10  11
ATOM     11  C   UNL     1      38.990  19.645 228.656  1.00  0.00     0.000 C 
BRANCH  11  12
ATOM     12  C   UNL     1      37.679  19.904 227.887  1.00  0.00     0.006 C 
BRANCH  12  13
ATOM     13  C   UNL     1      37.048  18.653 227.255  1.00  0.00     0.053 C 
BRANCH  13  14
ATOM     14  C   UNL     1      35.917  18.996 226.335  1.00  0.00     0.041 C 
ATOM     15  O   UNL     1      35.775  18.375 225.250  1.00  0.00    -0.550 OA
ATOM     16  O   UNL     1      35.036  20.020 226.662  1.00  0.00    -0.550 OA
ENDBRANCH  13  14
ENDBRANCH  12  13
ENDBRANCH  11  12
ENDBRANCH  10  11
ENDBRANCH   9  10
ENDBRANCH   8   9
ENDBRANCH   7   8
ENDBRANCH   6   7
ENDBRANCH   5   6
ENDBRANCH   4   5
ENDBRANCH   3   4
ENDBRANCH   2   3
ENDBRANCH   1   2
BRANCH   1  17
ATOM     17  C   UNL     1      39.074  21.986 224.331  1.00  0.00     0.000 C 
BRANCH  17  18
ATOM     18  C   UNL     1      38.742  22.377 225.787  1.00  0.00     0.000 C 
BRANCH  18  19
ATOM     19  C   UNL     1      39.815  23.214 226.507  1.00  0.00     0.000 C 
BRANCH  19  20
ATOM     20  C   UNL     1      39.295  24.060 227.683  1.00  0.00     0.000 C 
BRANCH  20  21
ATOM     21  C   UNL     1      38.690  25.418 227.258  1.00  0.00     0.000 C 
BRANCH  21  22
ATOM     22  C   UNL     1      39.056  25.879 225.832  1.00  0.00    -0.000 C 
BRANCH  22  23
ATOM     23  C   UNL     1      37.875  26.066 224.855  1.00  0.00    -0.000 C 
BRANCH  23  24
ATOM     24  C   UNL     1      36.568  25.364 225.257  1.00  0.00    -0.000 C 
BRANCH  24  25
ATOM     25  C   UNL     1      36.086  24.343 224.210  1.00  0.00    -0.000 C 
BRANCH  25  26
ATOM     26  C   UNL     1      36.510  24.741 222.786  1.00  0.00    -0.000 C 
BRANCH  26  27
ATOM     27  C   UNL     1      36.258  23.618 221.766  1.00  0.00    -0.000 C 
BRANCH  27  28
ATOM     28  C   UNL     1      37.459  23.396 220.833  1.00  0.00    -0.000 C 
BRANCH  28  29
ATOM     29  C   UNL     1      37.032  23.239 219.364  1.00  0.00    -0.003 C 
ATOM     30  C   UNL     1      35.894  24.193 219.011  1.00  0.00     0.004 C 
ENDBRANCH  28  29
ENDBRANCH  27  28
ENDBRANCH  26  27
ENDBRANCH  25  26
ENDBRANCH  24  25
ENDBRANCH  23  24
ENDBRANCH  22  23
ENDBRANCH  21  22
ENDBRANCH  20  21
ENDBRANCH  19  20
ENDBRANCH  18  19
ENDBRANCH  17  18
ENDBRANCH   1  17
TORSDOF 26
ENDMDL
MODEL 3
REMARK VINA RESULT:    -4.289      2.119      4.853
REMARK INTER + INTRA:         -16.011
REMARK INTER:                 -10.346
REMARK INTRA:                  -5.664
REMARK UNBOUND:                -5.202
REMARK SMILES CCCCCCCCCCCCCCCCCCCCCCCCCCCC(=O)[O-]
REMARK SMILES IDX 15 1 16 2 17 3 18 4 19 5 20 6 21 7 22 8 23 9 24 10 25 11
REMARK SMILES IDX 26 12 27 13 28 14 29 15 30 16 14 17 13 18 12 19 11 20 10 21
REMARK SMILES IDX 9 22 8 23 7 24 6 25 5 26 4 27 3 28 2 29 1 30
REMARK H PARENT
REMARK Flexibility Score: inf
ROOT
ATOM      1  C   UNL     1      42.233  22.917 227.780  1.00  0.00     0.000 C 
ENDROOT
BRANCH   1   2
ATOM      2  C   UNL     1      42.264  24.194 226.924  1.00  0.00     0.000 C 
BRANCH   2   3
ATOM      3  C   UNL     1      40.860  24.771 226.659  1.00  0.00     0.000 C 
BRANCH   3   4
ATOM      4  C   UNL     1      40.832  26.209 226.109  1.00  0.00     0.000 C 
BRANCH   4   5
ATOM      5  C   UNL     1      39.414  26.683 225.747  1.00  0.00     0.000 C 
BRANCH   5   6
ATOM      6  C   UNL     1      38.339  25.640 226.096  1.00  0.00     0.000 C 
BRANCH   6   7
ATOM      7  C   UNL     1      37.147  25.661 225.121  1.00  0.00     0.000 C 
BRANCH   7   8
ATOM      8  C   UNL     1      37.433  24.875 223.830  1.00  0.00     0.000 C 
BRANCH   8   9
ATOM      9  C   UNL     1      37.480  23.355 224.064  1.00  0.00     0.000 C 
BRANCH   9  10
ATOM     10  C   UNL     1      38.873  22.756 223.805  1.00  0.00     0.000 C 
BRANCH  10  11
ATOM     11  C   UNL     1      39.875  23.701 223.109  1.00  0.00     0.000 C 
BRANCH  11  12
ATOM     12  C   UNL     1      41.362  23.371 223.350  1.00  0.00     0.006 C 
BRANCH  12  13
ATOM     13  C   UNL     1      41.631  21.934 223.822  1.00  0.00     0.053 C 
BRANCH  13  14
ATOM     14  C   UNL     1      42.155  21.067 222.718  1.00  0.00     0.041 C 
ATOM     15  O   UNL     1      43.395  20.976 222.520  1.00  0.00    -0.550 OA
ATOM     16  O   UNL     1      41.275  20.382 221.889  1.00  0.00    -0.550 OA
ENDBRANCH  13  14
ENDBRANCH  12  13
ENDBRANCH  11  12
ENDBRANCH  10  11
ENDBRANCH   9  10
ENDBRANCH   8   9
ENDBRANCH   7   8
ENDBRANCH   6   7
ENDBRANCH   5   6
ENDBRANCH   4   5
ENDBRANCH   3   4
ENDBRANCH   2   3
ENDBRANCH   1   2
BRANCH   1  17
ATOM     17  C   UNL     1      40.945  22.091 227.594  1.00  0.00     0.000 C 
BRANCH  17  18
ATOM     18  C   UNL     1      40.049  21.968 228.845  1.00  0.00     0.000 C 
BRANCH  18  19
ATOM     19  C   UNL     1      38.640  21.402 228.594  1.00  0.00     0.000 C 
BRANCH  19  20
ATOM     20  C   UNL     1      38.198  21.395 227.120  1.00  0.00     0.000 C 
BRANCH  20  21
ATOM     21  C   UNL     1      36.737  20.938 226.906  1.00  0.00     0.000 C 
BRANCH  21  22
ATOM     22  C   UNL     1      36.475  20.181 225.587  1.00  0.00    -0.000 C 
BRANCH  22  23
ATOM     23  C   UNL     1      36.184  18.670 225.717  1.00  0.00    -0.000 C 
BRANCH  23  24
ATOM     24  C   UNL     1      36.046  18.146 227.156  1.00  0.00    -0.000 C 
BRANCH  24  25
ATOM     25  C   UNL     1      37.203  17.218 227.573  1.00  0.00    -0.000 C 
BRANCH  25  26
ATOM     26  C   UNL     1      38.122  17.882 228.612  1.00  0.00    -0.000 C 
BRANCH  26  27
ATOM     27  C   UNL     1      39.594  17.471 228.438  1.00  0.00    -0.000 C 
BRANCH  27  28
ATOM     28  C   UNL     1      40.346  18.391 227.464  1.00  0.00    -0.000 C 
BRANCH  28  29
ATOM     29  C   UNL     1      40.331  17.849 226.025  1.00  0.00    -0.003 C 
ATOM     30  C   UNL     1      39.906  18.925 225.030  1.00  0.00     0.004 C 
ENDBRANCH  28  29
ENDBRANCH  27  28
ENDBRANCH  26  27
ENDBRANCH  25  26
ENDBRANCH  24  25
ENDBRANCH  23  24
ENDBRANCH  22  23
ENDBRANCH  21  22
ENDBRANCH  20  21
ENDBRANCH  19  20
ENDBRANCH  18  19
ENDBRANCH  17  18
ENDBRANCH   1  17
TORSDOF 26
ENDMDL
MODEL 4
REMARK VINA RESULT:    -4.161      1.970      6.136
REMARK INTER + INTRA:         -15.688
REMARK INTER:                 -10.064
REMARK INTRA:                  -5.624
REMARK UNBOUND:                -5.202
REMARK SMILES CCCCCCCCCCCCCCCCCCCCCCCCCCCC(=O)[O-]
REMARK SMILES IDX 15 1 16 2 17 3 18 4 19 5 20 6 21 7 22 8 23 9 24 10 25 11
REMARK SMILES IDX 26 12 27 13 28 14 29 15 30 16 14 17 13 18 12 19 11 20 10 21
REMARK SMILES IDX 9 22 8 23 7 24 6 25 5 26 4 27 3 28 2 29 1 30
REMARK H PARENT
REMARK Flexibility Score: inf
ROOT
ATOM      1  C   UNL     1      37.605  24.569 225.579  1.00  0.00     0.000 C 
ENDROOT
BRANCH   1   2
ATOM      2  C   UNL     1      37.690  23.054 225.327  1.00  0.00     0.000 C 
BRANCH   2   3
ATOM      3  C   UNL     1      38.610  22.695 224.145  1.00  0.00     0.000 C 
BRANCH   3   4
ATOM      4  C   UNL     1      39.352  23.881 223.504  1.00  0.00     0.000 C 
BRANCH   4   5
ATOM      5  C   UNL     1      40.805  23.547 223.128  1.00  0.00     0.000 C 
BRANCH   5   6
ATOM      6  C   UNL     1      40.973  22.086 222.675  1.00  0.00     0.000 C 
BRANCH   6   7
ATOM      7  C   UNL     1      42.163  21.382 223.353  1.00  0.00     0.000 C 
BRANCH   7   8
ATOM      8  C   UNL     1      41.998  19.854 223.386  1.00  0.00     0.000 C 
BRANCH   8   9
ATOM      9  C   UNL     1      40.612  19.423 223.899  1.00  0.00     0.000 C 
BRANCH   9  10
ATOM     10  C   UNL     1      40.520  19.421 225.435  1.00  0.00     0.000 C 
BRANCH  10  11
ATOM     11  C   UNL     1      39.107  19.657 226.008  1.00  0.00     0.000 C 
BRANCH  11  12
ATOM     12  C   UNL     1      38.189  18.417 226.016  1.00  0.00     0.006 C 
BRANCH  12  13
ATOM     13  C   UNL     1      37.032  18.483 227.025  1.00  0.00     0.053 C 
BRANCH  13  14
ATOM     14  C   UNL     1      35.864  19.255 226.492  1.00  0.00     0.041 C 
ATOM     15  O   UNL     1      35.045  18.704 225.711  1.00  0.00    -0.550 OA
ATOM     16  O   UNL     1      35.694  20.591 226.835  1.00  0.00    -0.550 OA
ENDBRANCH  13  14
ENDBRANCH  12  13
ENDBRANCH  11  12
ENDBRANCH  10  11
ENDBRANCH   9  10
ENDBRANCH   8   9
ENDBRANCH   7   8
ENDBRANCH   6   7
ENDBRANCH   5   6
ENDBRANCH   4   5
ENDBRANCH   3   4
ENDBRANCH   2   3
ENDBRANCH   1   2
BRANCH   1  17
ATOM     17  C   UNL     1      37.975  24.966 227.021  1.00  0.00     0.000 C 
BRANCH  17  18
ATOM     18  C   UNL     1      38.876  26.213 227.156  1.00  0.00     0.000 C 
BRANCH  18  19
ATOM     19  C   UNL     1      39.865  26.440 226.000  1.00  0.00     0.000 C 
BRANCH  19  20
ATOM     20  C   UNL     1      41.344  26.527 226.419  1.00  0.00     0.000 C 
BRANCH  20  21
ATOM     21  C   UNL     1      41.848  25.291 227.197  1.00  0.00     0.000 C 
BRANCH  21  22
ATOM     22  C   UNL     1      42.366  24.132 226.319  1.00  0.00    -0.000 C 
BRANCH  22  23
ATOM     23  C   UNL     1      41.985  22.708 226.778  1.00  0.00    -0.000 C 
BRANCH  23  24
ATOM     24  C   UNL     1      40.576  22.563 227.376  1.00  0.00    -0.000 C 
BRANCH  24  25
ATOM     25  C   UNL     1      40.587  22.371 228.904  1.00  0.00    -0.000 C 
BRANCH  25  26
ATOM     26  C   UNL     1      39.163  22.339 229.487  1.00  0.00    -0.000 C 
BRANCH  26  27
ATOM     27  C   UNL     1      38.522  20.945 229.386  1.00  0.00    -0.000 C 
BRANCH  27  28
ATOM     28  C   UNL     1      39.230  19.911 230.277  1.00  0.00    -0.000 C 
BRANCH  28  29
ATOM     29  C   UNL     1      39.998  18.864 229.453  1.00  0.00    -0.003 C 
ATOM     30  C   UNL     1      41.280  18.432 230.160  1.00  0.00     0.004 C 
ENDBRANCH  28  29
ENDBRANCH  27  28
ENDBRANCH  26  27
ENDBRANCH  25  26
ENDBRANCH  24  25
ENDBRANCH  23  24
ENDBRANCH  22  23
ENDBRANCH  21  22
ENDBRANCH  20  21
ENDBRANCH  19  20
ENDBRANCH  18  19
ENDBRANCH  17  18
ENDBRANCH   1  17
TORSDOF 26
ENDMDL
MODEL 5
REMARK VINA RESULT:    -4.153      1.895      6.514
REMARK INTER + INTRA:         -15.666
REMARK INTER:                 -11.143
REMARK INTRA:                  -4.523
REMARK UNBOUND:                -5.202
REMARK SMILES CCCCCCCCCCCCCCCCCCCCCCCCCCCC(=O)[O-]
REMARK SMILES IDX 15 1 16 2 17 3 18 4 19 5 20 6 21 7 22 8 23 9 24 10 25 11
REMARK SMILES IDX 26 12 27 13 28 14 29 15 30 16 14 17 13 18 12 19 11 20 10 21
REMARK SMILES IDX 9 22 8 23 7 24 6 25 5 26 4 27 3 28 2 29 1 30
REMARK H PARENT
REMARK Flexibility Score: inf
ROOT
ATOM      1  C   UNL     1      38.930  25.174 224.171  1.00  0.00     0.000 C 
ENDROOT
BRANCH   1   2
ATOM      2  C   UNL     1      38.460  24.073 223.204  1.00  0.00     0.000 C 
BRANCH   2   3
ATOM      3  C   UNL     1      39.628  23.280 222.588  1.00  0.00     0.000 C 
BRANCH   3   4
ATOM      4  C   UNL     1      41.005  23.530 223.228  1.00  0.00     0.000 C 
BRANCH   4   5
ATOM      5  C   UNL     1      41.785  22.232 223.498  1.00  0.00     0.000 C 
BRANCH   5   6
ATOM      6  C   UNL     1      41.465  21.131 222.473  1.00  0.00     0.000 C 
BRANCH   6   7
ATOM      7  C   UNL     1      41.141  19.777 223.131  1.00  0.00     0.000 C 
BRANCH   7   8
ATOM      8  C   UNL     1      40.242  19.928 224.370  1.00  0.00     0.000 C 
BRANCH   8   9
ATOM      9  C   UNL     1      40.513  18.846 225.430  1.00  0.00     0.000 C 
BRANCH   9  10
ATOM     10  C   UNL     1      39.737  19.085 226.737  1.00  0.00     0.000 C 
BRANCH  10  11
ATOM     11  C   UNL     1      38.799  17.935 227.162  1.00  0.00     0.000 C 
BRANCH  11  12
ATOM     12  C   UNL     1      37.482  18.378 227.829  1.00  0.00     0.006 C 
BRANCH  12  13
ATOM     13  C   UNL     1      36.210  17.983 227.063  1.00  0.00     0.053 C 
BRANCH  13  14
ATOM     14  C   UNL     1      35.705  19.097 226.197  1.00  0.00     0.041 C 
ATOM     15  O   UNL     1      35.452  18.887 224.983  1.00  0.00    -0.550 OA
ATOM     16  O   UNL     1      35.540  20.372 226.725  1.00  0.00    -0.550 OA
ENDBRANCH  13  14
ENDBRANCH  12  13
ENDBRANCH  11  12
ENDBRANCH  10  11
ENDBRANCH   9  10
ENDBRANCH   8   9
ENDBRANCH   7   8
ENDBRANCH   6   7
ENDBRANCH   5   6
ENDBRANCH   4   5
ENDBRANCH   3   4
ENDBRANCH   2   3
ENDBRANCH   1   2
BRANCH   1  17
ATOM     17  C   UNL     1      37.816  25.672 225.112  1.00  0.00     0.000 C 
BRANCH  17  18
ATOM     18  C   UNL     1      37.714  24.939 226.466  1.00  0.00     0.000 C 
BRANCH  18  19
ATOM     19  C   UNL     1      37.278  23.465 226.387  1.00  0.00     0.000 C 
BRANCH  19  20
ATOM     20  C   UNL     1      38.419  22.443 226.536  1.00  0.00     0.000 C 
BRANCH  20  21
ATOM     21  C   UNL     1      39.622  22.963 227.355  1.00  0.00     0.000 C 
BRANCH  21  22
ATOM     22  C   UNL     1      41.007  22.544 226.819  1.00  0.00    -0.000 C 
BRANCH  22  23
ATOM     23  C   UNL     1      42.217  23.320 227.384  1.00  0.00    -0.000 C 
BRANCH  23  24
ATOM     24  C   UNL     1      42.762  24.440 226.482  1.00  0.00    -0.000 C 
BRANCH  24  25
ATOM     25  C   UNL     1      42.923  25.782 227.220  1.00  0.00    -0.000 C 
BRANCH  25  26
ATOM     26  C   UNL     1      41.843  25.976 228.298  1.00  0.00    -0.000 C 
BRANCH  26  27
ATOM     27  C   UNL     1      40.610  26.724 227.761  1.00  0.00    -0.000 C 
BRANCH  27  28
ATOM     28  C   UNL     1      40.890  27.426 226.422  1.00  0.00    -0.000 C 
BRANCH  28  29
ATOM     29  C   UNL     1      40.494  28.911 226.451  1.00  0.00    -0.003 C 
ATOM     30  C   UNL     1      41.724  29.815 226.456  1.00  0.00     0.004 C 
ENDBRANCH  28  29
ENDBRANCH  27  28
ENDBRANCH  26  27
ENDBRANCH  25  26
ENDBRANCH  24  25
ENDBRANCH  23  24
ENDBRANCH  22  23
ENDBRANCH  21  22
ENDBRANCH  20  21
ENDBRANCH  19  20
ENDBRANCH  18  19
ENDBRANCH  17  18
ENDBRANCH   1  17
TORSDOF 26
ENDMDL
MODEL 6
REMARK VINA RESULT:    -4.123      1.527      3.685
REMARK INTER + INTRA:         -15.591
REMARK INTER:                 -10.300
REMARK INTRA:                  -5.291
REMARK UNBOUND:                -5.202
REMARK SMILES CCCCCCCCCCCCCCCCCCCCCCCCCCCC(=O)[O-]
REMARK SMILES IDX 15 1 16 2 17 3 18 4 19 5 20 6 21 7 22 8 23 9 24 10 25 11
REMARK SMILES IDX 26 12 27 13 28 14 29 15 30 16 14 17 13 18 12 19 11 20 10 21
REMARK SMILES IDX 9 22 8 23 7 24 6 25 5 26 4 27 3 28 2 29 1 30
REMARK H PARENT
REMARK Flexibility Score: inf
ROOT
ATOM      1  C   UNL     1      41.662  22.418 223.341  1.00  0.00     0.000 C 
ENDROOT
BRANCH   1   2
ATOM      2  C   UNL     1      40.360  22.740 222.588  1.00  0.00     0.000 C 
BRANCH   2   3
ATOM      3  C   UNL     1      39.613  23.953 223.175  1.00  0.00     0.000 C 
BRANCH   3   4
ATOM      4  C   UNL     1      38.078  23.840 223.184  1.00  0.00     0.000 C 
BRANCH   4   5
ATOM      5  C   UNL     1      37.391  25.063 223.815  1.00  0.00     0.000 C 
BRANCH   5   6
ATOM      6  C   UNL     1      38.401  26.093 224.349  1.00  0.00     0.000 C 
BRANCH   6   7
ATOM      7  C   UNL     1      38.735  25.887 225.838  1.00  0.00     0.000 C 
BRANCH   7   8
ATOM      8  C   UNL     1      40.220  26.144 226.146  1.00  0.00     0.000 C 
BRANCH   8   9
ATOM      9  C   UNL     1      40.854  25.014 226.975  1.00  0.00     0.000 C 
BRANCH   9  10
ATOM     10  C   UNL     1      39.858  23.888 227.306  1.00  0.00     0.000 C 
BRANCH  10  11
ATOM     11  C   UNL     1      40.229  22.499 226.745  1.00  0.00     0.000 C 
BRANCH  11  12
ATOM     12  C   UNL     1      39.050  21.694 226.162  1.00  0.00     0.006 C 
BRANCH  12  13
ATOM     13  C   UNL     1      37.660  22.231 226.534  1.00  0.00     0.053 C 
BRANCH  13  14
ATOM     14  C   UNL     1      36.560  21.360 226.009  1.00  0.00     0.041 C 
ATOM     15  O   UNL     1      36.439  21.173 224.770  1.00  0.00    -0.550 OA
ATOM     16  O   UNL     1      35.651  20.777 226.884  1.00  0.00    -0.550 OA
ENDBRANCH  13  14
ENDBRANCH  12  13
ENDBRANCH  11  12
ENDBRANCH  10  11
ENDBRANCH   9  10
ENDBRANCH   8   9
ENDBRANCH   7   8
ENDBRANCH   6   7
ENDBRANCH   5   6
ENDBRANCH   4   5
ENDBRANCH   3   4
ENDBRANCH   2   3
ENDBRANCH   1   2
BRANCH   1  17
ATOM     17  C   UNL     1      42.318  21.101 222.885  1.00  0.00     0.000 C 
BRANCH  17  18
ATOM     18  C   UNL     1      41.351  19.915 222.676  1.00  0.00     0.000 C 
BRANCH  18  19
ATOM     19  C   UNL     1      40.722  19.343 223.958  1.00  0.00     0.000 C 
BRANCH  19  20
ATOM     20  C   UNL     1      41.715  19.074 225.103  1.00  0.00     0.000 C 
BRANCH  20  21
ATOM     21  C   UNL     1      41.041  18.671 226.434  1.00  0.00     0.000 C 
BRANCH  21  22
ATOM     22  C   UNL     1      40.688  17.175 226.561  1.00  0.00    -0.000 C 
BRANCH  22  23
ATOM     23  C   UNL     1      39.440  16.841 227.407  1.00  0.00    -0.000 C 
BRANCH  23  24
ATOM     24  C   UNL     1      38.186  17.673 227.092  1.00  0.00    -0.000 C 
BRANCH  24  25
ATOM     25  C   UNL     1      37.878  18.730 228.169  1.00  0.00    -0.000 C 
BRANCH  25  26
ATOM     26  C   UNL     1      38.722  18.516 229.437  1.00  0.00    -0.000 C 
BRANCH  26  27
ATOM     27  C   UNL     1      39.591  19.740 229.773  1.00  0.00    -0.000 C 
BRANCH  27  28
ATOM     28  C   UNL     1      38.775  21.042 229.813  1.00  0.00    -0.000 C 
BRANCH  28  29
ATOM     29  C   UNL     1      39.394  22.087 230.756  1.00  0.00    -0.003 C 
ATOM     30  C   UNL     1      40.878  22.292 230.460  1.00  0.00     0.004 C 
ENDBRANCH  28  29
ENDBRANCH  27  28
ENDBRANCH  26  27
ENDBRANCH  25  26
ENDBRANCH  24  25
ENDBRANCH  23  24
ENDBRANCH  22  23
ENDBRANCH  21  22
ENDBRANCH  20  21
ENDBRANCH  19  20
ENDBRANCH  18  19
ENDBRANCH  17  18
ENDBRANCH   1  17
TORSDOF 26
ENDMDL
MODEL 7
REMARK VINA RESULT:    -4.121      2.047      6.051
REMARK INTER + INTRA:         -15.587
REMARK INTER:                 -10.417
REMARK INTRA:                  -5.170
REMARK UNBOUND:                -5.202
REMARK SMILES CCCCCCCCCCCCCCCCCCCCCCCCCCCC(=O)[O-]
REMARK SMILES IDX 15 1 16 2 17 3 18 4 19 5 20 6 21 7 22 8 23 9 24 10 25 11
REMARK SMILES IDX 26 12 27 13 28 14 29 15 30 16 14 17 13 18 12 19 11 20 10 21
REMARK SMILES IDX 9 22 8 23 7 24 6 25 5 26 4 27 3 28 2 29 1 30
REMARK H PARENT
REMARK Flexibility Score: inf
ROOT
ATOM      1  C   UNL     1      36.901  23.025 224.786  1.00  0.00     0.000 C 
ENDROOT
BRANCH   1   2
ATOM      2  C   UNL     1      37.137  23.788 223.471  1.00  0.00     0.000 C 
BRANCH   2   3
ATOM      3  C   UNL     1      38.579  24.313 223.334  1.00  0.00     0.000 C 
BRANCH   3   4
ATOM      4  C   UNL     1      39.568  23.351 222.652  1.00  0.00     0.000 C 
BRANCH   4   5
ATOM      5  C   UNL     1      41.011  23.521 223.155  1.00  0.00     0.000 C 
BRANCH   5   6
ATOM      6  C   UNL     1      41.717  22.172 223.379  1.00  0.00     0.000 C 
BRANCH   6   7
ATOM      7  C   UNL     1      41.188  21.059 222.456  1.00  0.00     0.000 C 
BRANCH   7   8
ATOM      8  C   UNL     1      41.461  19.654 223.017  1.00  0.00     0.000 C 
BRANCH   8   9
ATOM      9  C   UNL     1      41.241  19.575 224.539  1.00  0.00     0.000 C 
BRANCH   9  10
ATOM     10  C   UNL     1      39.860  19.008 224.912  1.00  0.00     0.000 C 
BRANCH  10  11
ATOM     11  C   UNL     1      39.647  18.739 226.416  1.00  0.00     0.000 C 
BRANCH  11  12
ATOM     12  C   UNL     1      38.214  18.988 226.929  1.00  0.00     0.006 C 
BRANCH  12  13
ATOM     13  C   UNL     1      37.107  18.708 225.900  1.00  0.00     0.053 C 
BRANCH  13  14
ATOM     14  C   UNL     1      35.841  19.443 226.220  1.00  0.00     0.041 C 
ATOM     15  O   UNL     1      35.881  20.502 226.897  1.00  0.00    -0.550 OA
ATOM     16  O   UNL     1      34.617  18.943 225.794  1.00  0.00    -0.550 OA
ENDBRANCH  13  14
ENDBRANCH  12  13
ENDBRANCH  11  12
ENDBRANCH  10  11
ENDBRANCH   9  10
ENDBRANCH   8   9
ENDBRANCH   7   8
ENDBRANCH   6   7
ENDBRANCH   5   6
ENDBRANCH   4   5
ENDBRANCH   3   4
ENDBRANCH   2   3
ENDBRANCH   1   2
BRANCH   1  17
ATOM     17  C   UNL     1      37.430  23.772 226.026  1.00  0.00     0.000 C 
BRANCH  17  18
ATOM     18  C   UNL     1      38.291  22.929 226.992  1.00  0.00     0.000 C 
BRANCH  18  19
ATOM     19  C   UNL     1      39.627  22.427 226.418  1.00  0.00     0.000 C 
BRANCH  19  20
ATOM     20  C   UNL     1      40.676  22.029 227.471  1.00  0.00     0.000 C 
BRANCH  20  21
ATOM     21  C   UNL     1      42.129  22.370 227.069  1.00  0.00     0.000 C 
BRANCH  21  22
ATOM     22  C   UNL     1      42.564  23.821 227.361  1.00  0.00    -0.000 C 
BRANCH  22  23
ATOM     23  C   UNL     1      42.809  24.719 226.129  1.00  0.00    -0.000 C 
BRANCH  23  24
ATOM     24  C   UNL     1      41.693  25.729 225.816  1.00  0.00    -0.000 C 
BRANCH  24  25
ATOM     25  C   UNL     1      41.687  26.935 226.773  1.00  0.00    -0.000 C 
BRANCH  25  26
ATOM     26  C   UNL     1      40.401  27.767 226.637  1.00  0.00    -0.000 C 
BRANCH  26  27
ATOM     27  C   UNL     1      39.193  27.091 227.309  1.00  0.00    -0.000 C 
BRANCH  27  28
ATOM     28  C   UNL     1      39.416  26.860 228.812  1.00  0.00    -0.000 C 
BRANCH  28  29
ATOM     29  C   UNL     1      39.138  25.405 229.223  1.00  0.00    -0.003 C 
ATOM     30  C   UNL     1      40.303  24.820 230.018  1.00  0.00     0.004 C 
ENDBRANCH  28  29
ENDBRANCH  27  28
ENDBRANCH  26  27
ENDBRANCH  25  26
ENDBRANCH  24  25
ENDBRANCH  23  24
ENDBRANCH  22  23
ENDBRANCH  21  22
ENDBRANCH  20  21
ENDBRANCH  19  20
ENDBRANCH  18  19
ENDBRANCH  17  18
ENDBRANCH   1  17
TORSDOF 26
ENDMDL
MODEL 8
REMARK VINA RESULT:    -4.112      1.472      2.919
REMARK INTER + INTRA:         -15.563
REMARK INTER:                 -10.213
REMARK INTRA:                  -5.350
REMARK UNBOUND:                -5.202
REMARK SMILES CCCCCCCCCCCCCCCCCCCCCCCCCCCC(=O)[O-]
REMARK SMILES IDX 15 1 16 2 17 3 18 4 19 5 20 6 21 7 22 8 23 9 24 10 25 11
REMARK SMILES IDX 26 12 27 13 28 14 29 15 30 16 14 17 13 18 12 19 11 20 10 21
REMARK SMILES IDX 9 22 8 23 7 24 6 25 5 26 4 27 3 28 2 29 1 30
REMARK H PARENT
REMARK Flexibility Score: inf
ROOT
ATOM      1  C   UNL     1      40.922  20.315 223.359  1.00  0.00     0.000 C 
ENDROOT
BRANCH   1   2
ATOM      2  C   UNL     1      40.486  21.679 223.922  1.00  0.00     0.000 C 
BRANCH   2   3
ATOM      3  C   UNL     1      41.312  22.851 223.358  1.00  0.00     0.000 C 
BRANCH   3   4
ATOM      4  C   UNL     1      41.710  23.929 224.382  1.00  0.00     0.000 C 
BRANCH   4   5
ATOM      5  C   UNL     1      42.031  23.347 225.769  1.00  0.00     0.000 C 
BRANCH   5   6
ATOM      6  C   UNL     1      42.243  24.441 226.830  1.00  0.00     0.000 C 
BRANCH   6   7
ATOM      7  C   UNL     1      42.458  25.836 226.215  1.00  0.00     0.000 C 
BRANCH   7   8
ATOM      8  C   UNL     1      41.513  26.892 226.814  1.00  0.00     0.000 C 
BRANCH   8   9
ATOM      9  C   UNL     1      40.091  26.808 226.230  1.00  0.00     0.000 C 
BRANCH   9  10
ATOM     10  C   UNL     1      39.033  26.451 227.289  1.00  0.00     0.000 C 
BRANCH  10  11
ATOM     11  C   UNL     1      38.599  24.970 227.307  1.00  0.00     0.000 C 
BRANCH  11  12
ATOM     12  C   UNL     1      38.392  24.331 225.919  1.00  0.00     0.006 C 
BRANCH  12  13
ATOM     13  C   UNL     1      36.924  24.084 225.539  1.00  0.00     0.053 C 
BRANCH  13  14
ATOM     14  C   UNL     1      36.253  25.328 225.043  1.00  0.00     0.041 C 
ATOM     15  O   UNL     1      36.824  26.056 224.190  1.00  0.00    -0.550 OA
ATOM     16  O   UNL     1      35.011  25.699 225.544  1.00  0.00    -0.550 OA
ENDBRANCH  13  14
ENDBRANCH  12  13
ENDBRANCH  11  12
ENDBRANCH  10  11
ENDBRANCH   9  10
ENDBRANCH   8   9
ENDBRANCH   7   8
ENDBRANCH   6   7
ENDBRANCH   5   6
ENDBRANCH   4   5
ENDBRANCH   3   4
ENDBRANCH   2   3
ENDBRANCH   1   2
BRANCH   1  17
ATOM     17  C   UNL     1      40.854  19.179 224.397  1.00  0.00     0.000 C 
BRANCH  17  18
ATOM     18  C   UNL     1      41.714  19.383 225.663  1.00  0.00     0.000 C 
BRANCH  18  19
ATOM     19  C   UNL     1      40.961  19.265 226.999  1.00  0.00     0.000 C 
BRANCH  19  20
ATOM     20  C   UNL     1      41.286  20.366 228.025  1.00  0.00     0.000 C 
BRANCH  20  21
ATOM     21  C   UNL     1      40.157  21.407 228.205  1.00  0.00     0.000 C 
BRANCH  21  22
ATOM     22  C   UNL     1      38.785  20.822 228.597  1.00  0.00    -0.000 C 
BRANCH  22  23
ATOM     23  C   UNL     1      37.554  21.461 227.918  1.00  0.00    -0.000 C 
BRANCH  23  24
ATOM     24  C   UNL     1      36.726  20.518 227.030  1.00  0.00    -0.000 C 
BRANCH  24  25
ATOM     25  C   UNL     1      37.551  19.875 225.900  1.00  0.00    -0.000 C 
BRANCH  25  26
ATOM     26  C   UNL     1      37.292  18.363 225.791  1.00  0.00    -0.000 C 
BRANCH  26  27
ATOM     27  C   UNL     1      36.377  17.845 226.915  1.00  0.00    -0.000 C 
BRANCH  27  28
ATOM     28  C   UNL     1      37.071  16.791 227.793  1.00  0.00    -0.000 C 
BRANCH  28  29
ATOM     29  C   UNL     1      38.137  17.410 228.711  1.00  0.00    -0.003 C 
ATOM     30  C   UNL     1      39.324  16.470 228.897  1.00  0.00     0.004 C 
ENDBRANCH  28  29
ENDBRANCH  27  28
ENDBRANCH  26  27
ENDBRANCH  25  26
ENDBRANCH  24  25
ENDBRANCH  23  24
ENDBRANCH  22  23
ENDBRANCH  21  22
ENDBRANCH  20  21
ENDBRANCH  19  20
ENDBRANCH  18  19
ENDBRANCH  17  18
ENDBRANCH   1  17
TORSDOF 26
ENDMDL
MODEL 9
REMARK VINA RESULT:    -4.031      2.992      6.873
REMARK INTER + INTRA:         -15.358
REMARK INTER:                  -9.676
REMARK INTRA:                  -5.682
REMARK UNBOUND:                -5.202
REMARK SMILES CCCCCCCCCCCCCCCCCCCCCCCCCCCC(=O)[O-]
REMARK SMILES IDX 15 1 16 2 17 3 18 4 19 5 20 6 21 7 22 8 23 9 24 10 25 11
REMARK SMILES IDX 26 12 27 13 28 14 29 15 30 16 14 17 13 18 12 19 11 20 10 21
REMARK SMILES IDX 9 22 8 23 7 24 6 25 5 26 4 27 3 28 2 29 1 30
REMARK H PARENT
REMARK Flexibility Score: inf
ROOT
ATOM      1  C   UNL     1      38.897  21.046 225.661  1.00  0.00     0.000 C 
ENDROOT
BRANCH   1   2
ATOM      2  C   UNL     1      37.475  20.500 225.451  1.00  0.00     0.000 C 
BRANCH   2   3
ATOM      3  C   UNL     1      36.913  19.797 226.701  1.00  0.00     0.000 C 
BRANCH   3   4
ATOM      4  C   UNL     1      36.913  18.258 226.647  1.00  0.00     0.000 C 
BRANCH   4   5
ATOM      5  C   UNL     1      37.133  17.611 228.025  1.00  0.00     0.000 C 
BRANCH   5   6
ATOM      6  C   UNL     1      38.512  16.941 228.145  1.00  0.00     0.000 C 
BRANCH   6   7
ATOM      7  C   UNL     1      39.431  17.244 226.947  1.00  0.00     0.000 C 
BRANCH   7   8
ATOM      8  C   UNL     1      40.660  18.078 227.348  1.00  0.00     0.000 C 
BRANCH   8   9
ATOM      9  C   UNL     1      40.417  18.909 228.621  1.00  0.00     0.000 C 
BRANCH   9  10
ATOM     10  C   UNL     1      40.971  20.340 228.512  1.00  0.00     0.000 C 
BRANCH  10  11
ATOM     11  C   UNL     1      40.074  21.438 229.120  1.00  0.00     0.000 C 
BRANCH  11  12
ATOM     12  C   UNL     1      38.680  20.964 229.579  1.00  0.00     0.006 C 
BRANCH  12  13
ATOM     13  C   UNL     1      38.348  21.273 231.047  1.00  0.00     0.053 C 
BRANCH  13  14
ATOM     14  C   UNL     1      38.327  20.036 231.892  1.00  0.00     0.041 C 
ATOM     15  O   UNL     1      38.660  20.094 233.104  1.00  0.00    -0.550 OA
ATOM     16  O   UNL     1      37.968  18.815 231.334  1.00  0.00    -0.550 OA
ENDBRANCH  13  14
ENDBRANCH  12  13
ENDBRANCH  11  12
ENDBRANCH  10  11
ENDBRANCH   9  10
ENDBRANCH   8   9
ENDBRANCH   7   8
ENDBRANCH   6   7
ENDBRANCH   5   6
ENDBRANCH   4   5
ENDBRANCH   3   4
ENDBRANCH   2   3
ENDBRANCH   1   2
BRANCH   1  17
ATOM     17  C   UNL     1      39.942  20.397 224.733  1.00  0.00     0.000 C 
BRANCH  17  18
ATOM     18  C   UNL     1      41.231  21.215 224.509  1.00  0.00     0.000 C 
BRANCH  18  19
ATOM     19  C   UNL     1      41.361  22.489 225.361  1.00  0.00     0.000 C 
BRANCH  19  20
ATOM     20  C   UNL     1      41.118  23.805 224.601  1.00  0.00     0.000 C 
BRANCH  20  21
ATOM     21  C   UNL     1      40.643  23.608 223.143  1.00  0.00     0.000 C 
BRANCH  21  22
ATOM     22  C   UNL     1      39.115  23.672 222.938  1.00  0.00    -0.000 C 
BRANCH  22  23
ATOM     23  C   UNL     1      38.359  24.713 223.792  1.00  0.00    -0.000 C 
BRANCH  23  24
ATOM     24  C   UNL     1      37.192  24.160 224.626  1.00  0.00    -0.000 C 
BRANCH  24  25
ATOM     25  C   UNL     1      37.138  24.744 226.049  1.00  0.00    -0.000 C 
BRANCH  25  26
ATOM     26  C   UNL     1      38.162  24.075 226.981  1.00  0.00    -0.000 C 
BRANCH  26  27
ATOM     27  C   UNL     1      39.266  25.048 227.430  1.00  0.00    -0.000 C 
BRANCH  27  28
ATOM     28  C   UNL     1      38.932  26.509 227.088  1.00  0.00    -0.000 C 
BRANCH  28  29
ATOM     29  C   UNL     1      39.921  27.110 226.076  1.00  0.00    -0.003 C 
ATOM     30  C   UNL     1      41.110  27.758 226.779  1.00  0.00     0.004 C 
ENDBRANCH  28  29
ENDBRANCH  27  28
ENDBRANCH  26  27
ENDBRANCH  25  26
ENDBRANCH  24  25
ENDBRANCH  23  24
ENDBRANCH  22  23
ENDBRANCH  21  22
ENDBRANCH  20  21
ENDBRANCH  19  20
ENDBRANCH  18  19
ENDBRANCH  17  18
ENDBRANCH   1  17
TORSDOF 26
ENDMDL
