MODEL 1
REMARK VINA RESULT:     7.798      0.000      0.000
REMARK INTER + INTRA:          11.186
REMARK INTER:                  10.990
REMARK INTRA:                   0.197
REMARK UNBOUND:                 0.197
REMARK SMILES COc1ccc(-c2cc(=O)c3c(OC)c(OC)c(OC)c(OC)c3o2)cc1OC
REMARK SMILES IDX 7 1 8 2 9 3 10 4 11 5 24 6 25 7 21 8 18 9 15 10 12 11 6 12
REMARK SMILES IDX 3 13 27 14 4 15 26 16 5 17 2 18 1 19 28 20 29 21 22 22 23 23
REMARK SMILES IDX 13 24 14 25 19 26 20 27 16 28 17 29
REMARK H PARENT
REMARK Flexibility Score: inf
ROOT
ATOM      1  C   UNL     1      21.082   9.077  -6.354  1.00  0.00     0.138 A 
ATOM      2  C   UNL     1      22.134   8.886  -7.262  1.00  0.00     0.100 A 
ATOM      3  C   UNL     1      22.171   9.642  -8.434  1.00  0.00     0.197 A 
ATOM      4  O   UNL     1      23.123   9.465  -9.240  1.00  0.00    -0.289 OA
ATOM      5  C   UNL     1      21.156  10.592  -8.686  1.00  0.00     0.115 A 
ATOM      6  C   UNL     1      20.142  10.739  -7.717  1.00  0.00     0.188 A 
ATOM      7  O   UNL     1      20.152   9.991  -6.617  1.00  0.00    -0.452 OA
ATOM      8  C   UNL     1      19.106  11.664  -7.894  1.00  0.00     0.209 A 
ATOM      9  C   UNL     1      19.066  12.469  -9.060  1.00  0.00     0.211 A 
ATOM     10  C   UNL     1      20.106  12.351 -10.019  1.00  0.00     0.208 A 
ATOM     11  C   UNL     1      21.114  11.377  -9.856  1.00  0.00     0.179 A 
ENDROOT
BRANCH   1  12
ATOM     12  C   UNL     1      20.980   8.297  -5.093  1.00  0.00     0.021 A 
ATOM     13  C   UNL     1      20.822   6.765  -2.727  1.00  0.00     0.160 A 
ATOM     14  C   UNL     1      20.862   8.166  -2.652  1.00  0.00     0.161 A 
ATOM     15  C   UNL     1      20.875   6.135  -3.984  1.00  0.00     0.051 A 
ATOM     16  C   UNL     1      20.945   8.926  -3.835  1.00  0.00     0.062 A 
ATOM     17  C   UNL     1      20.958   6.895  -5.151  1.00  0.00     0.016 A 
BRANCH  13  18
ATOM     18  O   UNL     1      20.733   6.036  -1.531  1.00  0.00    -0.493 OA
ATOM     19  C   UNL     1      19.516   5.561  -0.964  1.00  0.00     0.278 C 
ENDBRANCH  13  18
BRANCH  14  20
ATOM     20  O   UNL     1      20.821   8.764  -1.382  1.00  0.00    -0.493 OA
ATOM     21  C   UNL     1      19.695   8.734  -0.510  1.00  0.00     0.278 C 
ENDBRANCH  14  20
ENDBRANCH   1  12
BRANCH   8  22
ATOM     22  O   UNL     1      18.148  11.732  -6.861  1.00  0.00    -0.490 OA
ATOM     23  C   UNL     1      18.169  12.593  -5.728  1.00  0.00     0.278 C 
ENDBRANCH   8  22
BRANCH  11  24
ATOM     24  O   UNL     1      22.058  11.172 -10.866  1.00  0.00    -0.492 OA
ATOM     25  C   UNL     1      23.125  12.087 -11.089  1.00  0.00     0.278 C 
ENDBRANCH  11  24
BRANCH   9  26
ATOM     26  O   UNL     1      17.991  13.363  -9.218  1.00  0.00    -0.490 OA
ATOM     27  C   UNL     1      17.099  13.457 -10.323  1.00  0.00     0.279 C 
ENDBRANCH   9  26
BRANCH  10  28
ATOM     28  O   UNL     1      20.133  13.209 -11.125  1.00  0.00    -0.490 OA
ATOM     29  C   UNL     1      20.640  14.542 -11.068  1.00  0.00     0.278 C 
ENDBRANCH  10  28
TORSDOF 7
ENDMDL
MODEL 2
REMARK VINA RESULT:     8.481      1.095      1.913
REMARK INTER + INTRA:          12.148
REMARK INTER:                  11.580
REMARK INTRA:                   0.569
REMARK UNBOUND:                 0.197
REMARK SMILES COc1ccc(-c2cc(=O)c3c(OC)c(OC)c(OC)c(OC)c3o2)cc1OC
REMARK SMILES IDX 7 1 8 2 9 3 10 4 11 5 24 6 25 7 21 8 18 9 15 10 12 11 6 12
REMARK SMILES IDX 3 13 27 14 4 15 26 16 5 17 2 18 1 19 28 20 29 21 22 22 23 23
REMARK SMILES IDX 13 24 14 25 19 26 20 27 16 28 17 29
REMARK H PARENT
REMARK Flexibility Score: inf
ROOT
ATOM      1  C   UNL     1      21.162   9.549  -6.423  1.00  0.00     0.138 A 
ATOM      2  C   UNL     1      22.020   9.225  -7.485  1.00  0.00     0.100 A 
ATOM      3  C   UNL     1      21.988   9.994  -8.648  1.00  0.00     0.197 A 
ATOM      4  O   UNL     1      22.768   9.697  -9.593  1.00  0.00    -0.289 OA
ATOM      5  C   UNL     1      21.099  11.088  -8.741  1.00  0.00     0.115 A 
ATOM      6  C   UNL     1      20.280  11.361  -7.625  1.00  0.00     0.188 A 
ATOM      7  O   UNL     1      20.348  10.595  -6.539  1.00  0.00    -0.452 OA
ATOM      8  C   UNL     1      19.378  12.431  -7.639  1.00  0.00     0.209 A 
ATOM      9  C   UNL     1      19.278  13.259  -8.786  1.00  0.00     0.211 A 
ATOM     10  C   UNL     1      20.129  13.012  -9.895  1.00  0.00     0.208 A 
ATOM     11  C   UNL     1      20.994  11.896  -9.890  1.00  0.00     0.179 A 
ENDROOT
BRANCH   1  12
ATOM     12  C   UNL     1      21.140   8.765  -5.162  1.00  0.00     0.021 A 
ATOM     13  C   UNL     1      21.052   7.315  -2.740  1.00  0.00     0.160 A 
ATOM     14  C   UNL     1      21.326   6.649  -3.944  1.00  0.00     0.161 A 
ATOM     15  C   UNL     1      20.808   8.702  -2.753  1.00  0.00     0.051 A 
ATOM     16  C   UNL     1      21.365   7.375  -5.150  1.00  0.00     0.062 A 
ATOM     17  C   UNL     1      20.849   9.413  -3.952  1.00  0.00     0.016 A 
BRANCH  13  18
ATOM     18  O   UNL     1      21.025   6.565  -1.554  1.00  0.00    -0.493 OA
ATOM     19  C   UNL     1      19.837   6.110  -0.915  1.00  0.00     0.278 C 
ENDBRANCH  13  18
BRANCH  14  20
ATOM     20  O   UNL     1      21.550   5.264  -3.900  1.00  0.00    -0.493 OA
ATOM     21  C   UNL     1      22.646   4.602  -4.524  1.00  0.00     0.278 C 
ENDBRANCH  14  20
ENDBRANCH   1  12
BRANCH   8  22
ATOM     22  O   UNL     1      18.612  12.617  -6.470  1.00  0.00    -0.490 OA
ATOM     23  C   UNL     1      17.870  11.628  -5.765  1.00  0.00     0.278 C 
ENDBRANCH   8  22
BRANCH  11  24
ATOM     24  O   UNL     1      21.730  11.577 -11.034  1.00  0.00    -0.492 OA
ATOM     25  C   UNL     1      23.125  11.845 -11.125  1.00  0.00     0.278 C 
ENDBRANCH  11  24
BRANCH   9  26
ATOM     26  O   UNL     1      18.337  14.305  -8.774  1.00  0.00    -0.490 OA
ATOM     27  C   UNL     1      18.568  15.673  -8.453  1.00  0.00     0.279 C 
ENDBRANCH   9  26
BRANCH  10  28
ATOM     28  O   UNL     1      20.112  13.881 -10.992  1.00  0.00    -0.490 OA
ATOM     29  C   UNL     1      20.997  14.992 -11.123  1.00  0.00     0.278 C 
ENDBRANCH  10  28
TORSDOF 7
ENDMDL
MODEL 3
REMARK VINA RESULT:    10.227      1.076      1.720
REMARK INTER + INTRA:          14.609
REMARK INTER:                  13.958
REMARK INTRA:                   0.651
REMARK UNBOUND:                 0.197
REMARK SMILES COc1ccc(-c2cc(=O)c3c(OC)c(OC)c(OC)c(OC)c3o2)cc1OC
REMARK SMILES IDX 7 1 8 2 9 3 10 4 11 5 24 6 25 7 21 8 18 9 15 10 12 11 6 12
REMARK SMILES IDX 3 13 27 14 4 15 26 16 5 17 2 18 1 19 28 20 29 21 22 22 23 23
REMARK SMILES IDX 13 24 14 25 19 26 20 27 16 28 17 29
REMARK H PARENT
REMARK Flexibility Score: inf
ROOT
ATOM      1  C   UNL     1      21.042   8.878  -5.630  1.00  0.00     0.138 A 
ATOM      2  C   UNL     1      22.040   8.456  -6.522  1.00  0.00     0.100 A 
ATOM      3  C   UNL     1      22.121   9.045  -7.784  1.00  0.00     0.197 A 
ATOM      4  O   UNL     1      23.024   8.661  -8.575  1.00  0.00    -0.289 OA
ATOM      5  C   UNL     1      21.204  10.057  -8.145  1.00  0.00     0.115 A 
ATOM      6  C   UNL     1      20.241  10.439  -7.188  1.00  0.00     0.188 A 
ATOM      7  O   UNL     1      20.206   9.845  -5.998  1.00  0.00    -0.452 OA
ATOM      8  C   UNL     1      19.303  11.438  -7.469  1.00  0.00     0.209 A 
ATOM      9  C   UNL     1      19.312  12.084  -8.732  1.00  0.00     0.211 A 
ATOM     10  C   UNL     1      20.305  11.730  -9.684  1.00  0.00     0.208 A 
ATOM     11  C   UNL     1      21.209  10.682  -9.408  1.00  0.00     0.179 A 
ENDROOT
BRANCH   1  12
ATOM     12  C   UNL     1      20.896   8.285  -4.276  1.00  0.00     0.021 A 
ATOM     13  C   UNL     1      20.603   7.220  -1.677  1.00  0.00     0.160 A 
ATOM     14  C   UNL     1      20.285   6.434  -2.795  1.00  0.00     0.161 A 
ATOM     15  C   UNL     1      21.053   8.540  -1.861  1.00  0.00     0.051 A 
ATOM     16  C   UNL     1      20.429   6.971  -4.089  1.00  0.00     0.062 A 
ATOM     17  C   UNL     1      21.192   9.064  -3.147  1.00  0.00     0.016 A 
BRANCH  13  18
ATOM     18  O   UNL     1      20.455   6.655  -0.401  1.00  0.00    -0.493 OA
ATOM     19  C   UNL     1      19.240   6.649   0.342  1.00  0.00     0.278 C 
ENDBRANCH  13  18
BRANCH  14  20
ATOM     20  O   UNL     1      19.826   5.125  -2.577  1.00  0.00    -0.493 OA
ATOM     21  C   UNL     1      18.453   4.752  -2.501  1.00  0.00     0.278 C 
ENDBRANCH  14  20
ENDBRANCH   1  12
BRANCH   8  22
ATOM     22  O   UNL     1      18.389  11.745  -6.440  1.00  0.00    -0.490 OA
ATOM     23  C   UNL     1      18.107  13.030  -5.898  1.00  0.00     0.278 C 
ENDBRANCH   8  22
BRANCH  11  24
ATOM     24  O   UNL     1      22.096  10.246 -10.396  1.00  0.00    -0.492 OA
ATOM     25  C   UNL     1      23.121  11.091 -10.907  1.00  0.00     0.278 C 
ENDBRANCH  11  24
BRANCH   9  26
ATOM     26  O   UNL     1      18.333  13.061  -8.990  1.00  0.00    -0.490 OA
ATOM     27  C   UNL     1      18.543  14.416  -9.373  1.00  0.00     0.279 C 
ENDBRANCH   9  26
BRANCH  10  28
ATOM     28  O   UNL     1      20.389  12.428 -10.894  1.00  0.00    -0.490 OA
ATOM     29  C   UNL     1      21.319  13.484 -11.125  1.00  0.00     0.278 C 
ENDBRANCH  10  28
TORSDOF 7
ENDMDL
