MODEL 1
REMARK VINA RESULT:    -2.711      0.000      0.000
REMARK INTER + INTRA:          -5.432
REMARK INTER:                  -4.930
REMARK INTRA:                  -0.501
REMARK UNBOUND:                -0.501
REMARK SMILES CCCCCCCCCCCCCCCC(=O)[O-]
REMARK SMILES IDX 9 1 10 2 11 3 12 4 13 5 14 6 15 7 16 8 17 9 18 10 8 11 7 12
REMARK SMILES IDX 6 13 5 14 4 15 3 16 2 17 1 18
REMARK H PARENT
REMARK Flexibility Score: inf
ROOT
ATOM      1  C   UNL     1       2.498 -37.358  19.741  1.00  0.00     0.000 C 
ENDROOT
BRANCH   1   2
ATOM      2  C   UNL     1       3.916 -37.640  19.214  1.00  0.00     0.000 C 
BRANCH   2   3
ATOM      3  C   UNL     1       4.979 -36.751  19.875  1.00  0.00     0.000 C 
BRANCH   3   4
ATOM      4  C   UNL     1       4.415 -35.402  20.357  1.00  0.00     0.000 C 
BRANCH   4   5
ATOM      5  C   UNL     1       4.426 -35.266  21.887  1.00  0.00     0.000 C 
BRANCH   5   6
ATOM      6  C   UNL     1       5.065 -36.477  22.588  1.00  0.00     0.006 C 
BRANCH   6   7
ATOM      7  C   UNL     1       5.125 -36.299  24.111  1.00  0.00     0.053 C 
BRANCH   7   8
ATOM      8  C   UNL     1       4.864 -37.585  24.831  1.00  0.00     0.041 C 
ATOM      9  O   UNL     1       4.395 -37.575  25.999  1.00  0.00    -0.550 OA
ATOM     10  O   UNL     1       5.108 -38.798  24.198  1.00  0.00    -0.550 OA
ENDBRANCH   7   8
ENDBRANCH   6   7
ENDBRANCH   5   6
ENDBRANCH   4   5
ENDBRANCH   3   4
ENDBRANCH   2   3
ENDBRANCH   1   2
BRANCH   1  11
ATOM     11  C   UNL     1       1.411 -38.045  18.898  1.00  0.00     0.000 C 
BRANCH  11  12
ATOM     12  C   UNL     1       0.968 -37.191  17.698  1.00  0.00    -0.000 C 
BRANCH  12  13
ATOM     13  C   UNL     1       2.152 -36.687  16.853  1.00  0.00    -0.000 C 
BRANCH  13  14
ATOM     14  C   UNL     1       1.756 -35.900  15.590  1.00  0.00    -0.000 C 
BRANCH  14  15
ATOM     15  C   UNL     1       2.288 -36.475  14.262  1.00  0.00    -0.000 C 
BRANCH  15  16
ATOM     16  C   UNL     1       3.759 -36.112  13.966  1.00  0.00    -0.000 C 
BRANCH  16  17
ATOM     17  C   UNL     1       4.713 -37.298  14.169  1.00  0.00    -0.003 C 
ATOM     18  C   UNL     1       3.949 -38.557  14.573  1.00  0.00     0.004 C 
ENDBRANCH  16  17
ENDBRANCH  15  16
ENDBRANCH  14  15
ENDBRANCH  13  14
ENDBRANCH  12  13
ENDBRANCH  11  12
ENDBRANCH   1  11
TORSDOF 14
ENDMDL
MODEL 2
REMARK VINA RESULT:    -2.239      1.296      2.492
REMARK INTER + INTRA:          -4.573
REMARK INTER:                  -3.835
REMARK INTRA:                  -0.738
REMARK UNBOUND:                -0.501
REMARK SMILES CCCCCCCCCCCCCCCC(=O)[O-]
REMARK SMILES IDX 9 1 10 2 11 3 12 4 13 5 14 6 15 7 16 8 17 9 18 10 8 11 7 12
REMARK SMILES IDX 6 13 5 14 4 15 3 16 2 17 1 18
REMARK H PARENT
REMARK Flexibility Score: inf
ROOT
ATOM      1  C   UNL     1       3.794 -36.430  21.093  1.00  0.00     0.000 C 
ENDROOT
BRANCH   1   2
ATOM      2  C   UNL     1       3.938 -34.944  21.464  1.00  0.00     0.000 C 
BRANCH   2   3
ATOM      3  C   UNL     1       4.659 -34.736  22.803  1.00  0.00     0.000 C 
BRANCH   3   4
ATOM      4  C   UNL     1       5.124 -36.056  23.443  1.00  0.00     0.000 C 
BRANCH   4   5
ATOM      5  C   UNL     1       4.675 -36.200  24.905  1.00  0.00     0.000 C 
BRANCH   5   6
ATOM      6  C   UNL     1       4.905 -37.616  25.462  1.00  0.00     0.006 C 
BRANCH   6   7
ATOM      7  C   UNL     1       3.938 -38.640  24.853  1.00  0.00     0.053 C 
BRANCH   7   8
ATOM      8  C   UNL     1       4.661 -39.672  24.044  1.00  0.00     0.041 C 
ATOM      9  O   UNL     1       4.914 -39.463  22.829  1.00  0.00    -0.550 OA
ATOM     10  O   UNL     1       5.087 -40.851  24.642  1.00  0.00    -0.550 OA
ENDBRANCH   7   8
ENDBRANCH   6   7
ENDBRANCH   5   6
ENDBRANCH   4   5
ENDBRANCH   3   4
ENDBRANCH   2   3
ENDBRANCH   1   2
BRANCH   1  11
ATOM     11  C   UNL     1       3.761 -36.655  19.572  1.00  0.00     0.000 C 
BRANCH  11  12
ATOM     12  C   UNL     1       2.447 -37.303  19.102  1.00  0.00    -0.000 C 
BRANCH  12  13
ATOM     13  C   UNL     1       2.369 -37.456  17.572  1.00  0.00    -0.000 C 
BRANCH  13  14
ATOM     14  C   UNL     1       3.327 -36.545  16.782  1.00  0.00    -0.000 C 
BRANCH  14  15
ATOM     15  C   UNL     1       2.694 -35.801  15.590  1.00  0.00    -0.000 C 
BRANCH  15  16
ATOM     16  C   UNL     1       2.839 -36.538  14.242  1.00  0.00    -0.000 C 
BRANCH  16  17
ATOM     17  C   UNL     1       4.262 -37.068  14.007  1.00  0.00    -0.003 C 
ATOM     18  C   UNL     1       4.347 -38.565  14.293  1.00  0.00     0.004 C 
ENDBRANCH  16  17
ENDBRANCH  15  16
ENDBRANCH  14  15
ENDBRANCH  13  14
ENDBRANCH  12  13
ENDBRANCH  11  12
ENDBRANCH   1  11
TORSDOF 14
ENDMDL
MODEL 3
REMARK VINA RESULT:    -1.507      3.588      7.968
REMARK INTER + INTRA:          -3.243
REMARK INTER:                  -3.305
REMARK INTRA:                   0.062
REMARK UNBOUND:                -0.501
REMARK SMILES CCCCCCCCCCCCCCCC(=O)[O-]
REMARK SMILES IDX 9 1 10 2 11 3 12 4 13 5 14 6 15 7 16 8 17 9 18 10 8 11 7 12
REMARK SMILES IDX 6 13 5 14 4 15 3 16 2 17 1 18
REMARK H PARENT
REMARK Flexibility Score: inf
ROOT
ATOM      1  C   UNL     1       4.014 -37.200  21.199  1.00  0.00     0.000 C 
ENDROOT
BRANCH   1   2
ATOM      2  C   UNL     1       3.257 -37.729  19.968  1.00  0.00     0.000 C 
BRANCH   2   3
ATOM      3  C   UNL     1       3.580 -36.940  18.691  1.00  0.00     0.000 C 
BRANCH   3   4
ATOM      4  C   UNL     1       2.567 -37.194  17.560  1.00  0.00     0.000 C 
BRANCH   4   5
ATOM      5  C   UNL     1       2.392 -35.980  16.635  1.00  0.00     0.000 C 
BRANCH   5   6
ATOM      6  C   UNL     1       1.798 -36.354  15.267  1.00  0.00     0.006 C 
BRANCH   6   7
ATOM      7  C   UNL     1       2.846 -36.297  14.147  1.00  0.00     0.053 C 
BRANCH   7   8
ATOM      8  C   UNL     1       3.914 -37.329  14.334  1.00  0.00     0.041 C 
ATOM      9  O   UNL     1       5.103 -37.078  14.005  1.00  0.00    -0.550 OA
ATOM     10  O   UNL     1       3.602 -38.557  14.903  1.00  0.00    -0.550 OA
ENDBRANCH   7   8
ENDBRANCH   6   7
ENDBRANCH   5   6
ENDBRANCH   4   5
ENDBRANCH   3   4
ENDBRANCH   2   3
ENDBRANCH   1   2
BRANCH   1  11
ATOM     11  C   UNL     1       5.061 -36.135  20.830  1.00  0.00     0.000 C 
BRANCH  11  12
ATOM     12  C   UNL     1       4.738 -34.758  21.436  1.00  0.00    -0.000 C 
BRANCH  12  13
ATOM     13  C   UNL     1       4.271 -34.844  22.900  1.00  0.00    -0.000 C 
BRANCH  13  14
ATOM     14  C   UNL     1       5.059 -35.837  23.774  1.00  0.00    -0.000 C 
BRANCH  14  15
ATOM     15  C   UNL     1       4.256 -37.053  24.276  1.00  0.00    -0.000 C 
BRANCH  15  16
ATOM     16  C   UNL     1       5.124 -38.290  24.593  1.00  0.00    -0.000 C 
BRANCH  16  17
ATOM     17  C   UNL     1       4.513 -39.594  24.057  1.00  0.00    -0.003 C 
ATOM     18  C   UNL     1       5.124 -39.976  22.711  1.00  0.00     0.004 C 
ENDBRANCH  16  17
ENDBRANCH  15  16
ENDBRANCH  14  15
ENDBRANCH  13  14
ENDBRANCH  12  13
ENDBRANCH  11  12
ENDBRANCH   1  11
TORSDOF 14
ENDMDL
MODEL 4
REMARK VINA RESULT:    -1.482      1.777      2.957
REMARK INTER + INTRA:          -3.196
REMARK INTER:                  -2.305
REMARK INTRA:                  -0.891
REMARK UNBOUND:                -0.501
REMARK SMILES CCCCCCCCCCCCCCCC(=O)[O-]
REMARK SMILES IDX 9 1 10 2 11 3 12 4 13 5 14 6 15 7 16 8 17 9 18 10 8 11 7 12
REMARK SMILES IDX 6 13 5 14 4 15 3 16 2 17 1 18
REMARK H PARENT
REMARK Flexibility Score: inf
ROOT
ATOM      1  C   UNL     1       3.901 -37.672  20.799  1.00  0.00     0.000 C 
ENDROOT
BRANCH   1   2
ATOM      2  C   UNL     1       4.902 -37.603  21.966  1.00  0.00     0.000 C 
BRANCH   2   3
ATOM      3  C   UNL     1       4.757 -38.783  22.938  1.00  0.00     0.000 C 
BRANCH   3   4
ATOM      4  C   UNL     1       5.073 -38.399  24.395  1.00  0.00     0.000 C 
BRANCH   4   5
ATOM      5  C   UNL     1       5.125 -36.879  24.612  1.00  0.00     0.000 C 
BRANCH   5   6
ATOM      6  C   UNL     1       4.404 -36.436  25.896  1.00  0.00     0.006 C 
BRANCH   6   7
ATOM      7  C   UNL     1       3.708 -37.607  26.602  1.00  0.00     0.053 C 
BRANCH   7   8
ATOM      8  C   UNL     1       2.385 -37.202  27.174  1.00  0.00     0.041 C 
ATOM      9  O   UNL     1       2.256 -36.089  27.749  1.00  0.00    -0.550 OA
ATOM     10  O   UNL     1       1.285 -38.040  27.043  1.00  0.00    -0.550 OA
ENDBRANCH   7   8
ENDBRANCH   6   7
ENDBRANCH   5   6
ENDBRANCH   4   5
ENDBRANCH   3   4
ENDBRANCH   2   3
ENDBRANCH   1   2
BRANCH   1  11
ATOM     11  C   UNL     1       3.998 -36.449  19.871  1.00  0.00     0.000 C 
BRANCH  11  12
ATOM     12  C   UNL     1       3.751 -36.810  18.395  1.00  0.00    -0.000 C 
BRANCH  12  13
ATOM     13  C   UNL     1       2.368 -37.441  18.157  1.00  0.00    -0.000 C 
BRANCH  13  14
ATOM     14  C   UNL     1       1.595 -36.869  16.954  1.00  0.00    -0.000 C 
BRANCH  14  15
ATOM     15  C   UNL     1       2.397 -35.910  16.053  1.00  0.00    -0.000 C 
BRANCH  15  16
ATOM     16  C   UNL     1       2.742 -36.494  14.666  1.00  0.00    -0.000 C 
BRANCH  16  17
ATOM     17  C   UNL     1       4.201 -36.967  14.570  1.00  0.00    -0.003 C 
ATOM     18  C   UNL     1       4.277 -38.450  14.214  1.00  0.00     0.004 C 
ENDBRANCH  16  17
ENDBRANCH  15  16
ENDBRANCH  14  15
ENDBRANCH  13  14
ENDBRANCH  12  13
ENDBRANCH  11  12
ENDBRANCH   1  11
TORSDOF 14
ENDMDL
MODEL 5
REMARK VINA RESULT:    -0.655      3.962      8.592
REMARK INTER + INTRA:          -1.693
REMARK INTER:                  -2.653
REMARK INTRA:                   0.960
REMARK UNBOUND:                -0.501
REMARK SMILES CCCCCCCCCCCCCCCC(=O)[O-]
REMARK SMILES IDX 9 1 10 2 11 3 12 4 13 5 14 6 15 7 16 8 17 9 18 10 8 11 7 12
REMARK SMILES IDX 6 13 5 14 4 15 3 16 2 17 1 18
REMARK H PARENT
REMARK Flexibility Score: inf
ROOT
ATOM      1  C   UNL     1       4.353 -36.473  21.993  1.00  0.00     0.000 C 
ENDROOT
BRANCH   1   2
ATOM      2  C   UNL     1       4.698 -35.496  20.856  1.00  0.00     0.000 C 
BRANCH   2   3
ATOM      3  C   UNL     1       4.347 -36.054  19.470  1.00  0.00     0.000 C 
BRANCH   3   4
ATOM      4  C   UNL     1       3.103 -36.961  19.488  1.00  0.00     0.000 C 
BRANCH   4   5
ATOM      5  C   UNL     1       2.662 -37.394  18.081  1.00  0.00     0.000 C 
BRANCH   5   6
ATOM      6  C   UNL     1       3.566 -36.827  16.973  1.00  0.00     0.006 C 
BRANCH   6   7
ATOM      7  C   UNL     1       2.827 -35.818  16.084  1.00  0.00     0.053 C 
BRANCH   7   8
ATOM      8  C   UNL     1       2.888 -36.204  14.639  1.00  0.00     0.041 C 
ATOM      9  O   UNL     1       4.000 -36.385  14.077  1.00  0.00    -0.550 OA
ATOM     10  O   UNL     1       1.714 -36.398  13.921  1.00  0.00    -0.550 OA
ENDBRANCH   7   8
ENDBRANCH   6   7
ENDBRANCH   5   6
ENDBRANCH   4   5
ENDBRANCH   3   4
ENDBRANCH   2   3
ENDBRANCH   1   2
BRANCH   1  11
ATOM     11  C   UNL     1       5.121 -37.801  21.879  1.00  0.00     0.000 C 
BRANCH  11  12
ATOM     12  C   UNL     1       4.239 -39.020  22.199  1.00  0.00    -0.000 C 
BRANCH  12  13
ATOM     13  C   UNL     1       4.804 -39.883  23.342  1.00  0.00    -0.000 C 
BRANCH  13  14
ATOM     14  C   UNL     1       5.125 -39.112  24.636  1.00  0.00    -0.000 C 
BRANCH  14  15
ATOM     15  C   UNL     1       4.937 -37.584  24.555  1.00  0.00    -0.000 C 
BRANCH  15  16
ATOM     16  C   UNL     1       4.573 -36.925  25.903  1.00  0.00    -0.000 C 
BRANCH  16  17
ATOM     17  C   UNL     1       3.599 -37.775  26.733  1.00  0.00    -0.003 C 
ATOM     18  C   UNL     1       2.448 -36.928  27.271  1.00  0.00     0.004 C 
ENDBRANCH  16  17
ENDBRANCH  15  16
ENDBRANCH  14  15
ENDBRANCH  13  14
ENDBRANCH  12  13
ENDBRANCH  11  12
ENDBRANCH   1  11
TORSDOF 14
ENDMDL
MODEL 6
REMARK VINA RESULT:    -0.569      3.883      8.179
REMARK INTER + INTRA:          -1.536
REMARK INTER:                  -2.151
REMARK INTRA:                   0.615
REMARK UNBOUND:                -0.501
REMARK SMILES CCCCCCCCCCCCCCCC(=O)[O-]
REMARK SMILES IDX 9 1 10 2 11 3 12 4 13 5 14 6 15 7 16 8 17 9 18 10 8 11 7 12
REMARK SMILES IDX 6 13 5 14 4 15 3 16 2 17 1 18
REMARK H PARENT
REMARK Flexibility Score: inf
ROOT
ATOM      1  C   UNL     1       3.673 -36.724  21.210  1.00  0.00     0.000 C 
ENDROOT
BRANCH   1   2
ATOM      2  C   UNL     1       4.444 -35.602  20.493  1.00  0.00     0.000 C 
BRANCH   2   3
ATOM      3  C   UNL     1       4.838 -35.980  19.058  1.00  0.00     0.000 C 
BRANCH   3   4
ATOM      4  C   UNL     1       4.475 -34.891  18.032  1.00  0.00     0.000 C 
BRANCH   4   5
ATOM      5  C   UNL     1       3.713 -35.446  16.820  1.00  0.00     0.000 C 
BRANCH   5   6
ATOM      6  C   UNL     1       2.857 -36.676  17.167  1.00  0.00     0.006 C 
BRANCH   6   7
ATOM      7  C   UNL     1       2.897 -37.740  16.062  1.00  0.00     0.053 C 
BRANCH   7   8
ATOM      8  C   UNL     1       3.527 -37.214  14.810  1.00  0.00     0.041 C 
ATOM      9  O   UNL     1       4.606 -37.706  14.387  1.00  0.00    -0.550 OA
ATOM     10  O   UNL     1       2.904 -36.202  14.090  1.00  0.00    -0.550 OA
ENDBRANCH   7   8
ENDBRANCH   6   7
ENDBRANCH   5   6
ENDBRANCH   4   5
ENDBRANCH   3   4
ENDBRANCH   2   3
ENDBRANCH   1   2
BRANCH   1  11
ATOM     11  C   UNL     1       4.026 -38.119  20.668  1.00  0.00     0.000 C 
BRANCH  11  12
ATOM     12  C   UNL     1       5.109 -38.819  21.507  1.00  0.00    -0.000 C 
BRANCH  12  13
ATOM     13  C   UNL     1       5.125 -38.353  22.973  1.00  0.00    -0.000 C 
BRANCH  13  14
ATOM     14  C   UNL     1       4.960 -39.479  24.011  1.00  0.00    -0.000 C 
BRANCH  14  15
ATOM     15  C   UNL     1       4.426 -39.032  25.387  1.00  0.00    -0.000 C 
BRANCH  15  16
ATOM     16  C   UNL     1       4.955 -37.657  25.848  1.00  0.00    -0.000 C 
BRANCH  16  17
ATOM     17  C   UNL     1       5.111 -36.663  24.687  1.00  0.00    -0.003 C 
ATOM     18  C   UNL     1       5.125 -35.223  25.193  1.00  0.00     0.004 C 
ENDBRANCH  16  17
ENDBRANCH  15  16
ENDBRANCH  14  15
ENDBRANCH  13  14
ENDBRANCH  12  13
ENDBRANCH  11  12
ENDBRANCH   1  11
TORSDOF 14
ENDMDL
MODEL 7
REMARK VINA RESULT:    -0.022      4.217      9.398
REMARK INTER + INTRA:          -0.542
REMARK INTER:                   0.075
REMARK INTRA:                  -0.617
REMARK UNBOUND:                -0.501
REMARK SMILES CCCCCCCCCCCCCCCC(=O)[O-]
REMARK SMILES IDX 9 1 10 2 11 3 12 4 13 5 14 6 15 7 16 8 17 9 18 10 8 11 7 12
REMARK SMILES IDX 6 13 5 14 4 15 3 16 2 17 1 18
REMARK H PARENT
REMARK Flexibility Score: inf
ROOT
ATOM      1  C   UNL     1       4.767 -36.605  22.831  1.00  0.00     0.000 C 
ENDROOT
BRANCH   1   2
ATOM      2  C   UNL     1       5.053 -35.994  21.449  1.00  0.00     0.000 C 
BRANCH   2   3
ATOM      3  C   UNL     1       4.849 -36.998  20.305  1.00  0.00     0.000 C 
BRANCH   3   4
ATOM      4  C   UNL     1       4.065 -36.404  19.120  1.00  0.00     0.000 C 
BRANCH   4   5
ATOM      5  C   UNL     1       3.042 -37.386  18.531  1.00  0.00     0.000 C 
BRANCH   5   6
ATOM      6  C   UNL     1       2.401 -36.870  17.231  1.00  0.00     0.006 C 
BRANCH   6   7
ATOM      7  C   UNL     1       3.434 -36.237  16.289  1.00  0.00     0.053 C 
BRANCH   7   8
ATOM      8  C   UNL     1       3.328 -36.787  14.901  1.00  0.00     0.041 C 
ATOM      9  O   UNL     1       2.612 -36.209  14.042  1.00  0.00    -0.550 OA
ATOM     10  O   UNL     1       4.048 -37.921  14.545  1.00  0.00    -0.550 OA
ENDBRANCH   7   8
ENDBRANCH   6   7
ENDBRANCH   5   6
ENDBRANCH   4   5
ENDBRANCH   3   4
ENDBRANCH   2   3
ENDBRANCH   1   2
BRANCH   1  11
ATOM     11  C   UNL     1       5.125 -38.099  22.898  1.00  0.00     0.000 C 
BRANCH  11  12
ATOM     12  C   UNL     1       5.016 -38.668  24.323  1.00  0.00    -0.000 C 
BRANCH  12  13
ATOM     13  C   UNL     1       5.001 -37.573  25.405  1.00  0.00    -0.000 C 
BRANCH  13  14
ATOM     14  C   UNL     1       3.932 -37.759  26.497  1.00  0.00    -0.000 C 
BRANCH  14  15
ATOM     15  C   UNL     1       3.253 -36.462  26.980  1.00  0.00    -0.000 C 
BRANCH  15  16
ATOM     16  C   UNL     1       1.924 -36.692  27.731  1.00  0.00    -0.000 C 
BRANCH  16  17
ATOM     17  C   UNL     1       1.174 -35.383  28.021  1.00  0.00    -0.003 C 
ATOM     18  C   UNL     1       1.762 -34.668  29.235  1.00  0.00     0.004 C 
ENDBRANCH  16  17
ENDBRANCH  15  16
ENDBRANCH  14  15
ENDBRANCH  13  14
ENDBRANCH  12  13
ENDBRANCH  11  12
ENDBRANCH   1  11
TORSDOF 14
ENDMDL
