MODEL 1
REMARK VINA RESULT:    -6.426      0.000      0.000
REMARK INTER + INTRA:         -10.206
REMARK INTER:                  -8.868
REMARK INTRA:                  -1.338
REMARK UNBOUND:                -1.338
REMARK SMILES O=C([O-])[C@H]1O[C@H](Oc2cc3oc(-c4ccccc4)cc(=O)c3c(O)c2O)[C@@H](O)[C@@H](O)[C@H]1O
REMARK SMILES IDX 7 1 6 2 4 3 31 4 5 5 29 6 27 7 2 8 1 9 3 10 32 11 30 13
REMARK SMILES IDX 28 15 8 17 25 18 9 19 23 20 10 21 22 22 11 23 20 24 12 25
REMARK SMILES IDX 19 26 21 27 26 28 24 30 13 32 14 33 18 34 15 35 17 36 16 37
REMARK H PARENT 32 12 30 14 28 16 26 29 24 31
REMARK Flexibility Score: inf
ROOT
ATOM      1  O   UNL     1      31.402   2.530   6.039  1.00  0.00    -0.458 OA
ENDROOT
BRANCH   1   2
ATOM      2  C   UNL     1      30.171   2.780   5.354  1.00  0.00     0.339 C 
ATOM      3  C   UNL     1      29.230   2.744   3.183  1.00  0.00     0.199 C 
ATOM      4  C   UNL     1      28.026   1.875   3.635  1.00  0.00     0.180 C 
ATOM      5  O   UNL     1      30.378   2.484   3.981  1.00  0.00    -0.328 OA
ATOM      6  C   UNL     1      27.742   2.001   5.145  1.00  0.00     0.181 C 
ATOM      7  C   UNL     1      29.056   1.884   5.949  1.00  0.00     0.214 C 
BRANCH   3   8
ATOM      8  C   UNL     1      28.967   4.229   3.040  1.00  0.00     0.073 C 
ATOM      9  O   UNL     1      27.796   4.671   2.915  1.00  0.00    -0.547 OA
ATOM     10  O   UNL     1      30.036   5.112   2.923  1.00  0.00    -0.547 OA
ENDBRANCH   3   8
BRANCH   4  11
ATOM     11  O   UNL     1      26.879   2.168   2.878  1.00  0.00    -0.387 OA
ATOM     12  H   UNL     1      26.754   1.414   2.243  1.00  0.00     0.211 HD
ENDBRANCH   4  11
BRANCH   6  13
ATOM     13  O   UNL     1      27.019   3.171   5.446  1.00  0.00    -0.387 OA
ATOM     14  H   UNL     1      27.400   3.920   4.925  1.00  0.00     0.211 HD
ENDBRANCH   6  13
BRANCH   7  15
ATOM     15  O   UNL     1      28.832   2.154   7.311  1.00  0.00    -0.384 OA
ATOM     16  H   UNL     1      28.012   1.670   7.588  1.00  0.00     0.211 HD
ENDBRANCH   7  15
ENDBRANCH   1   2
BRANCH   1  17
ATOM     17  C   UNL     1      32.042   3.456   6.872  1.00  0.00     0.172 A 
ATOM     18  C   UNL     1      32.509   4.691   6.388  1.00  0.00     0.201 A 
ATOM     19  C   UNL     1      32.243   3.108   8.207  1.00  0.00     0.098 A 
ATOM     20  C   UNL     1      33.094   5.625   7.282  1.00  0.00     0.176 A 
ATOM     21  C   UNL     1      32.853   3.996   9.091  1.00  0.00     0.146 A 
ATOM     22  C   UNL     1      33.275   5.268   8.643  1.00  0.00     0.111 A 
ATOM     23  O   UNL     1      33.023   3.630  10.358  1.00  0.00    -0.456 OA
ATOM     24  C   UNL     1      33.865   6.128   9.596  1.00  0.00     0.197 A 
ATOM     25  C   UNL     1      33.589   4.410  11.274  1.00  0.00     0.138 A 
ATOM     26  C   UNL     1      34.018   5.697  10.914  1.00  0.00     0.100 A 
ATOM     27  O   UNL     1      34.258   7.285   9.286  1.00  0.00    -0.289 OA
BRANCH  18  28
ATOM     28  O   UNL     1      32.421   4.941   5.016  1.00  0.00    -0.502 OA
ATOM     29  H   UNL     1      33.040   4.546   4.323  1.00  0.00     0.293 HD
ENDBRANCH  18  28
BRANCH  20  30
ATOM     30  O   UNL     1      33.494   6.894   6.852  1.00  0.00    -0.504 OA
ATOM     31  H   UNL     1      32.862   7.662   6.677  1.00  0.00     0.293 HD
ENDBRANCH  20  30
BRANCH  25  32
ATOM     32  C   UNL     1      33.736   3.893  12.658  1.00  0.00     0.017 A 
ATOM     33  C   UNL     1      33.329   2.578  12.954  1.00  0.00     0.012 A 
ATOM     34  C   UNL     1      34.307   4.672  13.685  1.00  0.00     0.012 A 
ATOM     35  C   UNL     1      33.471   2.063  14.246  1.00  0.00     0.001 A 
ATOM     36  C   UNL     1      34.448   4.151  14.975  1.00  0.00     0.001 A 
ATOM     37  C   UNL     1      34.029   2.849  15.256  1.00  0.00     0.000 A 
ENDBRANCH  25  32
ENDBRANCH   1  17
TORSDOF 9
ENDMDL
MODEL 2
REMARK VINA RESULT:    -5.112      1.607      3.166
REMARK INTER + INTRA:          -8.392
REMARK INTER:                  -7.345
REMARK INTRA:                  -1.047
REMARK UNBOUND:                -1.338
REMARK SMILES O=C([O-])[C@H]1O[C@H](Oc2cc3oc(-c4ccccc4)cc(=O)c3c(O)c2O)[C@@H](O)[C@@H](O)[C@H]1O
REMARK SMILES IDX 7 1 6 2 4 3 31 4 5 5 29 6 27 7 2 8 1 9 3 10 32 11 30 13
REMARK SMILES IDX 28 15 8 17 25 18 9 19 23 20 10 21 22 22 11 23 20 24 12 25
REMARK SMILES IDX 19 26 21 27 26 28 24 30 13 32 14 33 18 34 15 35 17 36 16 37
REMARK H PARENT 32 12 30 14 28 16 26 29 24 31
REMARK Flexibility Score: inf
ROOT
ATOM      1  O   UNL     1      33.229   5.186   6.212  1.00  0.00    -0.458 OA
ENDROOT
BRANCH   1   2
ATOM      2  C   UNL     1      32.002   4.577   5.800  1.00  0.00     0.339 C 
ATOM      3  C   UNL     1      29.835   4.073   6.604  1.00  0.00     0.199 C 
ATOM      4  C   UNL     1      29.142   4.727   5.378  1.00  0.00     0.180 C 
ATOM      5  O   UNL     1      31.085   4.691   6.878  1.00  0.00    -0.328 OA
ATOM      6  C   UNL     1      30.063   4.782   4.143  1.00  0.00     0.181 C 
ATOM      7  C   UNL     1      31.463   5.298   4.539  1.00  0.00     0.214 C 
BRANCH   3   8
ATOM      8  C   UNL     1      29.945   2.561   6.583  1.00  0.00     0.073 C 
ATOM      9  O   UNL     1      29.580   1.899   5.576  1.00  0.00    -0.547 OA
ATOM     10  O   UNL     1      30.340   1.881   7.729  1.00  0.00    -0.547 OA
ENDBRANCH   3   8
BRANCH   4  11
ATOM     11  O   UNL     1      27.931   4.083   5.079  1.00  0.00    -0.387 OA
ATOM     12  H   UNL     1      27.697   3.528   5.869  1.00  0.00     0.211 HD
ENDBRANCH   4  11
BRANCH   6  13
ATOM     13  O   UNL     1      30.106   3.547   3.466  1.00  0.00    -0.387 OA
ATOM     14  H   UNL     1      30.197   3.722   2.497  1.00  0.00     0.211 HD
ENDBRANCH   6  13
BRANCH   7  15
ATOM     15  O   UNL     1      32.355   5.204   3.456  1.00  0.00    -0.384 OA
ATOM     16  H   UNL     1      32.919   4.400   3.593  1.00  0.00     0.211 HD
ENDBRANCH   7  15
ENDBRANCH   1   2
BRANCH   1  17
ATOM     17  C   UNL     1      33.429   5.786   7.462  1.00  0.00     0.172 A 
ATOM     18  C   UNL     1      33.610   7.175   7.598  1.00  0.00     0.201 A 
ATOM     19  C   UNL     1      33.482   4.961   8.585  1.00  0.00     0.098 A 
ATOM     20  C   UNL     1      33.745   7.745   8.891  1.00  0.00     0.176 A 
ATOM     21  C   UNL     1      33.655   5.500   9.858  1.00  0.00     0.146 A 
ATOM     22  C   UNL     1      33.777   6.898  10.028  1.00  0.00     0.111 A 
ATOM     23  O   UNL     1      33.696   4.681  10.904  1.00  0.00    -0.456 OA
ATOM     24  C   UNL     1      33.927   7.380  11.347  1.00  0.00     0.197 A 
ATOM     25  C   UNL     1      33.852   5.103  12.156  1.00  0.00     0.138 A 
ATOM     26  C   UNL     1      33.962   6.479  12.412  1.00  0.00     0.100 A 
ATOM     27  O   UNL     1      34.030   8.613  11.591  1.00  0.00    -0.289 OA
BRANCH  18  28
ATOM     28  O   UNL     1      33.698   7.948   6.438  1.00  0.00    -0.502 OA
ATOM     29  H   UNL     1      34.139   8.854   6.388  1.00  0.00     0.293 HD
ENDBRANCH  18  28
BRANCH  20  30
ATOM     30  O   UNL     1      33.844   9.129   9.069  1.00  0.00    -0.504 OA
ATOM     31  H   UNL     1      34.120   9.778   8.347  1.00  0.00     0.293 HD
ENDBRANCH  20  30
BRANCH  25  32
ATOM     32  C   UNL     1      33.892   4.097  13.247  1.00  0.00     0.017 A 
ATOM     33  C   UNL     1      34.564   4.401  14.446  1.00  0.00     0.012 A 
ATOM     34  C   UNL     1      33.243   2.851  13.131  1.00  0.00     0.012 A 
ATOM     35  C   UNL     1      34.602   3.476  15.494  1.00  0.00     0.001 A 
ATOM     36  C   UNL     1      33.284   1.931  14.184  1.00  0.00     0.001 A 
ATOM     37  C   UNL     1      33.964   2.241  15.363  1.00  0.00     0.000 A 
ENDBRANCH  25  32
ENDBRANCH   1  17
TORSDOF 9
ENDMDL
MODEL 3
REMARK VINA RESULT:    -5.061      1.266      1.811
REMARK INTER + INTRA:          -8.322
REMARK INTER:                  -6.929
REMARK INTRA:                  -1.394
REMARK UNBOUND:                -1.338
REMARK SMILES O=C([O-])[C@H]1O[C@H](Oc2cc3oc(-c4ccccc4)cc(=O)c3c(O)c2O)[C@@H](O)[C@@H](O)[C@H]1O
REMARK SMILES IDX 7 1 6 2 4 3 31 4 5 5 29 6 27 7 2 8 1 9 3 10 32 11 30 13
REMARK SMILES IDX 28 15 8 17 25 18 9 19 23 20 10 21 22 22 11 23 20 24 12 25
REMARK SMILES IDX 19 26 21 27 26 28 24 30 13 32 14 33 18 34 15 35 17 36 16 37
REMARK H PARENT 32 12 30 14 28 16 26 29 24 31
REMARK Flexibility Score: inf
ROOT
ATOM      1  O   UNL     1      32.475   2.997   6.985  1.00  0.00    -0.458 OA
ENDROOT
BRANCH   1   2
ATOM      2  C   UNL     1      31.269   3.071   6.219  1.00  0.00     0.339 C 
ATOM      3  C   UNL     1      30.504   3.038   3.980  1.00  0.00     0.199 C 
ATOM      4  C   UNL     1      29.459   1.927   4.270  1.00  0.00     0.180 C 
ATOM      5  O   UNL     1      31.623   2.931   4.850  1.00  0.00    -0.328 OA
ATOM      6  C   UNL     1      29.054   1.875   5.757  1.00  0.00     0.181 C 
ATOM      7  C   UNL     1      30.307   1.938   6.657  1.00  0.00     0.214 C 
BRANCH   3   8
ATOM      8  C   UNL     1      29.973   4.456   3.915  1.00  0.00     0.073 C 
ATOM      9  O   UNL     1      30.749   5.432   3.744  1.00  0.00    -0.547 OA
ATOM     10  O   UNL     1      28.627   4.702   4.167  1.00  0.00    -0.547 OA
ENDBRANCH   3   8
BRANCH   4  11
ATOM     11  O   UNL     1      28.333   2.064   3.443  1.00  0.00    -0.387 OA
ATOM     12  H   UNL     1      28.203   3.038   3.293  1.00  0.00     0.211 HD
ENDBRANCH   4  11
BRANCH   6  13
ATOM     13  O   UNL     1      28.101   2.862   6.075  1.00  0.00    -0.387 OA
ATOM     14  H   UNL     1      28.550   3.743   6.081  1.00  0.00     0.211 HD
ENDBRANCH   6  13
BRANCH   7  15
ATOM     15  O   UNL     1      29.943   2.049   8.011  1.00  0.00    -0.384 OA
ATOM     16  H   UNL     1      30.595   1.527   8.547  1.00  0.00     0.211 HD
ENDBRANCH   7  15
ENDBRANCH   1   2
BRANCH   1  17
ATOM     17  C   UNL     1      32.975   4.045   7.769  1.00  0.00     0.172 A 
ATOM     18  C   UNL     1      33.207   5.326   7.235  1.00  0.00     0.201 A 
ATOM     19  C   UNL     1      33.277   3.779   9.104  1.00  0.00     0.098 A 
ATOM     20  C   UNL     1      33.653   6.373   8.083  1.00  0.00     0.176 A 
ATOM     21  C   UNL     1      33.755   4.785   9.940  1.00  0.00     0.146 A 
ATOM     22  C   UNL     1      33.938   6.096   9.444  1.00  0.00     0.111 A 
ATOM     23  O   UNL     1      34.028   4.493  11.208  1.00  0.00    -0.456 OA
ATOM     24  C   UNL     1      34.404   7.074  10.351  1.00  0.00     0.197 A 
ATOM     25  C   UNL     1      34.483   5.387  12.082  1.00  0.00     0.138 A 
ATOM     26  C   UNL     1      34.673   6.717  11.673  1.00  0.00     0.100 A 
ATOM     27  O   UNL     1      34.582   8.270   9.997  1.00  0.00    -0.289 OA
BRANCH  18  28
ATOM     28  O   UNL     1      33.031   5.513   5.862  1.00  0.00    -0.502 OA
ATOM     29  H   UNL     1      33.690   5.217   5.156  1.00  0.00     0.293 HD
ENDBRANCH  18  28
BRANCH  20  30
ATOM     30  O   UNL     1      33.815   7.678   7.605  1.00  0.00    -0.504 OA
ATOM     31  H   UNL     1      34.591   7.983   7.035  1.00  0.00     0.293 HD
ENDBRANCH  20  30
BRANCH  25  32
ATOM     32  C   UNL     1      34.762   4.947  13.472  1.00  0.00     0.017 A 
ATOM     33  C   UNL     1      35.697   5.656  14.250  1.00  0.00     0.012 A 
ATOM     34  C   UNL     1      34.087   3.853  14.054  1.00  0.00     0.012 A 
ATOM     35  C   UNL     1      35.965   5.271  15.566  1.00  0.00     0.001 A 
ATOM     36  C   UNL     1      34.360   3.474  15.372  1.00  0.00     0.001 A 
ATOM     37  C   UNL     1      35.298   4.179  16.127  1.00  0.00     0.000 A 
ENDBRANCH  25  32
ENDBRANCH   1  17
TORSDOF 9
ENDMDL
MODEL 4
REMARK VINA RESULT:    -4.972      1.114      2.277
REMARK INTER + INTRA:          -8.200
REMARK INTER:                  -6.982
REMARK INTRA:                  -1.217
REMARK UNBOUND:                -1.338
REMARK SMILES O=C([O-])[C@H]1O[C@H](Oc2cc3oc(-c4ccccc4)cc(=O)c3c(O)c2O)[C@@H](O)[C@@H](O)[C@H]1O
REMARK SMILES IDX 7 1 6 2 4 3 31 4 5 5 29 6 27 7 2 8 1 9 3 10 32 11 30 13
REMARK SMILES IDX 28 15 8 17 25 18 9 19 23 20 10 21 22 22 11 23 20 24 12 25
REMARK SMILES IDX 19 26 21 27 26 28 24 30 13 32 14 33 18 34 15 35 17 36 16 37
REMARK H PARENT 32 12 30 14 28 16 26 29 24 31
REMARK Flexibility Score: inf
ROOT
ATOM      1  O   UNL     1      32.137   3.388   5.864  1.00  0.00    -0.458 OA
ENDROOT
BRANCH   1   2
ATOM      2  C   UNL     1      30.766   3.309   5.464  1.00  0.00     0.339 C 
ATOM      3  C   UNL     1      28.596   3.892   6.205  1.00  0.00     0.199 C 
ATOM      4  C   UNL     1      28.247   4.605   4.871  1.00  0.00     0.180 C 
ATOM      5  O   UNL     1      29.992   3.949   6.468  1.00  0.00    -0.328 OA
ATOM      6  C   UNL     1      29.097   4.094   3.690  1.00  0.00     0.181 C 
ATOM      7  C   UNL     1      30.585   4.013   4.096  1.00  0.00     0.214 C 
BRANCH   3   8
ATOM      8  C   UNL     1      28.046   2.490   6.378  1.00  0.00     0.073 C 
ATOM      9  O   UNL     1      27.439   1.912   5.439  1.00  0.00    -0.547 OA
ATOM     10  O   UNL     1      28.102   1.875   7.624  1.00  0.00    -0.547 OA
ENDBRANCH   3   8
BRANCH   4  11
ATOM     11  O   UNL     1      26.875   4.505   4.587  1.00  0.00    -0.387 OA
ATOM     12  H   UNL     1      26.701   3.558   4.341  1.00  0.00     0.211 HD
ENDBRANCH   4  11
BRANCH   6  13
ATOM     13  O   UNL     1      28.602   2.879   3.177  1.00  0.00    -0.387 OA
ATOM     14  H   UNL     1      29.365   2.267   3.028  1.00  0.00     0.211 HD
ENDBRANCH   6  13
BRANCH   7  15
ATOM     15  O   UNL     1      31.345   3.401   3.083  1.00  0.00    -0.384 OA
ATOM     16  H   UNL     1      31.253   3.947   2.260  1.00  0.00     0.211 HD
ENDBRANCH   7  15
ENDBRANCH   1   2
BRANCH   1  17
ATOM     17  C   UNL     1      32.612   4.213   6.892  1.00  0.00     0.172 A 
ATOM     18  C   UNL     1      33.017   5.539   6.652  1.00  0.00     0.201 A 
ATOM     19  C   UNL     1      32.710   3.674   8.174  1.00  0.00     0.098 A 
ATOM     20  C   UNL     1      33.430   6.357   7.735  1.00  0.00     0.176 A 
ATOM     21  C   UNL     1      33.153   4.451   9.242  1.00  0.00     0.146 A 
ATOM     22  C   UNL     1      33.507   5.804   9.039  1.00  0.00     0.111 A 
ATOM     23  O   UNL     1      33.228   3.902  10.451  1.00  0.00    -0.456 OA
ATOM     24  C   UNL     1      33.925   6.541  10.168  1.00  0.00     0.197 A 
ATOM     25  C   UNL     1      33.634   4.565  11.530  1.00  0.00     0.138 A 
ATOM     26  C   UNL     1      33.985   5.919  11.416  1.00  0.00     0.100 A 
ATOM     27  O   UNL     1      34.246   7.757  10.080  1.00  0.00    -0.289 OA
BRANCH  18  28
ATOM     28  O   UNL     1      33.043   5.995   5.332  1.00  0.00    -0.502 OA
ATOM     29  H   UNL     1      33.825   5.883   4.704  1.00  0.00     0.293 HD
ENDBRANCH  18  28
BRANCH  20  30
ATOM     30  O   UNL     1      33.761   7.704   7.546  1.00  0.00    -0.504 OA
ATOM     31  H   UNL     1      34.673   8.032   7.263  1.00  0.00     0.293 HD
ENDBRANCH  20  30
BRANCH  25  32
ATOM     32  C   UNL     1      33.687   3.847  12.829  1.00  0.00     0.017 A 
ATOM     33  C   UNL     1      33.090   2.578  12.945  1.00  0.00     0.012 A 
ATOM     34  C   UNL     1      34.355   4.386  13.948  1.00  0.00     0.012 A 
ATOM     35  C   UNL     1      33.141   1.875  14.152  1.00  0.00     0.001 A 
ATOM     36  C   UNL     1      34.403   3.678  15.152  1.00  0.00     0.001 A 
ATOM     37  C   UNL     1      33.796   2.425  15.256  1.00  0.00     0.000 A 
ENDBRANCH  25  32
ENDBRANCH   1  17
TORSDOF 9
ENDMDL
