MODEL 1
REMARK VINA RESULT:   141.186      0.000      0.000
REMARK INTER + INTRA:         153.598
REMARK INTER:                 153.566
REMARK INTRA:                   0.032
REMARK UNBOUND:                 0.032
REMARK SMILES CC1(C)CC[C@]2(C(=O)[O-])CC[C@@]3(C)C(=CC[C@@H]4[C@]5(C)CC[C@@H](O)C(C)(C)[C@@H]5CC[C@@]43C)[C@@H]2C1
REMARK SMILES IDX 6 1 5 2 10 3 32 4 4 5 11 6 14 7 33 8 2 9 12 10 15 11 1 12
REMARK SMILES IDX 3 13 13 14 30 15 16 16 17 17 29 18 31 19 18 20 28 21 27 22
REMARK SMILES IDX 20 23 19 24 24 25 21 26 22 27 25 28 26 29 7 30 8 31 9 32
REMARK SMILES IDX 23 33
REMARK H PARENT 23 34
REMARK Flexibility Score: inf
ROOT
ATOM      1  C   UNL     1      -2.824  13.947   5.991  1.00  0.00     0.017 C 
ATOM      2  C   UNL     1      -2.397  15.178   6.842  1.00  0.00     0.014 C 
ATOM      3  C   UNL     1      -3.301  12.833   6.980  1.00  0.00     0.014 C 
ATOM      4  C   UNL     1      -1.627  13.479   5.077  1.00  0.00     0.028 C 
ATOM      5  C   UNL     1      -1.869  16.352   6.006  1.00  0.00     0.007 C 
ATOM      6  C   UNL     1      -2.783  11.422   6.686  1.00  0.00     0.013 C 
ATOM      7  C   UNL     1      -0.657  12.507   5.777  1.00  0.00    -0.064 C 
ATOM      8  C   UNL     1      -1.007  14.690   4.296  1.00  0.00     0.015 C 
ATOM      9  C   UNL     1      -0.660  15.959   5.133  1.00  0.00    -0.035 C 
ATOM     10  C   UNL     1      -1.227  11.261   6.486  1.00  0.00    -0.006 C 
ATOM     11  C   UNL     1       0.685  12.568   5.595  1.00  0.00    -0.027 C 
ATOM     12  C   UNL     1       0.591  15.766   6.023  1.00  0.00     0.011 C 
ATOM     13  C   UNL     1      -0.357  17.125   4.161  1.00  0.00     0.011 C 
ATOM     14  C   UNL     1      -1.108  10.049   5.500  1.00  0.00     0.017 C 
ATOM     15  C   UNL     1      -0.400  11.000   7.856  1.00  0.00    -0.020 C 
ATOM     16  C   UNL     1       1.603  11.582   6.248  1.00  0.00     0.032 C 
ATOM     17  C   UNL     1       1.163  11.273   7.707  1.00  0.00     0.006 C 
ATOM     18  C   UNL     1      -0.605   9.550   8.350  1.00  0.00     0.008 C 
ATOM     19  C   UNL     1      -0.926  11.972   8.961  1.00  0.00     0.012 C 
ATOM     20  C   UNL     1       2.206  10.328   8.512  1.00  0.00    -0.025 C 
ATOM     21  C   UNL     1       0.024   9.317   9.714  1.00  0.00     0.005 C 
ATOM     22  C   UNL     1       1.577   9.503   9.741  1.00  0.00     0.003 C 
ATOM     23  C   UNL     1       2.907   9.306   7.567  1.00  0.00     0.010 C 
ATOM     24  C   UNL     1       3.298  11.328   9.031  1.00  0.00     0.012 C 
ATOM     25  C   UNL     1       2.314   8.132  10.154  1.00  0.00    -0.006 C 
ATOM     26  C   UNL     1       4.029   8.466   8.229  1.00  0.00     0.033 C 
ATOM     27  C   UNL     1       3.810   8.094   9.708  1.00  0.00     0.120 C 
ATOM     28  C   UNL     1       2.263   7.993  11.700  1.00  0.00     0.014 C 
ATOM     29  C   UNL     1       1.630   6.843   9.573  1.00  0.00     0.014 C 
ENDROOT
BRANCH   1  30
ATOM     30  C   UNL     1      -4.020  14.318   5.105  1.00  0.00     0.048 C 
ATOM     31  O   UNL     1      -5.036  14.881   5.594  1.00  0.00    -0.550 OA
ATOM     32  O   UNL     1      -3.959  14.134   3.729  1.00  0.00    -0.550 OA
ENDBRANCH   1  30
BRANCH  27  33
ATOM     33  O   UNL     1       4.610   8.902  10.538  1.00  0.00    -0.393 OA
ATOM     34  H   UNL     1       5.521   8.968  10.142  1.00  0.00     0.210 HD
ENDBRANCH  27  33
TORSDOF 2
ENDMDL
