MODEL 1
REMARK VINA RESULT:    -3.766      0.000      0.000
REMARK INTER + INTRA:          -4.467
REMARK INTER:                  -4.427
REMARK INTRA:                  -0.040
REMARK UNBOUND:                -0.040
REMARK SMILES O=C([O-])CCC(=O)[O-]
REMARK SMILES IDX 4 1 2 2 1 3 3 4 5 5 6 6 7 7 8 8
REMARK H PARENT
REMARK Flexibility Score: inf
ROOT
ATOM      1  C   UNL     1      29.869 -21.785 -36.736  1.00  0.00     0.059 C 
ENDROOT
BRANCH   1   2
ATOM      2  C   UNL     1      31.313 -21.419 -36.880  1.00  0.00     0.042 C 
ATOM      3  O   UNL     1      32.125 -21.666 -35.950  1.00  0.00    -0.550 OA
ATOM      4  O   UNL     1      31.752 -20.758 -38.020  1.00  0.00    -0.550 OA
ENDBRANCH   1   2
BRANCH   1   5
ATOM      5  C   UNL     1      29.393 -21.533 -35.304  1.00  0.00     0.059 C 
BRANCH   5   6
ATOM      6  C   UNL     1      27.906 -21.378 -35.266  1.00  0.00     0.042 C 
ATOM      7  O   UNL     1      27.242 -21.380 -36.336  1.00  0.00    -0.550 OA
ATOM      8  O   UNL     1      27.247 -21.284 -34.048  1.00  0.00    -0.550 OA
ENDBRANCH   5   6
ENDBRANCH   1   5
TORSDOF 3
ENDMDL
MODEL 2
REMARK VINA RESULT:    -3.741      0.058      4.388
REMARK INTER + INTRA:          -4.437
REMARK INTER:                  -4.397
REMARK INTRA:                  -0.040
REMARK UNBOUND:                -0.040
REMARK SMILES O=C([O-])CCC(=O)[O-]
REMARK SMILES IDX 4 1 2 2 1 3 3 4 5 5 6 6 7 7 8 8
REMARK H PARENT
REMARK Flexibility Score: inf
ROOT
ATOM      1  C   UNL     1      29.387 -21.523 -35.258  1.00  0.00     0.059 C 
ENDROOT
BRANCH   1   2
ATOM      2  C   UNL     1      27.899 -21.372 -35.225  1.00  0.00     0.042 C 
ATOM      3  O   UNL     1      27.240 -21.367 -36.298  1.00  0.00    -0.550 OA
ATOM      4  O   UNL     1      27.246 -21.185 -34.014  1.00  0.00    -0.550 OA
ENDBRANCH   1   2
BRANCH   1   5
ATOM      5  C   UNL     1      29.868 -21.783 -36.687  1.00  0.00     0.059 C 
BRANCH   5   6
ATOM      6  C   UNL     1      31.306 -21.398 -36.834  1.00  0.00     0.042 C 
ATOM      7  O   UNL     1      32.125 -21.644 -35.909  1.00  0.00    -0.550 OA
ATOM      8  O   UNL     1      31.753 -20.815 -38.011  1.00  0.00    -0.550 OA
ENDBRANCH   5   6
ENDBRANCH   1   5
TORSDOF 3
ENDMDL
MODEL 3
REMARK VINA RESULT:    -3.489      2.896      5.258
REMARK INTER + INTRA:          -4.141
REMARK INTER:                  -4.112
REMARK INTRA:                  -0.030
REMARK UNBOUND:                -0.040
REMARK SMILES O=C([O-])CCC(=O)[O-]
REMARK SMILES IDX 4 1 2 2 1 3 3 4 5 5 6 6 7 7 8 8
REMARK H PARENT
REMARK Flexibility Score: inf
ROOT
ATOM      1  C   UNL     1      26.555 -19.329 -33.930  1.00  0.00     0.059 C 
ENDROOT
BRANCH   1   2
ATOM      2  C   UNL     1      25.637 -18.212 -34.316  1.00  0.00     0.042 C 
ATOM      3  O   UNL     1      26.107 -17.092 -34.649  1.00  0.00    -0.550 OA
ATOM      4  O   UNL     1      24.261 -18.392 -34.260  1.00  0.00    -0.550 OA
ENDBRANCH   1   2
BRANCH   1   5
ATOM      5  C   UNL     1      26.791 -20.263 -35.118  1.00  0.00     0.059 C 
BRANCH   5   6
ATOM      6  C   UNL     1      28.003 -21.109 -34.886  1.00  0.00     0.042 C 
ATOM      7  O   UNL     1      28.721 -21.467 -35.857  1.00  0.00    -0.550 OA
ATOM      8  O   UNL     1      28.370 -21.460 -33.593  1.00  0.00    -0.550 OA
ENDBRANCH   5   6
ENDBRANCH   1   5
TORSDOF 3
ENDMDL
MODEL 4
REMARK VINA RESULT:    -3.432      2.839      4.173
REMARK INTER + INTRA:          -4.074
REMARK INTER:                  -4.044
REMARK INTRA:                  -0.030
REMARK UNBOUND:                -0.040
REMARK SMILES O=C([O-])CCC(=O)[O-]
REMARK SMILES IDX 4 1 2 2 1 3 3 4 5 5 6 6 7 7 8 8
REMARK H PARENT
REMARK Flexibility Score: inf
ROOT
ATOM      1  C   UNL     1      26.874 -20.242 -35.221  1.00  0.00     0.059 C 
ENDROOT
BRANCH   1   2
ATOM      2  C   UNL     1      28.028 -21.162 -34.978  1.00  0.00     0.042 C 
ATOM      3  O   UNL     1      28.759 -21.528 -35.936  1.00  0.00    -0.550 OA
ATOM      4  O   UNL     1      28.265 -21.656 -33.702  1.00  0.00    -0.550 OA
ENDBRANCH   1   2
BRANCH   1   5
ATOM      5  C   UNL     1      26.556 -19.437 -33.960  1.00  0.00     0.059 C 
BRANCH   5   6
ATOM      6  C   UNL     1      25.666 -18.279 -34.288  1.00  0.00     0.042 C 
ATOM      7  O   UNL     1      26.161 -17.193 -34.689  1.00  0.00    -0.550 OA
ATOM      8  O   UNL     1      24.287 -18.416 -34.200  1.00  0.00    -0.550 OA
ENDBRANCH   5   6
ENDBRANCH   1   5
TORSDOF 3
ENDMDL
MODEL 5
REMARK VINA RESULT:    -3.331     19.721     20.132
REMARK INTER + INTRA:          -3.955
REMARK INTER:                  -3.886
REMARK INTRA:                  -0.069
REMARK UNBOUND:                -0.040
REMARK SMILES O=C([O-])CCC(=O)[O-]
REMARK SMILES IDX 4 1 2 2 1 3 3 4 5 5 6 6 7 7 8 8
REMARK H PARENT
REMARK Flexibility Score: inf
ROOT
ATOM      1  C   UNL     1      16.053  -8.485 -27.777  1.00  0.00     0.059 C 
ENDROOT
BRANCH   1   2
ATOM      2  C   UNL     1      16.554  -9.564 -26.868  1.00  0.00     0.042 C 
ATOM      3  O   UNL     1      16.137 -10.745 -26.997  1.00  0.00    -0.550 OA
ATOM      4  O   UNL     1      17.444  -9.255 -25.847  1.00  0.00    -0.550 OA
ENDBRANCH   1   2
BRANCH   1   5
ATOM      5  C   UNL     1      14.907  -9.007 -28.645  1.00  0.00     0.059 C 
BRANCH   5   6
ATOM      6  C   UNL     1      15.235  -8.848 -30.096  1.00  0.00     0.042 C 
ATOM      7  O   UNL     1      15.914  -7.863 -30.487  1.00  0.00    -0.550 OA
ATOM      8  O   UNL     1      14.833  -9.814 -31.009  1.00  0.00    -0.550 OA
ENDBRANCH   5   6
ENDBRANCH   1   5
TORSDOF 3
ENDMDL
MODEL 6
REMARK VINA RESULT:    -3.330     19.735     20.079
REMARK INTER + INTRA:          -3.954
REMARK INTER:                  -3.887
REMARK INTRA:                  -0.067
REMARK UNBOUND:                -0.040
REMARK SMILES O=C([O-])CCC(=O)[O-]
REMARK SMILES IDX 4 1 2 2 1 3 3 4 5 5 6 6 7 7 8 8
REMARK H PARENT
REMARK Flexibility Score: inf
ROOT
ATOM      1  C   UNL     1      14.923  -8.992 -28.673  1.00  0.00     0.059 C 
ENDROOT
BRANCH   1   2
ATOM      2  C   UNL     1      15.264  -8.877 -30.125  1.00  0.00     0.042 C 
ATOM      3  O   UNL     1      15.926  -7.891 -30.543  1.00  0.00    -0.550 OA
ATOM      4  O   UNL     1      14.807  -9.832 -31.024  1.00  0.00    -0.550 OA
ENDBRANCH   1   2
BRANCH   1   5
ATOM      5  C   UNL     1      16.083  -8.494 -27.809  1.00  0.00     0.059 C 
BRANCH   5   6
ATOM      6  C   UNL     1      16.523  -9.561 -26.857  1.00  0.00     0.042 C 
ATOM      7  O   UNL     1      16.115 -10.744 -26.999  1.00  0.00    -0.550 OA
ATOM      8  O   UNL     1      17.423  -9.260 -25.844  1.00  0.00    -0.550 OA
ENDBRANCH   5   6
ENDBRANCH   1   5
TORSDOF 3
ENDMDL
MODEL 7
REMARK VINA RESULT:    -3.271     19.682     20.795
REMARK INTER + INTRA:          -3.885
REMARK INTER:                  -3.833
REMARK INTRA:                  -0.052
REMARK UNBOUND:                -0.040
REMARK SMILES O=C([O-])CCC(=O)[O-]
REMARK SMILES IDX 4 1 2 2 1 3 3 4 5 5 6 6 7 7 8 8
REMARK H PARENT
REMARK Flexibility Score: inf
ROOT
ATOM      1  C   UNL     1      16.308  -8.464 -27.613  1.00  0.00     0.059 C 
ENDROOT
BRANCH   1   2
ATOM      2  C   UNL     1      16.687  -9.586 -26.698  1.00  0.00     0.042 C 
ATOM      3  O   UNL     1      17.409  -9.365 -25.690  1.00  0.00    -0.550 OA
ATOM      4  O   UNL     1      16.286 -10.884 -26.986  1.00  0.00    -0.550 OA
ENDBRANCH   1   2
BRANCH   1   5
ATOM      5  C   UNL     1      15.317  -8.950 -28.672  1.00  0.00     0.059 C 
BRANCH   5   6
ATOM      6  C   UNL     1      13.911  -8.795 -28.184  1.00  0.00     0.042 C 
ATOM      7  O   UNL     1      13.316  -9.768 -27.651  1.00  0.00    -0.550 OA
ATOM      8  O   UNL     1      13.277  -7.563 -28.271  1.00  0.00    -0.550 OA
ENDBRANCH   5   6
ENDBRANCH   1   5
TORSDOF 3
ENDMDL
