MODEL 1
REMARK VINA RESULT:    -4.747      0.000      0.000
REMARK INTER + INTRA:          -4.747
REMARK INTER:                  -4.747
REMARK INTRA:                   0.000
REMARK UNBOUND:                 0.000
REMARK SMILES CC1=CC[C@@H]2[C@H](C1)C2(C)C
REMARK SMILES IDX 1 1 2 2 3 3 4 4 5 5 6 6 7 7 8 8 9 9 10 10
REMARK H PARENT
REMARK Flexibility Score: inf
ROOT
ATOM      1  C   UNL     1       9.317   9.816  29.898  1.00  0.00     0.039 C 
ATOM      2  C   UNL     1       9.744   8.550  29.204  1.00  0.00    -0.077 C 
ATOM      3  C   UNL     1      10.493   8.627  28.091  1.00  0.00    -0.028 C 
ATOM      4  C   UNL     1      10.951   7.395  27.363  1.00  0.00     0.031 C 
ATOM      5  C   UNL     1       9.869   6.295  27.359  1.00  0.00     0.003 C 
ATOM      6  C   UNL     1       9.006   6.194  28.638  1.00  0.00     0.003 C 
ATOM      7  C   UNL     1       9.336   7.205  29.758  1.00  0.00     0.034 C 
ATOM      8  C   UNL     1       9.996   5.073  28.283  1.00  0.00    -0.029 C 
ATOM      9  C   UNL     1      11.270   4.864  29.126  1.00  0.00     0.012 C 
ATOM     10  C   UNL     1       9.346   3.794  27.744  1.00  0.00     0.012 C 
ENDROOT
TORSDOF 0
ENDMDL
MODEL 2
REMARK VINA RESULT:    -4.732     14.690     15.710
REMARK INTER + INTRA:          -4.732
REMARK INTER:                  -4.732
REMARK INTRA:                   0.000
REMARK UNBOUND:                 0.000
REMARK SMILES CC1=CC[C@@H]2[C@H](C1)C2(C)C
REMARK SMILES IDX 1 1 2 2 3 3 4 4 5 5 6 6 7 7 8 8 9 9 10 10
REMARK H PARENT
REMARK Flexibility Score: inf
ROOT
ATOM      1  C   UNL     1       6.020   9.671  15.538  1.00  0.00     0.039 C 
ATOM      2  C   UNL     1       6.616   8.774  14.488  1.00  0.00    -0.077 C 
ATOM      3  C   UNL     1       7.697   9.185  13.803  1.00  0.00    -0.028 C 
ATOM      4  C   UNL     1       8.335   8.326  12.749  1.00  0.00     0.031 C 
ATOM      5  C   UNL     1       7.284   7.551  11.926  1.00  0.00     0.003 C 
ATOM      6  C   UNL     1       6.040   7.068  12.706  1.00  0.00     0.003 C 
ATOM      7  C   UNL     1       6.006   7.420  14.210  1.00  0.00     0.034 C 
ATOM      8  C   UNL     1       7.058   6.049  12.167  1.00  0.00    -0.029 C 
ATOM      9  C   UNL     1       7.969   5.271  13.137  1.00  0.00     0.012 C 
ATOM     10  C   UNL     1       6.588   5.270  10.934  1.00  0.00     0.012 C 
ENDROOT
TORSDOF 0
ENDMDL
MODEL 3
REMARK VINA RESULT:    -4.718     13.972     15.371
REMARK INTER + INTRA:          -4.718
REMARK INTER:                  -4.718
REMARK INTRA:                   0.000
REMARK UNBOUND:                 0.000
REMARK SMILES CC1=CC[C@@H]2[C@H](C1)C2(C)C
REMARK SMILES IDX 1 1 2 2 3 3 4 4 5 5 6 6 7 7 8 8 9 9 10 10
REMARK H PARENT
REMARK Flexibility Score: inf
ROOT
ATOM      1  C   UNL     1       6.749   5.642  10.882  1.00  0.00     0.039 C 
ATOM      2  C   UNL     1       6.950   6.457  12.131  1.00  0.00    -0.077 C 
ATOM      3  C   UNL     1       7.997   7.296  12.212  1.00  0.00    -0.028 C 
ATOM      4  C   UNL     1       8.241   8.136  13.433  1.00  0.00     0.031 C 
ATOM      5  C   UNL     1       7.898   7.376  14.732  1.00  0.00     0.003 C 
ATOM      6  C   UNL     1       6.690   6.415  14.651  1.00  0.00     0.003 C 
ATOM      7  C   UNL     1       5.978   6.337  13.282  1.00  0.00     0.034 C 
ATOM      8  C   UNL     1       6.605   7.692  15.502  1.00  0.00    -0.029 C 
ATOM      9  C   UNL     1       5.703   8.862  15.061  1.00  0.00     0.012 C 
ATOM     10  C   UNL     1       6.690   7.457  17.014  1.00  0.00     0.012 C 
ENDROOT
TORSDOF 0
ENDMDL
MODEL 4
REMARK VINA RESULT:    -4.711      1.686      2.921
REMARK INTER + INTRA:          -4.711
REMARK INTER:                  -4.711
REMARK INTRA:                   0.000
REMARK UNBOUND:                 0.000
REMARK SMILES CC1=CC[C@@H]2[C@H](C1)C2(C)C
REMARK SMILES IDX 1 1 2 2 3 3 4 4 5 5 6 6 7 7 8 8 9 9 10 10
REMARK H PARENT
REMARK Flexibility Score: inf
ROOT
ATOM      1  C   UNL     1      12.376   7.808  25.816  1.00  0.00     0.039 C 
ATOM      2  C   UNL     1      11.419   7.014  26.666  1.00  0.00    -0.077 C 
ATOM      3  C   UNL     1      10.196   7.508  26.921  1.00  0.00    -0.028 C 
ATOM      4  C   UNL     1       9.202   6.755  27.758  1.00  0.00     0.031 C 
ATOM      5  C   UNL     1       9.879   6.020  28.934  1.00  0.00     0.003 C 
ATOM      6  C   UNL     1      11.284   5.442  28.648  1.00  0.00     0.003 C 
ATOM      7  C   UNL     1      11.832   5.671  27.221  1.00  0.00     0.034 C 
ATOM      8  C   UNL     1      10.094   4.499  28.884  1.00  0.00    -0.029 C 
ATOM      9  C   UNL     1       9.516   3.669  27.720  1.00  0.00     0.012 C 
ATOM     10  C   UNL     1      10.089   3.809  30.252  1.00  0.00     0.012 C 
ENDROOT
TORSDOF 0
ENDMDL
MODEL 5
REMARK VINA RESULT:    -4.460     14.174     15.232
REMARK INTER + INTRA:          -4.460
REMARK INTER:                  -4.460
REMARK INTRA:                   0.000
REMARK UNBOUND:                 0.000
REMARK SMILES CC1=CC[C@@H]2[C@H](C1)C2(C)C
REMARK SMILES IDX 1 1 2 2 3 3 4 4 5 5 6 6 7 7 8 8 9 9 10 10
REMARK H PARENT
REMARK Flexibility Score: inf
ROOT
ATOM      1  C   UNL     1       4.433   8.500  16.291  1.00  0.00     0.039 C 
ATOM      2  C   UNL     1       5.380   7.957  15.255  1.00  0.00    -0.077 C 
ATOM      3  C   UNL     1       6.425   8.703  14.859  1.00  0.00    -0.028 C 
ATOM      4  C   UNL     1       7.403   8.207  13.833  1.00  0.00     0.031 C 
ATOM      5  C   UNL     1       6.706   7.397  12.718  1.00  0.00     0.003 C 
ATOM      6  C   UNL     1       5.507   6.530  13.165  1.00  0.00     0.003 C 
ATOM      7  C   UNL     1       5.158   6.582  14.670  1.00  0.00     0.034 C 
ATOM      8  C   UNL     1       6.807   5.863  12.689  1.00  0.00    -0.029 C 
ATOM      9  C   UNL     1       7.715   5.124  13.692  1.00  0.00     0.012 C 
ATOM     10  C   UNL     1       6.732   5.246  11.289  1.00  0.00     0.012 C 
ENDROOT
TORSDOF 0
ENDMDL
MODEL 6
REMARK VINA RESULT:    -4.428      1.732      3.724
REMARK INTER + INTRA:          -4.428
REMARK INTER:                  -4.428
REMARK INTRA:                   0.000
REMARK UNBOUND:                 0.000
REMARK SMILES CC1=CC[C@@H]2[C@H](C1)C2(C)C
REMARK SMILES IDX 1 1 2 2 3 3 4 4 5 5 6 6 7 7 8 8 9 9 10 10
REMARK H PARENT
REMARK Flexibility Score: inf
ROOT
ATOM      1  C   UNL     1      10.842   3.775  30.963  1.00  0.00     0.039 C 
ATOM      2  C   UNL     1      10.570   4.607  29.738  1.00  0.00    -0.077 C 
ATOM      3  C   UNL     1       9.314   4.703  29.270  1.00  0.00    -0.028 C 
ATOM      4  C   UNL     1       8.988   5.525  28.056  1.00  0.00     0.031 C 
ATOM      5  C   UNL     1      10.090   5.425  26.980  1.00  0.00     0.003 C 
ATOM      6  C   UNL     1      11.539   5.320  27.509  1.00  0.00     0.003 C 
ATOM      7  C   UNL     1      11.701   5.331  29.045  1.00  0.00     0.034 C 
ATOM      8  C   UNL     1      11.077   6.584  26.765  1.00  0.00    -0.029 C 
ATOM      9  C   UNL     1      10.896   7.912  27.525  1.00  0.00     0.012 C 
ATOM     10  C   UNL     1      11.608   6.711  25.333  1.00  0.00     0.012 C 
ENDROOT
TORSDOF 0
ENDMDL
MODEL 7
REMARK VINA RESULT:    -4.381      5.746      7.494
REMARK INTER + INTRA:          -4.381
REMARK INTER:                  -4.381
REMARK INTRA:                   0.000
REMARK UNBOUND:                 0.000
REMARK SMILES CC1=CC[C@@H]2[C@H](C1)C2(C)C
REMARK SMILES IDX 1 1 2 2 3 3 4 4 5 5 6 6 7 7 8 8 9 9 10 10
REMARK H PARENT
REMARK Flexibility Score: inf
ROOT
ATOM      1  C   UNL     1      18.397   8.664  25.119  1.00  0.00     0.039 C 
ATOM      2  C   UNL     1      16.954   8.779  24.709  1.00  0.00    -0.077 C 
ATOM      3  C   UNL     1      16.314   9.951  24.864  1.00  0.00    -0.028 C 
ATOM      4  C   UNL     1      14.876  10.121  24.466  1.00  0.00     0.031 C 
ATOM      5  C   UNL     1      14.039   8.862  24.780  1.00  0.00     0.003 C 
ATOM      6  C   UNL     1      14.765   7.509  24.598  1.00  0.00     0.003 C 
ATOM      7  C   UNL     1      16.233   7.587  24.124  1.00  0.00     0.034 C 
ATOM      8  C   UNL     1      13.618   7.905  23.653  1.00  0.00    -0.029 C 
ATOM      9  C   UNL     1      13.910   8.259  22.182  1.00  0.00     0.012 C 
ATOM     10  C   UNL     1      12.300   7.165  23.905  1.00  0.00     0.012 C 
ENDROOT
TORSDOF 0
ENDMDL
MODEL 8
REMARK VINA RESULT:    -4.319     13.211     14.488
REMARK INTER + INTRA:          -4.319
REMARK INTER:                  -4.319
REMARK INTRA:                   0.000
REMARK UNBOUND:                 0.000
REMARK SMILES CC1=CC[C@@H]2[C@H](C1)C2(C)C
REMARK SMILES IDX 1 1 2 2 3 3 4 4 5 5 6 6 7 7 8 8 9 9 10 10
REMARK H PARENT
REMARK Flexibility Score: inf
ROOT
ATOM      1  C   UNL     1       8.516   8.530  12.309  1.00  0.00     0.039 C 
ATOM      2  C   UNL     1       7.753   7.863  13.421  1.00  0.00    -0.077 C 
ATOM      3  C   UNL     1       7.845   6.532  13.580  1.00  0.00    -0.028 C 
ATOM      4  C   UNL     1       7.109   5.817  14.677  1.00  0.00     0.031 C 
ATOM      5  C   UNL     1       5.708   6.417  14.916  1.00  0.00     0.003 C 
ATOM      6  C   UNL     1       5.593   7.949  14.743  1.00  0.00     0.003 C 
ATOM      7  C   UNL     1       6.895   8.685  14.354  1.00  0.00     0.034 C 
ATOM      8  C   UNL     1       5.442   7.316  16.135  1.00  0.00    -0.029 C 
ATOM      9  C   UNL     1       6.532   7.519  17.205  1.00  0.00     0.012 C 
ATOM     10  C   UNL     1       4.003   7.268  16.661  1.00  0.00     0.012 C 
ENDROOT
TORSDOF 0
ENDMDL
MODEL 9
REMARK VINA RESULT:    -4.230     13.531     14.797
REMARK INTER + INTRA:          -4.230
REMARK INTER:                  -4.230
REMARK INTRA:                   0.000
REMARK UNBOUND:                 0.000
REMARK SMILES CC1=CC[C@@H]2[C@H](C1)C2(C)C
REMARK SMILES IDX 1 1 2 2 3 3 4 4 5 5 6 6 7 7 8 8 9 9 10 10
REMARK H PARENT
REMARK Flexibility Score: inf
ROOT
ATOM      1  C   UNL     1       8.261   7.837  12.474  1.00  0.00     0.039 C 
ATOM      2  C   UNL     1       7.155   7.879  13.494  1.00  0.00    -0.077 C 
ATOM      3  C   UNL     1       7.086   8.910  14.353  1.00  0.00    -0.028 C 
ATOM      4  C   UNL     1       6.000   9.003  15.386  1.00  0.00     0.031 C 
ATOM      5  C   UNL     1       5.650   7.621  15.979  1.00  0.00     0.003 C 
ATOM      6  C   UNL     1       5.719   6.430  14.997  1.00  0.00     0.003 C 
ATOM      7  C   UNL     1       6.128   6.772  13.546  1.00  0.00     0.034 C 
ATOM      8  C   UNL     1       4.364   6.894  15.555  1.00  0.00    -0.029 C 
ATOM      9  C   UNL     1       3.342   7.592  14.636  1.00  0.00     0.012 C 
ATOM     10  C   UNL     1       3.768   5.975  16.627  1.00  0.00     0.012 C 
ENDROOT
TORSDOF 0
ENDMDL
