MODEL 1
REMARK VINA RESULT:    -2.373      0.000      0.000
REMARK INTER + INTRA:          -2.373
REMARK INTER:                  -2.373
REMARK INTRA:                   0.000
REMARK UNBOUND:                 0.000
REMARK SMILES CC(=O)[O-]
REMARK SMILES IDX 1 1 2 2 3 3 4 4
REMARK H PARENT
REMARK Flexibility Score: inf
ROOT
ATOM      1  C   UNL     1     136.631   0.307  94.603  1.00  0.00     0.063 C 
ATOM      2  C   UNL     1     136.410   1.779  94.685  1.00  0.00     0.038 C 
ATOM      3  O   UNL     1     135.421   2.303  94.107  1.00  0.00    -0.550 OA
ATOM      4  O   UNL     1     137.324   2.585  95.352  1.00  0.00    -0.550 OA
ENDROOT
TORSDOF 0
ENDMDL
MODEL 2
REMARK VINA RESULT:    -2.361      0.130      1.622
REMARK INTER + INTRA:          -2.361
REMARK INTER:                  -2.361
REMARK INTRA:                   0.000
REMARK UNBOUND:                 0.000
REMARK SMILES CC(=O)[O-]
REMARK SMILES IDX 1 1 2 2 3 3 4 4
REMARK H PARENT
REMARK Flexibility Score: inf
ROOT
ATOM      1  C   UNL     1     136.733   0.355  94.593  1.00  0.00     0.063 C 
ATOM      2  C   UNL     1     136.550   1.833  94.657  1.00  0.00     0.038 C 
ATOM      3  O   UNL     1     137.401   2.551  95.246  1.00  0.00    -0.550 OA
ATOM      4  O   UNL     1     135.413   2.419  94.116  1.00  0.00    -0.550 OA
ENDROOT
TORSDOF 0
ENDMDL
MODEL 3
REMARK VINA RESULT:    -2.341      1.402      2.215
REMARK INTER + INTRA:          -2.341
REMARK INTER:                  -2.341
REMARK INTRA:                   0.000
REMARK UNBOUND:                 0.000
REMARK SMILES CC(=O)[O-]
REMARK SMILES IDX 1 1 2 2 3 3 4 4
REMARK H PARENT
REMARK Flexibility Score: inf
ROOT
ATOM      1  C   UNL     1     136.796   2.881  95.350  1.00  0.00     0.063 C 
ATOM      2  C   UNL     1     136.168   1.844  94.482  1.00  0.00     0.038 C 
ATOM      3  O   UNL     1     136.792   0.784  94.211  1.00  0.00    -0.550 OA
ATOM      4  O   UNL     1     134.915   2.066  93.925  1.00  0.00    -0.550 OA
ENDROOT
TORSDOF 0
ENDMDL
MODEL 4
REMARK VINA RESULT:    -2.294      1.463      1.805
REMARK INTER + INTRA:          -2.294
REMARK INTER:                  -2.294
REMARK INTRA:                   0.000
REMARK UNBOUND:                 0.000
REMARK SMILES CC(=O)[O-]
REMARK SMILES IDX 1 1 2 2 3 3 4 4
REMARK H PARENT
REMARK Flexibility Score: inf
ROOT
ATOM      1  C   UNL     1     136.778   2.889  95.340  1.00  0.00     0.063 C 
ATOM      2  C   UNL     1     136.097   1.873  94.487  1.00  0.00     0.038 C 
ATOM      3  O   UNL     1     134.915   2.066  94.097  1.00  0.00    -0.550 OA
ATOM      4  O   UNL     1     136.744   0.687  94.164  1.00  0.00    -0.550 OA
ENDROOT
TORSDOF 0
ENDMDL
MODEL 5
REMARK VINA RESULT:    -2.290      1.346      1.670
REMARK INTER + INTRA:          -2.290
REMARK INTER:                  -2.290
REMARK INTRA:                   0.000
REMARK UNBOUND:                 0.000
REMARK SMILES CC(=O)[O-]
REMARK SMILES IDX 1 1 2 2 3 3 4 4
REMARK H PARENT
REMARK Flexibility Score: inf
ROOT
ATOM      1  C   UNL     1     135.116   2.183  94.243  1.00  0.00     0.063 C 
ATOM      2  C   UNL     1     136.489   1.688  94.548  1.00  0.00     0.038 C 
ATOM      3  O   UNL     1     136.832   0.526  94.204  1.00  0.00    -0.550 OA
ATOM      4  O   UNL     1     137.375   2.486  95.260  1.00  0.00    -0.550 OA
ENDROOT
TORSDOF 0
ENDMDL
MODEL 6
REMARK VINA RESULT:    -2.211      1.694      1.831
REMARK INTER + INTRA:          -2.211
REMARK INTER:                  -2.211
REMARK INTRA:                   0.000
REMARK UNBOUND:                 0.000
REMARK SMILES CC(=O)[O-]
REMARK SMILES IDX 1 1 2 2 3 3 4 4
REMARK H PARENT
REMARK Flexibility Score: inf
ROOT
ATOM      1  C   UNL     1     137.137   2.167  95.023  1.00  0.00     0.063 C 
ATOM      2  C   UNL     1     136.172   3.216  95.458  1.00  0.00     0.038 C 
ATOM      3  O   UNL     1     134.936   2.977  95.459  1.00  0.00    -0.550 OA
ATOM      4  O   UNL     1     136.629   4.479  95.813  1.00  0.00    -0.550 OA
ENDROOT
TORSDOF 0
ENDMDL
MODEL 7
REMARK VINA RESULT:    -2.172      1.610      1.679
REMARK INTER + INTRA:          -2.172
REMARK INTER:                  -2.172
REMARK INTRA:                   0.000
REMARK UNBOUND:                 0.000
REMARK SMILES CC(=O)[O-]
REMARK SMILES IDX 1 1 2 2 3 3 4 4
REMARK H PARENT
REMARK Flexibility Score: inf
ROOT
ATOM      1  C   UNL     1     137.165   2.190  95.057  1.00  0.00     0.063 C 
ATOM      2  C   UNL     1     135.960   3.032  94.809  1.00  0.00     0.038 C 
ATOM      3  O   UNL     1     134.927   2.522  94.301  1.00  0.00    -0.550 OA
ATOM      4  O   UNL     1     135.990   4.393  95.087  1.00  0.00    -0.550 OA
ENDROOT
TORSDOF 0
ENDMDL
MODEL 8
REMARK VINA RESULT:    -2.026     15.875     16.292
REMARK INTER + INTRA:          -2.026
REMARK INTER:                  -2.026
REMARK INTRA:                   0.000
REMARK UNBOUND:                 0.000
REMARK SMILES CC(=O)[O-]
REMARK SMILES IDX 1 1 2 2 3 3 4 4
REMARK H PARENT
REMARK Flexibility Score: inf
ROOT
ATOM      1  C   UNL     1     131.644  -5.551  81.843  1.00  0.00     0.063 C 
ATOM      2  C   UNL     1     131.427  -4.737  80.613  1.00  0.00     0.038 C 
ATOM      3  O   UNL     1     130.316  -4.771  80.021  1.00  0.00    -0.550 OA
ATOM      4  O   UNL     1     132.466  -3.983  80.085  1.00  0.00    -0.550 OA
ENDROOT
TORSDOF 0
ENDMDL
MODEL 9
REMARK VINA RESULT:    -1.867      2.289      3.212
REMARK INTER + INTRA:          -1.867
REMARK INTER:                  -1.867
REMARK INTRA:                   0.000
REMARK UNBOUND:                 0.000
REMARK SMILES CC(=O)[O-]
REMARK SMILES IDX 1 1 2 2 3 3 4 4
REMARK H PARENT
REMARK Flexibility Score: inf
ROOT
ATOM      1  C   UNL     1     134.519   4.687  93.634  1.00  0.00     0.063 C 
ATOM      2  C   UNL     1     135.168   3.495  94.251  1.00  0.00     0.038 C 
ATOM      3  O   UNL     1     136.111   3.643  95.073  1.00  0.00    -0.550 OA
ATOM      4  O   UNL     1     134.772   2.216  93.881  1.00  0.00    -0.550 OA
ENDROOT
TORSDOF 0
ENDMDL
