MODEL 1
REMARK VINA RESULT:    -3.430      0.000      0.000
REMARK INTER + INTRA:          -5.745
REMARK INTER:                  -5.235
REMARK INTRA:                  -0.510
REMARK UNBOUND:                -0.510
REMARK SMILES O=C([O-])CCCCCCCCC(=O)[O-]
REMARK SMILES IDX 7 1 6 2 5 3 4 4 2 5 1 6 3 7 8 8 9 9 10 10 11 11 12 12 13 13
REMARK SMILES IDX 14 14
REMARK H PARENT
REMARK Flexibility Score: inf
ROOT
ATOM      1  C   UNL     1      -4.761   5.952   1.680  1.00  0.00     0.000 C 
ENDROOT
BRANCH   1   2
ATOM      2  C   UNL     1      -3.694   4.863   1.511  1.00  0.00     0.000 C 
BRANCH   2   3
ATOM      3  C   UNL     1      -3.355   4.211   2.858  1.00  0.00     0.006 C 
BRANCH   3   4
ATOM      4  C   UNL     1      -3.630   2.700   2.859  1.00  0.00     0.053 C 
BRANCH   4   5
ATOM      5  C   UNL     1      -3.345   2.083   4.194  1.00  0.00     0.041 C 
ATOM      6  O   UNL     1      -3.989   2.449   5.211  1.00  0.00    -0.550 OA
ATOM      7  O   UNL     1      -2.392   1.078   4.307  1.00  0.00    -0.550 OA
ENDBRANCH   4   5
ENDBRANCH   3   4
ENDBRANCH   2   3
ENDBRANCH   1   2
BRANCH   1   8
ATOM      8  C   UNL     1      -6.045   5.589   0.925  1.00  0.00     0.000 C 
BRANCH   8   9
ATOM      9  C   UNL     1      -6.548   6.777   0.093  1.00  0.00     0.000 C 
BRANCH   9  10
ATOM     10  C   UNL     1      -5.605   7.129  -1.069  1.00  0.00     0.006 C 
BRANCH  10  11
ATOM     11  C   UNL     1      -5.994   6.428  -2.377  1.00  0.00     0.053 C 
BRANCH  11  12
ATOM     12  C   UNL     1      -5.039   5.317  -2.678  1.00  0.00     0.041 C 
ATOM     13  O   UNL     1      -5.366   4.398  -3.476  1.00  0.00    -0.550 OA
ATOM     14  O   UNL     1      -3.807   5.265  -2.039  1.00  0.00    -0.550 OA
ENDBRANCH  11  12
ENDBRANCH  10  11
ENDBRANCH   9  10
ENDBRANCH   8   9
ENDBRANCH   1   8
TORSDOF 9
ENDMDL
MODEL 2
REMARK VINA RESULT:    -3.335      2.153      6.011
REMARK INTER + INTRA:          -5.599
REMARK INTER:                  -5.116
REMARK INTRA:                  -0.483
REMARK UNBOUND:                -0.510
REMARK SMILES O=C([O-])CCCCCCCCC(=O)[O-]
REMARK SMILES IDX 7 1 6 2 5 3 4 4 2 5 1 6 3 7 8 8 9 9 10 10 11 11 12 12 13 13
REMARK SMILES IDX 14 14
REMARK H PARENT
REMARK Flexibility Score: inf
ROOT
ATOM      1  C   UNL     1      -4.061   6.949   0.558  1.00  0.00     0.000 C 
ENDROOT
BRANCH   1   2
ATOM      2  C   UNL     1      -5.494   7.463   0.368  1.00  0.00     0.000 C 
BRANCH   2   3
ATOM      3  C   UNL     1      -6.256   6.604  -0.651  1.00  0.00     0.006 C 
BRANCH   3   4
ATOM      4  C   UNL     1      -7.687   6.290  -0.191  1.00  0.00     0.053 C 
BRANCH   4   5
ATOM      5  C   UNL     1      -7.717   5.185   0.820  1.00  0.00     0.041 C 
ATOM      6  O   UNL     1      -7.689   5.451   2.050  1.00  0.00    -0.550 OA
ATOM      7  O   UNL     1      -7.812   3.863   0.403  1.00  0.00    -0.550 OA
ENDBRANCH   4   5
ENDBRANCH   3   4
ENDBRANCH   2   3
ENDBRANCH   1   2
BRANCH   1   8
ATOM      8  C   UNL     1      -4.047   5.437   0.813  1.00  0.00     0.000 C 
BRANCH   8   9
ATOM      9  C   UNL     1      -3.293   5.105   2.109  1.00  0.00     0.000 C 
BRANCH   9  10
ATOM     10  C   UNL     1      -4.015   4.050   2.962  1.00  0.00     0.006 C 
BRANCH  10  11
ATOM     11  C   UNL     1      -3.373   2.661   2.848  1.00  0.00     0.053 C 
BRANCH  11  12
ATOM     12  C   UNL     1      -3.282   2.016   4.196  1.00  0.00     0.041 C 
ATOM     13  O   UNL     1      -3.993   2.434   5.148  1.00  0.00    -0.550 OA
ATOM     14  O   UNL     1      -2.376   0.986   4.415  1.00  0.00    -0.550 OA
ENDBRANCH  11  12
ENDBRANCH  10  11
ENDBRANCH   9  10
ENDBRANCH   8   9
ENDBRANCH   1   8
TORSDOF 9
ENDMDL
MODEL 3
REMARK VINA RESULT:    -3.211      3.997      6.561
REMARK INTER + INTRA:          -5.410
REMARK INTER:                  -4.978
REMARK INTRA:                  -0.432
REMARK UNBOUND:                -0.510
REMARK SMILES O=C([O-])CCCCCCCCC(=O)[O-]
REMARK SMILES IDX 7 1 6 2 5 3 4 4 2 5 1 6 3 7 8 8 9 9 10 10 11 11 12 12 13 13
REMARK SMILES IDX 14 14
REMARK H PARENT
REMARK Flexibility Score: inf
ROOT
ATOM      1  C   UNL     1      -2.858   7.471   1.873  1.00  0.00     0.000 C 
ENDROOT
BRANCH   1   2
ATOM      2  C   UNL     1      -2.962   8.560   2.949  1.00  0.00     0.000 C 
BRANCH   2   3
ATOM      3  C   UNL     1      -3.844   8.096   4.118  1.00  0.00     0.006 C 
BRANCH   3   4
ATOM      4  C   UNL     1      -3.301   8.562   5.476  1.00  0.00     0.053 C 
BRANCH   4   5
ATOM      5  C   UNL     1      -4.197   9.577   6.116  1.00  0.00     0.041 C 
ATOM      6  O   UNL     1      -4.204   9.717   7.367  1.00  0.00    -0.550 OA
ATOM      7  O   UNL     1      -5.001  10.391   5.327  1.00  0.00    -0.550 OA
ENDBRANCH   4   5
ENDBRANCH   3   4
ENDBRANCH   2   3
ENDBRANCH   1   2
BRANCH   1   8
ATOM      8  C   UNL     1      -3.869   6.347   2.126  1.00  0.00     0.000 C 
BRANCH   8   9
ATOM      9  C   UNL     1      -3.165   4.987   2.226  1.00  0.00     0.000 C 
BRANCH   9  10
ATOM     10  C   UNL     1      -4.085   3.881   2.766  1.00  0.00     0.006 C 
BRANCH  10  11
ATOM     11  C   UNL     1      -3.377   2.523   2.872  1.00  0.00     0.053 C 
BRANCH  11  12
ATOM     12  C   UNL     1      -3.350   2.058   4.294  1.00  0.00     0.041 C 
ATOM     13  O   UNL     1      -4.044   2.645   5.166  1.00  0.00    -0.550 OA
ATOM     14  O   UNL     1      -2.519   1.009   4.668  1.00  0.00    -0.550 OA
ENDBRANCH  11  12
ENDBRANCH  10  11
ENDBRANCH   9  10
ENDBRANCH   8   9
ENDBRANCH   1   8
TORSDOF 9
ENDMDL
MODEL 4
REMARK VINA RESULT:    -3.175      3.608      5.886
REMARK INTER + INTRA:          -5.355
REMARK INTER:                  -4.826
REMARK INTRA:                  -0.529
REMARK UNBOUND:                -0.510
REMARK SMILES O=C([O-])CCCCCCCCC(=O)[O-]
REMARK SMILES IDX 7 1 6 2 5 3 4 4 2 5 1 6 3 7 8 8 9 9 10 10 11 11 12 12 13 13
REMARK SMILES IDX 14 14
REMARK H PARENT
REMARK Flexibility Score: inf
ROOT
ATOM      1  C   UNL     1      -2.947   6.388   2.054  1.00  0.00     0.000 C 
ENDROOT
BRANCH   1   2
ATOM      2  C   UNL     1      -3.961   5.559   1.257  1.00  0.00     0.000 C 
BRANCH   2   3
ATOM      3  C   UNL     1      -4.385   4.308   2.038  1.00  0.00     0.006 C 
BRANCH   3   4
ATOM      4  C   UNL     1      -3.324   3.871   3.058  1.00  0.00     0.053 C 
BRANCH   4   5
ATOM      5  C   UNL     1      -3.636   2.531   3.648  1.00  0.00     0.041 C 
ATOM      6  O   UNL     1      -3.526   1.490   2.949  1.00  0.00    -0.550 OA
ATOM      7  O   UNL     1      -4.016   2.428   4.981  1.00  0.00    -0.550 OA
ENDBRANCH   4   5
ENDBRANCH   3   4
ENDBRANCH   2   3
ENDBRANCH   1   2
BRANCH   1   8
ATOM      8  C   UNL     1      -3.316   7.877   2.037  1.00  0.00     0.000 C 
BRANCH   8   9
ATOM      9  C   UNL     1      -4.375   8.192   3.103  1.00  0.00     0.000 C 
BRANCH   9  10
ATOM     10  C   UNL     1      -3.774   8.822   4.369  1.00  0.00     0.006 C 
BRANCH  10  11
ATOM     11  C   UNL     1      -3.793   7.867   5.570  1.00  0.00     0.053 C 
BRANCH  11  12
ATOM     12  C   UNL     1      -4.564   8.468   6.702  1.00  0.00     0.041 C 
ATOM     13  O   UNL     1      -5.220   7.730   7.485  1.00  0.00    -0.550 OA
ATOM     14  O   UNL     1      -4.601   9.847   6.865  1.00  0.00    -0.550 OA
ENDBRANCH  11  12
ENDBRANCH  10  11
ENDBRANCH   9  10
ENDBRANCH   8   9
ENDBRANCH   1   8
TORSDOF 9
ENDMDL
MODEL 5
REMARK VINA RESULT:    -3.168      2.705      5.679
REMARK INTER + INTRA:          -5.345
REMARK INTER:                  -4.708
REMARK INTRA:                  -0.637
REMARK UNBOUND:                -0.510
REMARK SMILES O=C([O-])CCCCCCCCC(=O)[O-]
REMARK SMILES IDX 7 1 6 2 5 3 4 4 2 5 1 6 3 7 8 8 9 9 10 10 11 11 12 12 13 13
REMARK SMILES IDX 14 14
REMARK H PARENT
REMARK Flexibility Score: inf
ROOT
ATOM      1  C   UNL     1      -5.906   7.059   1.248  1.00  0.00     0.000 C 
ENDROOT
BRANCH   1   2
ATOM      2  C   UNL     1      -7.259   6.339   1.192  1.00  0.00     0.000 C 
BRANCH   2   3
ATOM      3  C   UNL     1      -7.083   4.867   0.794  1.00  0.00     0.006 C 
BRANCH   3   4
ATOM      4  C   UNL     1      -7.953   4.483  -0.412  1.00  0.00     0.053 C 
BRANCH   4   5
ATOM      5  C   UNL     1      -8.889   3.360  -0.088  1.00  0.00     0.041 C 
ATOM      6  O   UNL     1     -10.115   3.586   0.084  1.00  0.00    -0.550 OA
ATOM      7  O   UNL     1      -8.412   2.057  -0.010  1.00  0.00    -0.550 OA
ENDBRANCH   4   5
ENDBRANCH   3   4
ENDBRANCH   2   3
ENDBRANCH   1   2
BRANCH   1   8
ATOM      8  C   UNL     1      -4.790   6.183   0.666  1.00  0.00     0.000 C 
BRANCH   8   9
ATOM      9  C   UNL     1      -3.531   6.244   1.542  1.00  0.00     0.000 C 
BRANCH   9  10
ATOM     10  C   UNL     1      -3.519   5.169   2.640  1.00  0.00     0.006 C 
BRANCH  10  11
ATOM     11  C   UNL     1      -3.613   3.746   2.073  1.00  0.00     0.053 C 
BRANCH  11  12
ATOM     12  C   UNL     1      -3.650   2.744   3.183  1.00  0.00     0.041 C 
ATOM     13  O   UNL     1      -3.461   1.522   2.941  1.00  0.00    -0.550 OA
ATOM     14  O   UNL     1      -3.943   3.150   4.479  1.00  0.00    -0.550 OA
ENDBRANCH  11  12
ENDBRANCH  10  11
ENDBRANCH   9  10
ENDBRANCH   8   9
ENDBRANCH   1   8
TORSDOF 9
ENDMDL
MODEL 6
REMARK VINA RESULT:    -3.167      2.627      2.971
REMARK INTER + INTRA:          -5.343
REMARK INTER:                  -4.845
REMARK INTRA:                  -0.499
REMARK UNBOUND:                -0.510
REMARK SMILES O=C([O-])CCCCCCCCC(=O)[O-]
REMARK SMILES IDX 7 1 6 2 5 3 4 4 2 5 1 6 3 7 8 8 9 9 10 10 11 11 12 12 13 13
REMARK SMILES IDX 14 14
REMARK H PARENT
REMARK Flexibility Score: inf
ROOT
ATOM      1  C   UNL     1      -4.133   5.437   0.947  1.00  0.00     0.000 C 
ENDROOT
BRANCH   1   2
ATOM      2  C   UNL     1      -3.367   4.964   2.190  1.00  0.00     0.000 C 
BRANCH   2   3
ATOM      3  C   UNL     1      -4.095   3.798   2.874  1.00  0.00     0.006 C 
BRANCH   3   4
ATOM      4  C   UNL     1      -3.262   2.508   2.865  1.00  0.00     0.053 C 
BRANCH   4   5
ATOM      5  C   UNL     1      -3.209   1.870   4.219  1.00  0.00     0.041 C 
ATOM      6  O   UNL     1      -2.414   0.921   4.441  1.00  0.00    -0.550 OA
ATOM      7  O   UNL     1      -4.015   2.349   5.246  1.00  0.00    -0.550 OA
ENDBRANCH   4   5
ENDBRANCH   3   4
ENDBRANCH   2   3
ENDBRANCH   1   2
BRANCH   1   8
ATOM      8  C   UNL     1      -4.859   6.760   1.217  1.00  0.00     0.000 C 
BRANCH   8   9
ATOM      9  C   UNL     1      -6.379   6.551   1.273  1.00  0.00     0.000 C 
BRANCH   9  10
ATOM     10  C   UNL     1      -6.800   5.140   0.831  1.00  0.00     0.006 C 
BRANCH  10  11
ATOM     11  C   UNL     1      -7.542   5.139  -0.511  1.00  0.00     0.053 C 
BRANCH  11  12
ATOM     12  C   UNL     1      -8.989   5.460  -0.308  1.00  0.00     0.041 C 
ATOM     13  O   UNL     1      -9.803   4.550   0.002  1.00  0.00    -0.550 OA
ATOM     14  O   UNL     1      -9.451   6.755  -0.510  1.00  0.00    -0.550 OA
ENDBRANCH  11  12
ENDBRANCH  10  11
ENDBRANCH   9  10
ENDBRANCH   8   9
ENDBRANCH   1   8
TORSDOF 9
ENDMDL
MODEL 7
REMARK VINA RESULT:    -3.085      3.111      5.583
REMARK INTER + INTRA:          -5.218
REMARK INTER:                  -4.571
REMARK INTRA:                  -0.648
REMARK UNBOUND:                -0.510
REMARK SMILES O=C([O-])CCCCCCCCC(=O)[O-]
REMARK SMILES IDX 7 1 6 2 5 3 4 4 2 5 1 6 3 7 8 8 9 9 10 10 11 11 12 12 13 13
REMARK SMILES IDX 14 14
REMARK H PARENT
REMARK Flexibility Score: inf
ROOT
ATOM      1  C   UNL     1      -5.663   7.459   1.050  1.00  0.00     0.000 C 
ENDROOT
BRANCH   1   2
ATOM      2  C   UNL     1      -5.894   7.776   2.533  1.00  0.00     0.000 C 
BRANCH   2   3
ATOM      3  C   UNL     1      -5.000   8.935   2.995  1.00  0.00     0.006 C 
BRANCH   3   4
ATOM      4  C   UNL     1      -3.749   8.445   3.737  1.00  0.00     0.053 C 
BRANCH   4   5
ATOM      5  C   UNL     1      -3.926   8.499   5.223  1.00  0.00     0.041 C 
ATOM      6  O   UNL     1      -4.472   7.542   5.831  1.00  0.00    -0.550 OA
ATOM      7  O   UNL     1      -3.456   9.593   5.941  1.00  0.00    -0.550 OA
ENDBRANCH   4   5
ENDBRANCH   3   4
ENDBRANCH   2   3
ENDBRANCH   1   2
BRANCH   1   8
ATOM      8  C   UNL     1      -5.134   6.031   0.867  1.00  0.00     0.000 C 
BRANCH   8   9
ATOM      9  C   UNL     1      -3.639   5.951   1.209  1.00  0.00     0.000 C 
BRANCH   9  10
ATOM     10  C   UNL     1      -3.348   4.986   2.369  1.00  0.00     0.006 C 
BRANCH  10  11
ATOM     11  C   UNL     1      -4.195   3.709   2.301  1.00  0.00     0.053 C 
BRANCH  11  12
ATOM     12  C   UNL     1      -3.734   2.721   3.326  1.00  0.00     0.041 C 
ATOM     13  O   UNL     1      -3.163   1.657   2.970  1.00  0.00    -0.550 OA
ATOM     14  O   UNL     1      -3.981   2.951   4.674  1.00  0.00    -0.550 OA
ENDBRANCH  11  12
ENDBRANCH  10  11
ENDBRANCH   9  10
ENDBRANCH   8   9
ENDBRANCH   1   8
TORSDOF 9
ENDMDL
MODEL 8
REMARK VINA RESULT:    -3.034      3.877      4.999
REMARK INTER + INTRA:          -5.141
REMARK INTER:                  -4.609
REMARK INTRA:                  -0.532
REMARK UNBOUND:                -0.510
REMARK SMILES O=C([O-])CCCCCCCCC(=O)[O-]
REMARK SMILES IDX 7 1 6 2 5 3 4 4 2 5 1 6 3 7 8 8 9 9 10 10 11 11 12 12 13 13
REMARK SMILES IDX 14 14
REMARK H PARENT
REMARK Flexibility Score: inf
ROOT
ATOM      1  C   UNL     1      -4.000   6.506   0.529  1.00  0.00     0.000 C 
ENDROOT
BRANCH   1   2
ATOM      2  C   UNL     1      -4.808   5.924   1.696  1.00  0.00     0.000 C 
BRANCH   2   3
ATOM      3  C   UNL     1      -4.620   4.403   1.791  1.00  0.00     0.006 C 
BRANCH   3   4
ATOM      4  C   UNL     1      -3.389   4.020   2.625  1.00  0.00     0.053 C 
BRANCH   4   5
ATOM      5  C   UNL     1      -3.614   2.762   3.406  1.00  0.00     0.041 C 
ATOM      6  O   UNL     1      -3.428   1.640   2.867  1.00  0.00    -0.550 OA
ATOM      7  O   UNL     1      -3.997   2.831   4.740  1.00  0.00    -0.550 OA
ENDBRANCH   4   5
ENDBRANCH   3   4
ENDBRANCH   2   3
ENDBRANCH   1   2
BRANCH   1   8
ATOM      8  C   UNL     1      -3.237   7.765   0.960  1.00  0.00     0.000 C 
BRANCH   8   9
ATOM      9  C   UNL     1      -3.213   7.895   2.490  1.00  0.00     0.000 C 
BRANCH   9  10
ATOM     10  C   UNL     1      -2.182   8.924   2.981  1.00  0.00     0.006 C 
BRANCH  10  11
ATOM     11  C   UNL     1      -1.630   9.794   1.844  1.00  0.00     0.053 C 
BRANCH  11  12
ATOM     12  C   UNL     1      -0.134   9.794   1.866  1.00  0.00     0.041 C 
ATOM     13  O   UNL     1       0.485   9.502   2.924  1.00  0.00    -0.550 OA
ATOM     14  O   UNL     1       0.579  10.165   0.733  1.00  0.00    -0.550 OA
ENDBRANCH  11  12
ENDBRANCH  10  11
ENDBRANCH   9  10
ENDBRANCH   8   9
ENDBRANCH   1   8
TORSDOF 9
ENDMDL
MODEL 9
REMARK VINA RESULT:    -2.992      1.821      2.037
REMARK INTER + INTRA:          -5.076
REMARK INTER:                  -4.490
REMARK INTRA:                  -0.586
REMARK UNBOUND:                -0.510
REMARK SMILES O=C([O-])CCCCCCCCC(=O)[O-]
REMARK SMILES IDX 7 1 6 2 5 3 4 4 2 5 1 6 3 7 8 8 9 9 10 10 11 11 12 12 13 13
REMARK SMILES IDX 14 14
REMARK H PARENT
REMARK Flexibility Score: inf
ROOT
ATOM      1  C   UNL     1      -3.730   6.859   0.682  1.00  0.00     0.000 C 
ENDROOT
BRANCH   1   2
ATOM      2  C   UNL     1      -3.752   6.417   2.151  1.00  0.00     0.000 C 
BRANCH   2   3
ATOM      3  C   UNL     1      -3.122   5.027   2.317  1.00  0.00     0.006 C 
BRANCH   3   4
ATOM      4  C   UNL     1      -4.176   3.912   2.361  1.00  0.00     0.053 C 
BRANCH   4   5
ATOM      5  C   UNL     1      -3.803   2.831   3.329  1.00  0.00     0.041 C 
ATOM      6  O   UNL     1      -3.972   3.001   4.564  1.00  0.00    -0.550 OA
ATOM      7  O   UNL     1      -3.301   1.622   2.862  1.00  0.00    -0.550 OA
ENDBRANCH   4   5
ENDBRANCH   3   4
ENDBRANCH   2   3
ENDBRANCH   1   2
BRANCH   1   8
ATOM      8  C   UNL     1      -5.149   7.127   0.166  1.00  0.00     0.000 C 
BRANCH   8   9
ATOM      9  C   UNL     1      -5.640   5.971  -0.718  1.00  0.00     0.000 C 
BRANCH   9  10
ATOM     10  C   UNL     1      -4.725   5.718  -1.926  1.00  0.00     0.006 C 
BRANCH  10  11
ATOM     11  C   UNL     1      -5.426   5.989  -3.264  1.00  0.00     0.053 C 
BRANCH  11  12
ATOM     12  C   UNL     1      -5.259   7.423  -3.660  1.00  0.00     0.041 C 
ATOM     13  O   UNL     1      -6.147   8.268  -3.372  1.00  0.00    -0.550 OA
ATOM     14  O   UNL     1      -4.146   7.817  -4.392  1.00  0.00    -0.550 OA
ENDBRANCH  11  12
ENDBRANCH  10  11
ENDBRANCH   9  10
ENDBRANCH   8   9
ENDBRANCH   1   8
TORSDOF 9
ENDMDL
