MODEL 1
REMARK VINA RESULT:    15.329      0.000      0.000
REMARK INTER + INTRA:          36.237
REMARK INTER:                  35.044
REMARK INTRA:                   1.192
REMARK UNBOUND:                 1.192
REMARK SMILES CCCCCCCCCCCCCCCCCCCCCCCC(=O)[O-]
REMARK SMILES IDX 13 1 14 2 15 3 16 4 17 5 18 6 19 7 20 8 21 9 22 10 23 11
REMARK SMILES IDX 24 12 25 13 26 14 12 15 11 16 10 17 9 18 8 19 7 20 6 21 5 22
REMARK SMILES IDX 4 23 3 24 2 25 1 26
REMARK H PARENT
REMARK Flexibility Score: inf
ROOT
ATOM      1  C   UNL     1     -24.373  11.248 -15.840  1.00  0.00     0.000 C 
ENDROOT
BRANCH   1   2
ATOM      2  C   UNL     1     -24.883  12.204 -14.744  1.00  0.00     0.000 C 
BRANCH   2   3
ATOM      3  C   UNL     1     -25.619  13.453 -15.262  1.00  0.00     0.000 C 
BRANCH   3   4
ATOM      4  C   UNL     1     -27.128  13.505 -14.944  1.00  0.00     0.000 C 
BRANCH   4   5
ATOM      5  C   UNL     1     -27.747  14.915 -14.937  1.00  0.00     0.000 C 
BRANCH   5   6
ATOM      6  C   UNL     1     -29.244  14.908 -14.594  1.00  0.00     0.000 C 
BRANCH   6   7
ATOM      7  C   UNL     1     -29.590  16.048 -13.626  1.00  0.00     0.000 C 
BRANCH   7   8
ATOM      8  C   UNL     1     -29.430  15.642 -12.152  1.00  0.00     0.000 C 
BRANCH   8   9
ATOM      9  C   UNL     1     -30.268  16.516 -11.201  1.00  0.00     0.000 C 
BRANCH   9  10
ATOM     10  C   UNL     1     -29.677  17.924 -11.019  1.00  0.00     0.006 C 
BRANCH  10  11
ATOM     11  C   UNL     1     -30.744  18.974 -10.692  1.00  0.00     0.053 C 
BRANCH  11  12
ATOM     12  C   UNL     1     -32.092  18.333 -10.581  1.00  0.00     0.041 C 
ATOM     13  O   UNL     1     -33.111  19.038 -10.361  1.00  0.00    -0.550 OA
ATOM     14  O   UNL     1     -32.216  16.953 -10.674  1.00  0.00    -0.550 OA
ENDBRANCH  11  12
ENDBRANCH  10  11
ENDBRANCH   9  10
ENDBRANCH   8   9
ENDBRANCH   7   8
ENDBRANCH   6   7
ENDBRANCH   5   6
ENDBRANCH   4   5
ENDBRANCH   3   4
ENDBRANCH   2   3
ENDBRANCH   1   2
BRANCH   1  15
ATOM     15  C   UNL     1     -22.923  10.763 -15.618  1.00  0.00     0.000 C 
BRANCH  15  16
ATOM     16  C   UNL     1     -22.730   9.286 -15.993  1.00  0.00     0.000 C 
BRANCH  16  17
ATOM     17  C   UNL     1     -22.223   9.142 -17.433  1.00  0.00     0.000 C 
BRANCH  17  18
ATOM     18  C   UNL     1     -21.980   7.667 -17.786  1.00  0.00    -0.000 C 
BRANCH  18  19
ATOM     19  C   UNL     1     -21.486   7.476 -19.228  1.00  0.00    -0.000 C 
BRANCH  19  20
ATOM     20  C   UNL     1     -20.394   6.404 -19.345  1.00  0.00    -0.000 C 
BRANCH  20  21
ATOM     21  C   UNL     1     -20.915   5.036 -18.879  1.00  0.00    -0.000 C 
BRANCH  21  22
ATOM     22  C   UNL     1     -19.899   3.900 -19.092  1.00  0.00    -0.000 C 
BRANCH  22  23
ATOM     23  C   UNL     1     -18.503   4.353 -19.559  1.00  0.00    -0.000 C 
BRANCH  23  24
ATOM     24  C   UNL     1     -17.411   3.310 -19.285  1.00  0.00    -0.000 C 
BRANCH  24  25
ATOM     25  C   UNL     1     -16.216   3.946 -18.564  1.00  0.00    -0.003 C 
ATOM     26  C   UNL     1     -14.894   3.476 -19.164  1.00  0.00     0.004 C 
ENDBRANCH  24  25
ENDBRANCH  23  24
ENDBRANCH  22  23
ENDBRANCH  21  22
ENDBRANCH  20  21
ENDBRANCH  19  20
ENDBRANCH  18  19
ENDBRANCH  17  18
ENDBRANCH  16  17
ENDBRANCH  15  16
ENDBRANCH   1  15
TORSDOF 22
ENDMDL
MODEL 2
REMARK VINA RESULT:    15.541      1.820      3.585
REMARK INTER + INTRA:          36.721
REMARK INTER:                  37.355
REMARK INTRA:                  -0.634
REMARK UNBOUND:                 1.192
REMARK SMILES CCCCCCCCCCCCCCCCCCCCCCCC(=O)[O-]
REMARK SMILES IDX 13 1 14 2 15 3 16 4 17 5 18 6 19 7 20 8 21 9 22 10 23 11
REMARK SMILES IDX 24 12 25 13 26 14 12 15 11 16 10 17 9 18 8 19 7 20 6 21 5 22
REMARK SMILES IDX 4 23 3 24 2 25 1 26
REMARK H PARENT
REMARK Flexibility Score: inf
ROOT
ATOM      1  C   UNL     1     -27.271  13.216 -14.952  1.00  0.00     0.000 C 
ENDROOT
BRANCH   1   2
ATOM      2  C   UNL     1     -27.936  14.601 -15.072  1.00  0.00     0.000 C 
BRANCH   2   3
ATOM      3  C   UNL     1     -28.880  14.971 -13.913  1.00  0.00     0.000 C 
BRANCH   3   4
ATOM      4  C   UNL     1     -29.433  16.412 -13.952  1.00  0.00     0.000 C 
BRANCH   4   5
ATOM      5  C   UNL     1     -29.109  17.271 -12.716  1.00  0.00     0.000 C 
BRANCH   5   6
ATOM      6  C   UNL     1     -29.749  16.731 -11.429  1.00  0.00     0.000 C 
BRANCH   6   7
ATOM      7  C   UNL     1     -31.189  16.265 -11.686  1.00  0.00     0.000 C 
BRANCH   7   8
ATOM      8  C   UNL     1     -32.010  16.140 -10.392  1.00  0.00     0.000 C 
BRANCH   8   9
ATOM      9  C   UNL     1     -32.355  17.508  -9.774  1.00  0.00     0.000 C 
BRANCH   9  10
ATOM     10  C   UNL     1     -32.323  18.646 -10.808  1.00  0.00     0.006 C 
BRANCH  10  11
ATOM     11  C   UNL     1     -33.145  19.863 -10.369  1.00  0.00     0.053 C 
BRANCH  11  12
ATOM     12  C   UNL     1     -32.356  21.121 -10.554  1.00  0.00     0.041 C 
ATOM     13  O   UNL     1     -32.947  22.213 -10.763  1.00  0.00    -0.550 OA
ATOM     14  O   UNL     1     -30.968  21.080 -10.544  1.00  0.00    -0.550 OA
ENDBRANCH  11  12
ENDBRANCH  10  11
ENDBRANCH   9  10
ENDBRANCH   8   9
ENDBRANCH   7   8
ENDBRANCH   6   7
ENDBRANCH   5   6
ENDBRANCH   4   5
ENDBRANCH   3   4
ENDBRANCH   2   3
ENDBRANCH   1   2
BRANCH   1  15
ATOM     15  C   UNL     1     -25.748  13.231 -15.210  1.00  0.00     0.000 C 
BRANCH  15  16
ATOM     16  C   UNL     1     -25.106  11.846 -15.039  1.00  0.00     0.000 C 
BRANCH  16  17
ATOM     17  C   UNL     1     -23.960  11.642 -16.036  1.00  0.00     0.000 C 
BRANCH  17  18
ATOM     18  C   UNL     1     -23.579  10.157 -16.140  1.00  0.00    -0.000 C 
BRANCH  18  19
ATOM     19  C   UNL     1     -22.061   9.938 -16.225  1.00  0.00    -0.000 C 
BRANCH  19  20
ATOM     20  C   UNL     1     -21.689   8.498 -16.603  1.00  0.00    -0.000 C 
BRANCH  20  21
ATOM     21  C   UNL     1     -22.133   8.175 -18.038  1.00  0.00    -0.000 C 
BRANCH  21  22
ATOM     22  C   UNL     1     -21.016   7.541 -18.887  1.00  0.00    -0.000 C 
BRANCH  22  23
ATOM     23  C   UNL     1     -21.082   6.007 -19.007  1.00  0.00    -0.000 C 
BRANCH  23  24
ATOM     24  C   UNL     1     -19.734   5.377 -19.386  1.00  0.00    -0.000 C 
BRANCH  24  25
ATOM     25  C   UNL     1     -19.760   3.859 -19.173  1.00  0.00    -0.003 C 
ATOM     26  C   UNL     1     -20.990   3.433 -18.376  1.00  0.00     0.004 C 
ENDBRANCH  24  25
ENDBRANCH  23  24
ENDBRANCH  22  23
ENDBRANCH  21  22
ENDBRANCH  20  21
ENDBRANCH  19  20
ENDBRANCH  18  19
ENDBRANCH  17  18
ENDBRANCH  16  17
ENDBRANCH  15  16
ENDBRANCH   1  15
TORSDOF 22
ENDMDL
MODEL 3
REMARK VINA RESULT:    15.795     11.287     14.444
REMARK INTER + INTRA:          37.302
REMARK INTER:                  37.844
REMARK INTRA:                  -0.543
REMARK UNBOUND:                 1.192
REMARK SMILES CCCCCCCCCCCCCCCCCCCCCCCC(=O)[O-]
REMARK SMILES IDX 13 1 14 2 15 3 16 4 17 5 18 6 19 7 20 8 21 9 22 10 23 11
REMARK SMILES IDX 24 12 25 13 26 14 12 15 11 16 10 17 9 18 8 19 7 20 6 21 5 22
REMARK SMILES IDX 4 23 3 24 2 25 1 26
REMARK H PARENT
REMARK Flexibility Score: inf
ROOT
ATOM      1  C   UNL     1     -28.889  20.287 -11.642  1.00  0.00     0.000 C 
ENDROOT
BRANCH   1   2
ATOM      2  C   UNL     1     -29.843  20.954 -10.632  1.00  0.00     0.000 C 
BRANCH   2   3
ATOM      3  C   UNL     1     -30.735  22.065 -11.217  1.00  0.00     0.000 C 
BRANCH   3   4
ATOM      4  C   UNL     1     -31.507  22.903 -10.176  1.00  0.00     0.000 C 
BRANCH   4   5
ATOM      5  C   UNL     1     -33.030  22.678 -10.153  1.00  0.00     0.000 C 
BRANCH   5   6
ATOM      6  C   UNL     1     -33.446  21.340 -10.782  1.00  0.00     0.000 C 
BRANCH   6   7
ATOM      7  C   UNL     1     -32.857  20.158  -9.997  1.00  0.00     0.000 C 
BRANCH   7   8
ATOM      8  C   UNL     1     -32.579  18.936 -10.888  1.00  0.00     0.000 C 
BRANCH   8   9
ATOM      9  C   UNL     1     -32.521  17.621 -10.089  1.00  0.00     0.000 C 
BRANCH   9  10
ATOM     10  C   UNL     1     -31.584  16.584 -10.730  1.00  0.00     0.006 C 
BRANCH  10  11
ATOM     11  C   UNL     1     -30.145  17.095 -10.867  1.00  0.00     0.053 C 
BRANCH  11  12
ATOM     12  C   UNL     1     -29.597  16.756 -12.218  1.00  0.00     0.041 C 
ATOM     13  O   UNL     1     -29.051  17.646 -12.920  1.00  0.00    -0.550 OA
ATOM     14  O   UNL     1     -29.733  15.469 -12.721  1.00  0.00    -0.550 OA
ENDBRANCH  11  12
ENDBRANCH  10  11
ENDBRANCH   9  10
ENDBRANCH   8   9
ENDBRANCH   7   8
ENDBRANCH   6   7
ENDBRANCH   5   6
ENDBRANCH   4   5
ENDBRANCH   3   4
ENDBRANCH   2   3
ENDBRANCH   1   2
BRANCH   1  15
ATOM     15  C   UNL     1     -28.649  21.124 -12.919  1.00  0.00     0.000 C 
BRANCH  15  16
ATOM     16  C   UNL     1     -27.260  21.779 -12.943  1.00  0.00     0.000 C 
BRANCH  16  17
ATOM     17  C   UNL     1     -27.117  22.814 -11.822  1.00  0.00     0.000 C 
BRANCH  17  18
ATOM     18  C   UNL     1     -25.724  22.738 -11.178  1.00  0.00    -0.000 C 
BRANCH  18  19
ATOM     19  C   UNL     1     -25.784  22.583  -9.650  1.00  0.00    -0.000 C 
BRANCH  19  20
ATOM     20  C   UNL     1     -27.192  22.243  -9.142  1.00  0.00    -0.000 C 
BRANCH  20  21
ATOM     21  C   UNL     1     -27.126  21.483  -7.809  1.00  0.00    -0.000 C 
BRANCH  21  22
ATOM     22  C   UNL     1     -25.899  20.559  -7.701  1.00  0.00    -0.000 C 
BRANCH  22  23
ATOM     23  C   UNL     1     -24.570  21.276  -7.396  1.00  0.00    -0.000 C 
BRANCH  23  24
ATOM     24  C   UNL     1     -24.273  21.372  -5.892  1.00  0.00    -0.000 C 
BRANCH  24  25
ATOM     25  C   UNL     1     -23.247  22.474  -5.607  1.00  0.00    -0.003 C 
ATOM     26  C   UNL     1     -21.832  22.015  -5.952  1.00  0.00     0.004 C 
ENDBRANCH  24  25
ENDBRANCH  23  24
ENDBRANCH  22  23
ENDBRANCH  21  22
ENDBRANCH  20  21
ENDBRANCH  19  20
ENDBRANCH  18  19
ENDBRANCH  17  18
ENDBRANCH  16  17
ENDBRANCH  15  16
ENDBRANCH   1  15
TORSDOF 22
ENDMDL
MODEL 4
REMARK VINA RESULT:    16.032      4.113      5.404
REMARK INTER + INTRA:          37.843
REMARK INTER:                  39.197
REMARK INTRA:                  -1.354
REMARK UNBOUND:                 1.192
REMARK SMILES CCCCCCCCCCCCCCCCCCCCCCCC(=O)[O-]
REMARK SMILES IDX 13 1 14 2 15 3 16 4 17 5 18 6 19 7 20 8 21 9 22 10 23 11
REMARK SMILES IDX 24 12 25 13 26 14 12 15 11 16 10 17 9 18 8 19 7 20 6 21 5 22
REMARK SMILES IDX 4 23 3 24 2 25 1 26
REMARK H PARENT
REMARK Flexibility Score: inf
ROOT
ATOM      1  C   UNL     1     -27.241  12.979 -14.791  1.00  0.00     0.000 C 
ENDROOT
BRANCH   1   2
ATOM      2  C   UNL     1     -28.502  13.844 -14.979  1.00  0.00     0.000 C 
BRANCH   2   3
ATOM      3  C   UNL     1     -28.353  15.314 -14.545  1.00  0.00     0.000 C 
BRANCH   3   4
ATOM      4  C   UNL     1     -29.586  15.918 -13.839  1.00  0.00     0.000 C 
BRANCH   4   5
ATOM      5  C   UNL     1     -29.294  17.131 -12.938  1.00  0.00     0.000 C 
BRANCH   5   6
ATOM      6  C   UNL     1     -29.646  16.879 -11.464  1.00  0.00     0.000 C 
BRANCH   6   7
ATOM      7  C   UNL     1     -30.711  17.872 -10.977  1.00  0.00     0.000 C 
BRANCH   7   8
ATOM      8  C   UNL     1     -31.973  17.172 -10.444  1.00  0.00     0.000 C 
BRANCH   8   9
ATOM      9  C   UNL     1     -33.137  18.151 -10.205  1.00  0.00     0.000 C 
BRANCH   9  10
ATOM     10  C   UNL     1     -32.917  19.509 -10.891  1.00  0.00     0.006 C 
BRANCH  10  11
ATOM     11  C   UNL     1     -33.155  20.692  -9.946  1.00  0.00     0.053 C 
BRANCH  11  12
ATOM     12  C   UNL     1     -32.402  21.897 -10.417  1.00  0.00     0.041 C 
ATOM     13  O   UNL     1     -33.002  22.991 -10.586  1.00  0.00    -0.550 OA
ATOM     14  O   UNL     1     -31.049  21.800 -10.714  1.00  0.00    -0.550 OA
ENDBRANCH  11  12
ENDBRANCH  10  11
ENDBRANCH   9  10
ENDBRANCH   8   9
ENDBRANCH   7   8
ENDBRANCH   6   7
ENDBRANCH   5   6
ENDBRANCH   4   5
ENDBRANCH   3   4
ENDBRANCH   2   3
ENDBRANCH   1   2
BRANCH   1  15
ATOM     15  C   UNL     1     -25.954  13.625 -15.351  1.00  0.00     0.000 C 
BRANCH  15  16
ATOM     16  C   UNL     1     -25.926  13.651 -16.887  1.00  0.00     0.000 C 
BRANCH  16  17
ATOM     17  C   UNL     1     -24.570  13.175 -17.423  1.00  0.00     0.000 C 
BRANCH  17  18
ATOM     18  C   UNL     1     -24.494  13.339 -18.948  1.00  0.00    -0.000 C 
BRANCH  18  19
ATOM     19  C   UNL     1     -23.560  12.314 -19.610  1.00  0.00    -0.000 C 
BRANCH  19  20
ATOM     20  C   UNL     1     -24.289  11.029 -20.027  1.00  0.00    -0.000 C 
BRANCH  20  21
ATOM     21  C   UNL     1     -23.480   9.785 -19.628  1.00  0.00    -0.000 C 
BRANCH  21  22
ATOM     22  C   UNL     1     -24.056   9.060 -18.399  1.00  0.00    -0.000 C 
BRANCH  22  23
ATOM     23  C   UNL     1     -24.059   9.886 -17.098  1.00  0.00    -0.000 C 
BRANCH  23  24
ATOM     24  C   UNL     1     -23.070   9.357 -16.050  1.00  0.00    -0.000 C 
BRANCH  24  25
ATOM     25  C   UNL     1     -22.143  10.475 -15.559  1.00  0.00    -0.003 C 
ATOM     26  C   UNL     1     -20.677  10.114 -15.778  1.00  0.00     0.004 C 
ENDBRANCH  24  25
ENDBRANCH  23  24
ENDBRANCH  22  23
ENDBRANCH  21  22
ENDBRANCH  20  21
ENDBRANCH  19  20
ENDBRANCH  18  19
ENDBRANCH  17  18
ENDBRANCH  16  17
ENDBRANCH  15  16
ENDBRANCH   1  15
TORSDOF 22
ENDMDL
MODEL 5
REMARK VINA RESULT:    16.087      1.460      2.057
REMARK INTER + INTRA:          37.968
REMARK INTER:                  38.831
REMARK INTRA:                  -0.862
REMARK UNBOUND:                 1.192
REMARK SMILES CCCCCCCCCCCCCCCCCCCCCCCC(=O)[O-]
REMARK SMILES IDX 13 1 14 2 15 3 16 4 17 5 18 6 19 7 20 8 21 9 22 10 23 11
REMARK SMILES IDX 24 12 25 13 26 14 12 15 11 16 10 17 9 18 8 19 7 20 6 21 5 22
REMARK SMILES IDX 4 23 3 24 2 25 1 26
REMARK H PARENT
REMARK Flexibility Score: inf
ROOT
ATOM      1  C   UNL     1     -23.798  11.676 -16.065  1.00  0.00     0.000 C 
ENDROOT
BRANCH   1   2
ATOM      2  C   UNL     1     -24.719  12.220 -14.955  1.00  0.00     0.000 C 
BRANCH   2   3
ATOM      3  C   UNL     1     -25.540  13.463 -15.343  1.00  0.00     0.000 C 
BRANCH   3   4
ATOM      4  C   UNL     1     -27.046  13.385 -15.014  1.00  0.00     0.000 C 
BRANCH   4   5
ATOM      5  C   UNL     1     -27.695  14.717 -14.594  1.00  0.00     0.000 C 
BRANCH   5   6
ATOM      6  C   UNL     1     -29.217  14.728 -14.789  1.00  0.00     0.000 C 
BRANCH   6   7
ATOM      7  C   UNL     1     -29.827  16.043 -14.283  1.00  0.00     0.000 C 
BRANCH   7   8
ATOM      8  C   UNL     1     -28.984  16.697 -13.175  1.00  0.00     0.000 C 
BRANCH   8   9
ATOM      9  C   UNL     1     -29.518  16.388 -11.764  1.00  0.00     0.000 C 
BRANCH   9  10
ATOM     10  C   UNL     1     -30.802  17.167 -11.436  1.00  0.00     0.006 C 
BRANCH  10  11
ATOM     11  C   UNL     1     -30.544  18.368 -10.518  1.00  0.00     0.053 C 
BRANCH  11  12
ATOM     12  C   UNL     1     -31.729  19.281 -10.507  1.00  0.00     0.041 C 
ATOM     13  O   UNL     1     -31.572  20.523 -10.647  1.00  0.00    -0.550 OA
ATOM     14  O   UNL     1     -33.002  18.768 -10.293  1.00  0.00    -0.550 OA
ENDBRANCH  11  12
ENDBRANCH  10  11
ENDBRANCH   9  10
ENDBRANCH   8   9
ENDBRANCH   7   8
ENDBRANCH   6   7
ENDBRANCH   5   6
ENDBRANCH   4   5
ENDBRANCH   3   4
ENDBRANCH   2   3
ENDBRANCH   1   2
BRANCH   1  15
ATOM     15  C   UNL     1     -22.666  10.764 -15.543  1.00  0.00     0.000 C 
BRANCH  15  16
ATOM     16  C   UNL     1     -22.581   9.434 -16.306  1.00  0.00     0.000 C 
BRANCH  16  17
ATOM     17  C   UNL     1     -23.636   9.364 -17.417  1.00  0.00     0.000 C 
BRANCH  17  18
ATOM     18  C   UNL     1     -22.990   9.024 -18.768  1.00  0.00    -0.000 C 
BRANCH  18  19
ATOM     19  C   UNL     1     -22.607   7.540 -18.886  1.00  0.00    -0.000 C 
BRANCH  19  20
ATOM     20  C   UNL     1     -21.091   7.311 -18.813  1.00  0.00    -0.000 C 
BRANCH  20  21
ATOM     21  C   UNL     1     -20.645   6.261 -19.843  1.00  0.00    -0.000 C 
BRANCH  21  22
ATOM     22  C   UNL     1     -19.411   5.459 -19.391  1.00  0.00    -0.000 C 
BRANCH  22  23
ATOM     23  C   UNL     1     -19.434   3.965 -19.764  1.00  0.00    -0.000 C 
BRANCH  23  24
ATOM     24  C   UNL     1     -19.491   3.042 -18.538  1.00  0.00    -0.000 C 
BRANCH  24  25
ATOM     25  C   UNL     1     -20.823   3.199 -17.797  1.00  0.00    -0.003 C 
ATOM     26  C   UNL     1     -21.983   3.375 -18.774  1.00  0.00     0.004 C 
ENDBRANCH  24  25
ENDBRANCH  23  24
ENDBRANCH  22  23
ENDBRANCH  21  22
ENDBRANCH  20  21
ENDBRANCH  19  20
ENDBRANCH  18  19
ENDBRANCH  17  18
ENDBRANCH  16  17
ENDBRANCH  15  16
ENDBRANCH   1  15
TORSDOF 22
ENDMDL
MODEL 6
REMARK VINA RESULT:    16.271     10.324     14.350
REMARK INTER + INTRA:          38.390
REMARK INTER:                  38.829
REMARK INTRA:                  -0.439
REMARK UNBOUND:                 1.192
REMARK SMILES CCCCCCCCCCCCCCCCCCCCCCCC(=O)[O-]
REMARK SMILES IDX 13 1 14 2 15 3 16 4 17 5 18 6 19 7 20 8 21 9 22 10 23 11
REMARK SMILES IDX 24 12 25 13 26 14 12 15 11 16 10 17 9 18 8 19 7 20 6 21 5 22
REMARK SMILES IDX 4 23 3 24 2 25 1 26
REMARK H PARENT
REMARK Flexibility Score: inf
ROOT
ATOM      1  C   UNL     1     -29.736  21.230 -11.097  1.00  0.00     0.000 C 
ENDROOT
BRANCH   1   2
ATOM      2  C   UNL     1     -29.129  20.487 -12.303  1.00  0.00     0.000 C 
BRANCH   2   3
ATOM      3  C   UNL     1     -27.710  20.938 -12.696  1.00  0.00     0.000 C 
BRANCH   3   4
ATOM      4  C   UNL     1     -27.523  22.464 -12.839  1.00  0.00     0.000 C 
BRANCH   4   5
ATOM      5  C   UNL     1     -26.613  23.113 -11.781  1.00  0.00     0.000 C 
BRANCH   5   6
ATOM      6  C   UNL     1     -26.085  22.107 -10.748  1.00  0.00     0.000 C 
BRANCH   6   7
ATOM      7  C   UNL     1     -26.269  22.640  -9.319  1.00  0.00     0.000 C 
BRANCH   7   8
ATOM      8  C   UNL     1     -26.650  21.534  -8.321  1.00  0.00     0.000 C 
BRANCH   8   9
ATOM      9  C   UNL     1     -25.561  21.296  -7.258  1.00  0.00     0.000 C 
BRANCH   9  10
ATOM     10  C   UNL     1     -24.212  20.895  -7.876  1.00  0.00     0.006 C 
BRANCH  10  11
ATOM     11  C   UNL     1     -23.043  21.720  -7.323  1.00  0.00     0.053 C 
BRANCH  11  12
ATOM     12  C   UNL     1     -23.362  22.225  -5.951  1.00  0.00     0.041 C 
ATOM     13  O   UNL     1     -24.454  21.921  -5.404  1.00  0.00    -0.550 OA
ATOM     14  O   UNL     1     -22.475  23.071  -5.297  1.00  0.00    -0.550 OA
ENDBRANCH  11  12
ENDBRANCH  10  11
ENDBRANCH   9  10
ENDBRANCH   8   9
ENDBRANCH   7   8
ENDBRANCH   6   7
ENDBRANCH   5   6
ENDBRANCH   4   5
ENDBRANCH   3   4
ENDBRANCH   2   3
ENDBRANCH   1   2
BRANCH   1  15
ATOM     15  C   UNL     1     -30.714  22.360 -11.490  1.00  0.00     0.000 C 
BRANCH  15  16
ATOM     16  C   UNL     1     -31.473  22.930 -10.282  1.00  0.00     0.000 C 
BRANCH  16  17
ATOM     17  C   UNL     1     -32.838  22.253 -10.118  1.00  0.00     0.000 C 
BRANCH  17  18
ATOM     18  C   UNL     1     -32.678  20.790  -9.680  1.00  0.00    -0.000 C 
BRANCH  18  19
ATOM     19  C   UNL     1     -32.893  19.798 -10.833  1.00  0.00    -0.000 C 
BRANCH  19  20
ATOM     20  C   UNL     1     -33.004  18.344 -10.354  1.00  0.00    -0.000 C 
BRANCH  20  21
ATOM     21  C   UNL     1     -31.616  17.692 -10.255  1.00  0.00    -0.000 C 
BRANCH  21  22
ATOM     22  C   UNL     1     -31.577  16.268 -10.839  1.00  0.00    -0.000 C 
BRANCH  22  23
ATOM     23  C   UNL     1     -30.199  15.817 -11.361  1.00  0.00    -0.000 C 
BRANCH  23  24
ATOM     24  C   UNL     1     -29.412  16.951 -12.032  1.00  0.00    -0.000 C 
BRANCH  24  25
ATOM     25  C   UNL     1     -29.606  16.927 -13.553  1.00  0.00    -0.003 C 
ATOM     26  C   UNL     1     -29.093  15.621 -14.155  1.00  0.00     0.004 C 
ENDBRANCH  24  25
ENDBRANCH  23  24
ENDBRANCH  22  23
ENDBRANCH  21  22
ENDBRANCH  20  21
ENDBRANCH  19  20
ENDBRANCH  18  19
ENDBRANCH  17  18
ENDBRANCH  16  17
ENDBRANCH  15  16
ENDBRANCH   1  15
TORSDOF 22
ENDMDL
MODEL 7
REMARK VINA RESULT:    16.706      1.194      2.122
REMARK INTER + INTRA:          39.384
REMARK INTER:                  40.292
REMARK INTRA:                  -0.907
REMARK UNBOUND:                 1.192
REMARK SMILES CCCCCCCCCCCCCCCCCCCCCCCC(=O)[O-]
REMARK SMILES IDX 13 1 14 2 15 3 16 4 17 5 18 6 19 7 20 8 21 9 22 10 23 11
REMARK SMILES IDX 24 12 25 13 26 14 12 15 11 16 10 17 9 18 8 19 7 20 6 21 5 22
REMARK SMILES IDX 4 23 3 24 2 25 1 26
REMARK H PARENT
REMARK Flexibility Score: inf
ROOT
ATOM      1  C   UNL     1     -22.532  10.581 -16.054  1.00  0.00     0.000 C 
ENDROOT
BRANCH   1   2
ATOM      2  C   UNL     1     -23.983  10.949 -15.689  1.00  0.00     0.000 C 
BRANCH   2   3
ATOM      3  C   UNL     1     -24.144  12.278 -14.928  1.00  0.00     0.000 C 
BRANCH   3   4
ATOM      4  C   UNL     1     -25.441  13.056 -15.233  1.00  0.00     0.000 C 
BRANCH   4   5
ATOM      5  C   UNL     1     -26.746  12.322 -14.873  1.00  0.00     0.000 C 
BRANCH   5   6
ATOM      6  C   UNL     1     -28.003  13.086 -15.312  1.00  0.00     0.000 C 
BRANCH   6   7
ATOM      7  C   UNL     1     -28.636  13.830 -14.127  1.00  0.00     0.000 C 
BRANCH   7   8
ATOM      8  C   UNL     1     -28.254  15.319 -14.092  1.00  0.00     0.000 C 
BRANCH   8   9
ATOM      9  C   UNL     1     -29.479  16.247 -14.190  1.00  0.00     0.000 C 
BRANCH   9  10
ATOM     10  C   UNL     1     -29.396  17.438 -13.221  1.00  0.00     0.006 C 
BRANCH  10  11
ATOM     11  C   UNL     1     -29.199  17.000 -11.765  1.00  0.00     0.053 C 
BRANCH  11  12
ATOM     12  C   UNL     1     -30.480  16.471 -11.201  1.00  0.00     0.041 C 
ATOM     13  O   UNL     1     -31.219  17.215 -10.504  1.00  0.00    -0.550 OA
ATOM     14  O   UNL     1     -30.835  15.143 -11.403  1.00  0.00    -0.550 OA
ENDBRANCH  11  12
ENDBRANCH  10  11
ENDBRANCH   9  10
ENDBRANCH   8   9
ENDBRANCH   7   8
ENDBRANCH   6   7
ENDBRANCH   5   6
ENDBRANCH   4   5
ENDBRANCH   3   4
ENDBRANCH   2   3
ENDBRANCH   1   2
BRANCH   1  15
ATOM     15  C   UNL     1     -22.301   9.065 -16.238  1.00  0.00     0.000 C 
BRANCH  15  16
ATOM     16  C   UNL     1     -22.411   8.624 -17.706  1.00  0.00     0.000 C 
BRANCH  16  17
ATOM     17  C   UNL     1     -21.194   7.790 -18.125  1.00  0.00     0.000 C 
BRANCH  17  18
ATOM     18  C   UNL     1     -21.614   6.616 -19.021  1.00  0.00    -0.000 C 
BRANCH  18  19
ATOM     19  C   UNL     1     -20.422   5.954 -19.730  1.00  0.00    -0.000 C 
BRANCH  19  20
ATOM     20  C   UNL     1     -20.523   4.423 -19.756  1.00  0.00    -0.000 C 
BRANCH  20  21
ATOM     21  C   UNL     1     -19.487   3.789 -18.815  1.00  0.00    -0.000 C 
BRANCH  21  22
ATOM     22  C   UNL     1     -18.464   2.905 -19.551  1.00  0.00    -0.000 C 
BRANCH  22  23
ATOM     23  C   UNL     1     -17.212   3.645 -20.059  1.00  0.00    -0.000 C 
BRANCH  23  24
ATOM     24  C   UNL     1     -16.279   4.092 -18.924  1.00  0.00    -0.000 C 
BRANCH  24  25
ATOM     25  C   UNL     1     -14.917   3.395 -19.029  1.00  0.00    -0.003 C 
ATOM     26  C   UNL     1     -14.335   3.108 -17.648  1.00  0.00     0.004 C 
ENDBRANCH  24  25
ENDBRANCH  23  24
ENDBRANCH  22  23
ENDBRANCH  21  22
ENDBRANCH  20  21
ENDBRANCH  19  20
ENDBRANCH  18  19
ENDBRANCH  17  18
ENDBRANCH  16  17
ENDBRANCH  15  16
ENDBRANCH   1  15
TORSDOF 22
ENDMDL
MODEL 8
REMARK VINA RESULT:    16.852      4.150      7.957
REMARK INTER + INTRA:          39.717
REMARK INTER:                  41.135
REMARK INTRA:                  -1.418
REMARK UNBOUND:                 1.192
REMARK SMILES CCCCCCCCCCCCCCCCCCCCCCCC(=O)[O-]
REMARK SMILES IDX 13 1 14 2 15 3 16 4 17 5 18 6 19 7 20 8 21 9 22 10 23 11
REMARK SMILES IDX 24 12 25 13 26 14 12 15 11 16 10 17 9 18 8 19 7 20 6 21 5 22
REMARK SMILES IDX 4 23 3 24 2 25 1 26
REMARK H PARENT
REMARK Flexibility Score: inf
ROOT
ATOM      1  C   UNL     1     -29.560  17.368 -12.240  1.00  0.00     0.000 C 
ENDROOT
BRANCH   1   2
ATOM      2  C   UNL     1     -30.079  16.147 -11.456  1.00  0.00     0.000 C 
BRANCH   2   3
ATOM      3  C   UNL     1     -31.513  16.286 -10.912  1.00  0.00     0.000 C 
BRANCH   3   4
ATOM      4  C   UNL     1     -31.764  17.532 -10.035  1.00  0.00     0.000 C 
BRANCH   4   5
ATOM      5  C   UNL     1     -33.103  18.249 -10.285  1.00  0.00     0.000 C 
BRANCH   5   6
ATOM      6  C   UNL     1     -32.930  19.625 -10.945  1.00  0.00     0.000 C 
BRANCH   6   7
ATOM      7  C   UNL     1     -32.822  20.732  -9.886  1.00  0.00     0.000 C 
BRANCH   7   8
ATOM      8  C   UNL     1     -32.543  22.113 -10.500  1.00  0.00     0.000 C 
BRANCH   8   9
ATOM      9  C   UNL     1     -31.248  22.141 -11.334  1.00  0.00     0.000 C 
BRANCH   9  10
ATOM     10  C   UNL     1     -30.072  21.457 -10.618  1.00  0.00     0.006 C 
BRANCH  10  11
ATOM     11  C   UNL     1     -29.391  20.394 -11.489  1.00  0.00     0.053 C 
BRANCH  11  12
ATOM     12  C   UNL     1     -28.481  21.040 -12.486  1.00  0.00     0.041 C 
ATOM     13  O   UNL     1     -28.137  20.417 -13.524  1.00  0.00    -0.550 OA
ATOM     14  O   UNL     1     -27.974  22.310 -12.245  1.00  0.00    -0.550 OA
ENDBRANCH  11  12
ENDBRANCH  10  11
ENDBRANCH   9  10
ENDBRANCH   8   9
ENDBRANCH   7   8
ENDBRANCH   6   7
ENDBRANCH   5   6
ENDBRANCH   4   5
ENDBRANCH   3   4
ENDBRANCH   2   3
ENDBRANCH   1   2
BRANCH   1  15
ATOM     15  C   UNL     1     -29.076  17.033 -13.668  1.00  0.00     0.000 C 
BRANCH  15  16
ATOM     16  C   UNL     1     -29.557  15.655 -14.146  1.00  0.00     0.000 C 
BRANCH  16  17
ATOM     17  C   UNL     1     -28.422  14.880 -14.826  1.00  0.00     0.000 C 
BRANCH  17  18
ATOM     18  C   UNL     1     -28.650  13.364 -14.719  1.00  0.00    -0.000 C 
BRANCH  18  19
ATOM     19  C   UNL     1     -27.342  12.561 -14.785  1.00  0.00    -0.000 C 
BRANCH  19  20
ATOM     20  C   UNL     1     -26.140  13.417 -15.207  1.00  0.00    -0.000 C 
BRANCH  20  21
ATOM     21  C   UNL     1     -24.819  12.685 -14.926  1.00  0.00    -0.000 C 
BRANCH  21  22
ATOM     22  C   UNL     1     -24.274  11.931 -16.152  1.00  0.00    -0.000 C 
BRANCH  22  23
ATOM     23  C   UNL     1     -24.061  10.420 -15.944  1.00  0.00    -0.000 C 
BRANCH  23  24
ATOM     24  C   UNL     1     -23.092   9.806 -16.965  1.00  0.00    -0.000 C 
BRANCH  24  25
ATOM     25  C   UNL     1     -21.956   9.056 -16.259  1.00  0.00    -0.003 C 
ATOM     26  C   UNL     1     -21.367   9.887 -15.122  1.00  0.00     0.004 C 
ENDBRANCH  24  25
ENDBRANCH  23  24
ENDBRANCH  22  23
ENDBRANCH  21  22
ENDBRANCH  20  21
ENDBRANCH  19  20
ENDBRANCH  18  19
ENDBRANCH  17  18
ENDBRANCH  16  17
ENDBRANCH  15  16
ENDBRANCH   1  15
TORSDOF 22
ENDMDL
MODEL 9
REMARK VINA RESULT:    17.273     10.837     14.759
REMARK INTER + INTRA:          40.681
REMARK INTER:                  41.070
REMARK INTRA:                  -0.389
REMARK UNBOUND:                 1.192
REMARK SMILES CCCCCCCCCCCCCCCCCCCCCCCC(=O)[O-]
REMARK SMILES IDX 13 1 14 2 15 3 16 4 17 5 18 6 19 7 20 8 21 9 22 10 23 11
REMARK SMILES IDX 24 12 25 13 26 14 12 15 11 16 10 17 9 18 8 19 7 20 6 21 5 22
REMARK SMILES IDX 4 23 3 24 2 25 1 26
REMARK H PARENT
REMARK Flexibility Score: inf
ROOT
ATOM      1  C   UNL     1     -32.353  19.865 -10.398  1.00  0.00     0.000 C 
ENDROOT
BRANCH   1   2
ATOM      2  C   UNL     1     -33.359  18.873 -11.013  1.00  0.00     0.000 C 
BRANCH   2   3
ATOM      3  C   UNL     1     -33.215  17.418 -10.530  1.00  0.00     0.000 C 
BRANCH   3   4
ATOM      4  C   UNL     1     -31.805  17.024 -10.043  1.00  0.00     0.000 C 
BRANCH   4   5
ATOM      5  C   UNL     1     -30.820  16.612 -11.153  1.00  0.00     0.000 C 
BRANCH   5   6
ATOM      6  C   UNL     1     -29.575  17.509 -11.211  1.00  0.00     0.000 C 
BRANCH   6   7
ATOM      7  C   UNL     1     -29.145  17.758 -12.664  1.00  0.00     0.000 C 
BRANCH   7   8
ATOM      8  C   UNL     1     -29.641  16.664 -13.623  1.00  0.00     0.000 C 
BRANCH   8   9
ATOM      9  C   UNL     1     -29.427  17.031 -15.103  1.00  0.00     0.000 C 
BRANCH   9  10
ATOM     10  C   UNL     1     -30.748  17.124 -15.884  1.00  0.00     0.006 C 
BRANCH  10  11
ATOM     11  C   UNL     1     -30.536  17.482 -17.360  1.00  0.00     0.053 C 
BRANCH  11  12
ATOM     12  C   UNL     1     -30.828  18.930 -17.594  1.00  0.00     0.041 C 
ATOM     13  O   UNL     1     -29.901  19.780 -17.533  1.00  0.00    -0.550 OA
ATOM     14  O   UNL     1     -32.131  19.349 -17.831  1.00  0.00    -0.550 OA
ENDBRANCH  11  12
ENDBRANCH  10  11
ENDBRANCH   9  10
ENDBRANCH   8   9
ENDBRANCH   7   8
ENDBRANCH   6   7
ENDBRANCH   5   6
ENDBRANCH   4   5
ENDBRANCH   3   4
ENDBRANCH   2   3
ENDBRANCH   1   2
BRANCH   1  15
ATOM     15  C   UNL     1     -33.004  21.151  -9.844  1.00  0.00     0.000 C 
BRANCH  15  16
ATOM     16  C   UNL     1     -32.741  22.377 -10.731  1.00  0.00     0.000 C 
BRANCH  16  17
ATOM     17  C   UNL     1     -31.239  22.582 -10.958  1.00  0.00     0.000 C 
BRANCH  17  18
ATOM     18  C   UNL     1     -30.436  21.370 -10.461  1.00  0.00    -0.000 C 
BRANCH  18  19
ATOM     19  C   UNL     1     -28.923  21.635 -10.423  1.00  0.00    -0.000 C 
BRANCH  19  20
ATOM     20  C   UNL     1     -28.198  20.785  -9.371  1.00  0.00    -0.000 C 
BRANCH  20  21
ATOM     21  C   UNL     1     -27.658  21.664  -8.233  1.00  0.00    -0.000 C 
BRANCH  21  22
ATOM     22  C   UNL     1     -26.597  20.953  -7.373  1.00  0.00    -0.000 C 
BRANCH  22  23
ATOM     23  C   UNL     1     -25.142  21.370  -7.659  1.00  0.00    -0.000 C 
BRANCH  23  24
ATOM     24  C   UNL     1     -24.177  20.995  -6.524  1.00  0.00    -0.000 C 
BRANCH  24  25
ATOM     25  C   UNL     1     -22.884  21.814  -6.613  1.00  0.00    -0.003 C 
ATOM     26  C   UNL     1     -23.005  23.125  -5.840  1.00  0.00     0.004 C 
ENDBRANCH  24  25
ENDBRANCH  23  24
ENDBRANCH  22  23
ENDBRANCH  21  22
ENDBRANCH  20  21
ENDBRANCH  19  20
ENDBRANCH  18  19
ENDBRANCH  17  18
ENDBRANCH  16  17
ENDBRANCH  15  16
ENDBRANCH   1  15
TORSDOF 22
ENDMDL
