MODEL 1
REMARK VINA RESULT:    -4.852      0.000      0.000
REMARK INTER + INTRA:          -4.994
REMARK INTER:                  -4.994
REMARK INTRA:                   0.000
REMARK UNBOUND:                 0.000
REMARK SMILES Cc1cccc(O)c1C
REMARK SMILES IDX 1 1 2 2 8 3 6 4 5 5 4 6 3 7 9 8 7 9
REMARK H PARENT 7 10
REMARK Flexibility Score: inf
ROOT
ATOM      1  C   UNL     1     -25.583 -12.496 -32.102  1.00  0.00     0.045 C 
ATOM      2  C   UNL     1     -25.710 -11.953 -30.701  1.00  0.00    -0.045 A 
ATOM      3  C   UNL     1     -26.910 -12.095 -29.958  1.00  0.00    -0.006 A 
ATOM      4  C   UNL     1     -26.971 -11.588 -28.641  1.00  0.00     0.118 A 
ATOM      5  C   UNL     1     -25.869 -10.917 -28.095  1.00  0.00     0.046 A 
ATOM      6  C   UNL     1     -24.704 -10.753 -28.842  1.00  0.00     0.004 A 
ATOM      7  C   UNL     1     -24.623 -11.267 -30.135  1.00  0.00     0.004 A 
ATOM      8  C   UNL     1     -28.095 -12.829 -30.540  1.00  0.00     0.048 C 
ENDROOT
BRANCH   4   9
ATOM      9  O   UNL     1     -28.125 -11.751 -27.873  1.00  0.00    -0.508 OA
ATOM     10  H   UNL     1     -28.434 -12.665 -27.564  1.00  0.00     0.293 HD
ENDBRANCH   4   9
TORSDOF 1
ENDMDL
MODEL 2
REMARK VINA RESULT:    -4.767      1.566      2.720
REMARK INTER + INTRA:          -4.906
REMARK INTER:                  -4.906
REMARK INTRA:                   0.000
REMARK UNBOUND:                 0.000
REMARK SMILES Cc1cccc(O)c1C
REMARK SMILES IDX 1 1 2 2 8 3 6 4 5 5 4 6 3 7 9 8 7 9
REMARK H PARENT 7 10
REMARK Flexibility Score: inf
ROOT
ATOM      1  C   UNL     1     -23.771 -11.368 -29.655  1.00  0.00     0.045 C 
ATOM      2  C   UNL     1     -25.272 -11.502 -29.666  1.00  0.00    -0.045 A 
ATOM      3  C   UNL     1     -25.972 -11.890 -30.838  1.00  0.00    -0.006 A 
ATOM      4  C   UNL     1     -27.378 -12.022 -30.791  1.00  0.00     0.118 A 
ATOM      5  C   UNL     1     -28.071 -11.731 -29.609  1.00  0.00     0.046 A 
ATOM      6  C   UNL     1     -27.381 -11.321 -28.470  1.00  0.00     0.004 A 
ATOM      7  C   UNL     1     -25.992 -11.206 -28.496  1.00  0.00     0.004 A 
ATOM      8  C   UNL     1     -25.225 -12.215 -32.110  1.00  0.00     0.048 C 
ENDROOT
BRANCH   4   9
ATOM      9  O   UNL     1     -28.086 -12.443 -31.918  1.00  0.00    -0.508 OA
ATOM     10  H   UNL     1     -27.846 -12.122 -32.848  1.00  0.00     0.293 HD
ENDBRANCH   4   9
TORSDOF 1
ENDMDL
MODEL 3
REMARK VINA RESULT:    -4.754      0.997      2.739
REMARK INTER + INTRA:          -4.893
REMARK INTER:                  -4.893
REMARK INTRA:                   0.000
REMARK UNBOUND:                 0.000
REMARK SMILES Cc1cccc(O)c1C
REMARK SMILES IDX 1 1 2 2 8 3 6 4 5 5 4 6 3 7 9 8 7 9
REMARK H PARENT 7 10
REMARK Flexibility Score: inf
ROOT
ATOM      1  C   UNL     1     -23.318 -10.959 -31.300  1.00  0.00     0.045 C 
ATOM      2  C   UNL     1     -24.644 -11.567 -30.922  1.00  0.00    -0.045 A 
ATOM      3  C   UNL     1     -25.149 -11.480 -29.599  1.00  0.00    -0.006 A 
ATOM      4  C   UNL     1     -26.408 -12.047 -29.301  1.00  0.00     0.118 A 
ATOM      5  C   UNL     1     -27.126 -12.725 -30.295  1.00  0.00     0.046 A 
ATOM      6  C   UNL     1     -26.610 -12.835 -31.584  1.00  0.00     0.004 A 
ATOM      7  C   UNL     1     -25.379 -12.261 -31.898  1.00  0.00     0.004 A 
ATOM      8  C   UNL     1     -24.382 -10.739 -28.529  1.00  0.00     0.048 C 
ENDROOT
BRANCH   4   9
ATOM      9  O   UNL     1     -26.947 -11.938 -28.018  1.00  0.00    -0.508 OA
ATOM     10  H   UNL     1     -27.212 -12.755 -27.481  1.00  0.00     0.293 HD
ENDBRANCH   4   9
TORSDOF 1
ENDMDL
MODEL 4
REMARK VINA RESULT:    -4.706      2.850      3.779
REMARK INTER + INTRA:          -4.843
REMARK INTER:                  -4.843
REMARK INTRA:                   0.000
REMARK UNBOUND:                 0.000
REMARK SMILES Cc1cccc(O)c1C
REMARK SMILES IDX 1 1 2 2 8 3 6 4 5 5 4 6 3 7 9 8 7 9
REMARK H PARENT 7 10
REMARK Flexibility Score: inf
ROOT
ATOM      1  C   UNL     1     -26.333 -12.112 -31.498  1.00  0.00     0.045 C 
ATOM      2  C   UNL     1     -25.100 -11.662 -30.757  1.00  0.00    -0.045 A 
ATOM      3  C   UNL     1     -23.810 -11.756 -31.342  1.00  0.00    -0.006 A 
ATOM      4  C   UNL     1     -22.688 -11.300 -30.614  1.00  0.00     0.118 A 
ATOM      5  C   UNL     1     -22.849 -10.801 -29.315  1.00  0.00     0.046 A 
ATOM      6  C   UNL     1     -24.114 -10.741 -28.735  1.00  0.00     0.004 A 
ATOM      7  C   UNL     1     -25.233 -11.168 -29.449  1.00  0.00     0.004 A 
ATOM      8  C   UNL     1     -23.636 -12.282 -32.747  1.00  0.00     0.048 C 
ENDROOT
BRANCH   4   9
ATOM      9  O   UNL     1     -21.413 -11.341 -31.182  1.00  0.00    -0.508 OA
ATOM     10  H   UNL     1     -20.873 -12.197 -31.214  1.00  0.00     0.293 HD
ENDBRANCH   4   9
TORSDOF 1
ENDMDL
MODEL 5
REMARK VINA RESULT:    -4.676      2.475      4.201
REMARK INTER + INTRA:          -4.812
REMARK INTER:                  -4.812
REMARK INTRA:                   0.000
REMARK UNBOUND:                 0.000
REMARK SMILES Cc1cccc(O)c1C
REMARK SMILES IDX 1 1 2 2 8 3 6 4 5 5 4 6 3 7 9 8 7 9
REMARK H PARENT 7 10
REMARK Flexibility Score: inf
ROOT
ATOM      1  C   UNL     1     -26.109 -11.173 -28.265  1.00  0.00     0.045 C 
ATOM      2  C   UNL     1     -25.520 -11.511 -29.610  1.00  0.00    -0.045 A 
ATOM      3  C   UNL     1     -24.160 -11.241 -29.912  1.00  0.00    -0.006 A 
ATOM      4  C   UNL     1     -23.651 -11.597 -31.181  1.00  0.00     0.118 A 
ATOM      5  C   UNL     1     -24.495 -12.170 -32.141  1.00  0.00     0.046 A 
ATOM      6  C   UNL     1     -25.837 -12.404 -31.849  1.00  0.00     0.004 A 
ATOM      7  C   UNL     1     -26.348 -12.077 -30.594  1.00  0.00     0.004 A 
ATOM      8  C   UNL     1     -23.246 -10.634 -28.874  1.00  0.00     0.048 C 
ENDROOT
BRANCH   4   9
ATOM      9  O   UNL     1     -22.306 -11.382 -31.488  1.00  0.00    -0.508 OA
ATOM     10  H   UNL     1     -21.974 -10.486 -31.824  1.00  0.00     0.293 HD
ENDBRANCH   4   9
TORSDOF 1
ENDMDL
MODEL 6
REMARK VINA RESULT:    -4.662      1.666      2.977
REMARK INTER + INTRA:          -4.798
REMARK INTER:                  -4.798
REMARK INTRA:                   0.000
REMARK UNBOUND:                 0.000
REMARK SMILES Cc1cccc(O)c1C
REMARK SMILES IDX 1 1 2 2 8 3 6 4 5 5 4 6 3 7 9 8 7 9
REMARK H PARENT 7 10
REMARK Flexibility Score: inf
ROOT
ATOM      1  C   UNL     1     -28.110 -12.718 -30.400  1.00  0.00     0.045 C 
ATOM      2  C   UNL     1     -26.674 -12.303 -30.589  1.00  0.00    -0.045 A 
ATOM      3  C   UNL     1     -25.931 -11.707 -29.537  1.00  0.00    -0.006 A 
ATOM      4  C   UNL     1     -24.581 -11.356 -29.758  1.00  0.00     0.118 A 
ATOM      5  C   UNL     1     -24.000 -11.558 -31.017  1.00  0.00     0.046 A 
ATOM      6  C   UNL     1     -24.744 -12.114 -32.055  1.00  0.00     0.004 A 
ATOM      7  C   UNL     1     -26.071 -12.485 -31.845  1.00  0.00     0.004 A 
ATOM      8  C   UNL     1     -26.552 -11.500 -28.176  1.00  0.00     0.048 C 
ENDROOT
BRANCH   4   9
ATOM      9  O   UNL     1     -23.815 -10.808 -28.728  1.00  0.00    -0.508 OA
ATOM     10  H   UNL     1     -22.924 -11.206 -28.457  1.00  0.00     0.293 HD
ENDBRANCH   4   9
TORSDOF 1
ENDMDL
MODEL 7
REMARK VINA RESULT:    -4.549      1.709      2.864
REMARK INTER + INTRA:          -4.682
REMARK INTER:                  -4.682
REMARK INTRA:                   0.000
REMARK UNBOUND:                 0.000
REMARK SMILES Cc1cccc(O)c1C
REMARK SMILES IDX 1 1 2 2 8 3 6 4 5 5 4 6 3 7 9 8 7 9
REMARK H PARENT 7 10
REMARK Flexibility Score: inf
ROOT
ATOM      1  C   UNL     1     -27.962 -11.076 -27.751  1.00  0.00     0.045 C 
ATOM      2  C   UNL     1     -26.742 -11.202 -28.627  1.00  0.00    -0.045 A 
ATOM      3  C   UNL     1     -26.793 -11.875 -29.876  1.00  0.00    -0.006 A 
ATOM      4  C   UNL     1     -25.628 -11.946 -30.670  1.00  0.00     0.118 A 
ATOM      5  C   UNL     1     -24.427 -11.392 -30.207  1.00  0.00     0.046 A 
ATOM      6  C   UNL     1     -24.376 -10.760 -28.967  1.00  0.00     0.004 A 
ATOM      7  C   UNL     1     -25.524 -10.664 -28.181  1.00  0.00     0.004 A 
ATOM      8  C   UNL     1     -28.090 -12.462 -30.382  1.00  0.00     0.048 C 
ENDROOT
BRANCH   4   9
ATOM      9  O   UNL     1     -25.662 -12.566 -31.921  1.00  0.00    -0.508 OA
ATOM     10  H   UNL     1     -26.534 -12.739 -32.405  1.00  0.00     0.293 HD
ENDBRANCH   4   9
TORSDOF 1
ENDMDL
MODEL 8
REMARK VINA RESULT:    -4.452      1.827      3.397
REMARK INTER + INTRA:          -4.582
REMARK INTER:                  -4.582
REMARK INTRA:                   0.000
REMARK UNBOUND:                 0.000
REMARK SMILES Cc1cccc(O)c1C
REMARK SMILES IDX 1 1 2 2 8 3 6 4 5 5 4 6 3 7 9 8 7 9
REMARK H PARENT 7 10
REMARK Flexibility Score: inf
ROOT
ATOM      1  C   UNL     1     -24.652  -8.397 -28.548  1.00  0.00     0.045 C 
ATOM      2  C   UNL     1     -25.775  -9.386 -28.373  1.00  0.00    -0.045 A 
ATOM      3  C   UNL     1     -25.654 -10.730 -28.815  1.00  0.00    -0.006 A 
ATOM      4  C   UNL     1     -26.728 -11.624 -28.607  1.00  0.00     0.118 A 
ATOM      5  C   UNL     1     -27.912 -11.173 -28.010  1.00  0.00     0.046 A 
ATOM      6  C   UNL     1     -28.036  -9.845 -27.607  1.00  0.00     0.004 A 
ATOM      7  C   UNL     1     -26.977  -8.957 -27.786  1.00  0.00     0.004 A 
ATOM      8  C   UNL     1     -24.373 -11.220 -29.448  1.00  0.00     0.048 C 
ENDROOT
BRANCH   4   9
ATOM      9  O   UNL     1     -26.619 -12.961 -28.994  1.00  0.00    -0.508 OA
ATOM     10  H   UNL     1     -26.428 -13.223 -29.954  1.00  0.00     0.293 HD
ENDBRANCH   4   9
TORSDOF 1
ENDMDL
MODEL 9
REMARK VINA RESULT:    -4.362      1.151      2.775
REMARK INTER + INTRA:          -4.490
REMARK INTER:                  -4.490
REMARK INTRA:                   0.000
REMARK UNBOUND:                 0.000
REMARK SMILES Cc1cccc(O)c1C
REMARK SMILES IDX 1 1 2 2 8 3 6 4 5 5 4 6 3 7 9 8 7 9
REMARK H PARENT 7 10
REMARK Flexibility Score: inf
ROOT
ATOM      1  C   UNL     1     -23.908 -10.426 -28.665  1.00  0.00     0.045 C 
ATOM      2  C   UNL     1     -24.767 -11.175 -29.651  1.00  0.00    -0.045 A 
ATOM      3  C   UNL     1     -26.060 -11.645 -29.300  1.00  0.00    -0.006 A 
ATOM      4  C   UNL     1     -26.834 -12.322 -30.268  1.00  0.00     0.118 A 
ATOM      5  C   UNL     1     -26.311 -12.561 -31.545  1.00  0.00     0.046 A 
ATOM      6  C   UNL     1     -25.029 -12.124 -31.874  1.00  0.00     0.004 A 
ATOM      7  C   UNL     1     -24.262 -11.436 -30.935  1.00  0.00     0.004 A 
ATOM      8  C   UNL     1     -26.631 -11.378 -27.928  1.00  0.00     0.048 C 
ENDROOT
BRANCH   4   9
ATOM      9  O   UNL     1     -28.125 -12.757 -29.962  1.00  0.00    -0.508 OA
ATOM     10  H   UNL     1     -28.549 -13.542 -30.441  1.00  0.00     0.293 HD
ENDBRANCH   4   9
TORSDOF 1
ENDMDL
