MODEL 1
REMARK VINA RESULT:    -3.704      0.000      0.000
REMARK INTER + INTRA:          -5.517
REMARK INTER:                  -5.003
REMARK INTRA:                  -0.514
REMARK UNBOUND:                -0.514
REMARK SMILES CCCCCCCC(=O)[O-]
REMARK SMILES IDX 5 1 6 2 7 3 8 4 9 5 10 6 4 7 3 8 2 9 1 10
REMARK H PARENT
REMARK Flexibility Score: inf
ROOT
ATOM      1  C   UNL     1      15.206  51.494 159.590  1.00  0.00     0.000 C 
ENDROOT
BRANCH   1   2
ATOM      2  C   UNL     1      14.211  52.430 158.887  1.00  0.00     0.006 C 
BRANCH   2   3
ATOM      3  C   UNL     1      14.551  52.631 157.404  1.00  0.00     0.053 C 
BRANCH   3   4
ATOM      4  C   UNL     1      14.468  54.073 157.005  1.00  0.00     0.041 C 
ATOM      5  O   UNL     1      13.538  54.469 156.255  1.00  0.00    -0.550 OA
ATOM      6  O   UNL     1      15.438  54.971 157.431  1.00  0.00    -0.550 OA
ENDBRANCH   3   4
ENDBRANCH   2   3
ENDBRANCH   1   2
BRANCH   1   7
ATOM      7  C   UNL     1      16.649  51.827 159.194  1.00  0.00     0.000 C 
BRANCH   7   8
ATOM      8  C   UNL     1      17.144  53.083 159.924  1.00  0.00    -0.000 C 
BRANCH   8   9
ATOM      9  C   UNL     1      18.418  53.670 159.295  1.00  0.00    -0.003 C 
ATOM     10  C   UNL     1      18.513  53.402 157.794  1.00  0.00     0.004 C 
ENDBRANCH   8   9
ENDBRANCH   7   8
ENDBRANCH   1   7
TORSDOF 6
ENDMDL
MODEL 2
REMARK VINA RESULT:    -3.632      2.244      3.175
REMARK INTER + INTRA:          -5.420
REMARK INTER:                  -5.238
REMARK INTRA:                  -0.182
REMARK UNBOUND:                -0.514
REMARK SMILES CCCCCCCC(=O)[O-]
REMARK SMILES IDX 5 1 6 2 7 3 8 4 9 5 10 6 4 7 3 8 2 9 1 10
REMARK H PARENT
REMARK Flexibility Score: inf
ROOT
ATOM      1  C   UNL     1      17.384  52.806 159.392  1.00  0.00     0.000 C 
ENDROOT
BRANCH   1   2
ATOM      2  C   UNL     1      16.677  51.507 158.974  1.00  0.00     0.006 C 
BRANCH   2   3
ATOM      3  C   UNL     1      15.548  51.125 159.940  1.00  0.00     0.053 C 
BRANCH   3   4
ATOM      4  C   UNL     1      14.259  51.803 159.587  1.00  0.00     0.041 C 
ATOM      5  O   UNL     1      14.177  52.503 158.544  1.00  0.00    -0.550 OA
ATOM      6  O   UNL     1      13.159  51.690 160.428  1.00  0.00    -0.550 OA
ENDBRANCH   3   4
ENDBRANCH   2   3
ENDBRANCH   1   2
BRANCH   1   7
ATOM      7  C   UNL     1      18.182  53.398 158.224  1.00  0.00     0.000 C 
BRANCH   7   8
ATOM      8  C   UNL     1      19.467  54.074 158.723  1.00  0.00    -0.000 C 
BRANCH   8   9
ATOM      9  C   UNL     1      19.878  53.601 160.126  1.00  0.00    -0.003 C 
ATOM     10  C   UNL     1      21.384  53.705 160.367  1.00  0.00     0.004 C 
ENDBRANCH   8   9
ENDBRANCH   7   8
ENDBRANCH   1   7
TORSDOF 6
ENDMDL
MODEL 3
REMARK VINA RESULT:    -3.587      2.103      3.295
REMARK INTER + INTRA:          -5.359
REMARK INTER:                  -4.933
REMARK INTRA:                  -0.425
REMARK UNBOUND:                -0.514
REMARK SMILES CCCCCCCC(=O)[O-]
REMARK SMILES IDX 5 1 6 2 7 3 8 4 9 5 10 6 4 7 3 8 2 9 1 10
REMARK H PARENT
REMARK Flexibility Score: inf
ROOT
ATOM      1  C   UNL     1      13.856  53.243 156.031  1.00  0.00     0.000 C 
ENDROOT
BRANCH   1   2
ATOM      2  C   UNL     1      14.039  54.746 156.295  1.00  0.00     0.006 C 
BRANCH   2   3
ATOM      3  C   UNL     1      15.494  55.195 156.111  1.00  0.00     0.053 C 
BRANCH   3   4
ATOM      4  C   UNL     1      16.024  55.880 157.334  1.00  0.00     0.041 C 
ATOM      5  O   UNL     1      16.577  55.211 158.245  1.00  0.00    -0.550 OA
ATOM      6  O   UNL     1      15.875  57.253 157.483  1.00  0.00    -0.550 OA
ENDBRANCH   3   4
ENDBRANCH   2   3
ENDBRANCH   1   2
BRANCH   1   7
ATOM      7  C   UNL     1      14.708  52.408 156.994  1.00  0.00     0.000 C 
BRANCH   7   8
ATOM      8  C   UNL     1      14.234  52.585 158.443  1.00  0.00    -0.000 C 
BRANCH   8   9
ATOM      9  C   UNL     1      15.096  51.804 159.447  1.00  0.00    -0.003 C 
ATOM     10  C   UNL     1      16.362  51.225 158.815  1.00  0.00     0.004 C 
ENDBRANCH   8   9
ENDBRANCH   7   8
ENDBRANCH   1   7
TORSDOF 6
ENDMDL
MODEL 4
REMARK VINA RESULT:    -3.549      3.174      4.739
REMARK INTER + INTRA:          -5.308
REMARK INTER:                  -4.856
REMARK INTRA:                  -0.452
REMARK UNBOUND:                -0.514
REMARK SMILES CCCCCCCC(=O)[O-]
REMARK SMILES IDX 5 1 6 2 7 3 8 4 9 5 10 6 4 7 3 8 2 9 1 10
REMARK H PARENT
REMARK Flexibility Score: inf
ROOT
ATOM      1  C   UNL     1      16.819  53.217 157.342  1.00  0.00     0.000 C 
ENDROOT
BRANCH   1   2
ATOM      2  C   UNL     1      18.178  53.058 158.041  1.00  0.00     0.006 C 
BRANCH   2   3
ATOM      3  C   UNL     1      18.107  53.404 159.534  1.00  0.00     0.053 C 
BRANCH   3   4
ATOM      4  C   UNL     1      19.456  53.736 160.094  1.00  0.00     0.041 C 
ATOM      5  O   UNL     1      20.481  53.652 159.368  1.00  0.00    -0.550 OA
ATOM      6  O   UNL     1      19.586  54.104 161.428  1.00  0.00    -0.550 OA
ENDBRANCH   3   4
ENDBRANCH   2   3
ENDBRANCH   1   2
BRANCH   1   7
ATOM      7  C   UNL     1      15.922  52.000 157.599  1.00  0.00     0.000 C 
BRANCH   7   8
ATOM      8  C   UNL     1      14.639  52.408 158.335  1.00  0.00    -0.000 C 
BRANCH   8   9
ATOM      9  C   UNL     1      14.496  51.719 159.701  1.00  0.00    -0.003 C 
ATOM     10  C   UNL     1      15.588  50.681 159.956  1.00  0.00     0.004 C 
ENDBRANCH   8   9
ENDBRANCH   7   8
ENDBRANCH   1   7
TORSDOF 6
ENDMDL
MODEL 5
REMARK VINA RESULT:    -3.548      2.265      3.314
REMARK INTER + INTRA:          -5.306
REMARK INTER:                  -4.761
REMARK INTRA:                  -0.544
REMARK UNBOUND:                -0.514
REMARK SMILES CCCCCCCC(=O)[O-]
REMARK SMILES IDX 5 1 6 2 7 3 8 4 9 5 10 6 4 7 3 8 2 9 1 10
REMARK H PARENT
REMARK Flexibility Score: inf
ROOT
ATOM      1  C   UNL     1      14.583  52.774 157.415  1.00  0.00     0.000 C 
ENDROOT
BRANCH   1   2
ATOM      2  C   UNL     1      13.836  52.676 158.754  1.00  0.00     0.006 C 
BRANCH   2   3
ATOM      3  C   UNL     1      14.438  51.608 159.678  1.00  0.00     0.053 C 
BRANCH   3   4
ATOM      4  C   UNL     1      15.935  51.641 159.666  1.00  0.00     0.041 C 
ATOM      5  O   UNL     1      16.587  50.673 159.193  1.00  0.00    -0.550 OA
ATOM      6  O   UNL     1      16.612  52.726 160.210  1.00  0.00    -0.550 OA
ENDBRANCH   3   4
ENDBRANCH   2   3
ENDBRANCH   1   2
BRANCH   1   7
ATOM      7  C   UNL     1      14.769  54.237 156.995  1.00  0.00     0.000 C 
BRANCH   7   8
ATOM      8  C   UNL     1      16.257  54.614 156.962  1.00  0.00    -0.000 C 
BRANCH   8   9
ATOM      9  C   UNL     1      17.163  53.420 156.623  1.00  0.00    -0.003 C 
ATOM     10  C   UNL     1      18.465  53.420 157.422  1.00  0.00     0.004 C 
ENDBRANCH   8   9
ENDBRANCH   7   8
ENDBRANCH   1   7
TORSDOF 6
ENDMDL
MODEL 6
REMARK VINA RESULT:    -3.510      2.563      3.883
REMARK INTER + INTRA:          -5.255
REMARK INTER:                  -4.875
REMARK INTRA:                  -0.380
REMARK UNBOUND:                -0.514
REMARK SMILES CCCCCCCC(=O)[O-]
REMARK SMILES IDX 5 1 6 2 7 3 8 4 9 5 10 6 4 7 3 8 2 9 1 10
REMARK H PARENT
REMARK Flexibility Score: inf
ROOT
ATOM      1  C   UNL     1      13.711  53.709 156.992  1.00  0.00     0.000 C 
ENDROOT
BRANCH   1   2
ATOM      2  C   UNL     1      14.599  52.563 157.501  1.00  0.00     0.006 C 
BRANCH   2   3
ATOM      3  C   UNL     1      14.321  52.222 158.971  1.00  0.00     0.053 C 
BRANCH   3   4
ATOM      4  C   UNL     1      15.557  51.756 159.678  1.00  0.00     0.041 C 
ATOM      5  O   UNL     1      16.503  52.557 159.893  1.00  0.00    -0.550 OA
ATOM      6  O   UNL     1      15.677  50.427 160.068  1.00  0.00    -0.550 OA
ENDBRANCH   3   4
ENDBRANCH   2   3
ENDBRANCH   1   2
BRANCH   1   7
ATOM      7  C   UNL     1      14.557  54.825 156.369  1.00  0.00     0.000 C 
BRANCH   7   8
ATOM      8  C   UNL     1      16.027  54.706 156.797  1.00  0.00    -0.000 C 
BRANCH   8   9
ATOM      9  C   UNL     1      16.418  55.741 157.863  1.00  0.00    -0.003 C 
ATOM     10  C   UNL     1      16.208  57.181 157.395  1.00  0.00     0.004 C 
ENDBRANCH   8   9
ENDBRANCH   7   8
ENDBRANCH   1   7
TORSDOF 6
ENDMDL
MODEL 7
REMARK VINA RESULT:    -3.492      3.069      4.423
REMARK INTER + INTRA:          -5.230
REMARK INTER:                  -4.762
REMARK INTRA:                  -0.469
REMARK UNBOUND:                -0.514
REMARK SMILES CCCCCCCC(=O)[O-]
REMARK SMILES IDX 5 1 6 2 7 3 8 4 9 5 10 6 4 7 3 8 2 9 1 10
REMARK H PARENT
REMARK Flexibility Score: inf
ROOT
ATOM      1  C   UNL     1      16.214  51.704 159.601  1.00  0.00     0.000 C 
ENDROOT
BRANCH   1   2
ATOM      2  C   UNL     1      16.858  53.027 160.045  1.00  0.00     0.006 C 
BRANCH   2   3
ATOM      3  C   UNL     1      18.204  53.279 159.353  1.00  0.00     0.053 C 
BRANCH   3   4
ATOM      4  C   UNL     1      19.264  53.688 160.329  1.00  0.00     0.041 C 
ATOM      5  O   UNL     1      20.480  53.521 160.050  1.00  0.00    -0.550 OA
ATOM      6  O   UNL     1      18.908  54.219 161.563  1.00  0.00    -0.550 OA
ENDBRANCH   3   4
ENDBRANCH   2   3
ENDBRANCH   1   2
BRANCH   1   7
ATOM      7  C   UNL     1      14.741  51.906 159.228  1.00  0.00     0.000 C 
BRANCH   7   8
ATOM      8  C   UNL     1      14.598  52.901 158.068  1.00  0.00    -0.000 C 
BRANCH   8   9
ATOM      9  C   UNL     1      15.105  52.330 156.734  1.00  0.00    -0.003 C 
ATOM     10  C   UNL     1      16.240  53.156 156.131  1.00  0.00     0.004 C 
ENDBRANCH   8   9
ENDBRANCH   7   8
ENDBRANCH   1   7
TORSDOF 6
ENDMDL
MODEL 8
REMARK VINA RESULT:    -3.481      1.976      3.580
REMARK INTER + INTRA:          -5.216
REMARK INTER:                  -4.551
REMARK INTRA:                  -0.664
REMARK UNBOUND:                -0.514
REMARK SMILES CCCCCCCC(=O)[O-]
REMARK SMILES IDX 5 1 6 2 7 3 8 4 9 5 10 6 4 7 3 8 2 9 1 10
REMARK H PARENT
REMARK Flexibility Score: inf
ROOT
ATOM      1  C   UNL     1      14.888  51.889 159.303  1.00  0.00     0.000 C 
ENDROOT
BRANCH   1   2
ATOM      2  C   UNL     1      16.422  51.807 159.274  1.00  0.00     0.006 C 
BRANCH   2   3
ATOM      3  C   UNL     1      17.081  52.992 159.992  1.00  0.00     0.053 C 
BRANCH   3   4
ATOM      4  C   UNL     1      17.811  53.885 159.037  1.00  0.00     0.041 C 
ATOM      5  O   UNL     1      17.676  55.135 159.109  1.00  0.00    -0.550 OA
ATOM      6  O   UNL     1      18.613  53.336 158.044  1.00  0.00    -0.550 OA
ENDBRANCH   3   4
ENDBRANCH   2   3
ENDBRANCH   1   2
BRANCH   1   7
ATOM      7  C   UNL     1      14.354  52.665 158.094  1.00  0.00     0.000 C 
BRANCH   7   8
ATOM      8  C   UNL     1      15.179  52.358 156.836  1.00  0.00    -0.000 C 
BRANCH   8   9
ATOM      9  C   UNL     1      15.582  53.626 156.068  1.00  0.00    -0.003 C 
ATOM     10  C   UNL     1      15.050  54.904 156.717  1.00  0.00     0.004 C 
ENDBRANCH   8   9
ENDBRANCH   7   8
ENDBRANCH   1   7
TORSDOF 6
ENDMDL
MODEL 9
REMARK VINA RESULT:    -3.410      2.386      3.353
REMARK INTER + INTRA:          -5.119
REMARK INTER:                  -4.829
REMARK INTRA:                  -0.290
REMARK UNBOUND:                -0.514
REMARK SMILES CCCCCCCC(=O)[O-]
REMARK SMILES IDX 5 1 6 2 7 3 8 4 9 5 10 6 4 7 3 8 2 9 1 10
REMARK H PARENT
REMARK Flexibility Score: inf
ROOT
ATOM      1  C   UNL     1      17.434  53.021 158.713  1.00  0.00     0.000 C 
ENDROOT
BRANCH   1   2
ATOM      2  C   UNL     1      16.623  51.733 158.504  1.00  0.00     0.006 C 
BRANCH   2   3
ATOM      3  C   UNL     1      15.742  51.398 159.715  1.00  0.00     0.053 C 
BRANCH   3   4
ATOM      4  C   UNL     1      14.333  51.869 159.526  1.00  0.00     0.041 C 
ATOM      5  O   UNL     1      13.429  51.494 160.317  1.00  0.00    -0.550 OA
ATOM      6  O   UNL     1      14.011  52.694 158.455  1.00  0.00    -0.550 OA
ENDBRANCH   3   4
ENDBRANCH   2   3
ENDBRANCH   1   2
BRANCH   1   7
ATOM      7  C   UNL     1      18.176  53.419 157.431  1.00  0.00     0.000 C 
BRANCH   7   8
ATOM      8  C   UNL     1      17.435  54.544 156.694  1.00  0.00    -0.000 C 
BRANCH   8   9
ATOM      9  C   UNL     1      16.354  55.208 157.561  1.00  0.00    -0.003 C 
ATOM     10  C   UNL     1      16.605  56.699 157.780  1.00  0.00     0.004 C 
ENDBRANCH   8   9
ENDBRANCH   7   8
ENDBRANCH   1   7
TORSDOF 6
ENDMDL
