MODEL 1
REMARK VINA RESULT:    -3.461      0.000      0.000
REMARK INTER + INTRA:          -4.143
REMARK INTER:                  -4.068
REMARK INTRA:                  -0.075
REMARK UNBOUND:                -0.075
REMARK SMILES O=C([O-])CCC(=O)[O-]
REMARK SMILES IDX 4 1 2 2 1 3 3 4 5 5 6 6 7 7 8 8
REMARK H PARENT
REMARK Flexibility Score: inf
ROOT
ATOM      1  C   UNL     1    -102.158 -81.730  31.012  1.00  0.00     0.059 C 
ENDROOT
BRANCH   1   2
ATOM      2  C   UNL     1    -102.658 -80.473  30.374  1.00  0.00     0.042 C 
ATOM      3  O   UNL     1    -102.026 -79.953  29.418  1.00  0.00    -0.550 OA
ATOM      4  O   UNL     1    -103.850 -79.903  30.803  1.00  0.00    -0.550 OA
ENDBRANCH   1   2
BRANCH   1   5
ATOM      5  C   UNL     1    -100.752 -82.064  30.510  1.00  0.00     0.059 C 
BRANCH   5   6
ATOM      6  C   UNL     1     -99.719 -81.394  31.360  1.00  0.00     0.042 C 
ATOM      7  O   UNL     1     -99.634 -81.666  32.587  1.00  0.00    -0.550 OA
ATOM      8  O   UNL     1     -98.882 -80.432  30.809  1.00  0.00    -0.550 OA
ENDBRANCH   5   6
ENDBRANCH   1   5
TORSDOF 3
ENDMDL
MODEL 2
REMARK VINA RESULT:    -3.270     22.239     23.236
REMARK INTER + INTRA:          -3.919
REMARK INTER:                  -3.862
REMARK INTRA:                  -0.057
REMARK UNBOUND:                -0.075
REMARK SMILES O=C([O-])CCC(=O)[O-]
REMARK SMILES IDX 4 1 2 2 1 3 3 4 5 5 6 6 7 7 8 8
REMARK H PARENT
REMARK Flexibility Score: inf
ROOT
ATOM      1  C   UNL     1    -115.940 -98.393  33.768  1.00  0.00     0.059 C 
ENDROOT
BRANCH   1   2
ATOM      2  C   UNL     1    -116.530 -97.195  33.094  1.00  0.00     0.042 C 
ATOM      3  O   UNL     1    -116.227 -96.036  33.482  1.00  0.00    -0.550 OA
ATOM      4  O   UNL     1    -117.377 -97.357  32.005  1.00  0.00    -0.550 OA
ENDBRANCH   1   2
BRANCH   1   5
ATOM      5  C   UNL     1    -116.792 -98.807  34.969  1.00  0.00     0.059 C 
BRANCH   5   6
ATOM      6  C   UNL     1    -115.936 -98.989  36.182  1.00  0.00     0.042 C 
ATOM      7  O   UNL     1    -114.695 -99.164  36.061  1.00  0.00    -0.550 OA
ATOM      8  O   UNL     1    -116.515 -99.014  37.444  1.00  0.00    -0.550 OA
ENDBRANCH   5   6
ENDBRANCH   1   5
TORSDOF 3
ENDMDL
MODEL 3
REMARK VINA RESULT:    -3.251     22.222     23.367
REMARK INTER + INTRA:          -3.896
REMARK INTER:                  -3.841
REMARK INTRA:                  -0.054
REMARK UNBOUND:                -0.075
REMARK SMILES O=C([O-])CCC(=O)[O-]
REMARK SMILES IDX 4 1 2 2 1 3 3 4 5 5 6 6 7 7 8 8
REMARK H PARENT
REMARK Flexibility Score: inf
ROOT
ATOM      1  C   UNL     1    -116.737 -98.834  34.889  1.00  0.00     0.059 C 
ENDROOT
BRANCH   1   2
ATOM      2  C   UNL     1    -115.890 -99.006  36.110  1.00  0.00     0.042 C 
ATOM      3  O   UNL     1    -114.641 -99.114  36.005  1.00  0.00    -0.550 OA
ATOM      4  O   UNL     1    -116.478 -98.997  37.369  1.00  0.00    -0.550 OA
ENDBRANCH   1   2
BRANCH   1   5
ATOM      5  C   UNL     1    -115.884 -98.375  33.705  1.00  0.00     0.059 C 
BRANCH   5   6
ATOM      6  C   UNL     1    -116.526 -97.214  33.015  1.00  0.00     0.042 C 
ATOM      7  O   UNL     1    -116.270 -96.037  33.383  1.00  0.00    -0.550 OA
ATOM      8  O   UNL     1    -117.446 -97.432  31.998  1.00  0.00    -0.550 OA
ENDBRANCH   5   6
ENDBRANCH   1   5
TORSDOF 3
ENDMDL
MODEL 4
REMARK VINA RESULT:    -3.171     25.519     26.436
REMARK INTER + INTRA:          -3.803
REMARK INTER:                  -3.689
REMARK INTRA:                  -0.114
REMARK UNBOUND:                -0.075
REMARK SMILES O=C([O-])CCC(=O)[O-]
REMARK SMILES IDX 4 1 2 2 1 3 3 4 5 5 6 6 7 7 8 8
REMARK H PARENT
REMARK Flexibility Score: inf
ROOT
ATOM      1  C   UNL     1    -116.458 -98.607  42.224  1.00  0.00     0.059 C 
ENDROOT
BRANCH   1   2
ATOM      2  C   UNL     1    -117.451 -98.538  43.340  1.00  0.00     0.042 C 
ATOM      3  O   UNL     1    -117.284 -99.227  44.380  1.00  0.00    -0.550 OA
ATOM      4  O   UNL     1    -118.536 -97.675  43.252  1.00  0.00    -0.550 OA
ENDBRANCH   1   2
BRANCH   1   5
ATOM      5  C   UNL     1    -116.952 -99.548  41.123  1.00  0.00     0.059 C 
BRANCH   5   6
ATOM      6  C   UNL     1    -117.267 -98.779  39.879  1.00  0.00     0.042 C 
ATOM      7  O   UNL     1    -116.835 -99.173  38.764  1.00  0.00    -0.550 OA
ATOM      8  O   UNL     1    -117.997 -97.600  39.957  1.00  0.00    -0.550 OA
ENDBRANCH   5   6
ENDBRANCH   1   5
TORSDOF 3
ENDMDL
MODEL 5
REMARK VINA RESULT:    -3.168     25.506     26.343
REMARK INTER + INTRA:          -3.798
REMARK INTER:                  -3.684
REMARK INTRA:                  -0.115
REMARK UNBOUND:                -0.075
REMARK SMILES O=C([O-])CCC(=O)[O-]
REMARK SMILES IDX 4 1 2 2 1 3 3 4 5 5 6 6 7 7 8 8
REMARK H PARENT
REMARK Flexibility Score: inf
ROOT
ATOM      1  C   UNL     1    -116.959 -99.547  41.102  1.00  0.00     0.059 C 
ENDROOT
BRANCH   1   2
ATOM      2  C   UNL     1    -117.246 -98.767  39.858  1.00  0.00     0.042 C 
ATOM      3  O   UNL     1    -116.840 -99.184  38.742  1.00  0.00    -0.550 OA
ATOM      4  O   UNL     1    -118.005 -97.606  39.926  1.00  0.00    -0.550 OA
ENDBRANCH   1   2
BRANCH   1   5
ATOM      5  C   UNL     1    -116.432 -98.625  42.203  1.00  0.00     0.059 C 
BRANCH   5   6
ATOM      6  C   UNL     1    -117.418 -98.528  43.324  1.00  0.00     0.042 C 
ATOM      7  O   UNL     1    -117.280 -99.240  44.353  1.00  0.00    -0.550 OA
ATOM      8  O   UNL     1    -118.519 -97.688  43.210  1.00  0.00    -0.550 OA
ENDBRANCH   5   6
ENDBRANCH   1   5
TORSDOF 3
ENDMDL
MODEL 6
REMARK VINA RESULT:    -3.085     22.677     23.375
REMARK INTER + INTRA:          -3.701
REMARK INTER:                  -3.579
REMARK INTRA:                  -0.122
REMARK UNBOUND:                -0.075
REMARK SMILES O=C([O-])CCC(=O)[O-]
REMARK SMILES IDX 4 1 2 2 1 3 3 4 5 5 6 6 7 7 8 8
REMARK H PARENT
REMARK Flexibility Score: inf
ROOT
ATOM      1  C   UNL     1    -116.058 -97.511  33.572  1.00  0.00     0.059 C 
ENDROOT
BRANCH   1   2
ATOM      2  C   UNL     1    -117.399 -97.444  32.912  1.00  0.00     0.042 C 
ATOM      3  O   UNL     1    -118.422 -97.864  33.512  1.00  0.00    -0.550 OA
ATOM      4  O   UNL     1    -117.525 -96.871  31.653  1.00  0.00    -0.550 OA
ENDBRANCH   1   2
BRANCH   1   5
ATOM      5  C   UNL     1    -115.763 -98.937  34.041  1.00  0.00     0.059 C 
BRANCH   5   6
ATOM      6  C   UNL     1    -115.615 -98.979  35.529  1.00  0.00     0.042 C 
ATOM      7  O   UNL     1    -114.523 -99.328  36.049  1.00  0.00    -0.550 OA
ATOM      8  O   UNL     1    -116.701 -98.681  36.343  1.00  0.00    -0.550 OA
ENDBRANCH   5   6
ENDBRANCH   1   5
TORSDOF 3
ENDMDL
MODEL 7
REMARK VINA RESULT:    -3.040     26.065     27.073
REMARK INTER + INTRA:          -3.648
REMARK INTER:                  -3.611
REMARK INTRA:                  -0.037
REMARK UNBOUND:                -0.075
REMARK SMILES O=C([O-])CCC(=O)[O-]
REMARK SMILES IDX 4 1 2 2 1 3 3 4 5 5 6 6 7 7 8 8
REMARK H PARENT
REMARK Flexibility Score: inf
ROOT
ATOM      1  C   UNL     1    -118.294 -97.897  43.751  1.00  0.00     0.059 C 
ENDROOT
BRANCH   1   2
ATOM      2  C   UNL     1    -118.324 -97.632  45.223  1.00  0.00     0.042 C 
ATOM      3  O   UNL     1    -118.185 -98.579  46.041  1.00  0.00    -0.550 OA
ATOM      4  O   UNL     1    -118.457 -96.331  45.691  1.00  0.00    -0.550 OA
ENDBRANCH   1   2
BRANCH   1   5
ATOM      5  C   UNL     1    -117.139 -98.838  43.400  1.00  0.00     0.059 C 
BRANCH   5   6
ATOM      6  C   UNL     1    -116.763 -98.691  41.959  1.00  0.00     0.042 C 
ATOM      7  O   UNL     1    -117.483 -98.010  41.183  1.00  0.00    -0.550 OA
ATOM      8  O   UNL     1    -115.645 -99.349  41.463  1.00  0.00    -0.550 OA
ENDBRANCH   5   6
ENDBRANCH   1   5
TORSDOF 3
ENDMDL
MODEL 8
REMARK VINA RESULT:    -2.925     22.576     23.590
REMARK INTER + INTRA:          -3.514
REMARK INTER:                  -3.435
REMARK INTRA:                  -0.079
REMARK UNBOUND:                -0.075
REMARK SMILES O=C([O-])CCC(=O)[O-]
REMARK SMILES IDX 4 1 2 2 1 3 3 4 5 5 6 6 7 7 8 8
REMARK H PARENT
REMARK Flexibility Score: inf
ROOT
ATOM      1  C   UNL     1    -116.792 -97.027  32.547  1.00  0.00     0.059 C 
ENDROOT
BRANCH   1   2
ATOM      2  C   UNL     1    -116.094 -98.145  33.255  1.00  0.00     0.042 C 
ATOM      3  O   UNL     1    -115.969 -99.267  32.698  1.00  0.00    -0.550 OA
ATOM      4  O   UNL     1    -115.537 -97.932  34.509  1.00  0.00    -0.550 OA
ENDBRANCH   1   2
BRANCH   1   5
ATOM      5  C   UNL     1    -118.228 -97.426  32.200  1.00  0.00     0.059 C 
BRANCH   5   6
ATOM      6  C   UNL     1    -118.438 -97.393  30.719  1.00  0.00     0.042 C 
ATOM      7  O   UNL     1    -118.393 -96.300  30.097  1.00  0.00    -0.550 OA
ATOM      8  O   UNL     1    -118.735 -98.564  30.034  1.00  0.00    -0.550 OA
ENDBRANCH   5   6
ENDBRANCH   1   5
TORSDOF 3
ENDMDL
MODEL 9
REMARK VINA RESULT:    -2.904     26.433     27.232
REMARK INTER + INTRA:          -3.489
REMARK INTER:                  -3.365
REMARK INTRA:                  -0.124
REMARK UNBOUND:                -0.075
REMARK SMILES O=C([O-])CCC(=O)[O-]
REMARK SMILES IDX 4 1 2 2 1 3 3 4 5 5 6 6 7 7 8 8
REMARK H PARENT
REMARK Flexibility Score: inf
ROOT
ATOM      1  C   UNL     1    -116.680 -98.630  42.810  1.00  0.00     0.059 C 
ENDROOT
BRANCH   1   2
ATOM      2  C   UNL     1    -117.032 -99.569  41.700  1.00  0.00     0.042 C 
ATOM      3  O   UNL     1    -116.124-100.124  41.028  1.00  0.00    -0.550 OA
ATOM      4  O   UNL     1    -118.363 -99.870  41.440  1.00  0.00    -0.550 OA
ENDBRANCH   1   2
BRANCH   1   5
ATOM      5  C   UNL     1    -117.600 -98.852  44.012  1.00  0.00     0.059 C 
BRANCH   5   6
ATOM      6  C   UNL     1    -118.421 -97.630  44.277  1.00  0.00     0.042 C 
ATOM      7  O   UNL     1    -119.125 -97.128  43.362  1.00  0.00    -0.550 OA
ATOM      8  O   UNL     1    -118.368 -97.015  45.522  1.00  0.00    -0.550 OA
ENDBRANCH   5   6
ENDBRANCH   1   5
TORSDOF 3
ENDMDL
