MODEL 1
REMARK VINA RESULT:    -2.830      0.000      0.000
REMARK INTER + INTRA:          -8.143
REMARK INTER:                  -5.312
REMARK INTRA:                  -2.830
REMARK UNBOUND:                -2.830
REMARK SMILES CCCCCCCCC=CCCCCCCCC(=O)[O-]
REMARK SMILES IDX 10 1 9 2 11 3 12 4 13 5 14 6 15 7 16 8 17 9 18 10 19 11
REMARK SMILES IDX 20 12 8 13 7 14 6 15 5 16 4 17 3 18 2 19 1 20
REMARK H PARENT
REMARK Flexibility Score: inf
ROOT
ATOM      1  C   UNL     1      -8.936  46.329  99.301  1.00  0.00    -0.031 C 
ATOM      2  C   UNL     1      -8.946  47.639  99.614  1.00  0.00    -0.031 C 
ENDROOT
BRANCH   1   3
ATOM      3  C   UNL     1     -10.155  45.444  99.187  1.00  0.00     0.027 C 
BRANCH   3   4
ATOM      4  C   UNL     1     -10.308  44.469 100.363  1.00  0.00     0.004 C 
BRANCH   4   5
ATOM      5  C   UNL     1     -11.761  44.013 100.564  1.00  0.00     0.000 C 
BRANCH   5   6
ATOM      6  C   UNL     1     -12.256  44.365 101.974  1.00  0.00     0.000 C 
BRANCH   6   7
ATOM      7  C   UNL     1     -11.395  43.739 103.086  1.00  0.00     0.000 C 
BRANCH   7   8
ATOM      8  C   UNL     1     -12.055  42.566 103.840  1.00  0.00     0.006 C 
BRANCH   8   9
ATOM      9  C   UNL     1     -11.477  41.184 103.498  1.00  0.00     0.053 C 
BRANCH   9  10
ATOM     10  C   UNL     1     -12.176  40.558 102.331  1.00  0.00     0.041 C 
ATOM     11  O   UNL     1     -11.623  40.532 101.200  1.00  0.00    -0.550 OA
ATOM     12  O   UNL     1     -13.454  40.035 102.485  1.00  0.00    -0.550 OA
ENDBRANCH   9  10
ENDBRANCH   8   9
ENDBRANCH   7   8
ENDBRANCH   6   7
ENDBRANCH   5   6
ENDBRANCH   4   5
ENDBRANCH   3   4
ENDBRANCH   1   3
BRANCH   2  13
ATOM     13  C   UNL     1     -10.176  48.450  99.948  1.00  0.00     0.027 C 
BRANCH  13  14
ATOM     14  C   UNL     1     -10.249  48.795 101.446  1.00  0.00     0.004 C 
BRANCH  14  15
ATOM     15  C   UNL     1     -10.668  47.628 102.360  1.00  0.00     0.000 C 
BRANCH  15  16
ATOM     16  C   UNL     1      -9.620  47.309 103.441  1.00  0.00     0.000 C 
BRANCH  16  17
ATOM     17  C   UNL     1      -8.665  46.180 103.021  1.00  0.00    -0.000 C 
BRANCH  17  18
ATOM     18  C   UNL     1      -7.195  46.633 102.989  1.00  0.00    -0.000 C 
BRANCH  18  19
ATOM     19  C   UNL     1      -7.042  48.150 103.174  1.00  0.00    -0.003 C 
ATOM     20  C   UNL     1      -6.373  48.829 101.978  1.00  0.00     0.004 C 
ENDBRANCH  18  19
ENDBRANCH  17  18
ENDBRANCH  16  17
ENDBRANCH  15  16
ENDBRANCH  14  15
ENDBRANCH  13  14
ENDBRANCH   2  13
TORSDOF 15
ENDMDL
MODEL 2
REMARK VINA RESULT:    -2.786      2.563      6.426
REMARK INTER + INTRA:          -8.060
REMARK INTER:                  -5.126
REMARK INTRA:                  -2.934
REMARK UNBOUND:                -2.830
REMARK SMILES CCCCCCCCC=CCCCCCCCC(=O)[O-]
REMARK SMILES IDX 10 1 9 2 11 3 12 4 13 5 14 6 15 7 16 8 17 9 18 10 19 11
REMARK SMILES IDX 20 12 8 13 7 14 6 15 5 16 4 17 3 18 2 19 1 20
REMARK H PARENT
REMARK Flexibility Score: inf
ROOT
ATOM      1  C   UNL     1     -10.398  44.399 101.147  1.00  0.00    -0.031 C 
ATOM      2  C   UNL     1     -10.456  43.651 102.266  1.00  0.00    -0.031 C 
ENDROOT
BRANCH   1   3
ATOM      3  C   UNL     1     -11.200  45.652 100.887  1.00  0.00     0.027 C 
BRANCH   3   4
ATOM      4  C   UNL     1     -10.367  46.938 100.994  1.00  0.00     0.004 C 
BRANCH   4   5
ATOM      5  C   UNL     1     -10.656  47.721 102.282  1.00  0.00     0.000 C 
BRANCH   5   6
ATOM      6  C   UNL     1      -9.693  47.309 103.404  1.00  0.00     0.000 C 
BRANCH   6   7
ATOM      7  C   UNL     1      -8.213  47.479 103.018  1.00  0.00     0.000 C 
BRANCH   7   8
ATOM      8  C   UNL     1      -7.357  46.202 103.134  1.00  0.00     0.006 C 
BRANCH   8   9
ATOM      9  C   UNL     1      -6.326  46.021 102.009  1.00  0.00     0.053 C 
BRANCH   9  10
ATOM     10  C   UNL     1      -6.815  45.089 100.944  1.00  0.00     0.041 C 
ATOM     11  O   UNL     1      -6.767  43.843 101.120  1.00  0.00    -0.550 OA
ATOM     12  O   UNL     1      -7.294  45.597  99.743  1.00  0.00    -0.550 OA
ENDBRANCH   9  10
ENDBRANCH   8   9
ENDBRANCH   7   8
ENDBRANCH   6   7
ENDBRANCH   5   6
ENDBRANCH   4   5
ENDBRANCH   3   4
ENDBRANCH   1   3
BRANCH   2  13
ATOM     13  C   UNL     1     -11.364  43.908 103.446  1.00  0.00     0.027 C 
BRANCH  13  14
ATOM     14  C   UNL     1     -12.051  42.621 103.934  1.00  0.00     0.004 C 
BRANCH  14  15
ATOM     15  C   UNL     1     -11.421  41.314 103.418  1.00  0.00     0.000 C 
BRANCH  15  16
ATOM     16  C   UNL     1     -12.408  40.452 102.610  1.00  0.00     0.000 C 
BRANCH  16  17
ATOM     17  C   UNL     1     -12.562  40.937 101.159  1.00  0.00    -0.000 C 
BRANCH  17  18
ATOM     18  C   UNL     1     -13.952  41.535 100.881  1.00  0.00    -0.000 C 
BRANCH  18  19
ATOM     19  C   UNL     1     -13.882  42.994 100.407  1.00  0.00    -0.003 C 
ATOM     20  C   UNL     1     -14.466  43.977 101.421  1.00  0.00     0.004 C 
ENDBRANCH  18  19
ENDBRANCH  17  18
ENDBRANCH  16  17
ENDBRANCH  15  16
ENDBRANCH  14  15
ENDBRANCH  13  14
ENDBRANCH   2  13
TORSDOF 15
ENDMDL
MODEL 3
REMARK VINA RESULT:    -2.772      2.119      3.683
REMARK INTER + INTRA:          -8.033
REMARK INTER:                  -5.519
REMARK INTRA:                  -2.514
REMARK UNBOUND:                -2.830
REMARK SMILES CCCCCCCCC=CCCCCCCCC(=O)[O-]
REMARK SMILES IDX 10 1 9 2 11 3 12 4 13 5 14 6 15 7 16 8 17 9 18 10 19 11
REMARK SMILES IDX 20 12 8 13 7 14 6 15 5 16 4 17 3 18 2 19 1 20
REMARK H PARENT
REMARK Flexibility Score: inf
ROOT
ATOM      1  C   UNL     1      -9.682  43.702 100.510  1.00  0.00    -0.031 C 
ATOM      2  C   UNL     1      -8.665  44.505 100.143  1.00  0.00    -0.031 C 
ENDROOT
BRANCH   1   3
ATOM      3  C   UNL     1      -9.921  43.170 101.904  1.00  0.00     0.027 C 
BRANCH   3   4
ATOM      4  C   UNL     1     -11.017  43.933 102.663  1.00  0.00     0.004 C 
BRANCH   4   5
ATOM      5  C   UNL     1     -12.256  43.066 102.934  1.00  0.00     0.000 C 
BRANCH   5   6
ATOM      6  C   UNL     1     -11.879  41.800 103.716  1.00  0.00     0.000 C 
BRANCH   6   7
ATOM      7  C   UNL     1     -12.158  40.505 102.932  1.00  0.00     0.000 C 
BRANCH   7   8
ATOM      8  C   UNL     1     -11.018  39.466 102.962  1.00  0.00     0.006 C 
BRANCH   8   9
ATOM      9  C   UNL     1     -10.013  39.657 104.108  1.00  0.00     0.053 C 
BRANCH   9  10
ATOM     10  C   UNL     1      -8.615  39.319 103.689  1.00  0.00     0.041 C 
ATOM     11  O   UNL     1      -7.981  40.087 102.918  1.00  0.00    -0.550 OA
ATOM     12  O   UNL     1      -8.026  38.138 104.123  1.00  0.00    -0.550 OA
ENDBRANCH   9  10
ENDBRANCH   8   9
ENDBRANCH   7   8
ENDBRANCH   6   7
ENDBRANCH   5   6
ENDBRANCH   4   5
ENDBRANCH   3   4
ENDBRANCH   1   3
BRANCH   2  13
ATOM     13  C   UNL     1      -7.557  44.986 101.050  1.00  0.00     0.027 C 
BRANCH  13  14
ATOM     14  C   UNL     1      -7.850  46.383 101.625  1.00  0.00     0.004 C 
BRANCH  14  15
ATOM     15  C   UNL     1      -8.214  46.405 103.121  1.00  0.00     0.000 C 
BRANCH  15  16
ATOM     16  C   UNL     1      -9.538  47.137 103.405  1.00  0.00     0.000 C 
BRANCH  16  17
ATOM     17  C   UNL     1      -9.934  48.098 102.272  1.00  0.00    -0.000 C 
BRANCH  17  18
ATOM     18  C   UNL     1     -11.392  47.907 101.819  1.00  0.00    -0.000 C 
BRANCH  18  19
ATOM     19  C   UNL     1     -11.512  46.986 100.594  1.00  0.00    -0.003 C 
ATOM     20  C   UNL     1     -10.700  47.482  99.397  1.00  0.00     0.004 C 
ENDBRANCH  18  19
ENDBRANCH  17  18
ENDBRANCH  16  17
ENDBRANCH  15  16
ENDBRANCH  14  15
ENDBRANCH  13  14
ENDBRANCH   2  13
TORSDOF 15
ENDMDL
MODEL 4
REMARK VINA RESULT:    -2.752      1.182      2.816
REMARK INTER + INTRA:          -7.997
REMARK INTER:                  -5.199
REMARK INTRA:                  -2.797
REMARK UNBOUND:                -2.830
REMARK SMILES CCCCCCCCC=CCCCCCCCC(=O)[O-]
REMARK SMILES IDX 10 1 9 2 11 3 12 4 13 5 14 6 15 7 16 8 17 9 18 10 19 11
REMARK SMILES IDX 20 12 8 13 7 14 6 15 5 16 4 17 3 18 2 19 1 20
REMARK H PARENT
REMARK Flexibility Score: inf
ROOT
ATOM      1  C   UNL     1      -8.147  44.635 100.999  1.00  0.00    -0.031 C 
ATOM      2  C   UNL     1      -7.311  45.537 101.547  1.00  0.00    -0.031 C 
ENDROOT
BRANCH   1   3
ATOM      3  C   UNL     1      -9.317  43.984 101.698  1.00  0.00     0.027 C 
BRANCH   3   4
ATOM      4  C   UNL     1     -10.659  44.233 100.993  1.00  0.00     0.004 C 
BRANCH   4   5
ATOM      5  C   UNL     1     -11.836  44.298 101.977  1.00  0.00     0.000 C 
BRANCH   5   6
ATOM      6  C   UNL     1     -11.422  43.783 103.363  1.00  0.00     0.000 C 
BRANCH   6   7
ATOM      7  C   UNL     1     -12.172  42.504 103.777  1.00  0.00     0.000 C 
BRANCH   7   8
ATOM      8  C   UNL     1     -11.391  41.192 103.565  1.00  0.00     0.006 C 
BRANCH   8   9
ATOM      9  C   UNL     1     -12.183  40.087 102.851  1.00  0.00     0.053 C 
BRANCH   9  10
ATOM     10  C   UNL     1     -11.734  39.901 101.434  1.00  0.00     0.041 C 
ATOM     11  O   UNL     1     -10.968  40.744 100.896  1.00  0.00    -0.550 OA
ATOM     12  O   UNL     1     -12.190  38.815 100.697  1.00  0.00    -0.550 OA
ENDBRANCH   9  10
ENDBRANCH   8   9
ENDBRANCH   7   8
ENDBRANCH   6   7
ENDBRANCH   5   6
ENDBRANCH   4   5
ENDBRANCH   3   4
ENDBRANCH   1   3
BRANCH   2  13
ATOM     13  C   UNL     1      -7.369  46.032 102.973  1.00  0.00     0.027 C 
BRANCH  13  14
ATOM     14  C   UNL     1      -8.146  47.354 103.093  1.00  0.00     0.004 C 
BRANCH  14  15
ATOM     15  C   UNL     1      -9.622  47.203 103.507  1.00  0.00     0.000 C 
BRANCH  15  16
ATOM     16  C   UNL     1     -10.601  47.697 102.426  1.00  0.00     0.000 C 
BRANCH  16  17
ATOM     17  C   UNL     1     -10.046  48.891 101.631  1.00  0.00    -0.000 C 
BRANCH  17  18
ATOM     18  C   UNL     1     -10.480  48.869 100.155  1.00  0.00    -0.000 C 
BRANCH  18  19
ATOM     19  C   UNL     1     -10.046  47.584  99.433  1.00  0.00    -0.003 C 
ATOM     20  C   UNL     1      -8.624  47.667  98.877  1.00  0.00     0.004 C 
ENDBRANCH  18  19
ENDBRANCH  17  18
ENDBRANCH  16  17
ENDBRANCH  15  16
ENDBRANCH  14  15
ENDBRANCH  13  14
ENDBRANCH   2  13
TORSDOF 15
ENDMDL
MODEL 5
REMARK VINA RESULT:    -2.741      1.461      3.852
REMARK INTER + INTRA:          -7.976
REMARK INTER:                  -5.266
REMARK INTRA:                  -2.710
REMARK UNBOUND:                -2.830
REMARK SMILES CCCCCCCCC=CCCCCCCCC(=O)[O-]
REMARK SMILES IDX 10 1 9 2 11 3 12 4 13 5 14 6 15 7 16 8 17 9 18 10 19 11
REMARK SMILES IDX 20 12 8 13 7 14 6 15 5 16 4 17 3 18 2 19 1 20
REMARK H PARENT
REMARK Flexibility Score: inf
ROOT
ATOM      1  C   UNL     1      -8.529  46.373 103.054  1.00  0.00    -0.031 C 
ATOM      2  C   UNL     1      -7.269  46.841 102.964  1.00  0.00    -0.031 C 
ENDROOT
BRANCH   1   3
ATOM      3  C   UNL     1      -9.741  47.185 103.445  1.00  0.00     0.027 C 
BRANCH   3   4
ATOM      4  C   UNL     1     -10.268  48.072 102.307  1.00  0.00     0.004 C 
BRANCH   4   5
ATOM      5  C   UNL     1     -11.688  47.686 101.871  1.00  0.00     0.000 C 
BRANCH   5   6
ATOM      6  C   UNL     1     -11.656  46.549 100.839  1.00  0.00     0.000 C 
BRANCH   6   7
ATOM      7  C   UNL     1     -12.292  45.247 101.359  1.00  0.00     0.000 C 
BRANCH   7   8
ATOM      8  C   UNL     1     -11.290  44.173 101.827  1.00  0.00     0.006 C 
BRANCH   8   9
ATOM      9  C   UNL     1     -11.426  43.776 103.305  1.00  0.00     0.053 C 
BRANCH   9  10
ATOM     10  C   UNL     1     -12.125  42.461 103.470  1.00  0.00     0.041 C 
ATOM     11  O   UNL     1     -13.326  42.332 103.116  1.00  0.00    -0.550 OA
ATOM     12  O   UNL     1     -11.457  41.387 104.046  1.00  0.00    -0.550 OA
ENDBRANCH   9  10
ENDBRANCH   8   9
ENDBRANCH   7   8
ENDBRANCH   6   7
ENDBRANCH   5   6
ENDBRANCH   4   5
ENDBRANCH   3   4
ENDBRANCH   1   3
BRANCH   2  13
ATOM     13  C   UNL     1      -6.835  48.254 103.277  1.00  0.00     0.027 C 
BRANCH  13  14
ATOM     14  C   UNL     1      -5.576  48.656 102.490  1.00  0.00     0.004 C 
BRANCH  14  15
ATOM     15  C   UNL     1      -5.803  49.727 101.406  1.00  0.00     0.000 C 
BRANCH  15  16
ATOM     16  C   UNL     1      -7.285  50.113 101.248  1.00  0.00     0.000 C 
BRANCH  16  17
ATOM     17  C   UNL     1      -7.887  49.610  99.926  1.00  0.00    -0.000 C 
BRANCH  17  18
ATOM     18  C   UNL     1      -7.322  48.243  99.502  1.00  0.00    -0.000 C 
BRANCH  18  19
ATOM     19  C   UNL     1      -8.403  47.153  99.439  1.00  0.00    -0.003 C 
ATOM     20  C   UNL     1      -7.823  45.755  99.219  1.00  0.00     0.004 C 
ENDBRANCH  18  19
ENDBRANCH  17  18
ENDBRANCH  16  17
ENDBRANCH  15  16
ENDBRANCH  14  15
ENDBRANCH  13  14
ENDBRANCH   2  13
TORSDOF 15
ENDMDL
MODEL 6
REMARK VINA RESULT:    -2.726      1.608      3.413
REMARK INTER + INTRA:          -7.948
REMARK INTER:                  -5.521
REMARK INTRA:                  -2.427
REMARK UNBOUND:                -2.830
REMARK SMILES CCCCCCCCC=CCCCCCCCC(=O)[O-]
REMARK SMILES IDX 10 1 9 2 11 3 12 4 13 5 14 6 15 7 16 8 17 9 18 10 19 11
REMARK SMILES IDX 20 12 8 13 7 14 6 15 5 16 4 17 3 18 2 19 1 20
REMARK H PARENT
REMARK Flexibility Score: inf
ROOT
ATOM      1  C   UNL     1      -6.931  45.267 101.819  1.00  0.00    -0.031 C 
ATOM      2  C   UNL     1      -6.794  46.353 102.603  1.00  0.00    -0.031 C 
ENDROOT
BRANCH   1   3
ATOM      3  C   UNL     1      -8.059  45.025 100.844  1.00  0.00     0.027 C 
BRANCH   3   4
ATOM      4  C   UNL     1      -9.145  44.089 101.396  1.00  0.00     0.004 C 
BRANCH   4   5
ATOM      5  C   UNL     1     -10.489  44.256 100.670  1.00  0.00     0.000 C 
BRANCH   5   6
ATOM      6  C   UNL     1     -11.648  44.334 101.674  1.00  0.00     0.000 C 
BRANCH   6   7
ATOM      7  C   UNL     1     -11.225  43.976 103.110  1.00  0.00     0.000 C 
BRANCH   7   8
ATOM      8  C   UNL     1     -11.990  42.796 103.741  1.00  0.00     0.006 C 
BRANCH   8   9
ATOM      9  C   UNL     1     -11.479  41.409 103.323  1.00  0.00     0.053 C 
BRANCH   9  10
ATOM     10  C   UNL     1     -12.527  40.619 102.601  1.00  0.00     0.041 C 
ATOM     11  O   UNL     1     -12.669  39.390 102.835  1.00  0.00    -0.550 OA
ATOM     12  O   UNL     1     -13.325  41.234 101.644  1.00  0.00    -0.550 OA
ENDBRANCH   9  10
ENDBRANCH   8   9
ENDBRANCH   7   8
ENDBRANCH   6   7
ENDBRANCH   5   6
ENDBRANCH   4   5
ENDBRANCH   3   4
ENDBRANCH   1   3
BRANCH   2  13
ATOM     13  C   UNL     1      -7.766  47.507 102.679  1.00  0.00     0.027 C 
BRANCH  13  14
ATOM     14  C   UNL     1      -9.056  47.125 103.424  1.00  0.00     0.004 C 
BRANCH  14  15
ATOM     15  C   UNL     1     -10.358  47.605 102.755  1.00  0.00     0.000 C 
BRANCH  15  16
ATOM     16  C   UNL     1     -10.154  48.039 101.293  1.00  0.00     0.000 C 
BRANCH  16  17
ATOM     17  C   UNL     1     -11.476  48.113 100.510  1.00  0.00    -0.000 C 
BRANCH  17  18
ATOM     18  C   UNL     1     -12.699  47.794 101.387  1.00  0.00    -0.000 C 
BRANCH  18  19
ATOM     19  C   UNL     1     -13.566  49.032 101.661  1.00  0.00    -0.003 C 
ATOM     20  C   UNL     1     -13.943  49.786 100.386  1.00  0.00     0.004 C 
ENDBRANCH  18  19
ENDBRANCH  17  18
ENDBRANCH  16  17
ENDBRANCH  15  16
ENDBRANCH  14  15
ENDBRANCH  13  14
ENDBRANCH   2  13
TORSDOF 15
ENDMDL
MODEL 7
REMARK VINA RESULT:    -2.722     15.053     17.187
REMARK INTER + INTRA:          -7.939
REMARK INTER:                  -4.930
REMARK INTRA:                  -3.010
REMARK UNBOUND:                -2.830
REMARK SMILES CCCCCCCCC=CCCCCCCCC(=O)[O-]
REMARK SMILES IDX 10 1 9 2 11 3 12 4 13 5 14 6 15 7 16 8 17 9 18 10 19 11
REMARK SMILES IDX 20 12 8 13 7 14 6 15 5 16 4 17 3 18 2 19 1 20
REMARK H PARENT
REMARK Flexibility Score: inf
ROOT
ATOM      1  C   UNL     1      -6.507  47.565  87.882  1.00  0.00    -0.031 C 
ATOM      2  C   UNL     1      -6.858  47.209  86.632  1.00  0.00    -0.031 C 
ENDROOT
BRANCH   1   3
ATOM      3  C   UNL     1      -5.176  48.155  88.286  1.00  0.00     0.027 C 
BRANCH   3   4
ATOM      4  C   UNL     1      -5.099  49.675  88.080  1.00  0.00     0.004 C 
BRANCH   4   5
ATOM      5  C   UNL     1      -4.055  50.073  87.026  1.00  0.00     0.000 C 
BRANCH   5   6
ATOM      6  C   UNL     1      -4.726  50.717  85.805  1.00  0.00     0.000 C 
BRANCH   6   7
ATOM      7  C   UNL     1      -6.054  51.417  86.147  1.00  0.00     0.000 C 
BRANCH   7   8
ATOM      8  C   UNL     1      -7.300  50.826  85.457  1.00  0.00     0.006 C 
BRANCH   8   9
ATOM      9  C   UNL     1      -8.550  50.760  86.348  1.00  0.00     0.053 C 
BRANCH   9  10
ATOM     10  C   UNL     1      -9.606  51.724  85.903  1.00  0.00     0.041 C 
ATOM     11  O   UNL     1      -9.284  52.803  85.340  1.00  0.00    -0.550 OA
ATOM     12  O   UNL     1     -10.946  51.446  86.143  1.00  0.00    -0.550 OA
ENDBRANCH   9  10
ENDBRANCH   8   9
ENDBRANCH   7   8
ENDBRANCH   6   7
ENDBRANCH   5   6
ENDBRANCH   4   5
ENDBRANCH   3   4
ENDBRANCH   1   3
BRANCH   2  13
ATOM     13  C   UNL     1      -5.970  47.299  85.413  1.00  0.00     0.027 C 
BRANCH  13  14
ATOM     14  C   UNL     1      -4.861  46.232  85.430  1.00  0.00     0.004 C 
BRANCH  14  15
ATOM     15  C   UNL     1      -3.425  46.788  85.394  1.00  0.00     0.000 C 
BRANCH  15  16
ATOM     16  C   UNL     1      -2.541  46.233  86.525  1.00  0.00     0.000 C 
BRANCH  16  17
ATOM     17  C   UNL     1      -2.964  44.823  86.966  1.00  0.00    -0.000 C 
BRANCH  17  18
ATOM     18  C   UNL     1      -3.429  44.778  88.432  1.00  0.00    -0.000 C 
BRANCH  18  19
ATOM     19  C   UNL     1      -4.898  44.349  88.571  1.00  0.00    -0.003 C 
ATOM     20  C   UNL     1      -5.273  43.204  87.629  1.00  0.00     0.004 C 
ENDBRANCH  18  19
ENDBRANCH  17  18
ENDBRANCH  16  17
ENDBRANCH  15  16
ENDBRANCH  14  15
ENDBRANCH  13  14
ENDBRANCH   2  13
TORSDOF 15
ENDMDL
MODEL 8
REMARK VINA RESULT:    -2.713      1.850      3.513
REMARK INTER + INTRA:          -7.923
REMARK INTER:                  -5.439
REMARK INTRA:                  -2.483
REMARK UNBOUND:                -2.830
REMARK SMILES CCCCCCCCC=CCCCCCCCC(=O)[O-]
REMARK SMILES IDX 10 1 9 2 11 3 12 4 13 5 14 6 15 7 16 8 17 9 18 10 19 11
REMARK SMILES IDX 20 12 8 13 7 14 6 15 5 16 4 17 3 18 2 19 1 20
REMARK H PARENT
REMARK Flexibility Score: inf
ROOT
ATOM      1  C   UNL     1     -10.559  47.514 102.247  1.00  0.00    -0.031 C 
ATOM      2  C   UNL     1      -9.865  47.139 103.339  1.00  0.00    -0.031 C 
ENDROOT
BRANCH   1   3
ATOM      3  C   UNL     1     -10.344  46.989 100.847  1.00  0.00     0.027 C 
BRANCH   3   4
ATOM      4  C   UNL     1     -11.071  45.663 100.579  1.00  0.00     0.004 C 
BRANCH   4   5
ATOM      5  C   UNL     1     -12.499  45.651 101.145  1.00  0.00     0.000 C 
BRANCH   5   6
ATOM      6  C   UNL     1     -12.807  44.312 101.830  1.00  0.00     0.000 C 
BRANCH   6   7
ATOM      7  C   UNL     1     -11.679  43.843 102.766  1.00  0.00     0.000 C 
BRANCH   7   8
ATOM      8  C   UNL     1     -12.044  42.660 103.686  1.00  0.00     0.006 C 
BRANCH   8   9
ATOM      9  C   UNL     1     -11.374  41.330 103.309  1.00  0.00     0.053 C 
BRANCH   9  10
ATOM     10  C   UNL     1     -12.144  40.593 102.257  1.00  0.00     0.041 C 
ATOM     11  O   UNL     1     -11.951  40.842 101.038  1.00  0.00    -0.550 OA
ATOM     12  O   UNL     1     -13.101  39.654 102.625  1.00  0.00    -0.550 OA
ENDBRANCH   9  10
ENDBRANCH   8   9
ENDBRANCH   7   8
ENDBRANCH   6   7
ENDBRANCH   5   6
ENDBRANCH   4   5
ENDBRANCH   3   4
ENDBRANCH   1   3
BRANCH   2  13
ATOM     13  C   UNL     1      -8.718  46.155 103.352  1.00  0.00     0.027 C 
BRANCH  13  14
ATOM     14  C   UNL     1      -7.380  46.826 103.000  1.00  0.00     0.004 C 
BRANCH  14  15
ATOM     15  C   UNL     1      -6.417  45.956 102.169  1.00  0.00     0.000 C 
BRANCH  15  16
ATOM     16  C   UNL     1      -7.069  45.392 100.895  1.00  0.00     0.000 C 
BRANCH  16  17
ATOM     17  C   UNL     1      -7.043  43.856 100.850  1.00  0.00    -0.000 C 
BRANCH  17  18
ATOM     18  C   UNL     1      -8.432  43.235 101.078  1.00  0.00    -0.000 C 
BRANCH  18  19
ATOM     19  C   UNL     1      -8.383  41.702 101.174  1.00  0.00    -0.003 C 
ATOM     20  C   UNL     1      -6.986  41.172 101.501  1.00  0.00     0.004 C 
ENDBRANCH  18  19
ENDBRANCH  17  18
ENDBRANCH  16  17
ENDBRANCH  15  16
ENDBRANCH  14  15
ENDBRANCH  13  14
ENDBRANCH   2  13
TORSDOF 15
ENDMDL
MODEL 9
REMARK VINA RESULT:    -2.677      3.738      6.558
REMARK INTER + INTRA:          -7.855
REMARK INTER:                  -5.058
REMARK INTRA:                  -2.797
REMARK UNBOUND:                -2.830
REMARK SMILES CCCCCCCCC=CCCCCCCCC(=O)[O-]
REMARK SMILES IDX 10 1 9 2 11 3 12 4 13 5 14 6 15 7 16 8 17 9 18 10 19 11
REMARK SMILES IDX 20 12 8 13 7 14 6 15 5 16 4 17 3 18 2 19 1 20
REMARK H PARENT
REMARK Flexibility Score: inf
ROOT
ATOM      1  C   UNL     1      -9.829  48.193 102.211  1.00  0.00    -0.031 C 
ATOM      2  C   UNL     1     -10.920  48.579 101.524  1.00  0.00    -0.031 C 
ENDROOT
BRANCH   1   3
ATOM      3  C   UNL     1      -9.796  47.126 103.280  1.00  0.00     0.027 C 
BRANCH   3   4
ATOM      4  C   UNL     1      -8.747  46.036 103.017  1.00  0.00     0.004 C 
BRANCH   4   5
ATOM      5  C   UNL     1      -8.437  45.868 101.523  1.00  0.00     0.000 C 
BRANCH   5   6
ATOM      6  C   UNL     1      -6.936  45.635 101.296  1.00  0.00     0.000 C 
BRANCH   6   7
ATOM      7  C   UNL     1      -6.075  46.055 102.500  1.00  0.00     0.000 C 
BRANCH   7   8
ATOM      8  C   UNL     1      -5.273  47.358 102.307  1.00  0.00     0.006 C 
BRANCH   8   9
ATOM      9  C   UNL     1      -6.080  48.643 102.549  1.00  0.00     0.053 C 
BRANCH   9  10
ATOM     10  C   UNL     1      -6.161  49.493 101.318  1.00  0.00     0.041 C 
ATOM     11  O   UNL     1      -5.383  50.471 101.169  1.00  0.00    -0.550 OA
ATOM     12  O   UNL     1      -7.122  49.224 100.351  1.00  0.00    -0.550 OA
ENDBRANCH   9  10
ENDBRANCH   8   9
ENDBRANCH   7   8
ENDBRANCH   6   7
ENDBRANCH   5   6
ENDBRANCH   4   5
ENDBRANCH   3   4
ENDBRANCH   1   3
BRANCH   2  13
ATOM     13  C   UNL     1     -12.318  48.043 101.727  1.00  0.00     0.027 C 
BRANCH  13  14
ATOM     14  C   UNL     1     -12.722  47.054 100.620  1.00  0.00     0.004 C 
BRANCH  14  15
ATOM     15  C   UNL     1     -13.092  45.643 101.115  1.00  0.00     0.000 C 
BRANCH  15  16
ATOM     16  C   UNL     1     -11.871  44.715 101.246  1.00  0.00     0.000 C 
BRANCH  16  17
ATOM     17  C   UNL     1     -11.794  44.033 102.622  1.00  0.00    -0.000 C 
BRANCH  17  18
ATOM     18  C   UNL     1     -10.995  42.719 102.585  1.00  0.00    -0.000 C 
BRANCH  18  19
ATOM     19  C   UNL     1     -10.207  42.545 101.278  1.00  0.00    -0.003 C 
ATOM     20  C   UNL     1      -8.769  42.080 101.509  1.00  0.00     0.004 C 
ENDBRANCH  18  19
ENDBRANCH  17  18
ENDBRANCH  16  17
ENDBRANCH  15  16
ENDBRANCH  14  15
ENDBRANCH  13  14
ENDBRANCH   2  13
TORSDOF 15
ENDMDL
