MODEL 1
REMARK VINA RESULT:    -7.838      0.000      0.000
REMARK INTER + INTRA:         -15.322
REMARK INTER:                 -12.878
REMARK INTRA:                  -2.444
REMARK UNBOUND:                -2.444
REMARK SMILES C[C@@H]1O[C@H](OC[C@@H]2O[C@H](Oc3c(-c4ccc(O)c(O)c4)oc4cc(O)cc(O)c4c3=O)[C@H](O)[C@@H](O)[C@@H]2O)[C@@H](O)[C@@H](O)[C@@H]1O
REMARK SMILES IDX 7 1 36 2 34 3 32 4 9 5 8 6 6 7 5 8 4 9 1 10 2 11 42 12 3 13
REMARK SMILES IDX 40 14 38 15 43 16 41 18 39 20 37 22 35 24 10 26 11 27 12 28
REMARK SMILES IDX 30 29 21 30 29 31 31 32 22 33 27 34 23 35 26 36 24 37 13 38
REMARK SMILES IDX 20 39 14 40 18 41 15 42 16 43 19 44 17 46 28 48 25 50 33 52
REMARK H PARENT 43 17 41 19 39 21 37 23 35 25 19 45 17 47 28 49 25 51 33 53
REMARK Flexibility Score: inf
ROOT
ATOM      1  C   UNL     1       2.480 -22.712  26.319  1.00  0.00     0.180 C 
ATOM      2  C   UNL     1       2.211 -23.693  25.145  1.00  0.00     0.177 C 
ATOM      3  C   UNL     1       1.087 -23.193  24.235  1.00  0.00     0.180 C 
ATOM      4  C   UNL     1       1.348 -21.744  23.838  1.00  0.00     0.214 C 
ATOM      5  C   UNL     1       1.602 -20.870  25.076  1.00  0.00     0.339 C 
ATOM      6  O   UNL     1       2.650 -21.362  25.901  1.00  0.00    -0.332 OA
ENDROOT
BRANCH   1   7
ATOM      7  C   UNL     1       1.515 -22.838  27.507  1.00  0.00     0.198 C 
BRANCH   7   8
ATOM      8  O   UNL     1       2.262 -22.797  28.720  1.00  0.00    -0.347 OA
BRANCH   8   9
ATOM      9  C   UNL     1       2.354 -24.067  29.342  1.00  0.00     0.281 C 
ATOM     10  C   UNL     1       4.125 -27.141  28.351  1.00  0.00     0.041 C 
ATOM     11  C   UNL     1       3.023 -26.313  29.050  1.00  0.00     0.150 C 
ATOM     12  C   UNL     1       3.098 -26.422  30.613  1.00  0.00     0.174 C 
ATOM     13  O   UNL     1       3.148 -24.969  28.573  1.00  0.00    -0.344 OA
ATOM     14  C   UNL     1       3.753 -25.147  31.179  1.00  0.00     0.179 C 
ATOM     15  C   UNL     1       2.888 -23.923  30.802  1.00  0.00     0.202 C 
BRANCH  12  16
ATOM     16  O   UNL     1       3.811 -27.569  31.019  1.00  0.00    -0.388 OA
ATOM     17  H   UNL     1       3.637 -28.275  30.340  1.00  0.00     0.211 HD
ENDBRANCH  12  16
BRANCH  14  18
ATOM     18  O   UNL     1       3.913 -25.224  32.578  1.00  0.00    -0.387 OA
ATOM     19  H   UNL     1       3.392 -24.470  32.962  1.00  0.00     0.211 HD
ENDBRANCH  14  18
BRANCH  15  20
ATOM     20  O   UNL     1       1.784 -23.819  31.659  1.00  0.00    -0.385 OA
ATOM     21  H   UNL     1       0.977 -23.978  31.098  1.00  0.00     0.211 HD
ENDBRANCH  15  20
ENDBRANCH   8   9
ENDBRANCH   7   8
ENDBRANCH   1   7
BRANCH   2  22
ATOM     22  O   UNL     1       1.889 -24.960  25.639  1.00  0.00    -0.387 OA
ATOM     23  H   UNL     1       2.591 -25.189  26.316  1.00  0.00     0.211 HD
ENDBRANCH   2  22
BRANCH   3  24
ATOM     24  O   UNL     1       1.039 -23.964  23.065  1.00  0.00    -0.387 OA
ATOM     25  H   UNL     1       1.908 -23.837  22.587  1.00  0.00     0.211 HD
ENDBRANCH   3  24
BRANCH   5  26
ATOM     26  O   UNL     1       0.387 -20.692  25.810  1.00  0.00    -0.454 OA
BRANCH  26  27
ATOM     27  C   UNL     1      -0.133 -19.434  26.155  1.00  0.00     0.214 A 
ATOM     28  C   UNL     1      -0.765 -19.263  27.399  1.00  0.00     0.180 A 
ATOM     29  C   UNL     1      -0.077 -18.346  25.268  1.00  0.00     0.239 A 
ATOM     30  O   UNL     1      -1.342 -18.099  27.692  1.00  0.00    -0.452 OA
ATOM     31  C   UNL     1      -0.702 -17.132  25.610  1.00  0.00     0.111 A 
ATOM     32  O   UNL     1       0.545 -18.463  24.179  1.00  0.00    -0.285 OA
ATOM     33  C   UNL     1      -1.345 -17.059  26.868  1.00  0.00     0.146 A 
ATOM     34  C   UNL     1      -0.732 -16.005  24.753  1.00  0.00     0.134 A 
ATOM     35  C   UNL     1      -1.999 -15.889  27.257  1.00  0.00     0.094 A 
ATOM     36  C   UNL     1      -1.414 -14.843  25.156  1.00  0.00     0.093 A 
ATOM     37  C   UNL     1      -2.048 -14.789  26.404  1.00  0.00     0.123 A 
BRANCH  28  38
ATOM     38  C   UNL     1      -0.855 -20.359  28.394  1.00  0.00     0.025 A 
ATOM     39  C   UNL     1      -0.107 -20.330  29.588  1.00  0.00     0.062 A 
ATOM     40  C   UNL     1      -1.733 -21.426  28.163  1.00  0.00     0.016 A 
ATOM     41  C   UNL     1      -0.233 -21.360  30.529  1.00  0.00     0.158 A 
ATOM     42  C   UNL     1      -1.857 -22.456  29.097  1.00  0.00     0.051 A 
ATOM     43  C   UNL     1      -1.115 -22.423  30.283  1.00  0.00     0.157 A 
BRANCH  41  44
ATOM     44  O   UNL     1       0.512 -21.327  31.710  1.00  0.00    -0.504 OA
ATOM     45  H   UNL     1       1.073 -22.116  32.011  1.00  0.00     0.293 HD
ENDBRANCH  41  44
BRANCH  43  46
ATOM     46  O   UNL     1      -1.283 -23.445  31.215  1.00  0.00    -0.504 OA
ATOM     47  H   UNL     1      -0.497 -23.924  31.632  1.00  0.00     0.293 HD
ENDBRANCH  43  46
ENDBRANCH  28  38
BRANCH  34  48
ATOM     48  O   UNL     1      -0.104 -16.027  23.505  1.00  0.00    -0.507 OA
ATOM     49  H   UNL     1       0.109 -16.904  23.031  1.00  0.00     0.293 HD
ENDBRANCH  34  48
BRANCH  37  50
ATOM     50  O   UNL     1      -2.741 -13.649  26.806  1.00  0.00    -0.508 OA
ATOM     51  H   UNL     1      -2.472 -12.732  26.496  1.00  0.00     0.293 HD
ENDBRANCH  37  50
ENDBRANCH  26  27
ENDBRANCH   5  26
BRANCH   4  52
ATOM     52  O   UNL     1       0.223 -21.282  23.124  1.00  0.00    -0.384 OA
ATOM     53  H   UNL     1      -0.570 -21.367  23.730  1.00  0.00     0.211 HD
ENDBRANCH   4  52
TORSDOF 16
ENDMDL
MODEL 2
REMARK VINA RESULT:    -7.739      2.656      9.345
REMARK INTER + INTRA:         -15.160
REMARK INTER:                 -12.547
REMARK INTRA:                  -2.613
REMARK UNBOUND:                -2.444
REMARK SMILES C[C@@H]1O[C@H](OC[C@@H]2O[C@H](Oc3c(-c4ccc(O)c(O)c4)oc4cc(O)cc(O)c4c3=O)[C@H](O)[C@@H](O)[C@@H]2O)[C@@H](O)[C@@H](O)[C@@H]1O
REMARK SMILES IDX 7 1 36 2 34 3 32 4 9 5 8 6 6 7 5 8 4 9 1 10 2 11 42 12 3 13
REMARK SMILES IDX 40 14 38 15 43 16 41 18 39 20 37 22 35 24 10 26 11 27 12 28
REMARK SMILES IDX 30 29 21 30 29 31 31 32 22 33 27 34 23 35 26 36 24 37 13 38
REMARK SMILES IDX 20 39 14 40 18 41 15 42 16 43 19 44 17 46 28 48 25 50 33 52
REMARK H PARENT 43 17 41 19 39 21 37 23 35 25 19 45 17 47 28 49 25 51 33 53
REMARK Flexibility Score: inf
ROOT
ATOM      1  C   UNL     1       0.836 -18.063  27.804  1.00  0.00     0.180 C 
ATOM      2  C   UNL     1       0.932 -17.080  29.003  1.00  0.00     0.177 C 
ATOM      3  C   UNL     1       0.622 -17.774  30.332  1.00  0.00     0.180 C 
ATOM      4  C   UNL     1       1.450 -19.049  30.455  1.00  0.00     0.214 C 
ATOM      5  C   UNL     1       1.278 -19.940  29.215  1.00  0.00     0.339 C 
ATOM      6  O   UNL     1       1.571 -19.266  27.999  1.00  0.00    -0.332 OA
ENDROOT
BRANCH   1   7
ATOM      7  C   UNL     1      -0.587 -18.326  27.291  1.00  0.00     0.198 C 
BRANCH   7   8
ATOM      8  O   UNL     1      -0.626 -18.092  25.886  1.00  0.00    -0.347 OA
BRANCH   8   9
ATOM      9  C   UNL     1      -1.071 -16.785  25.566  1.00  0.00     0.281 C 
ATOM     10  C   UNL     1      -2.717 -14.204  27.614  1.00  0.00     0.041 C 
ATOM     11  C   UNL     1      -2.361 -14.952  26.309  1.00  0.00     0.150 C 
ATOM     12  C   UNL     1      -1.536 -14.058  25.317  1.00  0.00     0.174 C 
ATOM     13  O   UNL     1      -1.674 -16.148  26.691  1.00  0.00    -0.344 OA
ATOM     14  C   UNL     1      -0.049 -14.457  25.393  1.00  0.00     0.179 C 
ATOM     15  C   UNL     1       0.100 -15.937  24.978  1.00  0.00     0.202 C 
BRANCH  12  16
ATOM     16  O   UNL     1      -1.698 -12.686  25.600  1.00  0.00    -0.388 OA
ATOM     17  H   UNL     1      -1.844 -12.605  26.580  1.00  0.00     0.211 HD
ENDBRANCH  12  16
BRANCH  14  18
ATOM     18  O   UNL     1       0.750 -13.632  24.574  1.00  0.00    -0.387 OA
ATOM     19  H   UNL     1       1.656 -13.626  24.982  1.00  0.00     0.211 HD
ENDBRANCH  14  18
BRANCH  15  20
ATOM     20  O   UNL     1       0.067 -16.062  23.582  1.00  0.00    -0.385 OA
ATOM     21  H   UNL     1      -0.894 -16.113  23.327  1.00  0.00     0.211 HD
ENDBRANCH  15  20
ENDBRANCH   8   9
ENDBRANCH   7   8
ENDBRANCH   1   7
BRANCH   2  22
ATOM     22  O   UNL     1       0.057 -16.006  28.818  1.00  0.00    -0.387 OA
ATOM     23  H   UNL     1      -0.674 -16.115  29.495  1.00  0.00     0.211 HD
ENDBRANCH   2  22
BRANCH   3  24
ATOM     24  O   UNL     1       0.956 -16.932  31.402  1.00  0.00    -0.387 OA
ATOM     25  H   UNL     1       1.652 -17.401  31.945  1.00  0.00     0.211 HD
ENDBRANCH   3  24
BRANCH   5  26
ATOM     26  O   UNL     1      -0.031 -20.517  29.201  1.00  0.00    -0.454 OA
BRANCH  26  27
ATOM     27  C   UNL     1      -0.282 -21.876  29.449  1.00  0.00     0.214 A 
ATOM     28  C   UNL     1      -0.015 -22.824  28.446  1.00  0.00     0.180 A 
ATOM     29  C   UNL     1      -0.836 -22.312  30.664  1.00  0.00     0.239 A 
ATOM     30  O   UNL     1      -0.339 -24.101  28.641  1.00  0.00    -0.452 OA
ATOM     31  C   UNL     1      -1.169 -23.669  30.833  1.00  0.00     0.111 A 
ATOM     32  O   UNL     1      -1.017 -21.485  31.597  1.00  0.00    -0.285 OA
ATOM     33  C   UNL     1      -0.898 -24.548  29.758  1.00  0.00     0.146 A 
ATOM     34  C   UNL     1      -1.774 -24.181  32.007  1.00  0.00     0.134 A 
ATOM     35  C   UNL     1      -1.223 -25.902  29.858  1.00  0.00     0.094 A 
ATOM     36  C   UNL     1      -2.111 -25.543  32.079  1.00  0.00     0.093 A 
ATOM     37  C   UNL     1      -1.838 -26.399  31.004  1.00  0.00     0.123 A 
BRANCH  28  38
ATOM     38  C   UNL     1       0.579 -22.444  27.141  1.00  0.00     0.025 A 
ATOM     39  C   UNL     1      -0.153 -21.707  26.188  1.00  0.00     0.062 A 
ATOM     40  C   UNL     1       1.908 -22.790  26.865  1.00  0.00     0.016 A 
ATOM     41  C   UNL     1       0.439 -21.331  24.976  1.00  0.00     0.158 A 
ATOM     42  C   UNL     1       2.498 -22.420  25.654  1.00  0.00     0.051 A 
ATOM     43  C   UNL     1       1.770 -21.686  24.712  1.00  0.00     0.157 A 
BRANCH  41  44
ATOM     44  O   UNL     1      -0.291 -20.601  24.035  1.00  0.00    -0.504 OA
ATOM     45  H   UNL     1      -0.109 -19.619  23.860  1.00  0.00     0.293 HD
ENDBRANCH  41  44
BRANCH  43  46
ATOM     46  O   UNL     1       2.393 -21.298  23.528  1.00  0.00    -0.504 OA
ATOM     47  H   UNL     1       1.873 -20.926  22.745  1.00  0.00     0.293 HD
ENDBRANCH  43  46
ENDBRANCH  28  38
BRANCH  34  48
ATOM     48  O   UNL     1      -2.052 -23.352  33.098  1.00  0.00    -0.507 OA
ATOM     49  H   UNL     1      -2.147 -22.343  32.990  1.00  0.00     0.293 HD
ENDBRANCH  34  48
BRANCH  37  50
ATOM     50  O   UNL     1      -2.185 -27.748  31.057  1.00  0.00    -0.508 OA
ATOM     51  H   UNL     1      -2.969 -28.070  31.597  1.00  0.00     0.293 HD
ENDBRANCH  37  50
ENDBRANCH  26  27
ENDBRANCH   5  26
BRANCH   4  52
ATOM     52  O   UNL     1       1.029 -19.727  31.618  1.00  0.00    -0.384 OA
ATOM     53  H   UNL     1       0.451 -19.096  32.138  1.00  0.00     0.211 HD
ENDBRANCH   4  52
TORSDOF 16
ENDMDL
MODEL 3
REMARK VINA RESULT:    -7.612      1.348      1.853
REMARK INTER + INTRA:         -14.951
REMARK INTER:                 -12.630
REMARK INTRA:                  -2.321
REMARK UNBOUND:                -2.444
REMARK SMILES C[C@@H]1O[C@H](OC[C@@H]2O[C@H](Oc3c(-c4ccc(O)c(O)c4)oc4cc(O)cc(O)c4c3=O)[C@H](O)[C@@H](O)[C@@H]2O)[C@@H](O)[C@@H](O)[C@@H]1O
REMARK SMILES IDX 7 1 36 2 34 3 32 4 9 5 8 6 6 7 5 8 4 9 1 10 2 11 42 12 3 13
REMARK SMILES IDX 40 14 38 15 43 16 41 18 39 20 37 22 35 24 10 26 11 27 12 28
REMARK SMILES IDX 30 29 21 30 29 31 31 32 22 33 27 34 23 35 26 36 24 37 13 38
REMARK SMILES IDX 20 39 14 40 18 41 15 42 16 43 19 44 17 46 28 48 25 50 33 52
REMARK H PARENT 43 17 41 19 39 21 37 23 35 25 19 45 17 47 28 49 25 51 33 53
REMARK Flexibility Score: inf
ROOT
ATOM      1  C   UNL     1       2.318 -22.909  26.536  1.00  0.00     0.180 C 
ATOM      2  C   UNL     1       1.879 -23.877  25.402  1.00  0.00     0.177 C 
ATOM      3  C   UNL     1       0.760 -23.278  24.547  1.00  0.00     0.180 C 
ATOM      4  C   UNL     1       1.144 -21.870  24.103  1.00  0.00     0.214 C 
ATOM      5  C   UNL     1       1.560 -21.007  25.304  1.00  0.00     0.339 C 
ATOM      6  O   UNL     1       2.599 -21.591  26.078  1.00  0.00    -0.332 OA
ENDROOT
BRANCH   1   7
ATOM      7  C   UNL     1       1.418 -22.914  27.780  1.00  0.00     0.198 C 
BRANCH   7   8
ATOM      8  O   UNL     1       2.190 -23.308  28.912  1.00  0.00    -0.347 OA
BRANCH   8   9
ATOM      9  C   UNL     1       1.650 -24.442  29.568  1.00  0.00     0.281 C 
ATOM     10  C   UNL     1      -1.752 -25.854  29.587  1.00  0.00     0.041 C 
ATOM     11  C   UNL     1      -0.345 -25.561  30.156  1.00  0.00     0.150 C 
ATOM     12  C   UNL     1       0.515 -26.864  30.316  1.00  0.00     0.174 C 
ATOM     13  O   UNL     1       0.258 -24.592  29.292  1.00  0.00    -0.344 OA
ATOM     14  C   UNL     1       1.522 -26.953  29.153  1.00  0.00     0.179 C 
ATOM     15  C   UNL     1       2.458 -25.725  29.198  1.00  0.00     0.202 C 
BRANCH  12  16
ATOM     16  O   UNL     1      -0.295 -28.017  30.362  1.00  0.00    -0.388 OA
ATOM     17  H   UNL     1       0.116 -28.687  29.753  1.00  0.00     0.211 HD
ENDBRANCH  12  16
BRANCH  14  18
ATOM     18  O   UNL     1       2.272 -28.146  29.208  1.00  0.00    -0.387 OA
ATOM     19  H   UNL     1       2.409 -28.434  28.267  1.00  0.00     0.211 HD
ENDBRANCH  14  18
BRANCH  15  20
ATOM     20  O   UNL     1       3.456 -25.903  30.166  1.00  0.00    -0.385 OA
ATOM     21  H   UNL     1       4.250 -25.394  29.848  1.00  0.00     0.211 HD
ENDBRANCH  15  20
ENDBRANCH   8   9
ENDBRANCH   7   8
ENDBRANCH   1   7
BRANCH   2  22
ATOM     22  O   UNL     1       1.459 -25.094  25.943  1.00  0.00    -0.387 OA
ATOM     23  H   UNL     1       1.758 -25.100  26.899  1.00  0.00     0.211 HD
ENDBRANCH   2  22
BRANCH   3  24
ATOM     24  O   UNL     1       0.563 -24.059  23.400  1.00  0.00    -0.387 OA
ATOM     25  H   UNL     1      -0.070 -23.563  22.806  1.00  0.00     0.211 HD
ENDBRANCH   3  24
BRANCH   5  26
ATOM     26  O   UNL     1       0.416 -20.691  26.103  1.00  0.00    -0.454 OA
BRANCH  26  27
ATOM     27  C   UNL     1      -0.031 -19.380  26.333  1.00  0.00     0.214 A 
ATOM     28  C   UNL     1      -0.491 -19.020  27.612  1.00  0.00     0.180 A 
ATOM     29  C   UNL     1      -0.070 -18.425  25.304  1.00  0.00     0.239 A 
ATOM     30  O   UNL     1      -1.003 -17.807  27.812  1.00  0.00    -0.452 OA
ATOM     31  C   UNL     1      -0.622 -17.153  25.552  1.00  0.00     0.111 A 
ATOM     32  O   UNL     1       0.402 -18.710  24.172  1.00  0.00    -0.285 OA
ATOM     33  C   UNL     1      -1.094 -16.888  26.860  1.00  0.00     0.146 A 
ATOM     34  C   UNL     1      -0.743 -16.152  24.558  1.00  0.00     0.134 A 
ATOM     35  C   UNL     1      -1.669 -15.653  27.162  1.00  0.00     0.094 A 
ATOM     36  C   UNL     1      -1.344 -14.922  24.879  1.00  0.00     0.093 A 
ATOM     37  C   UNL     1      -1.808 -14.677  26.179  1.00  0.00     0.123 A 
BRANCH  28  38
ATOM     38  C   UNL     1      -0.472 -19.968  28.752  1.00  0.00     0.025 A 
ATOM     39  C   UNL     1       0.563 -19.945  29.709  1.00  0.00     0.062 A 
ATOM     40  C   UNL     1      -1.525 -20.879  28.907  1.00  0.00     0.016 A 
ATOM     41  C   UNL     1       0.544 -20.828  30.796  1.00  0.00     0.158 A 
ATOM     42  C   UNL     1      -1.544 -21.763  29.987  1.00  0.00     0.051 A 
ATOM     43  C   UNL     1      -0.516 -21.736  30.936  1.00  0.00     0.157 A 
BRANCH  41  44
ATOM     44  O   UNL     1       1.573 -20.801  31.739  1.00  0.00    -0.504 OA
ATOM     45  H   UNL     1       1.437 -20.421  32.670  1.00  0.00     0.293 HD
ENDBRANCH  41  44
BRANCH  43  46
ATOM     46  O   UNL     1      -0.576 -22.604  32.024  1.00  0.00    -0.504 OA
ATOM     47  H   UNL     1       0.157 -22.645  32.718  1.00  0.00     0.293 HD
ENDBRANCH  43  46
ENDBRANCH  28  38
BRANCH  34  48
ATOM     48  O   UNL     1      -0.283 -16.365  23.256  1.00  0.00    -0.507 OA
ATOM     49  H   UNL     1       0.136 -15.615  22.709  1.00  0.00     0.293 HD
ENDBRANCH  34  48
BRANCH  37  50
ATOM     50  O   UNL     1      -2.421 -13.469  26.503  1.00  0.00    -0.508 OA
ATOM     51  H   UNL     1      -3.252 -13.156  26.032  1.00  0.00     0.293 HD
ENDBRANCH  37  50
ENDBRANCH  26  27
ENDBRANCH   5  26
BRANCH   4  52
ATOM     52  O   UNL     1       0.031 -21.306  23.445  1.00  0.00    -0.384 OA
ATOM     53  H   UNL     1       0.377 -20.585  22.841  1.00  0.00     0.211 HD
ENDBRANCH   4  52
TORSDOF 16
ENDMDL
MODEL 4
REMARK VINA RESULT:    -7.397      1.567      4.598
REMARK INTER + INTRA:         -14.598
REMARK INTER:                 -12.385
REMARK INTRA:                  -2.213
REMARK UNBOUND:                -2.444
REMARK SMILES C[C@@H]1O[C@H](OC[C@@H]2O[C@H](Oc3c(-c4ccc(O)c(O)c4)oc4cc(O)cc(O)c4c3=O)[C@H](O)[C@@H](O)[C@@H]2O)[C@@H](O)[C@@H](O)[C@@H]1O
REMARK SMILES IDX 7 1 36 2 34 3 32 4 9 5 8 6 6 7 5 8 4 9 1 10 2 11 42 12 3 13
REMARK SMILES IDX 40 14 38 15 43 16 41 18 39 20 37 22 35 24 10 26 11 27 12 28
REMARK SMILES IDX 30 29 21 30 29 31 31 32 22 33 27 34 23 35 26 36 24 37 13 38
REMARK SMILES IDX 20 39 14 40 18 41 15 42 16 43 19 44 17 46 28 48 25 50 33 52
REMARK H PARENT 43 17 41 19 39 21 37 23 35 25 19 45 17 47 28 49 25 51 33 53
REMARK Flexibility Score: inf
ROOT
ATOM      1  C   UNL     1       0.109 -23.297  28.698  1.00  0.00     0.180 C 
ATOM      2  C   UNL     1      -0.371 -23.609  30.142  1.00  0.00     0.177 C 
ATOM      3  C   UNL     1      -1.040 -22.395  30.791  1.00  0.00     0.180 C 
ATOM      4  C   UNL     1      -2.098 -21.822  29.853  1.00  0.00     0.214 C 
ATOM      5  C   UNL     1      -1.511 -21.556  28.458  1.00  0.00     0.339 C 
ATOM      6  O   UNL     1      -0.896 -22.702  27.883  1.00  0.00    -0.332 OA
ENDROOT
BRANCH   1   7
ATOM      7  C   UNL     1       1.450 -22.556  28.603  1.00  0.00     0.198 C 
BRANCH   7   8
ATOM      8  O   UNL     1       2.304 -23.251  27.699  1.00  0.00    -0.347 OA
BRANCH   8   9
ATOM      9  C   UNL     1       3.010 -24.308  28.323  1.00  0.00     0.281 C 
ATOM     10  C   UNL     1       4.019 -24.825  31.828  1.00  0.00     0.041 C 
ATOM     11  C   UNL     1       4.123 -24.983  30.294  1.00  0.00     0.150 C 
ATOM     12  C   UNL     1       3.898 -26.465  29.832  1.00  0.00     0.174 C 
ATOM     13  O   UNL     1       3.188 -24.066  29.718  1.00  0.00    -0.344 OA
ATOM     14  C   UNL     1       2.468 -26.609  29.274  1.00  0.00     0.179 C 
ATOM     15  C   UNL     1       2.302 -25.673  28.057  1.00  0.00     0.202 C 
BRANCH  12  16
ATOM     16  O   UNL     1       4.114 -27.375  30.887  1.00  0.00    -0.388 OA
ATOM     17  H   UNL     1       3.794 -28.265  30.575  1.00  0.00     0.211 HD
ENDBRANCH  12  16
BRANCH  14  18
ATOM     18  O   UNL     1       2.187 -27.944  28.911  1.00  0.00    -0.387 OA
ATOM     19  H   UNL     1       1.755 -27.905  28.018  1.00  0.00     0.211 HD
ENDBRANCH  14  18
BRANCH  15  20
ATOM     20  O   UNL     1       2.880 -26.245  26.914  1.00  0.00    -0.385 OA
ATOM     21  H   UNL     1       3.701 -26.716  27.220  1.00  0.00     0.211 HD
ENDBRANCH  15  20
ENDBRANCH   8   9
ENDBRANCH   7   8
ENDBRANCH   1   7
BRANCH   2  22
ATOM     22  O   UNL     1       0.704 -24.030  30.928  1.00  0.00    -0.387 OA
ATOM     23  H   UNL     1       1.075 -24.849  30.486  1.00  0.00     0.211 HD
ENDBRANCH   2  22
BRANCH   3  24
ATOM     24  O   UNL     1      -1.674 -22.777  31.982  1.00  0.00    -0.387 OA
ATOM     25  H   UNL     1      -2.476 -23.320  31.733  1.00  0.00     0.211 HD
ENDBRANCH   3  24
BRANCH   5  26
ATOM     26  O   UNL     1      -0.617 -20.441  28.505  1.00  0.00    -0.454 OA
BRANCH  26  27
ATOM     27  C   UNL     1      -0.848 -19.233  27.826  1.00  0.00     0.214 A 
ATOM     28  C   UNL     1      -0.303 -19.044  26.544  1.00  0.00     0.180 A 
ATOM     29  C   UNL     1      -1.578 -18.186  28.414  1.00  0.00     0.239 A 
ATOM     30  O   UNL     1      -0.440 -17.868  25.935  1.00  0.00    -0.452 OA
ATOM     31  C   UNL     1      -1.697 -16.955  27.742  1.00  0.00     0.111 A 
ATOM     32  O   UNL     1      -2.129 -18.364  29.532  1.00  0.00    -0.285 OA
ATOM     33  C   UNL     1      -1.088 -16.841  26.470  1.00  0.00     0.146 A 
ATOM     34  C   UNL     1      -2.374 -15.836  28.285  1.00  0.00     0.134 A 
ATOM     35  C   UNL     1      -1.155 -15.640  25.762  1.00  0.00     0.094 A 
ATOM     36  C   UNL     1      -2.412 -14.629  27.565  1.00  0.00     0.093 A 
ATOM     37  C   UNL     1      -1.801 -14.533  26.308  1.00  0.00     0.123 A 
BRANCH  28  38
ATOM     38  C   UNL     1       0.469 -20.105  25.852  1.00  0.00     0.025 A 
ATOM     39  C   UNL     1      -0.175 -21.127  25.126  1.00  0.00     0.062 A 
ATOM     40  C   UNL     1       1.869 -20.068  25.885  1.00  0.00     0.016 A 
ATOM     41  C   UNL     1       0.575 -22.099  24.452  1.00  0.00     0.158 A 
ATOM     42  C   UNL     1       2.619 -21.039  25.219  1.00  0.00     0.051 A 
ATOM     43  C   UNL     1       1.977 -22.051  24.497  1.00  0.00     0.157 A 
BRANCH  41  44
ATOM     44  O   UNL     1      -0.068 -23.110  23.736  1.00  0.00    -0.504 OA
ATOM     45  H   UNL     1       0.326 -24.041  23.651  1.00  0.00     0.293 HD
ENDBRANCH  41  44
BRANCH  43  46
ATOM     46  O   UNL     1       2.747 -22.987  23.811  1.00  0.00    -0.504 OA
ATOM     47  H   UNL     1       3.004 -22.864  22.841  1.00  0.00     0.293 HD
ENDBRANCH  43  46
ENDBRANCH  28  38
BRANCH  34  48
ATOM     48  O   UNL     1      -2.998 -15.903  29.534  1.00  0.00    -0.507 OA
ATOM     49  H   UNL     1      -3.425 -15.084  29.961  1.00  0.00     0.293 HD
ENDBRANCH  34  48
BRANCH  37  50
ATOM     50  O   UNL     1      -1.818 -13.337  25.593  1.00  0.00    -0.508 OA
ATOM     51  H   UNL     1      -1.220 -13.189  24.799  1.00  0.00     0.293 HD
ENDBRANCH  37  50
ENDBRANCH  26  27
ENDBRANCH   5  26
BRANCH   4  52
ATOM     52  O   UNL     1      -2.583 -20.628  30.426  1.00  0.00    -0.384 OA
ATOM     53  H   UNL     1      -2.513 -20.725  31.420  1.00  0.00     0.211 HD
ENDBRANCH   4  52
TORSDOF 16
ENDMDL
MODEL 5
REMARK VINA RESULT:    -7.371      2.641      8.846
REMARK INTER + INTRA:         -14.555
REMARK INTER:                 -12.950
REMARK INTRA:                  -1.605
REMARK UNBOUND:                -2.444
REMARK SMILES C[C@@H]1O[C@H](OC[C@@H]2O[C@H](Oc3c(-c4ccc(O)c(O)c4)oc4cc(O)cc(O)c4c3=O)[C@H](O)[C@@H](O)[C@@H]2O)[C@@H](O)[C@@H](O)[C@@H]1O
REMARK SMILES IDX 7 1 36 2 34 3 32 4 9 5 8 6 6 7 5 8 4 9 1 10 2 11 42 12 3 13
REMARK SMILES IDX 40 14 38 15 43 16 41 18 39 20 37 22 35 24 10 26 11 27 12 28
REMARK SMILES IDX 30 29 21 30 29 31 31 32 22 33 27 34 23 35 26 36 24 37 13 38
REMARK SMILES IDX 20 39 14 40 18 41 15 42 16 43 19 44 17 46 28 48 25 50 33 52
REMARK H PARENT 43 17 41 19 39 21 37 23 35 25 19 45 17 47 28 49 25 51 33 53
REMARK Flexibility Score: inf
ROOT
ATOM      1  C   UNL     1      -0.352 -17.373  25.948  1.00  0.00     0.180 C 
ATOM      2  C   UNL     1      -0.421 -17.905  24.490  1.00  0.00     0.177 C 
ATOM      3  C   UNL     1      -0.500 -19.433  24.448  1.00  0.00     0.180 C 
ATOM      4  C   UNL     1      -1.602 -19.921  25.383  1.00  0.00     0.214 C 
ATOM      5  C   UNL     1      -1.433 -19.330  26.791  1.00  0.00     0.339 C 
ATOM      6  O   UNL     1      -1.361 -17.910  26.796  1.00  0.00    -0.332 OA
ENDROOT
BRANCH   1   7
ATOM      7  C   UNL     1       1.040 -17.423  26.594  1.00  0.00     0.198 C 
BRANCH   7   8
ATOM      8  O   UNL     1       1.486 -16.094  26.846  1.00  0.00    -0.347 OA
BRANCH   8   9
ATOM      9  C   UNL     1       0.550 -15.119  26.421  1.00  0.00     0.281 C 
ATOM     10  C   UNL     1      -1.652 -12.864  28.328  1.00  0.00     0.041 C 
ATOM     11  C   UNL     1      -1.219 -13.714  27.113  1.00  0.00     0.150 C 
ATOM     12  C   UNL     1      -0.923 -12.835  25.847  1.00  0.00     0.174 C 
ATOM     13  O   UNL     1      -0.093 -14.493  27.531  1.00  0.00    -0.344 OA
ATOM     14  C   UNL     1       0.601 -12.680  25.682  1.00  0.00     0.179 C 
ATOM     15  C   UNL     1       1.234 -14.075  25.483  1.00  0.00     0.202 C 
BRANCH  12  16
ATOM     16  O   UNL     1      -1.544 -11.572  25.937  1.00  0.00    -0.388 OA
ATOM     17  H   UNL     1      -1.505 -11.162  25.031  1.00  0.00     0.211 HD
ENDBRANCH  12  16
BRANCH  14  18
ATOM     18  O   UNL     1       0.922 -11.835  24.599  1.00  0.00    -0.387 OA
ATOM     19  H   UNL     1       1.069 -10.931  24.983  1.00  0.00     0.211 HD
ENDBRANCH  14  18
BRANCH  15  20
ATOM     20  O   UNL     1       1.065 -14.507  24.160  1.00  0.00    -0.385 OA
ATOM     21  H   UNL     1       0.196 -14.991  24.130  1.00  0.00     0.211 HD
ENDBRANCH  15  20
ENDBRANCH   8   9
ENDBRANCH   7   8
ENDBRANCH   1   7
BRANCH   2  22
ATOM     22  O   UNL     1       0.691 -17.471  23.764  1.00  0.00    -0.387 OA
ATOM     23  H   UNL     1       0.651 -16.470  23.755  1.00  0.00     0.211 HD
ENDBRANCH   2  22
BRANCH   3  24
ATOM     24  O   UNL     1      -0.808 -19.862  23.149  1.00  0.00    -0.387 OA
ATOM     25  H   UNL     1      -1.760 -20.166  23.153  1.00  0.00     0.211 HD
ENDBRANCH   3  24
BRANCH   5  26
ATOM     26  O   UNL     1      -0.303 -19.921  27.440  1.00  0.00    -0.454 OA
BRANCH  26  27
ATOM     27  C   UNL     1      -0.408 -20.819  28.514  1.00  0.00     0.214 A 
ATOM     28  C   UNL     1       0.340 -22.009  28.497  1.00  0.00     0.180 A 
ATOM     29  C   UNL     1      -1.278 -20.580  29.591  1.00  0.00     0.239 A 
ATOM     30  O   UNL     1       0.173 -22.908  29.466  1.00  0.00    -0.452 OA
ATOM     31  C   UNL     1      -1.432 -21.556  30.595  1.00  0.00     0.111 A 
ATOM     32  O   UNL     1      -1.903 -19.489  29.655  1.00  0.00    -0.285 OA
ATOM     33  C   UNL     1      -0.664 -22.739  30.480  1.00  0.00     0.146 A 
ATOM     34  C   UNL     1      -2.322 -21.413  31.687  1.00  0.00     0.134 A 
ATOM     35  C   UNL     1      -0.786 -23.751  31.433  1.00  0.00     0.094 A 
ATOM     36  C   UNL     1      -2.444 -22.453  32.625  1.00  0.00     0.093 A 
ATOM     37  C   UNL     1      -1.679 -23.620  32.494  1.00  0.00     0.123 A 
BRANCH  28  38
ATOM     38  C   UNL     1       1.287 -22.329  27.401  1.00  0.00     0.025 A 
ATOM     39  C   UNL     1       0.883 -23.076  26.277  1.00  0.00     0.062 A 
ATOM     40  C   UNL     1       2.600 -21.844  27.465  1.00  0.00     0.016 A 
ATOM     41  C   UNL     1       1.786 -23.338  25.238  1.00  0.00     0.158 A 
ATOM     42  C   UNL     1       3.503 -22.108  26.433  1.00  0.00     0.051 A 
ATOM     43  C   UNL     1       3.098 -22.848  25.316  1.00  0.00     0.157 A 
BRANCH  41  44
ATOM     44  O   UNL     1       1.380 -24.080  24.127  1.00  0.00    -0.504 OA
ATOM     45  H   UNL     1       0.576 -23.814  23.569  1.00  0.00     0.293 HD
ENDBRANCH  41  44
BRANCH  43  46
ATOM     46  O   UNL     1       4.007 -23.067  24.284  1.00  0.00    -0.504 OA
ATOM     47  H   UNL     1       4.981 -22.811  24.364  1.00  0.00     0.293 HD
ENDBRANCH  43  46
ENDBRANCH  28  38
BRANCH  34  48
ATOM     48  O   UNL     1      -3.092 -20.259  31.846  1.00  0.00    -0.507 OA
ATOM     49  H   UNL     1      -4.102 -20.269  31.711  1.00  0.00     0.293 HD
ENDBRANCH  34  48
BRANCH  37  50
ATOM     50  O   UNL     1      -1.805 -24.664  33.409  1.00  0.00    -0.508 OA
ATOM     51  H   UNL     1      -1.731 -24.510  34.399  1.00  0.00     0.293 HD
ENDBRANCH  37  50
ENDBRANCH  26  27
ENDBRANCH   5  26
BRANCH   4  52
ATOM     52  O   UNL     1      -1.543 -21.330  25.423  1.00  0.00    -0.384 OA
ATOM     53  H   UNL     1      -2.395 -21.675  25.026  1.00  0.00     0.211 HD
ENDBRANCH   4  52
TORSDOF 16
ENDMDL
MODEL 6
REMARK VINA RESULT:    -7.210      2.486      5.927
REMARK INTER + INTRA:         -14.291
REMARK INTER:                 -11.641
REMARK INTRA:                  -2.649
REMARK UNBOUND:                -2.444
REMARK SMILES C[C@@H]1O[C@H](OC[C@@H]2O[C@H](Oc3c(-c4ccc(O)c(O)c4)oc4cc(O)cc(O)c4c3=O)[C@H](O)[C@@H](O)[C@@H]2O)[C@@H](O)[C@@H](O)[C@@H]1O
REMARK SMILES IDX 7 1 36 2 34 3 32 4 9 5 8 6 6 7 5 8 4 9 1 10 2 11 42 12 3 13
REMARK SMILES IDX 40 14 38 15 43 16 41 18 39 20 37 22 35 24 10 26 11 27 12 28
REMARK SMILES IDX 30 29 21 30 29 31 31 32 22 33 27 34 23 35 26 36 24 37 13 38
REMARK SMILES IDX 20 39 14 40 18 41 15 42 16 43 19 44 17 46 28 48 25 50 33 52
REMARK H PARENT 43 17 41 19 39 21 37 23 35 25 19 45 17 47 28 49 25 51 33 53
REMARK Flexibility Score: inf
ROOT
ATOM      1  C   UNL     1       0.513 -22.801  30.210  1.00  0.00     0.180 C 
ATOM      2  C   UNL     1      -0.405 -22.956  31.453  1.00  0.00     0.177 C 
ATOM      3  C   UNL     1      -1.422 -21.816  31.552  1.00  0.00     0.180 C 
ATOM      4  C   UNL     1      -2.141 -21.646  30.218  1.00  0.00     0.214 C 
ATOM      5  C   UNL     1      -1.136 -21.504  29.065  1.00  0.00     0.339 C 
ATOM      6  O   UNL     1      -0.205 -22.576  29.000  1.00  0.00    -0.332 OA
ENDROOT
BRANCH   1   7
ATOM      7  C   UNL     1       1.684 -21.823  30.382  1.00  0.00     0.198 C 
BRANCH   7   8
ATOM      8  O   UNL     1       1.403 -20.946  31.470  1.00  0.00    -0.347 OA
BRANCH   8   9
ATOM      9  C   UNL     1       2.082 -19.708  31.358  1.00  0.00     0.281 C 
ATOM     10  C   UNL     1       4.125 -18.288  28.642  1.00  0.00     0.041 C 
ATOM     11  C   UNL     1       3.666 -18.484  30.104  1.00  0.00     0.150 C 
ATOM     12  C   UNL     1       3.035 -17.181  30.710  1.00  0.00     0.174 C 
ATOM     13  O   UNL     1       2.768 -19.599  30.112  1.00  0.00    -0.344 OA
ATOM     14  C   UNL     1       1.500 -17.313  30.708  1.00  0.00     0.179 C 
ATOM     15  C   UNL     1       1.095 -18.520  31.583  1.00  0.00     0.202 C 
BRANCH  12  16
ATOM     16  O   UNL     1       3.436 -16.032  29.997  1.00  0.00    -0.388 OA
ATOM     17  H   UNL     1       4.362 -16.198  29.672  1.00  0.00     0.211 HD
ENDBRANCH  12  16
BRANCH  14  18
ATOM     18  O   UNL     1       0.879 -16.136  31.175  1.00  0.00    -0.387 OA
ATOM     19  H   UNL     1       1.460 -15.381  30.891  1.00  0.00     0.211 HD
ENDBRANCH  14  18
BRANCH  15  20
ATOM     20  O   UNL     1       1.133 -18.177  32.942  1.00  0.00    -0.385 OA
ATOM     21  H   UNL     1       1.904 -18.668  33.335  1.00  0.00     0.211 HD
ENDBRANCH  15  20
ENDBRANCH   8   9
ENDBRANCH   7   8
ENDBRANCH   1   7
BRANCH   2  22
ATOM     22  O   UNL     1       0.364 -23.003  32.618  1.00  0.00    -0.387 OA
ATOM     23  H   UNL     1       0.976 -22.209  32.587  1.00  0.00     0.211 HD
ENDBRANCH   2  22
BRANCH   3  24
ATOM     24  O   UNL     1      -2.382 -22.114  32.530  1.00  0.00    -0.387 OA
ATOM     25  H   UNL     1      -1.898 -22.228  33.398  1.00  0.00     0.211 HD
ENDBRANCH   3  24
BRANCH   5  26
ATOM     26  O   UNL     1      -0.480 -20.235  29.136  1.00  0.00    -0.454 OA
BRANCH  26  27
ATOM     27  C   UNL     1      -0.756 -19.169  28.264  1.00  0.00     0.214 A 
ATOM     28  C   UNL     1      -0.263 -19.205  26.948  1.00  0.00     0.180 A 
ATOM     29  C   UNL     1      -1.481 -18.042  28.687  1.00  0.00     0.239 A 
ATOM     30  O   UNL     1      -0.442 -18.155  26.148  1.00  0.00    -0.452 OA
ATOM     31  C   UNL     1      -1.647 -16.950  27.814  1.00  0.00     0.111 A 
ATOM     32  O   UNL     1      -1.988 -18.025  29.840  1.00  0.00    -0.285 OA
ATOM     33  C   UNL     1      -1.088 -17.057  26.518  1.00  0.00     0.146 A 
ATOM     34  C   UNL     1      -2.322 -15.760  28.178  1.00  0.00     0.134 A 
ATOM     35  C   UNL     1      -1.202 -16.001  25.614  1.00  0.00     0.094 A 
ATOM     36  C   UNL     1      -2.408 -14.700  27.258  1.00  0.00     0.093 A 
ATOM     37  C   UNL     1      -1.846 -14.822  25.981  1.00  0.00     0.123 A 
BRANCH  28  38
ATOM     38  C   UNL     1       0.501 -20.363  26.424  1.00  0.00     0.025 A 
ATOM     39  C   UNL     1      -0.058 -21.242  25.475  1.00  0.00     0.062 A 
ATOM     40  C   UNL     1       1.820 -20.565  26.849  1.00  0.00     0.016 A 
ATOM     41  C   UNL     1       0.693 -22.310  24.969  1.00  0.00     0.158 A 
ATOM     42  C   UNL     1       2.570 -21.632  26.350  1.00  0.00     0.051 A 
ATOM     43  C   UNL     1       2.013 -22.501  25.406  1.00  0.00     0.157 A 
BRANCH  41  44
ATOM     44  O   UNL     1       0.133 -23.179  24.030  1.00  0.00    -0.504 OA
ATOM     45  H   UNL     1       0.557 -23.330  23.120  1.00  0.00     0.293 HD
ENDBRANCH  41  44
BRANCH  43  46
ATOM     46  O   UNL     1       2.792 -23.536  24.896  1.00  0.00    -0.504 OA
ATOM     47  H   UNL     1       2.672 -24.495  25.194  1.00  0.00     0.293 HD
ENDBRANCH  43  46
ENDBRANCH  28  38
BRANCH  34  48
ATOM     48  O   UNL     1      -2.897 -15.612  29.443  1.00  0.00    -0.507 OA
ATOM     49  H   UNL     1      -2.904 -16.375  30.118  1.00  0.00     0.293 HD
ENDBRANCH  34  48
BRANCH  37  50
ATOM     50  O   UNL     1      -1.910 -13.771  25.067  1.00  0.00    -0.508 OA
ATOM     51  H   UNL     1      -2.646 -13.087  25.101  1.00  0.00     0.293 HD
ENDBRANCH  37  50
ENDBRANCH  26  27
ENDBRANCH   5  26
BRANCH   4  52
ATOM     52  O   UNL     1      -2.958 -20.500  30.310  1.00  0.00    -0.384 OA
ATOM     53  H   UNL     1      -3.186 -20.221  29.376  1.00  0.00     0.211 HD
ENDBRANCH   4  52
TORSDOF 16
ENDMDL
MODEL 7
REMARK VINA RESULT:    -7.178      1.682      8.461
REMARK INTER + INTRA:         -14.238
REMARK INTER:                 -11.545
REMARK INTRA:                  -2.693
REMARK UNBOUND:                -2.444
REMARK SMILES C[C@@H]1O[C@H](OC[C@@H]2O[C@H](Oc3c(-c4ccc(O)c(O)c4)oc4cc(O)cc(O)c4c3=O)[C@H](O)[C@@H](O)[C@@H]2O)[C@@H](O)[C@@H](O)[C@@H]1O
REMARK SMILES IDX 7 1 36 2 34 3 32 4 9 5 8 6 6 7 5 8 4 9 1 10 2 11 42 12 3 13
REMARK SMILES IDX 40 14 38 15 43 16 41 18 39 20 37 22 35 24 10 26 11 27 12 28
REMARK SMILES IDX 30 29 21 30 29 31 31 32 22 33 27 34 23 35 26 36 24 37 13 38
REMARK SMILES IDX 20 39 14 40 18 41 15 42 16 43 19 44 17 46 28 48 25 50 33 52
REMARK H PARENT 43 17 41 19 39 21 37 23 35 25 19 45 17 47 28 49 25 51 33 53
REMARK Flexibility Score: inf
ROOT
ATOM      1  C   UNL     1      -0.447 -19.720  25.313  1.00  0.00     0.180 C 
ATOM      2  C   UNL     1       0.403 -19.209  24.118  1.00  0.00     0.177 C 
ATOM      3  C   UNL     1       1.793 -19.848  24.096  1.00  0.00     0.180 C 
ATOM      4  C   UNL     1       1.670 -21.363  24.218  1.00  0.00     0.214 C 
ATOM      5  C   UNL     1       0.809 -21.750  25.431  1.00  0.00     0.339 C 
ATOM      6  O   UNL     1      -0.474 -21.140  25.422  1.00  0.00    -0.332 OA
ENDROOT
BRANCH   1   7
ATOM      7  C   UNL     1      -0.156 -19.038  26.658  1.00  0.00     0.198 C 
BRANCH   7   8
ATOM      8  O   UNL     1      -1.380 -18.576  27.220  1.00  0.00    -0.347 OA
BRANCH   8   9
ATOM      9  C   UNL     1      -1.382 -17.176  27.441  1.00  0.00     0.281 C 
ATOM     10  C   UNL     1      -1.157 -14.342  25.099  1.00  0.00     0.041 C 
ATOM     11  C   UNL     1      -0.985 -15.068  26.452  1.00  0.00     0.150 C 
ATOM     12  C   UNL     1      -1.883 -14.447  27.579  1.00  0.00     0.174 C 
ATOM     13  O   UNL     1      -1.255 -16.454  26.217  1.00  0.00    -0.344 OA
ATOM     14  C   UNL     1      -3.118 -15.344  27.793  1.00  0.00     0.179 C 
ATOM     15  C   UNL     1      -2.653 -16.748  28.239  1.00  0.00     0.202 C 
BRANCH  12  16
ATOM     16  O   UNL     1      -2.274 -13.130  27.263  1.00  0.00    -0.388 OA
ATOM     17  H   UNL     1      -3.112 -12.945  27.767  1.00  0.00     0.211 HD
ENDBRANCH  12  16
BRANCH  14  18
ATOM     18  O   UNL     1      -3.999 -14.792  28.747  1.00  0.00    -0.387 OA
ATOM     19  H   UNL     1      -3.558 -13.972  29.094  1.00  0.00     0.211 HD
ENDBRANCH  14  18
BRANCH  15  20
ATOM     20  O   UNL     1      -2.329 -16.750  29.603  1.00  0.00    -0.385 OA
ATOM     21  H   UNL     1      -1.335 -16.749  29.656  1.00  0.00     0.211 HD
ENDBRANCH  15  20
ENDBRANCH   8   9
ENDBRANCH   7   8
ENDBRANCH   1   7
BRANCH   2  22
ATOM     22  O   UNL     1       0.524 -17.819  24.171  1.00  0.00    -0.387 OA
ATOM     23  H   UNL     1       0.390 -17.485  23.236  1.00  0.00     0.211 HD
ENDBRANCH   2  22
BRANCH   3  24
ATOM     24  O   UNL     1       2.435 -19.559  22.883  1.00  0.00    -0.387 OA
ATOM     25  H   UNL     1       1.753 -19.641  22.157  1.00  0.00     0.211 HD
ENDBRANCH   3  24
BRANCH   5  26
ATOM     26  O   UNL     1       1.518 -21.478  26.644  1.00  0.00    -0.454 OA
BRANCH  26  27
ATOM     27  C   UNL     1       1.802 -22.456  27.611  1.00  0.00     0.214 A 
ATOM     28  C   UNL     1       1.777 -22.111  28.974  1.00  0.00     0.180 A 
ATOM     29  C   UNL     1       2.154 -23.768  27.250  1.00  0.00     0.239 A 
ATOM     30  O   UNL     1       2.137 -23.008  29.889  1.00  0.00    -0.452 OA
ATOM     31  C   UNL     1       2.533 -24.689  28.246  1.00  0.00     0.111 A 
ATOM     32  O   UNL     1       2.115 -24.111  26.040  1.00  0.00    -0.285 OA
ATOM     33  C   UNL     1       2.512 -24.245  29.589  1.00  0.00     0.146 A 
ATOM     34  C   UNL     1       2.947 -26.013  27.962  1.00  0.00     0.134 A 
ATOM     35  C   UNL     1       2.895 -25.105  30.620  1.00  0.00     0.094 A 
ATOM     36  C   UNL     1       3.348 -26.856  29.013  1.00  0.00     0.093 A 
ATOM     37  C   UNL     1       3.324 -26.400  30.338  1.00  0.00     0.123 A 
BRANCH  28  38
ATOM     38  C   UNL     1       1.405 -20.751  29.435  1.00  0.00     0.025 A 
ATOM     39  C   UNL     1       0.155 -20.496  30.033  1.00  0.00     0.062 A 
ATOM     40  C   UNL     1       2.330 -19.707  29.312  1.00  0.00     0.016 A 
ATOM     41  C   UNL     1      -0.162 -19.211  30.492  1.00  0.00     0.158 A 
ATOM     42  C   UNL     1       2.015 -18.424  29.763  1.00  0.00     0.051 A 
ATOM     43  C   UNL     1       0.774 -18.174  30.360  1.00  0.00     0.157 A 
BRANCH  41  44
ATOM     44  O   UNL     1      -1.403 -18.963  31.083  1.00  0.00    -0.504 OA
ATOM     45  H   UNL     1      -1.484 -18.563  32.011  1.00  0.00     0.293 HD
ENDBRANCH  41  44
BRANCH  43  46
ATOM     46  O   UNL     1       0.496 -16.894  30.834  1.00  0.00    -0.504 OA
ATOM     47  H   UNL     1      -0.326 -16.694  31.388  1.00  0.00     0.293 HD
ENDBRANCH  43  46
ENDBRANCH  28  38
BRANCH  34  48
ATOM     48  O   UNL     1       2.975 -26.497  26.652  1.00  0.00    -0.507 OA
ATOM     49  H   UNL     1       2.141 -26.876  26.205  1.00  0.00     0.293 HD
ENDBRANCH  34  48
BRANCH  37  50
ATOM     50  O   UNL     1       3.736 -27.222  31.385  1.00  0.00    -0.508 OA
ATOM     51  H   UNL     1       4.643 -27.123  31.807  1.00  0.00     0.293 HD
ENDBRANCH  37  50
ENDBRANCH  26  27
ENDBRANCH   5  26
BRANCH   4  52
ATOM     52  O   UNL     1       2.971 -21.895  24.341  1.00  0.00    -0.384 OA
ATOM     53  H   UNL     1       3.137 -22.053  25.315  1.00  0.00     0.211 HD
ENDBRANCH   4  52
TORSDOF 16
ENDMDL
MODEL 8
REMARK VINA RESULT:    -7.172      1.497      2.486
REMARK INTER + INTRA:         -14.228
REMARK INTER:                 -12.807
REMARK INTRA:                  -1.422
REMARK UNBOUND:                -2.444
REMARK SMILES C[C@@H]1O[C@H](OC[C@@H]2O[C@H](Oc3c(-c4ccc(O)c(O)c4)oc4cc(O)cc(O)c4c3=O)[C@H](O)[C@@H](O)[C@@H]2O)[C@@H](O)[C@@H](O)[C@@H]1O
REMARK SMILES IDX 7 1 36 2 34 3 32 4 9 5 8 6 6 7 5 8 4 9 1 10 2 11 42 12 3 13
REMARK SMILES IDX 40 14 38 15 43 16 41 18 39 20 37 22 35 24 10 26 11 27 12 28
REMARK SMILES IDX 30 29 21 30 29 31 31 32 22 33 27 34 23 35 26 36 24 37 13 38
REMARK SMILES IDX 20 39 14 40 18 41 15 42 16 43 19 44 17 46 28 48 25 50 33 52
REMARK H PARENT 43 17 41 19 39 21 37 23 35 25 19 45 17 47 28 49 25 51 33 53
REMARK Flexibility Score: inf
ROOT
ATOM      1  C   UNL     1       2.369 -22.702  25.851  1.00  0.00     0.180 C 
ATOM      2  C   UNL     1       1.742 -23.493  24.671  1.00  0.00     0.177 C 
ATOM      3  C   UNL     1       0.522 -22.774  24.091  1.00  0.00     0.180 C 
ATOM      4  C   UNL     1       0.869 -21.317  23.799  1.00  0.00     0.214 C 
ATOM      5  C   UNL     1       1.482 -20.639  25.034  1.00  0.00     0.339 C 
ATOM      6  O   UNL     1       2.611 -21.331  25.549  1.00  0.00    -0.332 OA
ENDROOT
BRANCH   1   7
ATOM      7  C   UNL     1       1.666 -22.885  27.204  1.00  0.00     0.198 C 
BRANCH   7   8
ATOM      8  O   UNL     1       2.579 -23.472  28.127  1.00  0.00    -0.347 OA
BRANCH   8   9
ATOM      9  C   UNL     1       2.766 -22.677  29.285  1.00  0.00     0.281 C 
ATOM     10  C   UNL     1       2.226 -19.082  29.882  1.00  0.00     0.041 C 
ATOM     11  C   UNL     1       2.878 -20.465  30.107  1.00  0.00     0.150 C 
ATOM     12  C   UNL     1       2.557 -21.051  31.527  1.00  0.00     0.174 C 
ATOM     13  O   UNL     1       2.439 -21.310  29.038  1.00  0.00    -0.344 OA
ATOM     14  C   UNL     1       1.454 -22.118  31.397  1.00  0.00     0.179 C 
ATOM     15  C   UNL     1       1.958 -23.260  30.486  1.00  0.00     0.202 C 
BRANCH  12  16
ATOM     16  O   UNL     1       2.166 -20.039  32.428  1.00  0.00    -0.388 OA
ATOM     17  H   UNL     1       1.345 -20.360  32.889  1.00  0.00     0.211 HD
ENDBRANCH  12  16
BRANCH  14  18
ATOM     18  O   UNL     1       1.074 -22.626  32.658  1.00  0.00    -0.387 OA
ATOM     19  H   UNL     1       0.523 -23.433  32.480  1.00  0.00     0.211 HD
ENDBRANCH  14  18
BRANCH  15  20
ATOM     20  O   UNL     1       2.804 -24.121  31.200  1.00  0.00    -0.385 OA
ATOM     21  H   UNL     1       3.734 -23.825  31.006  1.00  0.00     0.211 HD
ENDBRANCH  15  20
ENDBRANCH   8   9
ENDBRANCH   7   8
ENDBRANCH   1   7
BRANCH   2  22
ATOM     22  O   UNL     1       1.378 -24.775  25.088  1.00  0.00    -0.387 OA
ATOM     23  H   UNL     1       1.381 -24.760  26.090  1.00  0.00     0.211 HD
ENDBRANCH   2  22
BRANCH   3  24
ATOM     24  O   UNL     1       0.136 -23.379  22.887  1.00  0.00    -0.387 OA
ATOM     25  H   UNL     1       0.234 -24.367  23.004  1.00  0.00     0.211 HD
ENDBRANCH   3  24
BRANCH   5  26
ATOM     26  O   UNL     1       0.479 -20.440  26.035  1.00  0.00    -0.454 OA
BRANCH  26  27
ATOM     27  C   UNL     1      -0.052 -19.182  26.361  1.00  0.00     0.214 A 
ATOM     28  C   UNL     1      -0.898 -19.055  27.477  1.00  0.00     0.180 A 
ATOM     29  C   UNL     1       0.205 -18.047  25.573  1.00  0.00     0.239 A 
ATOM     30  O   UNL     1      -1.479 -17.885  27.736  1.00  0.00    -0.452 OA
ATOM     31  C   UNL     1      -0.431 -16.828  25.874  1.00  0.00     0.111 A 
ATOM     32  O   UNL     1       1.013 -18.129  24.610  1.00  0.00    -0.285 OA
ATOM     33  C   UNL     1      -1.293 -16.799  26.996  1.00  0.00     0.146 A 
ATOM     34  C   UNL     1      -0.263 -15.652  25.103  1.00  0.00     0.134 A 
ATOM     35  C   UNL     1      -1.967 -15.625  27.335  1.00  0.00     0.094 A 
ATOM     36  C   UNL     1      -0.967 -14.487  25.449  1.00  0.00     0.093 A 
ATOM     37  C   UNL     1      -1.819 -14.476  26.562  1.00  0.00     0.123 A 
BRANCH  28  38
ATOM     38  C   UNL     1      -1.209 -20.202  28.364  1.00  0.00     0.025 A 
ATOM     39  C   UNL     1      -1.283 -20.049  29.763  1.00  0.00     0.062 A 
ATOM     40  C   UNL     1      -1.474 -21.455  27.799  1.00  0.00     0.016 A 
ATOM     41  C   UNL     1      -1.611 -21.138  30.580  1.00  0.00     0.158 A 
ATOM     42  C   UNL     1      -1.797 -22.545  28.611  1.00  0.00     0.051 A 
ATOM     43  C   UNL     1      -1.873 -22.388  29.999  1.00  0.00     0.157 A 
BRANCH  41  44
ATOM     44  O   UNL     1      -1.682 -20.981  31.965  1.00  0.00    -0.504 OA
ATOM     45  H   UNL     1      -2.552 -21.100  32.475  1.00  0.00     0.293 HD
ENDBRANCH  41  44
BRANCH  43  46
ATOM     46  O   UNL     1      -2.231 -23.482  30.785  1.00  0.00    -0.504 OA
ATOM     47  H   UNL     1      -3.081 -24.004  30.622  1.00  0.00     0.293 HD
ENDBRANCH  43  46
ENDBRANCH  28  38
BRANCH  34  48
ATOM     48  O   UNL     1       0.584 -15.631  23.992  1.00  0.00    -0.507 OA
ATOM     49  H   UNL     1       0.750 -14.776  23.463  1.00  0.00     0.293 HD
ENDBRANCH  34  48
BRANCH  37  50
ATOM     50  O   UNL     1      -2.535 -13.331  26.904  1.00  0.00    -0.508 OA
ATOM     51  H   UNL     1      -3.096 -13.289  27.737  1.00  0.00     0.293 HD
ENDBRANCH  37  50
ENDBRANCH  26  27
ENDBRANCH   5  26
BRANCH   4  52
ATOM     52  O   UNL     1      -0.316 -20.660  23.406  1.00  0.00    -0.384 OA
ATOM     53  H   UNL     1      -0.818 -21.286  22.808  1.00  0.00     0.211 HD
ENDBRANCH   4  52
TORSDOF 16
ENDMDL
MODEL 9
REMARK VINA RESULT:    -6.982      1.663      2.453
REMARK INTER + INTRA:         -13.915
REMARK INTER:                 -11.220
REMARK INTRA:                  -2.695
REMARK UNBOUND:                -2.444
REMARK SMILES C[C@@H]1O[C@H](OC[C@@H]2O[C@H](Oc3c(-c4ccc(O)c(O)c4)oc4cc(O)cc(O)c4c3=O)[C@H](O)[C@@H](O)[C@@H]2O)[C@@H](O)[C@@H](O)[C@@H]1O
REMARK SMILES IDX 7 1 36 2 34 3 32 4 9 5 8 6 6 7 5 8 4 9 1 10 2 11 42 12 3 13
REMARK SMILES IDX 40 14 38 15 43 16 41 18 39 20 37 22 35 24 10 26 11 27 12 28
REMARK SMILES IDX 30 29 21 30 29 31 31 32 22 33 27 34 23 35 26 36 24 37 13 38
REMARK SMILES IDX 20 39 14 40 18 41 15 42 16 43 19 44 17 46 28 48 25 50 33 52
REMARK H PARENT 43 17 41 19 39 21 37 23 35 25 19 45 17 47 28 49 25 51 33 53
REMARK Flexibility Score: inf
ROOT
ATOM      1  C   UNL     1       2.503 -22.058  26.747  1.00  0.00     0.180 C 
ATOM      2  C   UNL     1       3.250 -22.151  25.389  1.00  0.00     0.177 C 
ATOM      3  C   UNL     1       2.903 -20.977  24.469  1.00  0.00     0.180 C 
ATOM      4  C   UNL     1       3.066 -19.662  25.224  1.00  0.00     0.214 C 
ATOM      5  C   UNL     1       2.287 -19.686  26.549  1.00  0.00     0.339 C 
ATOM      6  O   UNL     1       2.632 -20.788  27.378  1.00  0.00    -0.332 OA
ENDROOT
BRANCH   1   7
ATOM      7  C   UNL     1       1.050 -22.554  26.727  1.00  0.00     0.198 C 
BRANCH   7   8
ATOM      8  O   UNL     1       1.045 -23.972  26.580  1.00  0.00    -0.347 OA
BRANCH   8   9
ATOM      9  C   UNL     1       1.403 -24.642  27.776  1.00  0.00     0.281 C 
ATOM     10  C   UNL     1      -0.605 -26.600  30.165  1.00  0.00     0.041 C 
ATOM     11  C   UNL     1       0.570 -25.702  29.716  1.00  0.00     0.150 C 
ATOM     12  C   UNL     1       1.954 -26.433  29.826  1.00  0.00     0.174 C 
ATOM     13  O   UNL     1       0.272 -25.261  28.387  1.00  0.00    -0.344 OA
ATOM     14  C   UNL     1       2.394 -26.898  28.425  1.00  0.00     0.179 C 
ATOM     15  C   UNL     1       2.550 -25.665  27.507  1.00  0.00     0.202 C 
BRANCH  12  16
ATOM     16  O   UNL     1       1.893 -27.525  30.716  1.00  0.00    -0.388 OA
ATOM     17  H   UNL     1       2.543 -27.343  31.447  1.00  0.00     0.211 HD
ENDBRANCH  12  16
BRANCH  14  18
ATOM     18  O   UNL     1       3.600 -27.629  28.477  1.00  0.00    -0.387 OA
ATOM     19  H   UNL     1       4.224 -27.100  29.041  1.00  0.00     0.211 HD
ENDBRANCH  14  18
BRANCH  15  20
ATOM     20  O   UNL     1       3.771 -25.021  27.753  1.00  0.00    -0.385 OA
ATOM     21  H   UNL     1       3.739 -24.159  27.256  1.00  0.00     0.211 HD
ENDBRANCH  15  20
ENDBRANCH   8   9
ENDBRANCH   7   8
ENDBRANCH   1   7
BRANCH   2  22
ATOM     22  O   UNL     1       2.944 -23.355  24.751  1.00  0.00    -0.387 OA
ATOM     23  H   UNL     1       2.221 -23.150  24.087  1.00  0.00     0.211 HD
ENDBRANCH   2  22
BRANCH   3  24
ATOM     24  O   UNL     1       3.769 -20.958  23.367  1.00  0.00    -0.387 OA
ATOM     25  H   UNL     1       3.324 -20.427  22.647  1.00  0.00     0.211 HD
ENDBRANCH   3  24
BRANCH   5  26
ATOM     26  O   UNL     1       0.881 -19.632  26.294  1.00  0.00    -0.454 OA
BRANCH  26  27
ATOM     27  C   UNL     1       0.055 -18.580  26.723  1.00  0.00     0.214 A 
ATOM     28  C   UNL     1      -0.573 -18.660  27.978  1.00  0.00     0.180 A 
ATOM     29  C   UNL     1      -0.195 -17.462  25.910  1.00  0.00     0.239 A 
ATOM     30  O   UNL     1      -1.430 -17.711  28.349  1.00  0.00    -0.452 OA
ATOM     31  C   UNL     1      -1.110 -16.480  26.333  1.00  0.00     0.111 A 
ATOM     32  O   UNL     1       0.413 -17.342  24.813  1.00  0.00    -0.285 OA
ATOM     33  C   UNL     1      -1.723 -16.659  27.596  1.00  0.00     0.146 A 
ATOM     34  C   UNL     1      -1.453 -15.349  25.554  1.00  0.00     0.134 A 
ATOM     35  C   UNL     1      -2.654 -15.730  28.064  1.00  0.00     0.094 A 
ATOM     36  C   UNL     1      -2.408 -14.436  26.034  1.00  0.00     0.093 A 
ATOM     37  C   UNL     1      -3.008 -14.630  27.286  1.00  0.00     0.123 A 
BRANCH  28  38
ATOM     38  C   UNL     1      -0.352 -19.802  28.898  1.00  0.00     0.025 A 
ATOM     39  C   UNL     1      -1.147 -20.964  28.832  1.00  0.00     0.062 A 
ATOM     40  C   UNL     1       0.695 -19.743  29.827  1.00  0.00     0.016 A 
ATOM     41  C   UNL     1      -0.899 -22.043  29.688  1.00  0.00     0.158 A 
ATOM     42  C   UNL     1       0.941 -20.815  30.686  1.00  0.00     0.051 A 
ATOM     43  C   UNL     1       0.152 -21.969  30.615  1.00  0.00     0.157 A 
BRANCH  41  44
ATOM     44  O   UNL     1      -1.691 -23.191  29.618  1.00  0.00    -0.504 OA
ATOM     45  H   UNL     1      -1.549 -23.979  30.242  1.00  0.00     0.293 HD
ENDBRANCH  41  44
BRANCH  43  46
ATOM     46  O   UNL     1       0.440 -23.039  31.458  1.00  0.00    -0.504 OA
ATOM     47  H   UNL     1       0.354 -22.969  32.463  1.00  0.00     0.293 HD
ENDBRANCH  43  46
ENDBRANCH  28  38
BRANCH  34  48
ATOM     48  O   UNL     1      -0.867 -15.127  24.305  1.00  0.00    -0.507 OA
ATOM     49  H   UNL     1      -0.311 -15.843  23.841  1.00  0.00     0.293 HD
ENDBRANCH  34  48
BRANCH  37  50
ATOM     50  O   UNL     1      -3.968 -13.741  27.765  1.00  0.00    -0.508 OA
ATOM     51  H   UNL     1      -3.714 -12.853  28.161  1.00  0.00     0.293 HD
ENDBRANCH  37  50
ENDBRANCH  26  27
ENDBRANCH   5  26
BRANCH   4  52
ATOM     52  O   UNL     1       2.599 -18.624  24.391  1.00  0.00    -0.384 OA
ATOM     53  H   UNL     1       1.619 -18.518  24.568  1.00  0.00     0.211 HD
ENDBRANCH   4  52
TORSDOF 16
ENDMDL
