MODEL 1
REMARK VINA RESULT:    -5.243      0.000      0.000
REMARK INTER + INTRA:          -7.253
REMARK INTER:                  -6.622
REMARK INTRA:                  -0.631
REMARK UNBOUND:                -0.631
REMARK SMILES O=C(C=Cc1ccc(O)cc1)c1ccc(O)cc1O
REMARK SMILES IDX 4 1 3 2 5 3 6 4 7 5 8 6 11 7 10 8 9 9 2 11 1 12 12 13 18 14
REMARK SMILES IDX 13 15 17 16 14 17 15 18 19 19 16 21
REMARK H PARENT 9 10 19 20 16 22
REMARK Flexibility Score: inf
ROOT
ATOM      1  C   UNL     1      81.602  88.089   0.368  1.00  0.00     0.012 C 
ATOM      2  C   UNL     1      82.286  86.954   0.569  1.00  0.00     0.053 C 
ENDROOT
BRANCH   1   3
ATOM      3  C   UNL     1      81.345  88.669  -0.973  1.00  0.00    -0.025 A 
ATOM      4  C   UNL     1      80.986  90.024  -1.063  1.00  0.00     0.012 A 
ATOM      5  C   UNL     1      80.725  90.611  -2.306  1.00  0.00     0.047 A 
ATOM      6  C   UNL     1      80.809  89.846  -3.475  1.00  0.00     0.115 A 
ATOM      7  C   UNL     1      81.412  87.904  -2.156  1.00  0.00     0.012 A 
ATOM      8  C   UNL     1      81.151  88.494  -3.396  1.00  0.00     0.047 A 
BRANCH   6   9
ATOM      9  O   UNL     1      80.553  90.420  -4.719  1.00  0.00    -0.508 OA
ATOM     10  H   UNL     1      79.631  90.765  -4.963  1.00  0.00     0.293 HD
ENDBRANCH   6   9
ENDBRANCH   1   3
BRANCH   2  11
ATOM     11  C   UNL     1      82.538  86.415   1.926  1.00  0.00     0.189 C 
ATOM     12  O   UNL     1      83.648  85.875   2.187  1.00  0.00    -0.289 OA
BRANCH  11  13
ATOM     13  C   UNL     1      81.499  86.494   2.983  1.00  0.00     0.064 A 
ATOM     14  C   UNL     1      81.803  87.014   4.261  1.00  0.00     0.130 A 
ATOM     15  C   UNL     1      80.183  86.069   2.716  1.00  0.00     0.020 A 
ATOM     16  C   UNL     1      80.802  87.096   5.241  1.00  0.00     0.093 A 
ATOM     17  C   UNL     1      79.195  86.152   3.701  1.00  0.00     0.047 A 
ATOM     18  C   UNL     1      79.499  86.665   4.963  1.00  0.00     0.119 A 
BRANCH  14  19
ATOM     19  O   UNL     1      83.098  87.435   4.563  1.00  0.00    -0.507 OA
ATOM     20  H   UNL     1      83.742  86.847   5.079  1.00  0.00     0.293 HD
ENDBRANCH  14  19
BRANCH  18  21
ATOM     21  O   UNL     1      78.503  86.742   5.933  1.00  0.00    -0.508 OA
ATOM     22  H   UNL     1      78.501  87.474   6.634  1.00  0.00     0.293 HD
ENDBRANCH  18  21
ENDBRANCH  11  13
ENDBRANCH   2  11
TORSDOF 6
ENDMDL
MODEL 2
REMARK VINA RESULT:    -5.235      3.888      6.528
REMARK INTER + INTRA:          -7.243
REMARK INTER:                  -6.604
REMARK INTRA:                  -0.639
REMARK UNBOUND:                -0.631
REMARK SMILES O=C(C=Cc1ccc(O)cc1)c1ccc(O)cc1O
REMARK SMILES IDX 4 1 3 2 5 3 6 4 7 5 8 6 11 7 10 8 9 9 2 11 1 12 12 13 18 14
REMARK SMILES IDX 13 15 17 16 14 17 15 18 19 19 16 21
REMARK H PARENT 9 10 19 20 16 22
REMARK Flexibility Score: inf
ROOT
ATOM      1  C   UNL     1      80.242  86.802   5.881  1.00  0.00     0.012 C 
ATOM      2  C   UNL     1      79.367  86.196   6.696  1.00  0.00     0.053 C 
ENDROOT
BRANCH   1   3
ATOM      3  C   UNL     1      80.261  86.615   4.409  1.00  0.00    -0.025 A 
ATOM      4  C   UNL     1      79.105  86.123   3.779  1.00  0.00     0.012 A 
ATOM      5  C   UNL     1      79.079  85.921   2.395  1.00  0.00     0.047 A 
ATOM      6  C   UNL     1      80.214  86.198   1.624  1.00  0.00     0.115 A 
ATOM      7  C   UNL     1      81.403  86.875   3.625  1.00  0.00     0.012 A 
ATOM      8  C   UNL     1      81.373  86.672   2.242  1.00  0.00     0.047 A 
BRANCH   6   9
ATOM      9  O   UNL     1      80.200  86.001   0.244  1.00  0.00    -0.508 OA
ATOM     10  H   UNL     1      79.675  86.611  -0.372  1.00  0.00     0.293 HD
ENDBRANCH   6   9
ENDBRANCH   1   3
BRANCH   2  11
ATOM     11  C   UNL     1      79.391  86.393   8.164  1.00  0.00     0.189 C 
ATOM     12  O   UNL     1      80.441  86.132   8.812  1.00  0.00    -0.289 OA
BRANCH  11  13
ATOM     13  C   UNL     1      78.192  86.887   8.887  1.00  0.00     0.064 A 
ATOM     14  C   UNL     1      78.292  87.945   9.818  1.00  0.00     0.130 A 
ATOM     15  C   UNL     1      76.929  86.318   8.637  1.00  0.00     0.020 A 
ATOM     16  C   UNL     1      77.145  88.410  10.478  1.00  0.00     0.093 A 
ATOM     17  C   UNL     1      75.793  86.786   9.303  1.00  0.00     0.047 A 
ATOM     18  C   UNL     1      75.896  87.830  10.223  1.00  0.00     0.119 A 
BRANCH  14  19
ATOM     19  O   UNL     1      79.530  88.526  10.098  1.00  0.00    -0.507 OA
ATOM     20  H   UNL     1      80.392  88.143   9.730  1.00  0.00     0.293 HD
ENDBRANCH  14  19
BRANCH  18  21
ATOM     21  O   UNL     1      74.754  88.286  10.877  1.00  0.00    -0.508 OA
ATOM     22  H   UNL     1      74.039  87.646  11.203  1.00  0.00     0.293 HD
ENDBRANCH  18  21
ENDBRANCH  11  13
ENDBRANCH   2  11
TORSDOF 6
ENDMDL
MODEL 3
REMARK VINA RESULT:    -5.158      2.073      2.746
REMARK INTER + INTRA:          -7.146
REMARK INTER:                  -6.475
REMARK INTRA:                  -0.671
REMARK UNBOUND:                -0.631
REMARK SMILES O=C(C=Cc1ccc(O)cc1)c1ccc(O)cc1O
REMARK SMILES IDX 4 1 3 2 5 3 6 4 7 5 8 6 11 7 10 8 9 9 2 11 1 12 12 13 18 14
REMARK SMILES IDX 13 15 17 16 14 17 15 18 19 19 16 21
REMARK H PARENT 9 10 19 20 16 22
REMARK Flexibility Score: inf
ROOT
ATOM      1  C   UNL     1      80.948  88.776  -0.137  1.00  0.00     0.012 C 
ATOM      2  C   UNL     1      81.211  87.477   0.071  1.00  0.00     0.053 C 
ENDROOT
BRANCH   1   3
ATOM      3  C   UNL     1      81.717  89.631  -1.074  1.00  0.00    -0.025 A 
ATOM      4  C   UNL     1      83.114  89.693  -0.935  1.00  0.00     0.012 A 
ATOM      5  C   UNL     1      83.879  90.494  -1.789  1.00  0.00     0.047 A 
ATOM      6  C   UNL     1      83.257  91.252  -2.787  1.00  0.00     0.115 A 
ATOM      7  C   UNL     1      81.098  90.411  -2.073  1.00  0.00     0.012 A 
ATOM      8  C   UNL     1      81.867  91.210  -2.924  1.00  0.00     0.047 A 
BRANCH   6   9
ATOM      9  O   UNL     1      84.009  92.053  -3.644  1.00  0.00    -0.508 OA
ATOM     10  H   UNL     1      83.570  92.616  -4.364  1.00  0.00     0.293 HD
ENDBRANCH   6   9
ENDBRANCH   1   3
BRANCH   2  11
ATOM     11  C   UNL     1      80.432  86.659   1.028  1.00  0.00     0.189 C 
ATOM     12  O   UNL     1      79.541  85.875   0.600  1.00  0.00    -0.289 OA
BRANCH  11  13
ATOM     13  C   UNL     1      80.679  86.753   2.489  1.00  0.00     0.064 A 
ATOM     14  C   UNL     1      79.626  86.575   3.415  1.00  0.00     0.130 A 
ATOM     15  C   UNL     1      81.977  87.001   2.974  1.00  0.00     0.020 A 
ATOM     16  C   UNL     1      79.883  86.651   4.792  1.00  0.00     0.093 A 
ATOM     17  C   UNL     1      82.221  87.077   4.348  1.00  0.00     0.047 A 
ATOM     18  C   UNL     1      81.179  86.903   5.260  1.00  0.00     0.119 A 
BRANCH  14  19
ATOM     19  O   UNL     1      78.325  86.338   2.969  1.00  0.00    -0.507 OA
ATOM     20  H   UNL     1      77.938  85.403   2.932  1.00  0.00     0.293 HD
ENDBRANCH  14  19
BRANCH  18  21
ATOM     21  O   UNL     1      81.438  86.981   6.626  1.00  0.00    -0.508 OA
ATOM     22  H   UNL     1      81.699  86.163   7.163  1.00  0.00     0.293 HD
ENDBRANCH  18  21
ENDBRANCH  11  13
ENDBRANCH   2  11
TORSDOF 6
ENDMDL
MODEL 4
REMARK VINA RESULT:    -4.956      1.573      7.532
REMARK INTER + INTRA:          -6.891
REMARK INTER:                  -6.292
REMARK INTRA:                  -0.599
REMARK UNBOUND:                -0.631
REMARK SMILES O=C(C=Cc1ccc(O)cc1)c1ccc(O)cc1O
REMARK SMILES IDX 4 1 3 2 5 3 6 4 7 5 8 6 11 7 10 8 9 9 2 11 1 12 12 13 18 14
REMARK SMILES IDX 13 15 17 16 14 17 15 18 19 19 16 21
REMARK H PARENT 9 10 19 20 16 22
REMARK Flexibility Score: inf
ROOT
ATOM      1  C   UNL     1      81.603  86.516   1.194  1.00  0.00     0.012 C 
ATOM      2  C   UNL     1      80.954  87.139   0.200  1.00  0.00     0.053 C 
ENDROOT
BRANCH   1   3
ATOM      3  C   UNL     1      81.235  86.647   2.625  1.00  0.00    -0.025 A 
ATOM      4  C   UNL     1      79.885  86.503   2.989  1.00  0.00     0.012 A 
ATOM      5  C   UNL     1      79.490  86.628   4.324  1.00  0.00     0.047 A 
ATOM      6  C   UNL     1      80.439  86.910   5.314  1.00  0.00     0.115 A 
ATOM      7  C   UNL     1      82.181  86.945   3.628  1.00  0.00     0.012 A 
ATOM      8  C   UNL     1      81.781  87.069   4.963  1.00  0.00     0.047 A 
BRANCH   6   9
ATOM      9  O   UNL     1      80.057  87.036   6.649  1.00  0.00    -0.508 OA
ATOM     10  H   UNL     1      79.511  87.827   6.971  1.00  0.00     0.293 HD
ENDBRANCH   6   9
ENDBRANCH   1   3
BRANCH   2  11
ATOM     11  C   UNL     1      81.363  86.999  -1.217  1.00  0.00     0.189 C 
ATOM     12  O   UNL     1      81.795  85.890  -1.635  1.00  0.00    -0.289 OA
BRANCH  11  13
ATOM     13  C   UNL     1      81.279  88.149  -2.153  1.00  0.00     0.064 A 
ATOM     14  C   UNL     1      80.974  87.951  -3.518  1.00  0.00     0.130 A 
ATOM     15  C   UNL     1      81.482  89.460  -1.683  1.00  0.00     0.020 A 
ATOM     16  C   UNL     1      80.882  89.052  -4.383  1.00  0.00     0.093 A 
ATOM     17  C   UNL     1      81.392  90.549  -2.554  1.00  0.00     0.047 A 
ATOM     18  C   UNL     1      81.091  90.351  -3.903  1.00  0.00     0.119 A 
BRANCH  14  19
ATOM     19  O   UNL     1      80.776  86.664  -4.019  1.00  0.00    -0.507 OA
ATOM     20  H   UNL     1      81.481  86.196  -4.577  1.00  0.00     0.293 HD
ENDBRANCH  14  19
BRANCH  18  21
ATOM     21  O   UNL     1      81.004  91.447  -4.757  1.00  0.00    -0.508 OA
ATOM     22  H   UNL     1      80.254  92.123  -4.676  1.00  0.00     0.293 HD
ENDBRANCH  18  21
ENDBRANCH  11  13
ENDBRANCH   2  11
TORSDOF 6
ENDMDL
MODEL 5
REMARK VINA RESULT:    -4.794      6.872     10.637
REMARK INTER + INTRA:          -6.686
REMARK INTER:                  -6.038
REMARK INTRA:                  -0.649
REMARK UNBOUND:                -0.631
REMARK SMILES O=C(C=Cc1ccc(O)cc1)c1ccc(O)cc1O
REMARK SMILES IDX 4 1 3 2 5 3 6 4 7 5 8 6 11 7 10 8 9 9 2 11 1 12 12 13 18 14
REMARK SMILES IDX 13 15 17 16 14 17 15 18 19 19 16 21
REMARK H PARENT 9 10 19 20 16 22
REMARK Flexibility Score: inf
ROOT
ATOM      1  C   UNL     1      77.673  87.080   9.682  1.00  0.00     0.012 C 
ATOM      2  C   UNL     1      77.858  88.080  10.557  1.00  0.00     0.053 C 
ENDROOT
BRANCH   1   3
ATOM      3  C   UNL     1      78.574  86.817   8.533  1.00  0.00    -0.025 A 
ATOM      4  C   UNL     1      79.898  86.425   8.792  1.00  0.00     0.012 A 
ATOM      5  C   UNL     1      80.786  86.176   7.740  1.00  0.00     0.047 A 
ATOM      6  C   UNL     1      80.364  86.326   6.414  1.00  0.00     0.115 A 
ATOM      7  C   UNL     1      78.163  86.980   7.193  1.00  0.00     0.012 A 
ATOM      8  C   UNL     1      79.054  86.729   6.145  1.00  0.00     0.047 A 
BRANCH   6   9
ATOM      9  O   UNL     1      81.239  86.079   5.358  1.00  0.00    -0.508 OA
ATOM     10  H   UNL     1      82.038  86.677   5.182  1.00  0.00     0.293 HD
ENDBRANCH   6   9
ENDBRANCH   1   3
BRANCH   2  11
ATOM     11  C   UNL     1      76.927  88.323  11.683  1.00  0.00     0.189 C 
ATOM     12  O   UNL     1      76.696  87.401  12.513  1.00  0.00    -0.289 OA
BRANCH  11  13
ATOM     13  C   UNL     1      76.252  89.635  11.845  1.00  0.00     0.064 A 
ATOM     14  C   UNL     1      76.480  90.431  12.989  1.00  0.00     0.130 A 
ATOM     15  C   UNL     1      75.387  90.116  10.843  1.00  0.00     0.020 A 
ATOM     16  C   UNL     1      75.846  91.677  13.116  1.00  0.00     0.093 A 
ATOM     17  C   UNL     1      74.759  91.356  10.980  1.00  0.00     0.047 A 
ATOM     18  C   UNL     1      74.985  92.140  12.113  1.00  0.00     0.119 A 
BRANCH  14  19
ATOM     19  O   UNL     1      77.322  89.982  14.007  1.00  0.00    -0.507 OA
ATOM     20  H   UNL     1      77.982  89.228  13.857  1.00  0.00     0.293 HD
ENDBRANCH  14  19
BRANCH  18  21
ATOM     21  O   UNL     1      74.352  93.374  12.234  1.00  0.00    -0.508 OA
ATOM     22  H   UNL     1      73.887  93.649  13.091  1.00  0.00     0.293 HD
ENDBRANCH  18  21
ENDBRANCH  11  13
ENDBRANCH   2  11
TORSDOF 6
ENDMDL
MODEL 6
REMARK VINA RESULT:    -4.774      8.251     12.213
REMARK INTER + INTRA:          -6.661
REMARK INTER:                  -5.909
REMARK INTRA:                  -0.752
REMARK UNBOUND:                -0.631
REMARK SMILES O=C(C=Cc1ccc(O)cc1)c1ccc(O)cc1O
REMARK SMILES IDX 4 1 3 2 5 3 6 4 7 5 8 6 11 7 10 8 9 9 2 11 1 12 12 13 18 14
REMARK SMILES IDX 13 15 17 16 14 17 15 18 19 19 16 21
REMARK H PARENT 9 10 19 20 16 22
REMARK Flexibility Score: inf
ROOT
ATOM      1  C   UNL     1      75.122  89.321  10.624  1.00  0.00     0.012 C 
ATOM      2  C   UNL     1      75.004  88.100  11.165  1.00  0.00     0.053 C 
ENDROOT
BRANCH   1   3
ATOM      3  C   UNL     1      74.666  90.565  11.291  1.00  0.00    -0.025 A 
ATOM      4  C   UNL     1      73.298  90.886  11.251  1.00  0.00     0.012 A 
ATOM      5  C   UNL     1      72.824  92.054  11.858  1.00  0.00     0.047 A 
ATOM      6  C   UNL     1      73.712  92.922  12.503  1.00  0.00     0.115 A 
ATOM      7  C   UNL     1      75.554  91.453  11.930  1.00  0.00     0.012 A 
ATOM      8  C   UNL     1      75.075  92.619  12.536  1.00  0.00     0.047 A 
BRANCH   6   9
ATOM      9  O   UNL     1      73.251  94.087  13.112  1.00  0.00    -0.508 OA
ATOM     10  H   UNL     1      73.308  94.219  14.115  1.00  0.00     0.293 HD
ENDBRANCH   6   9
ENDBRANCH   1   3
BRANCH   2  11
ATOM     11  C   UNL     1      75.454  86.878  10.461  1.00  0.00     0.189 C 
ATOM     12  O   UNL     1      74.691  85.875  10.398  1.00  0.00    -0.289 OA
BRANCH  11  13
ATOM     13  C   UNL     1      76.798  86.811   9.832  1.00  0.00     0.064 A 
ATOM     14  C   UNL     1      76.938  86.597   8.443  1.00  0.00     0.130 A 
ATOM     15  C   UNL     1      77.956  86.984  10.615  1.00  0.00     0.020 A 
ATOM     16  C   UNL     1      78.216  86.555   7.865  1.00  0.00     0.093 A 
ATOM     17  C   UNL     1      79.223  86.937  10.029  1.00  0.00     0.047 A 
ATOM     18  C   UNL     1      79.359  86.724   8.656  1.00  0.00     0.119 A 
BRANCH  14  19
ATOM     19  O   UNL     1      75.813  86.412   7.639  1.00  0.00    -0.507 OA
ATOM     20  H   UNL     1      74.908  86.789   7.895  1.00  0.00     0.293 HD
ENDBRANCH  14  19
BRANCH  18  21
ATOM     21  O   UNL     1      80.630  86.680   8.088  1.00  0.00    -0.508 OA
ATOM     22  H   UNL     1      80.863  87.228   7.269  1.00  0.00     0.293 HD
ENDBRANCH  18  21
ENDBRANCH  11  13
ENDBRANCH   2  11
TORSDOF 6
ENDMDL
MODEL 7
REMARK VINA RESULT:    -4.770      7.835     11.909
REMARK INTER + INTRA:          -6.656
REMARK INTER:                  -5.905
REMARK INTRA:                  -0.752
REMARK UNBOUND:                -0.631
REMARK SMILES O=C(C=Cc1ccc(O)cc1)c1ccc(O)cc1O
REMARK SMILES IDX 4 1 3 2 5 3 6 4 7 5 8 6 11 7 10 8 9 9 2 11 1 12 12 13 18 14
REMARK SMILES IDX 13 15 17 16 14 17 15 18 19 19 16 21
REMARK H PARENT 9 10 19 20 16 22
REMARK Flexibility Score: inf
ROOT
ATOM      1  C   UNL     1      76.746  89.215  11.475  1.00  0.00     0.012 C 
ATOM      2  C   UNL     1      76.533  87.974  11.936  1.00  0.00     0.053 C 
ENDROOT
BRANCH   1   3
ATOM      3  C   UNL     1      75.932  90.391  11.872  1.00  0.00    -0.025 A 
ATOM      4  C   UNL     1      74.902  90.816  11.017  1.00  0.00     0.012 A 
ATOM      5  C   UNL     1      74.116  91.925  11.345  1.00  0.00     0.047 A 
ATOM      6  C   UNL     1      74.357  92.632  12.529  1.00  0.00     0.115 A 
ATOM      7  C   UNL     1      76.177  91.119  13.055  1.00  0.00     0.012 A 
ATOM      8  C   UNL     1      75.389  92.228  13.379  1.00  0.00     0.047 A 
BRANCH   6   9
ATOM      9  O   UNL     1      73.580  93.738  12.866  1.00  0.00    -0.508 OA
ATOM     10  H   UNL     1      73.286  93.907  13.822  1.00  0.00     0.293 HD
ENDBRANCH   6   9
ENDBRANCH   1   3
BRANCH   2  11
ATOM     11  C   UNL     1      77.354  86.821  11.503  1.00  0.00     0.189 C 
ATOM     12  O   UNL     1      77.819  86.026  12.365  1.00  0.00    -0.289 OA
BRANCH  11  13
ATOM     13  C   UNL     1      77.647  86.590  10.066  1.00  0.00     0.064 A 
ATOM     14  C   UNL     1      78.955  86.756   9.557  1.00  0.00     0.130 A 
ATOM     15  C   UNL     1      76.623  86.179   9.191  1.00  0.00     0.020 A 
ATOM     16  C   UNL     1      79.215  86.516   8.199  1.00  0.00     0.093 A 
ATOM     17  C   UNL     1      76.893  85.946   7.840  1.00  0.00     0.047 A 
ATOM     18  C   UNL     1      78.186  86.112   7.340  1.00  0.00     0.119 A 
BRANCH  14  19
ATOM     19  O   UNL     1      79.991  87.173  10.393  1.00  0.00    -0.507 OA
ATOM     20  H   UNL     1      80.951  87.214  10.071  1.00  0.00     0.293 HD
ENDBRANCH  14  19
BRANCH  18  21
ATOM     21  O   UNL     1      78.438  85.875   5.991  1.00  0.00    -0.508 OA
ATOM     22  H   UNL     1      78.518  86.634   5.326  1.00  0.00     0.293 HD
ENDBRANCH  18  21
ENDBRANCH  11  13
ENDBRANCH   2  11
TORSDOF 6
ENDMDL
MODEL 8
REMARK VINA RESULT:    -4.680     13.489     16.804
REMARK INTER + INTRA:          -6.543
REMARK INTER:                  -6.021
REMARK INTRA:                  -0.521
REMARK UNBOUND:                -0.631
REMARK SMILES O=C(C=Cc1ccc(O)cc1)c1ccc(O)cc1O
REMARK SMILES IDX 4 1 3 2 5 3 6 4 7 5 8 6 11 7 10 8 9 9 2 11 1 12 12 13 18 14
REMARK SMILES IDX 13 15 17 16 14 17 15 18 19 19 16 21
REMARK H PARENT 9 10 19 20 16 22
REMARK Flexibility Score: inf
ROOT
ATOM      1  C   UNL     1      72.431  93.736  12.895  1.00  0.00     0.012 C 
ATOM      2  C   UNL     1      71.372  93.278  12.212  1.00  0.00     0.053 C 
ENDROOT
BRANCH   1   3
ATOM      3  C   UNL     1      73.682  92.963  13.089  1.00  0.00    -0.025 A 
ATOM      4  C   UNL     1      74.420  92.582  11.955  1.00  0.00     0.012 A 
ATOM      5  C   UNL     1      75.600  91.844  12.088  1.00  0.00     0.047 A 
ATOM      6  C   UNL     1      76.053  91.466  13.358  1.00  0.00     0.115 A 
ATOM      7  C   UNL     1      74.139  92.564  14.362  1.00  0.00     0.012 A 
ATOM      8  C   UNL     1      75.320  91.826  14.491  1.00  0.00     0.047 A 
BRANCH   6   9
ATOM      9  O   UNL     1      77.228  90.731  13.504  1.00  0.00    -0.508 OA
ATOM     10  H   UNL     1      77.377  89.865  12.999  1.00  0.00     0.293 HD
ENDBRANCH   6   9
ENDBRANCH   1   3
BRANCH   2  11
ATOM     11  C   UNL     1      70.132  94.072  12.055  1.00  0.00     0.189 C 
ATOM     12  O   UNL     1      69.057  93.660  12.572  1.00  0.00    -0.289 OA
BRANCH  11  13
ATOM     13  C   UNL     1      70.132  95.344  11.289  1.00  0.00     0.064 A 
ATOM     14  C   UNL     1      70.093  95.340   9.877  1.00  0.00     0.130 A 
ATOM     15  C   UNL     1      70.150  96.579  11.967  1.00  0.00     0.020 A 
ATOM     16  C   UNL     1      70.076  96.553   9.172  1.00  0.00     0.093 A 
ATOM     17  C   UNL     1      70.136  97.781  11.254  1.00  0.00     0.047 A 
ATOM     18  C   UNL     1      70.099  97.773   9.859  1.00  0.00     0.119 A 
BRANCH  14  19
ATOM     19  O   UNL     1      70.085  94.135   9.173  1.00  0.00    -0.507 OA
ATOM     20  H   UNL     1      69.462  93.377   9.424  1.00  0.00     0.293 HD
ENDBRANCH  14  19
BRANCH  18  21
ATOM     21  O   UNL     1      70.085  98.980   9.165  1.00  0.00    -0.508 OA
ATOM     22  H   UNL     1      69.782  99.841   9.604  1.00  0.00     0.293 HD
ENDBRANCH  18  21
ENDBRANCH  11  13
ENDBRANCH   2  11
TORSDOF 6
ENDMDL
MODEL 9
REMARK VINA RESULT:    -4.672      9.169     13.382
REMARK INTER + INTRA:          -6.533
REMARK INTER:                  -5.825
REMARK INTRA:                  -0.708
REMARK UNBOUND:                -0.631
REMARK SMILES O=C(C=Cc1ccc(O)cc1)c1ccc(O)cc1O
REMARK SMILES IDX 4 1 3 2 5 3 6 4 7 5 8 6 11 7 10 8 9 9 2 11 1 12 12 13 18 14
REMARK SMILES IDX 13 15 17 16 14 17 15 18 19 19 16 21
REMARK H PARENT 9 10 19 20 16 22
REMARK Flexibility Score: inf
ROOT
ATOM      1  C   UNL     1      76.139  90.389  12.695  1.00  0.00     0.012 C 
ATOM      2  C   UNL     1      76.049  89.096  13.039  1.00  0.00     0.053 C 
ENDROOT
BRANCH   1   3
ATOM      3  C   UNL     1      75.227  91.442  13.206  1.00  0.00    -0.025 A 
ATOM      4  C   UNL     1      75.052  91.564  14.595  1.00  0.00     0.012 A 
ATOM      5  C   UNL     1      74.195  92.535  15.122  1.00  0.00     0.047 A 
ATOM      6  C   UNL     1      73.491  93.390  14.267  1.00  0.00     0.115 A 
ATOM      7  C   UNL     1      74.502  92.298  12.353  1.00  0.00     0.012 A 
ATOM      8  C   UNL     1      73.646  93.268  12.884  1.00  0.00     0.047 A 
BRANCH   6   9
ATOM      9  O   UNL     1      72.635  94.362  14.780  1.00  0.00    -0.508 OA
ATOM     10  H   UNL     1      72.218  95.069  14.185  1.00  0.00     0.293 HD
ENDBRANCH   6   9
ENDBRANCH   1   3
BRANCH   2  11
ATOM     11  C   UNL     1      76.967  88.070  12.494  1.00  0.00     0.189 C 
ATOM     12  O   UNL     1      77.881  87.598  13.224  1.00  0.00    -0.289 OA
BRANCH  11  13
ATOM     13  C   UNL     1      76.833  87.594  11.094  1.00  0.00     0.064 A 
ATOM     14  C   UNL     1      77.844  87.851  10.141  1.00  0.00     0.130 A 
ATOM     15  C   UNL     1      75.700  86.855  10.702  1.00  0.00     0.020 A 
ATOM     16  C   UNL     1      77.707  87.377   8.827  1.00  0.00     0.093 A 
ATOM     17  C   UNL     1      75.573  86.391   9.390  1.00  0.00     0.047 A 
ATOM     18  C   UNL     1      76.572  86.648   8.451  1.00  0.00     0.119 A 
BRANCH  14  19
ATOM     19  O   UNL     1      78.976  88.588  10.492  1.00  0.00    -0.507 OA
ATOM     20  H   UNL     1      78.970  89.601  10.499  1.00  0.00     0.293 HD
ENDBRANCH  14  19
BRANCH  18  21
ATOM     21  O   UNL     1      76.430  86.177   7.148  1.00  0.00    -0.508 OA
ATOM     22  H   UNL     1      76.596  86.776   6.347  1.00  0.00     0.293 HD
ENDBRANCH  18  21
ENDBRANCH  11  13
ENDBRANCH   2  11
TORSDOF 6
ENDMDL
