MODEL 1
REMARK VINA RESULT:    -3.708      0.000      0.000
REMARK INTER + INTRA:          -7.725
REMARK INTER:                  -6.309
REMARK INTRA:                  -1.415
REMARK UNBOUND:                -1.415
REMARK SMILES CCCCCCCCCCCCCC(=O)[O-]
REMARK SMILES IDX 8 1 9 2 10 3 11 4 12 5 13 6 14 7 15 8 16 9 7 10 6 11 5 12
REMARK SMILES IDX 4 13 3 14 2 15 1 16
REMARK H PARENT
REMARK Flexibility Score: inf
ROOT
ATOM      1  C   UNL     1     118.878  53.868  54.265  1.00  0.00     0.000 C 
ENDROOT
BRANCH   1   2
ATOM      2  C   UNL     1     119.395  54.371  55.621  1.00  0.00     0.000 C 
BRANCH   2   3
ATOM      3  C   UNL     1     120.563  53.509  56.118  1.00  0.00     0.000 C 
BRANCH   3   4
ATOM      4  C   UNL     1     121.901  54.244  55.946  1.00  0.00     0.000 C 
BRANCH   4   5
ATOM      5  C   UNL     1     122.764  53.646  54.823  1.00  0.00     0.006 C 
BRANCH   5   6
ATOM      6  C   UNL     1     122.536  54.334  53.472  1.00  0.00     0.053 C 
BRANCH   6   7
ATOM      7  C   UNL     1     123.813  54.932  52.970  1.00  0.00     0.041 C 
ATOM      8  O   UNL     1     124.774  54.189  52.637  1.00  0.00    -0.550 OA
ATOM      9  O   UNL     1     123.959  56.312  52.914  1.00  0.00    -0.550 OA
ENDBRANCH   6   7
ENDBRANCH   5   6
ENDBRANCH   4   5
ENDBRANCH   3   4
ENDBRANCH   2   3
ENDBRANCH   1   2
BRANCH   1  10
ATOM     10  C   UNL     1     118.970  52.341  54.125  1.00  0.00     0.000 C 
BRANCH  10  11
ATOM     11  C   UNL     1     117.603  51.684  53.883  1.00  0.00    -0.000 C 
BRANCH  11  12
ATOM     12  C   UNL     1     116.466  52.586  54.386  1.00  0.00    -0.000 C 
BRANCH  12  13
ATOM     13  C   UNL     1     115.311  52.713  53.375  1.00  0.00    -0.000 C 
BRANCH  13  14
ATOM     14  C   UNL     1     115.739  52.760  51.894  1.00  0.00    -0.000 C 
BRANCH  14  15
ATOM     15  C   UNL     1     116.241  54.131  51.408  1.00  0.00    -0.003 C 
ATOM     16  C   UNL     1     117.629  54.066  50.772  1.00  0.00     0.004 C 
ENDBRANCH  14  15
ENDBRANCH  13  14
ENDBRANCH  12  13
ENDBRANCH  11  12
ENDBRANCH  10  11
ENDBRANCH   1  10
TORSDOF 12
ENDMDL
MODEL 2
REMARK VINA RESULT:    -3.639      1.705      3.436
REMARK INTER + INTRA:          -7.607
REMARK INTER:                  -6.615
REMARK INTRA:                  -0.992
REMARK UNBOUND:                -1.415
REMARK SMILES CCCCCCCCCCCCCC(=O)[O-]
REMARK SMILES IDX 8 1 9 2 10 3 11 4 12 5 13 6 14 7 15 8 16 9 7 10 6 11 5 12
REMARK SMILES IDX 4 13 3 14 2 15 1 16
REMARK H PARENT
REMARK Flexibility Score: inf
ROOT
ATOM      1  C   UNL     1     121.859  54.076  55.286  1.00  0.00     0.000 C 
ENDROOT
BRANCH   1   2
ATOM      2  C   UNL     1     122.713  53.170  54.387  1.00  0.00     0.000 C 
BRANCH   2   3
ATOM      3  C   UNL     1     123.524  54.000  53.383  1.00  0.00     0.000 C 
BRANCH   3   4
ATOM      4  C   UNL     1     122.597  54.757  52.419  1.00  0.00     0.000 C 
BRANCH   4   5
ATOM      5  C   UNL     1     123.347  55.800  51.575  1.00  0.00     0.006 C 
BRANCH   5   6
ATOM      6  C   UNL     1     124.553  56.398  52.309  1.00  0.00     0.053 C 
BRANCH   6   7
ATOM      7  C   UNL     1     124.715  57.843  51.956  1.00  0.00     0.041 C 
ATOM      8  O   UNL     1     123.711  58.537  51.648  1.00  0.00    -0.550 OA
ATOM      9  O   UNL     1     125.982  58.412  51.921  1.00  0.00    -0.550 OA
ENDBRANCH   6   7
ENDBRANCH   5   6
ENDBRANCH   4   5
ENDBRANCH   3   4
ENDBRANCH   2   3
ENDBRANCH   1   2
BRANCH   1  10
ATOM     10  C   UNL     1     120.628  53.355  55.856  1.00  0.00     0.000 C 
BRANCH  10  11
ATOM     11  C   UNL     1     119.309  54.044  55.478  1.00  0.00    -0.000 C 
BRANCH  11  12
ATOM     12  C   UNL     1     119.225  54.270  53.961  1.00  0.00    -0.000 C 
BRANCH  12  13
ATOM     13  C   UNL     1     118.380  53.202  53.242  1.00  0.00    -0.000 C 
BRANCH  13  14
ATOM     14  C   UNL     1     117.700  52.173  54.168  1.00  0.00    -0.000 C 
BRANCH  14  15
ATOM     15  C   UNL     1     116.163  52.165  54.110  1.00  0.00    -0.003 C 
ATOM     16  C   UNL     1     115.595  53.234  53.178  1.00  0.00     0.004 C 
ENDBRANCH  14  15
ENDBRANCH  13  14
ENDBRANCH  12  13
ENDBRANCH  11  12
ENDBRANCH  10  11
ENDBRANCH   1  10
TORSDOF 12
ENDMDL
MODEL 3
REMARK VINA RESULT:    -3.599      1.216      2.395
REMARK INTER + INTRA:          -7.539
REMARK INTER:                  -6.047
REMARK INTRA:                  -1.492
REMARK UNBOUND:                -1.415
REMARK SMILES CCCCCCCCCCCCCC(=O)[O-]
REMARK SMILES IDX 8 1 9 2 10 3 11 4 12 5 13 6 14 7 15 8 16 9 7 10 6 11 5 12
REMARK SMILES IDX 4 13 3 14 2 15 1 16
REMARK H PARENT
REMARK Flexibility Score: inf
ROOT
ATOM      1  C   UNL     1     117.912  51.614  53.671  1.00  0.00     0.000 C 
ENDROOT
BRANCH   1   2
ATOM      2  C   UNL     1     119.121  52.294  54.330  1.00  0.00     0.000 C 
BRANCH   2   3
ATOM      3  C   UNL     1     118.753  53.694  54.841  1.00  0.00     0.000 C 
BRANCH   3   4
ATOM      4  C   UNL     1     119.693  54.130  55.974  1.00  0.00     0.000 C 
BRANCH   4   5
ATOM      5  C   UNL     1     120.963  53.267  56.055  1.00  0.00     0.006 C 
BRANCH   5   6
ATOM      6  C   UNL     1     122.228  54.038  55.661  1.00  0.00     0.053 C 
BRANCH   6   7
ATOM      7  C   UNL     1     122.609  53.727  54.248  1.00  0.00     0.041 C 
ATOM      8  O   UNL     1     122.073  54.352  53.294  1.00  0.00    -0.550 OA
ATOM      9  O   UNL     1     123.521  52.715  53.980  1.00  0.00    -0.550 OA
ENDBRANCH   6   7
ENDBRANCH   5   6
ENDBRANCH   4   5
ENDBRANCH   3   4
ENDBRANCH   2   3
ENDBRANCH   1   2
BRANCH   1  10
ATOM     10  C   UNL     1     116.581  51.995  54.337  1.00  0.00     0.000 C 
BRANCH  10  11
ATOM     11  C   UNL     1     115.457  52.236  53.319  1.00  0.00    -0.000 C 
BRANCH  11  12
ATOM     12  C   UNL     1     115.545  53.653  52.731  1.00  0.00    -0.000 C 
BRANCH  12  13
ATOM     13  C   UNL     1     115.532  53.664  51.191  1.00  0.00    -0.000 C 
BRANCH  13  14
ATOM     14  C   UNL     1     116.919  53.776  50.526  1.00  0.00    -0.000 C 
BRANCH  14  15
ATOM     15  C   UNL     1     117.980  54.515  51.360  1.00  0.00    -0.003 C 
ATOM     16  C   UNL     1     118.029  56.015  51.068  1.00  0.00     0.004 C 
ENDBRANCH  14  15
ENDBRANCH  13  14
ENDBRANCH  12  13
ENDBRANCH  11  12
ENDBRANCH  10  11
ENDBRANCH   1  10
TORSDOF 12
ENDMDL
MODEL 4
REMARK VINA RESULT:    -3.545      6.879      9.873
REMARK INTER + INTRA:          -7.448
REMARK INTER:                  -6.391
REMARK INTRA:                  -1.057
REMARK UNBOUND:                -1.415
REMARK SMILES CCCCCCCCCCCCCC(=O)[O-]
REMARK SMILES IDX 8 1 9 2 10 3 11 4 12 5 13 6 14 7 15 8 16 9 7 10 6 11 5 12
REMARK SMILES IDX 4 13 3 14 2 15 1 16
REMARK H PARENT
REMARK Flexibility Score: inf
ROOT
ATOM      1  C   UNL     1     123.995  56.375  46.273  1.00  0.00     0.000 C 
ENDROOT
BRANCH   1   2
ATOM      2  C   UNL     1     125.036  55.750  47.214  1.00  0.00     0.000 C 
BRANCH   2   3
ATOM      3  C   UNL     1     124.444  55.515  48.610  1.00  0.00     0.000 C 
BRANCH   3   4
ATOM      4  C   UNL     1     123.236  56.432  48.856  1.00  0.00     0.000 C 
BRANCH   4   5
ATOM      5  C   UNL     1     122.735  56.372  50.308  1.00  0.00     0.006 C 
BRANCH   5   6
ATOM      6  C   UNL     1     122.995  57.673  51.077  1.00  0.00     0.053 C 
BRANCH   6   7
ATOM      7  C   UNL     1     124.193  57.525  51.962  1.00  0.00     0.041 C 
ATOM      8  O   UNL     1     124.297  56.530  52.727  1.00  0.00    -0.550 OA
ATOM      9  O   UNL     1     125.172  58.510  51.977  1.00  0.00    -0.550 OA
ENDBRANCH   6   7
ENDBRANCH   5   6
ENDBRANCH   4   5
ENDBRANCH   3   4
ENDBRANCH   2   3
ENDBRANCH   1   2
BRANCH   1  10
ATOM     10  C   UNL     1     124.622  56.940  44.989  1.00  0.00     0.000 C 
BRANCH  10  11
ATOM     11  C   UNL     1     124.436  56.010  43.781  1.00  0.00    -0.000 C 
BRANCH  11  12
ATOM     12  C   UNL     1     125.775  55.762  43.069  1.00  0.00    -0.000 C 
BRANCH  12  13
ATOM     13  C   UNL     1     126.457  54.455  43.514  1.00  0.00    -0.000 C 
BRANCH  13  14
ATOM     14  C   UNL     1     125.638  53.173  43.267  1.00  0.00    -0.000 C 
BRANCH  14  15
ATOM     15  C   UNL     1     125.331  52.347  44.528  1.00  0.00    -0.003 C 
ATOM     16  C   UNL     1     126.248  52.688  45.702  1.00  0.00     0.004 C 
ENDBRANCH  14  15
ENDBRANCH  13  14
ENDBRANCH  12  13
ENDBRANCH  11  12
ENDBRANCH  10  11
ENDBRANCH   1  10
TORSDOF 12
ENDMDL
MODEL 5
REMARK VINA RESULT:    -3.528      3.377      6.457
REMARK INTER + INTRA:          -7.418
REMARK INTER:                  -6.022
REMARK INTRA:                  -1.395
REMARK UNBOUND:                -1.415
REMARK SMILES CCCCCCCCCCCCCC(=O)[O-]
REMARK SMILES IDX 8 1 9 2 10 3 11 4 12 5 13 6 14 7 15 8 16 9 7 10 6 11 5 12
REMARK SMILES IDX 4 13 3 14 2 15 1 16
REMARK H PARENT
REMARK Flexibility Score: inf
ROOT
ATOM      1  C   UNL     1     118.835  53.853  54.784  1.00  0.00     0.000 C 
ENDROOT
BRANCH   1   2
ATOM      2  C   UNL     1     119.191  52.635  53.918  1.00  0.00     0.000 C 
BRANCH   2   3
ATOM      3  C   UNL     1     118.045  51.615  53.908  1.00  0.00     0.000 C 
BRANCH   3   4
ATOM      4  C   UNL     1     116.775  52.208  54.536  1.00  0.00     0.000 C 
BRANCH   4   5
ATOM      5  C   UNL     1     115.571  52.173  53.580  1.00  0.00     0.006 C 
BRANCH   5   6
ATOM      6  C   UNL     1     115.306  53.529  52.914  1.00  0.00     0.053 C 
BRANCH   6   7
ATOM      7  C   UNL     1     115.500  53.429  51.434  1.00  0.00     0.041 C 
ATOM      8  O   UNL     1     115.253  54.417  50.693  1.00  0.00    -0.550 OA
ATOM      9  O   UNL     1     115.907  52.228  50.865  1.00  0.00    -0.550 OA
ENDBRANCH   6   7
ENDBRANCH   5   6
ENDBRANCH   4   5
ENDBRANCH   3   4
ENDBRANCH   2   3
ENDBRANCH   1   2
BRANCH   1  10
ATOM     10  C   UNL     1     119.959  54.234  55.760  1.00  0.00     0.000 C 
BRANCH  10  11
ATOM     11  C   UNL     1     120.946  53.083  56.005  1.00  0.00    -0.000 C 
BRANCH  11  12
ATOM     12  C   UNL     1     122.371  53.487  55.597  1.00  0.00    -0.000 C 
BRANCH  12  13
ATOM     13  C   UNL     1     122.840  52.802  54.300  1.00  0.00    -0.000 C 
BRANCH  13  14
ATOM     14  C   UNL     1     123.665  53.695  53.351  1.00  0.00    -0.000 C 
BRANCH  14  15
ATOM     15  C   UNL     1     122.930  54.942  52.831  1.00  0.00    -0.003 C 
ATOM     16  C   UNL     1     121.665  54.604  52.043  1.00  0.00     0.004 C 
ENDBRANCH  14  15
ENDBRANCH  13  14
ENDBRANCH  12  13
ENDBRANCH  11  12
ENDBRANCH  10  11
ENDBRANCH   1  10
TORSDOF 12
ENDMDL
MODEL 6
REMARK VINA RESULT:    -3.493      5.390      7.191
REMARK INTER + INTRA:          -7.359
REMARK INTER:                  -5.270
REMARK INTRA:                  -2.088
REMARK UNBOUND:                -1.415
REMARK SMILES CCCCCCCCCCCCCC(=O)[O-]
REMARK SMILES IDX 8 1 9 2 10 3 11 4 12 5 13 6 14 7 15 8 16 9 7 10 6 11 5 12
REMARK SMILES IDX 4 13 3 14 2 15 1 16
REMARK H PARENT
REMARK Flexibility Score: inf
ROOT
ATOM      1  C   UNL     1     118.559  51.401  53.533  1.00  0.00     0.000 C 
ENDROOT
BRANCH   1   2
ATOM      2  C   UNL     1     118.462  50.993  52.055  1.00  0.00     0.000 C 
BRANCH   2   3
ATOM      3  C   UNL     1     117.517  49.798  51.875  1.00  0.00     0.000 C 
BRANCH   3   4
ATOM      4  C   UNL     1     116.480  50.078  50.778  1.00  0.00     0.000 C 
BRANCH   4   5
ATOM      5  C   UNL     1     115.045  49.754  51.224  1.00  0.00     0.006 C 
BRANCH   5   6
ATOM      6  C   UNL     1     114.322  48.814  50.251  1.00  0.00     0.053 C 
BRANCH   6   7
ATOM      7  C   UNL     1     114.892  47.434  50.339  1.00  0.00     0.041 C 
ATOM      8  O   UNL     1     115.167  46.793  49.290  1.00  0.00    -0.550 OA
ATOM      9  O   UNL     1     115.077  46.835  51.579  1.00  0.00    -0.550 OA
ENDBRANCH   6   7
ENDBRANCH   5   6
ENDBRANCH   4   5
ENDBRANCH   3   4
ENDBRANCH   2   3
ENDBRANCH   1   2
BRANCH   1  10
ATOM     10  C   UNL     1     117.703  52.633  53.865  1.00  0.00     0.000 C 
BRANCH  10  11
ATOM     11  C   UNL     1     116.293  52.263  54.348  1.00  0.00    -0.000 C 
BRANCH  11  12
ATOM     12  C   UNL     1     115.234  52.671  53.313  1.00  0.00    -0.000 C 
BRANCH  12  13
ATOM     13  C   UNL     1     115.715  53.792  52.373  1.00  0.00    -0.000 C 
BRANCH  13  14
ATOM     14  C   UNL     1     115.365  53.594  50.884  1.00  0.00    -0.000 C 
BRANCH  14  15
ATOM     15  C   UNL     1     116.566  53.636  49.924  1.00  0.00    -0.003 C 
ATOM     16  C   UNL     1     117.775  54.362  50.512  1.00  0.00     0.004 C 
ENDBRANCH  14  15
ENDBRANCH  13  14
ENDBRANCH  12  13
ENDBRANCH  11  12
ENDBRANCH  10  11
ENDBRANCH   1  10
TORSDOF 12
ENDMDL
MODEL 7
REMARK VINA RESULT:    -3.444      6.935      9.841
REMARK INTER + INTRA:          -7.275
REMARK INTER:                  -5.926
REMARK INTRA:                  -1.349
REMARK UNBOUND:                -1.415
REMARK SMILES CCCCCCCCCCCCCC(=O)[O-]
REMARK SMILES IDX 8 1 9 2 10 3 11 4 12 5 13 6 14 7 15 8 16 9 7 10 6 11 5 12
REMARK SMILES IDX 4 13 3 14 2 15 1 16
REMARK H PARENT
REMARK Flexibility Score: inf
ROOT
ATOM      1  C   UNL     1     124.982  53.570  46.422  1.00  0.00     0.000 C 
ENDROOT
BRANCH   1   2
ATOM      2  C   UNL     1     125.503  54.372  47.623  1.00  0.00     0.000 C 
BRANCH   2   3
ATOM      3  C   UNL     1     125.059  55.839  47.539  1.00  0.00     0.000 C 
BRANCH   3   4
ATOM      4  C   UNL     1     123.928  56.128  48.537  1.00  0.00     0.000 C 
BRANCH   4   5
ATOM      5  C   UNL     1     124.326  55.814  49.989  1.00  0.00     0.006 C 
BRANCH   5   6
ATOM      6  C   UNL     1     123.293  56.314  51.006  1.00  0.00     0.053 C 
BRANCH   6   7
ATOM      7  C   UNL     1     123.735  57.614  51.601  1.00  0.00     0.041 C 
ATOM      8  O   UNL     1     123.067  58.663  51.400  1.00  0.00    -0.550 OA
ATOM      9  O   UNL     1     124.911  57.678  52.338  1.00  0.00    -0.550 OA
ENDBRANCH   6   7
ENDBRANCH   5   6
ENDBRANCH   4   5
ENDBRANCH   3   4
ENDBRANCH   2   3
ENDBRANCH   1   2
BRANCH   1  10
ATOM     10  C   UNL     1     126.100  52.822  45.679  1.00  0.00     0.000 C 
BRANCH  10  11
ATOM     11  C   UNL     1     126.004  52.975  44.154  1.00  0.00    -0.000 C 
BRANCH  11  12
ATOM     12  C   UNL     1     126.725  54.248  43.684  1.00  0.00    -0.000 C 
BRANCH  12  13
ATOM     13  C   UNL     1     125.796  55.219  42.932  1.00  0.00    -0.000 C 
BRANCH  13  14
ATOM     14  C   UNL     1     125.393  56.482  43.721  1.00  0.00    -0.000 C 
BRANCH  14  15
ATOM     15  C   UNL     1     123.901  56.570  44.085  1.00  0.00    -0.003 C 
ATOM     16  C   UNL     1     123.134  55.285  43.774  1.00  0.00     0.004 C 
ENDBRANCH  14  15
ENDBRANCH  13  14
ENDBRANCH  12  13
ENDBRANCH  11  12
ENDBRANCH  10  11
ENDBRANCH   1  10
TORSDOF 12
ENDMDL
MODEL 8
REMARK VINA RESULT:    -3.427      2.149      3.933
REMARK INTER + INTRA:          -7.246
REMARK INTER:                  -5.565
REMARK INTRA:                  -1.681
REMARK UNBOUND:                -1.415
REMARK SMILES CCCCCCCCCCCCCC(=O)[O-]
REMARK SMILES IDX 8 1 9 2 10 3 11 4 12 5 13 6 14 7 15 8 16 9 7 10 6 11 5 12
REMARK SMILES IDX 4 13 3 14 2 15 1 16
REMARK H PARENT
REMARK Flexibility Score: inf
ROOT
ATOM      1  C   UNL     1     117.716  54.144  50.471  1.00  0.00     0.000 C 
ENDROOT
BRANCH   1   2
ATOM      2  C   UNL     1     118.828  55.053  51.015  1.00  0.00     0.000 C 
BRANCH   2   3
ATOM      3  C   UNL     1     118.751  55.160  52.544  1.00  0.00     0.000 C 
BRANCH   3   4
ATOM      4  C   UNL     1     119.366  53.922  53.213  1.00  0.00     0.000 C 
BRANCH   4   5
ATOM      5  C   UNL     1     118.755  53.631  54.594  1.00  0.00     0.006 C 
BRANCH   5   6
ATOM      6  C   UNL     1     119.623  54.153  55.745  1.00  0.00     0.053 C 
BRANCH   6   7
ATOM      7  C   UNL     1     121.001  53.577  55.660  1.00  0.00     0.041 C 
ATOM      8  O   UNL     1     121.185  52.342  55.828  1.00  0.00    -0.550 OA
ATOM      9  O   UNL     1     122.091  54.411  55.444  1.00  0.00    -0.550 OA
ENDBRANCH   6   7
ENDBRANCH   5   6
ENDBRANCH   4   5
ENDBRANCH   3   4
ENDBRANCH   2   3
ENDBRANCH   1   2
BRANCH   1  10
ATOM     10  C   UNL     1     116.309  54.661  50.809  1.00  0.00     0.000 C 
BRANCH  10  11
ATOM     11  C   UNL     1     115.369  53.548  51.294  1.00  0.00    -0.000 C 
BRANCH  11  12
ATOM     12  C   UNL     1     115.542  53.303  52.801  1.00  0.00    -0.000 C 
BRANCH  12  13
ATOM     13  C   UNL     1     115.771  51.819  53.144  1.00  0.00    -0.000 C 
BRANCH  13  14
ATOM     14  C   UNL     1     116.952  51.152  52.409  1.00  0.00    -0.000 C 
BRANCH  14  15
ATOM     15  C   UNL     1     116.580  49.921  51.566  1.00  0.00    -0.003 C 
ATOM     16  C   UNL     1     115.090  49.854  51.234  1.00  0.00     0.004 C 
ENDBRANCH  14  15
ENDBRANCH  13  14
ENDBRANCH  12  13
ENDBRANCH  11  12
ENDBRANCH  10  11
ENDBRANCH   1  10
TORSDOF 12
ENDMDL
MODEL 9
REMARK VINA RESULT:    -3.360      2.742      6.078
REMARK INTER + INTRA:          -7.133
REMARK INTER:                  -5.810
REMARK INTRA:                  -1.323
REMARK UNBOUND:                -1.415
REMARK SMILES CCCCCCCCCCCCCC(=O)[O-]
REMARK SMILES IDX 8 1 9 2 10 3 11 4 12 5 13 6 14 7 15 8 16 9 7 10 6 11 5 12
REMARK SMILES IDX 4 13 3 14 2 15 1 16
REMARK H PARENT
REMARK Flexibility Score: inf
ROOT
ATOM      1  C   UNL     1     117.882  52.025  53.873  1.00  0.00     0.000 C 
ENDROOT
BRANCH   1   2
ATOM      2  C   UNL     1     116.681  52.591  54.646  1.00  0.00     0.000 C 
BRANCH   2   3
ATOM      3  C   UNL     1     115.597  53.096  53.685  1.00  0.00     0.000 C 
BRANCH   3   4
ATOM      4  C   UNL     1     115.875  52.630  52.248  1.00  0.00     0.000 C 
BRANCH   4   5
ATOM      5  C   UNL     1     115.819  53.781  51.231  1.00  0.00     0.006 C 
BRANCH   5   6
ATOM      6  C   UNL     1     117.212  54.259  50.803  1.00  0.00     0.053 C 
BRANCH   6   7
ATOM      7  C   UNL     1     117.134  55.633  50.216  1.00  0.00     0.041 C 
ATOM      8  O   UNL     1     116.126  55.980  49.545  1.00  0.00    -0.550 OA
ATOM      9  O   UNL     1     118.195  56.516  50.368  1.00  0.00    -0.550 OA
ENDBRANCH   6   7
ENDBRANCH   5   6
ENDBRANCH   4   5
ENDBRANCH   3   4
ENDBRANCH   2   3
ENDBRANCH   1   2
BRANCH   1  10
ATOM     10  C   UNL     1     119.141  52.894  54.014  1.00  0.00     0.000 C 
BRANCH  10  11
ATOM     11  C   UNL     1     118.876  54.200  54.778  1.00  0.00    -0.000 C 
BRANCH  11  12
ATOM     12  C   UNL     1     119.614  54.207  56.125  1.00  0.00    -0.000 C 
BRANCH  12  13
ATOM     13  C   UNL     1     120.880  53.330  56.119  1.00  0.00    -0.000 C 
BRANCH  13  14
ATOM     14  C   UNL     1     122.206  54.096  55.938  1.00  0.00    -0.000 C 
BRANCH  14  15
ATOM     15  C   UNL     1     122.753  54.116  54.501  1.00  0.00    -0.003 C 
ATOM     16  C   UNL     1     122.907  52.719  53.902  1.00  0.00     0.004 C 
ENDBRANCH  14  15
ENDBRANCH  13  14
ENDBRANCH  12  13
ENDBRANCH  11  12
ENDBRANCH  10  11
ENDBRANCH   1  10
TORSDOF 12
ENDMDL
