MODEL 1
REMARK VINA RESULT:    -4.116      0.000      0.000
REMARK INTER + INTRA:          -4.609
REMARK INTER:                  -4.477
REMARK INTRA:                  -0.132
REMARK UNBOUND:                -0.132
REMARK SMILES CC1=CC[C@](O)(C(C)C)CC1
REMARK SMILES IDX 1 1 2 2 3 3 4 4 5 5 10 6 11 7 7 8 8 9 9 10 6 11
REMARK H PARENT 6 12
REMARK Flexibility Score: inf
ROOT
ATOM      1  C   UNL     1     -40.110  26.432   3.003  1.00  0.00     0.039 C 
ATOM      2  C   UNL     1     -39.648  25.623   4.184  1.00  0.00    -0.077 C 
ATOM      3  C   UNL     1     -40.122  25.922   5.408  1.00  0.00    -0.025 C 
ATOM      4  C   UNL     1     -39.689  25.208   6.663  1.00  0.00     0.062 C 
ATOM      5  C   UNL     1     -39.060  23.802   6.422  1.00  0.00     0.071 C 
ATOM      6  C   UNL     1     -38.088  23.900   5.217  1.00  0.00     0.040 C 
ATOM      7  C   UNL     1     -38.772  24.416   3.945  1.00  0.00     0.033 C 
ENDROOT
BRANCH   5   8
ATOM      8  C   UNL     1     -38.284  23.342   7.710  1.00  0.00     0.015 C 
ATOM      9  C   UNL     1     -36.754  23.453   7.556  1.00  0.00     0.010 C 
ATOM     10  C   UNL     1     -38.639  21.898   8.122  1.00  0.00     0.010 C 
ENDBRANCH   5   8
BRANCH   5  11
ATOM     11  O   UNL     1     -40.066  22.849   6.150  1.00  0.00    -0.389 OA
ATOM     12  H   UNL     1     -40.357  22.945   5.207  1.00  0.00     0.211 HD
ENDBRANCH   5  11
TORSDOF 2
ENDMDL
MODEL 2
REMARK VINA RESULT:    -4.092      1.210      1.932
REMARK INTER + INTRA:          -4.583
REMARK INTER:                  -4.438
REMARK INTRA:                  -0.144
REMARK UNBOUND:                -0.132
REMARK SMILES CC1=CC[C@](O)(C(C)C)CC1
REMARK SMILES IDX 1 1 2 2 3 3 4 4 5 5 10 6 11 7 7 8 8 9 9 10 6 11
REMARK H PARENT 6 12
REMARK Flexibility Score: inf
ROOT
ATOM      1  C   UNL     1     -40.125  26.575   2.907  1.00  0.00     0.039 C 
ATOM      2  C   UNL     1     -39.774  25.754   4.117  1.00  0.00    -0.077 C 
ATOM      3  C   UNL     1     -39.055  24.627   3.958  1.00  0.00    -0.025 C 
ATOM      4  C   UNL     1     -38.690  23.707   5.096  1.00  0.00     0.062 C 
ATOM      5  C   UNL     1     -38.751  24.369   6.506  1.00  0.00     0.071 C 
ATOM      6  C   UNL     1     -40.043  25.224   6.591  1.00  0.00     0.040 C 
ATOM      7  C   UNL     1     -40.122  26.287   5.487  1.00  0.00     0.033 C 
ENDROOT
BRANCH   5   8
ATOM      8  C   UNL     1     -38.767  23.252   7.613  1.00  0.00     0.015 C 
ATOM      9  C   UNL     1     -37.351  22.807   8.033  1.00  0.00     0.010 C 
ATOM     10  C   UNL     1     -39.569  22.008   7.176  1.00  0.00     0.010 C 
ENDBRANCH   5   8
BRANCH   5  11
ATOM     11  O   UNL     1     -37.620  25.186   6.720  1.00  0.00    -0.389 OA
ATOM     12  H   UNL     1     -37.806  25.808   7.469  1.00  0.00     0.211 HD
ENDBRANCH   5  11
TORSDOF 2
ENDMDL
MODEL 3
REMARK VINA RESULT:    -2.037     19.125     20.561
REMARK INTER + INTRA:          -2.348
REMARK INTER:                  -2.247
REMARK INTRA:                  -0.101
REMARK UNBOUND:                -0.132
REMARK SMILES CC1=CC[C@](O)(C(C)C)CC1
REMARK SMILES IDX 1 1 2 2 3 3 4 4 5 5 10 6 11 7 7 8 8 9 9 10 6 11
REMARK H PARENT 6 12
REMARK Flexibility Score: inf
ROOT
ATOM      1  C   UNL     1     -33.380  35.005 -12.106  1.00  0.00     0.039 C 
ATOM      2  C   UNL     1     -34.861  34.767 -11.995  1.00  0.00    -0.077 C 
ATOM      3  C   UNL     1     -35.333  33.512 -12.125  1.00  0.00    -0.025 C 
ATOM      4  C   UNL     1     -36.801  33.170 -12.079  1.00  0.00     0.062 C 
ATOM      5  C   UNL     1     -37.694  34.243 -11.386  1.00  0.00     0.071 C 
ATOM      6  C   UNL     1     -37.245  35.645 -11.877  1.00  0.00     0.040 C 
ATOM      7  C   UNL     1     -35.759  35.918 -11.609  1.00  0.00     0.033 C 
ENDROOT
BRANCH   5   8
ATOM      8  C   UNL     1     -39.202  33.995 -11.757  1.00  0.00     0.015 C 
ATOM      9  C   UNL     1     -40.121  35.158 -11.330  1.00  0.00     0.010 C 
ATOM     10  C   UNL     1     -39.744  32.685 -11.150  1.00  0.00     0.010 C 
ENDBRANCH   5   8
BRANCH   5  11
ATOM     11  O   UNL     1     -37.566  34.163  -9.982  1.00  0.00    -0.389 OA
ATOM     12  H   UNL     1     -37.844  35.026  -9.582  1.00  0.00     0.211 HD
ENDBRANCH   5  11
TORSDOF 2
ENDMDL
