MODEL 1
REMARK VINA RESULT:    -4.681      0.000      0.000
REMARK INTER + INTRA:          -9.282
REMARK INTER:                  -8.238
REMARK INTRA:                  -1.043
REMARK UNBOUND:                -1.043
REMARK SMILES CCCCCCC=CCCCCCCCC(=O)[O-]
REMARK SMILES IDX 10 1 11 2 12 3 13 4 14 5 15 6 16 7 17 8 18 9 9 10 8 11 7 12
REMARK SMILES IDX 6 13 5 14 4 15 3 16 2 17 1 18
REMARK H PARENT
REMARK Flexibility Score: inf
ROOT
ATOM      1  C   UNL     1      -3.205  -5.265  -2.717  1.00  0.00     0.004 C 
ENDROOT
BRANCH   1   2
ATOM      2  C   UNL     1      -3.339  -4.223  -3.841  1.00  0.00     0.000 C 
BRANCH   2   3
ATOM      3  C   UNL     1      -3.150  -4.835  -5.238  1.00  0.00     0.000 C 
BRANCH   3   4
ATOM      4  C   UNL     1      -1.721  -4.648  -5.776  1.00  0.00     0.000 C 
BRANCH   4   5
ATOM      5  C   UNL     1      -0.764  -5.765  -5.323  1.00  0.00     0.006 C 
BRANCH   5   6
ATOM      6  C   UNL     1      -1.428  -7.145  -5.182  1.00  0.00     0.053 C 
BRANCH   6   7
ATOM      7  C   UNL     1      -0.923  -7.892  -3.985  1.00  0.00     0.041 C 
ATOM      8  O   UNL     1      -1.462  -8.977  -3.642  1.00  0.00    -0.550 OA
ATOM      9  O   UNL     1       0.166  -7.408  -3.271  1.00  0.00    -0.550 OA
ENDBRANCH   6   7
ENDBRANCH   5   6
ENDBRANCH   4   5
ENDBRANCH   3   4
ENDBRANCH   2   3
ENDBRANCH   1   2
BRANCH   1  10
ATOM     10  C   UNL     1      -2.021  -4.963  -1.788  1.00  0.00     0.027 C 
BRANCH  10  11
ATOM     11  C   UNL     1      -2.105  -5.768  -0.513  1.00  0.00    -0.031 C 
ATOM     12  C   UNL     1      -1.328  -5.590   0.572  1.00  0.00    -0.031 C 
BRANCH  12  13
ATOM     13  C   UNL     1      -0.276  -4.519   0.722  1.00  0.00     0.027 C 
BRANCH  13  14
ATOM     14  C   UNL     1      -0.811  -3.247   1.404  1.00  0.00     0.004 C 
BRANCH  14  15
ATOM     15  C   UNL     1       0.263  -2.178   1.691  1.00  0.00     0.000 C 
BRANCH  15  16
ATOM     16  C   UNL     1      -0.171  -0.725   1.412  1.00  0.00    -0.000 C 
BRANCH  16  17
ATOM     17  C   UNL     1      -0.218  -0.337  -0.075  1.00  0.00    -0.003 C 
ATOM     18  C   UNL     1       0.149   1.126  -0.321  1.00  0.00     0.004 C 
ENDBRANCH  16  17
ENDBRANCH  15  16
ENDBRANCH  14  15
ENDBRANCH  13  14
ENDBRANCH  12  13
ENDBRANCH  10  11
ENDBRANCH   1  10
TORSDOF 13
ENDMDL
MODEL 2
REMARK VINA RESULT:    -4.665      6.353      9.015
REMARK INTER + INTRA:          -9.253
REMARK INTER:                  -8.502
REMARK INTRA:                  -0.751
REMARK UNBOUND:                -1.043
REMARK SMILES CCCCCCC=CCCCCCCCC(=O)[O-]
REMARK SMILES IDX 10 1 11 2 12 3 13 4 14 5 15 6 16 7 17 8 18 9 9 10 8 11 7 12
REMARK SMILES IDX 6 13 5 14 4 15 3 16 2 17 1 18
REMARK H PARENT
REMARK Flexibility Score: inf
ROOT
ATOM      1  C   UNL     1      -2.098  -8.765   3.839  1.00  0.00     0.004 C 
ENDROOT
BRANCH   1   2
ATOM      2  C   UNL     1      -1.264  -8.401   5.080  1.00  0.00     0.000 C 
BRANCH   2   3
ATOM      3  C   UNL     1      -2.008  -8.686   6.394  1.00  0.00     0.000 C 
BRANCH   3   4
ATOM      4  C   UNL     1      -3.078  -7.626   6.709  1.00  0.00     0.000 C 
BRANCH   4   5
ATOM      5  C   UNL     1      -4.501  -8.212   6.753  1.00  0.00     0.006 C 
BRANCH   5   6
ATOM      6  C   UNL     1      -5.277  -7.888   8.040  1.00  0.00     0.053 C 
BRANCH   6   7
ATOM      7  C   UNL     1      -6.719  -8.281   7.940  1.00  0.00     0.041 C 
ATOM      8  O   UNL     1      -7.544  -7.523   7.365  1.00  0.00    -0.550 OA
ATOM      9  O   UNL     1      -7.145  -9.501   8.451  1.00  0.00    -0.550 OA
ENDBRANCH   6   7
ENDBRANCH   5   6
ENDBRANCH   4   5
ENDBRANCH   3   4
ENDBRANCH   2   3
ENDBRANCH   1   2
BRANCH   1  10
ATOM     10  C   UNL     1      -1.727  -7.905   2.623  1.00  0.00     0.027 C 
BRANCH  10  11
ATOM     11  C   UNL     1      -2.531  -8.299   1.407  1.00  0.00    -0.031 C 
ATOM     12  C   UNL     1      -2.943  -7.456   0.441  1.00  0.00    -0.031 C 
BRANCH  12  13
ATOM     13  C   UNL     1      -2.628  -5.983   0.379  1.00  0.00     0.027 C 
BRANCH  13  14
ATOM     14  C   UNL     1      -1.420  -5.667  -0.521  1.00  0.00     0.004 C 
BRANCH  14  15
ATOM     15  C   UNL     1      -0.342  -4.788   0.143  1.00  0.00     0.000 C 
BRANCH  15  16
ATOM     16  C   UNL     1      -0.877  -3.743   1.143  1.00  0.00    -0.000 C 
BRANCH  16  17
ATOM     17  C   UNL     1       0.146  -2.682   1.583  1.00  0.00    -0.003 C 
ATOM     18  C   UNL     1      -0.424  -1.264   1.571  1.00  0.00     0.004 C 
ENDBRANCH  16  17
ENDBRANCH  15  16
ENDBRANCH  14  15
ENDBRANCH  13  14
ENDBRANCH  12  13
ENDBRANCH  10  11
ENDBRANCH   1  10
TORSDOF 13
ENDMDL
MODEL 3
REMARK VINA RESULT:    -4.487      3.756      5.712
REMARK INTER + INTRA:          -8.941
REMARK INTER:                  -7.909
REMARK INTRA:                  -1.032
REMARK UNBOUND:                -1.043
REMARK SMILES CCCCCCC=CCCCCCCCC(=O)[O-]
REMARK SMILES IDX 10 1 11 2 12 3 13 4 14 5 15 6 16 7 17 8 18 9 9 10 8 11 7 12
REMARK SMILES IDX 6 13 5 14 4 15 3 16 2 17 1 18
REMARK H PARENT
REMARK Flexibility Score: inf
ROOT
ATOM      1  C   UNL     1      -0.334  -5.102  -0.427  1.00  0.00     0.004 C 
ENDROOT
BRANCH   1   2
ATOM      2  C   UNL     1      -0.563  -4.030  -1.507  1.00  0.00     0.000 C 
BRANCH   2   3
ATOM      3  C   UNL     1      -0.854  -4.638  -2.888  1.00  0.00     0.000 C 
BRANCH   3   4
ATOM      4  C   UNL     1      -0.795  -6.175  -2.881  1.00  0.00     0.000 C 
BRANCH   4   5
ATOM      5  C   UNL     1      -2.128  -6.823  -3.298  1.00  0.00     0.006 C 
BRANCH   5   6
ATOM      6  C   UNL     1      -2.410  -6.769  -4.809  1.00  0.00     0.053 C 
BRANCH   6   7
ATOM      7  C   UNL     1      -3.537  -5.838  -5.138  1.00  0.00     0.041 C 
ATOM      8  O   UNL     1      -4.720  -6.269  -5.186  1.00  0.00    -0.550 OA
ATOM      9  O   UNL     1      -3.286  -4.489  -5.354  1.00  0.00    -0.550 OA
ENDBRANCH   6   7
ENDBRANCH   5   6
ENDBRANCH   4   5
ENDBRANCH   3   4
ENDBRANCH   2   3
ENDBRANCH   1   2
BRANCH   1  10
ATOM     10  C   UNL     1      -1.408  -5.055   0.668  1.00  0.00     0.027 C 
BRANCH  10  11
ATOM     11  C   UNL     1      -2.534  -6.019   0.373  1.00  0.00    -0.031 C 
ATOM     12  C   UNL     1      -2.692  -7.228   0.943  1.00  0.00    -0.031 C 
BRANCH  12  13
ATOM     13  C   UNL     1      -1.802  -7.807   2.015  1.00  0.00     0.027 C 
BRANCH  13  14
ATOM     14  C   UNL     1      -2.437  -9.013   2.731  1.00  0.00     0.004 C 
BRANCH  14  15
ATOM     15  C   UNL     1      -2.324  -8.972   4.268  1.00  0.00     0.000 C 
BRANCH  15  16
ATOM     16  C   UNL     1      -3.491  -8.269   4.990  1.00  0.00    -0.000 C 
BRANCH  16  17
ATOM     17  C   UNL     1      -3.227  -7.921   6.464  1.00  0.00    -0.003 C 
ATOM     18  C   UNL     1      -4.511  -7.754   7.276  1.00  0.00     0.004 C 
ENDBRANCH  16  17
ENDBRANCH  15  16
ENDBRANCH  14  15
ENDBRANCH  13  14
ENDBRANCH  12  13
ENDBRANCH  10  11
ENDBRANCH   1  10
TORSDOF 13
ENDMDL
MODEL 4
REMARK VINA RESULT:    -4.483      4.206      6.375
REMARK INTER + INTRA:          -8.932
REMARK INTER:                  -7.759
REMARK INTRA:                  -1.174
REMARK UNBOUND:                -1.043
REMARK SMILES CCCCCCC=CCCCCCCCC(=O)[O-]
REMARK SMILES IDX 10 1 11 2 12 3 13 4 14 5 15 6 16 7 17 8 18 9 9 10 8 11 7 12
REMARK SMILES IDX 6 13 5 14 4 15 3 16 2 17 1 18
REMARK H PARENT
REMARK Flexibility Score: inf
ROOT
ATOM      1  C   UNL     1      -2.656  -6.580   0.189  1.00  0.00     0.004 C 
ENDROOT
BRANCH   1   2
ATOM      2  C   UNL     1      -1.522  -5.606   0.554  1.00  0.00     0.000 C 
BRANCH   2   3
ATOM      3  C   UNL     1      -0.911  -4.923  -0.679  1.00  0.00     0.000 C 
BRANCH   3   4
ATOM      4  C   UNL     1      -1.459  -5.488  -2.000  1.00  0.00     0.000 C 
BRANCH   4   5
ATOM      5  C   UNL     1      -2.323  -4.472  -2.769  1.00  0.00     0.006 C 
BRANCH   5   6
ATOM      6  C   UNL     1      -3.668  -5.032  -3.261  1.00  0.00     0.053 C 
BRANCH   6   7
ATOM      7  C   UNL     1      -3.694  -5.204  -4.749  1.00  0.00     0.041 C 
ATOM      8  O   UNL     1      -3.035  -4.426  -5.488  1.00  0.00    -0.550 OA
ATOM      9  O   UNL     1      -4.417  -6.246  -5.317  1.00  0.00    -0.550 OA
ENDBRANCH   6   7
ENDBRANCH   5   6
ENDBRANCH   4   5
ENDBRANCH   3   4
ENDBRANCH   2   3
ENDBRANCH   1   2
BRANCH   1  10
ATOM     10  C   UNL     1      -2.529  -7.917   0.931  1.00  0.00     0.027 C 
BRANCH  10  11
ATOM     11  C   UNL     1      -1.770  -7.756   2.226  1.00  0.00    -0.031 C 
ATOM     12  C   UNL     1      -1.897  -8.550   3.306  1.00  0.00    -0.031 C 
BRANCH  12  13
ATOM     13  C   UNL     1      -2.780  -9.769   3.390  1.00  0.00     0.027 C 
BRANCH  13  14
ATOM     14  C   UNL     1      -4.259  -9.420   3.636  1.00  0.00     0.004 C 
BRANCH  14  15
ATOM     15  C   UNL     1      -4.482  -8.219   4.578  1.00  0.00     0.000 C 
BRANCH  15  16
ATOM     16  C   UNL     1      -4.301  -8.524   6.078  1.00  0.00    -0.000 C 
BRANCH  16  17
ATOM     17  C   UNL     1      -3.348  -7.574   6.822  1.00  0.00    -0.003 C 
ATOM     18  C   UNL     1      -1.973  -8.190   7.078  1.00  0.00     0.004 C 
ENDBRANCH  16  17
ENDBRANCH  15  16
ENDBRANCH  14  15
ENDBRANCH  13  14
ENDBRANCH  12  13
ENDBRANCH  10  11
ENDBRANCH   1  10
TORSDOF 13
ENDMDL
MODEL 5
REMARK VINA RESULT:    -4.472      3.371      6.793
REMARK INTER + INTRA:          -8.913
REMARK INTER:                  -7.088
REMARK INTRA:                  -1.826
REMARK UNBOUND:                -1.043
REMARK SMILES CCCCCCC=CCCCCCCCC(=O)[O-]
REMARK SMILES IDX 10 1 11 2 12 3 13 4 14 5 15 6 16 7 17 8 18 9 9 10 8 11 7 12
REMARK SMILES IDX 6 13 5 14 4 15 3 16 2 17 1 18
REMARK H PARENT
REMARK Flexibility Score: inf
ROOT
ATOM      1  C   UNL     1      -0.672  -4.411  -0.739  1.00  0.00     0.004 C 
ENDROOT
BRANCH   1   2
ATOM      2  C   UNL     1      -1.212  -4.784   0.653  1.00  0.00     0.000 C 
BRANCH   2   3
ATOM      3  C   UNL     1      -2.202  -5.958   0.606  1.00  0.00     0.000 C 
BRANCH   3   4
ATOM      4  C   UNL     1      -1.736  -7.158   1.447  1.00  0.00     0.000 C 
BRANCH   4   5
ATOM      5  C   UNL     1      -2.614  -8.406   1.243  1.00  0.00     0.006 C 
BRANCH   5   6
ATOM      6  C   UNL     1      -3.163  -9.010   2.546  1.00  0.00     0.053 C 
BRANCH   6   7
ATOM      7  C   UNL     1      -4.310  -8.217   3.095  1.00  0.00     0.041 C 
ATOM      8  O   UNL     1      -4.463  -8.104   4.340  1.00  0.00    -0.550 OA
ATOM      9  O   UNL     1      -5.186  -7.572   2.231  1.00  0.00    -0.550 OA
ENDBRANCH   6   7
ENDBRANCH   5   6
ENDBRANCH   4   5
ENDBRANCH   3   4
ENDBRANCH   2   3
ENDBRANCH   1   2
BRANCH   1  10
ATOM     10  C   UNL     1      -1.441  -5.115  -1.864  1.00  0.00     0.027 C 
BRANCH  10  11
ATOM     11  C   UNL     1      -0.588  -6.165  -2.538  1.00  0.00    -0.031 C 
ATOM     12  C   UNL     1      -0.970  -7.429  -2.795  1.00  0.00    -0.031 C 
BRANCH  12  13
ATOM     13  C   UNL     1      -2.335  -8.002  -2.503  1.00  0.00     0.027 C 
BRANCH  13  14
ATOM     14  C   UNL     1      -3.191  -8.184  -3.770  1.00  0.00     0.004 C 
BRANCH  14  15
ATOM     15  C   UNL     1      -2.881  -7.179  -4.898  1.00  0.00     0.000 C 
BRANCH  15  16
ATOM     16  C   UNL     1      -3.843  -5.978  -4.984  1.00  0.00    -0.000 C 
BRANCH  16  17
ATOM     17  C   UNL     1      -3.161  -4.615  -5.194  1.00  0.00    -0.003 C 
ATOM     18  C   UNL     1      -1.731  -4.738  -5.717  1.00  0.00     0.004 C 
ENDBRANCH  16  17
ENDBRANCH  15  16
ENDBRANCH  14  15
ENDBRANCH  13  14
ENDBRANCH  12  13
ENDBRANCH  10  11
ENDBRANCH   1  10
TORSDOF 13
ENDMDL
MODEL 6
REMARK VINA RESULT:    -4.463      4.582      7.573
REMARK INTER + INTRA:          -8.899
REMARK INTER:                  -7.207
REMARK INTRA:                  -1.692
REMARK UNBOUND:                -1.043
REMARK SMILES CCCCCCC=CCCCCCCCC(=O)[O-]
REMARK SMILES IDX 10 1 11 2 12 3 13 4 14 5 15 6 16 7 17 8 18 9 9 10 8 11 7 12
REMARK SMILES IDX 6 13 5 14 4 15 3 16 2 17 1 18
REMARK H PARENT
REMARK Flexibility Score: inf
ROOT
ATOM      1  C   UNL     1      -2.751  -5.927   0.318  1.00  0.00     0.004 C 
ENDROOT
BRANCH   1   2
ATOM      2  C   UNL     1      -3.034  -7.265   1.022  1.00  0.00     0.000 C 
BRANCH   2   3
ATOM      3  C   UNL     1      -1.822  -7.784   1.811  1.00  0.00     0.000 C 
BRANCH   3   4
ATOM      4  C   UNL     1      -2.187  -8.931   2.769  1.00  0.00     0.000 C 
BRANCH   4   5
ATOM      5  C   UNL     1      -3.385  -8.591   3.674  1.00  0.00     0.006 C 
BRANCH   5   6
ATOM      6  C   UNL     1      -3.095  -8.723   5.179  1.00  0.00     0.053 C 
BRANCH   6   7
ATOM      7  C   UNL     1      -4.123  -8.020   6.012  1.00  0.00     0.041 C 
ATOM      8  O   UNL     1      -5.323  -8.401   5.993  1.00  0.00    -0.550 OA
ATOM      9  O   UNL     1      -3.747  -6.967   6.837  1.00  0.00    -0.550 OA
ENDBRANCH   6   7
ENDBRANCH   5   6
ENDBRANCH   4   5
ENDBRANCH   3   4
ENDBRANCH   2   3
ENDBRANCH   1   2
BRANCH   1  10
ATOM     10  C   UNL     1      -1.361  -5.376   0.662  1.00  0.00     0.027 C 
BRANCH  10  11
ATOM     11  C   UNL     1      -0.788  -4.578  -0.486  1.00  0.00    -0.031 C 
ATOM     12  C   UNL     1      -0.252  -5.100  -1.605  1.00  0.00    -0.031 C 
BRANCH  12  13
ATOM     13  C   UNL     1      -0.180  -6.571  -1.930  1.00  0.00     0.027 C 
BRANCH  13  14
ATOM     14  C   UNL     1      -1.051  -6.960  -3.138  1.00  0.00     0.004 C 
BRANCH  14  15
ATOM     15  C   UNL     1      -2.401  -7.606  -2.768  1.00  0.00     0.000 C 
BRANCH  15  16
ATOM     16  C   UNL     1      -3.645  -6.886  -3.325  1.00  0.00    -0.000 C 
BRANCH  16  17
ATOM     17  C   UNL     1      -3.367  -5.518  -3.971  1.00  0.00    -0.003 C 
ATOM     18  C   UNL     1      -3.563  -4.351  -3.003  1.00  0.00     0.004 C 
ENDBRANCH  16  17
ENDBRANCH  15  16
ENDBRANCH  14  15
ENDBRANCH  13  14
ENDBRANCH  12  13
ENDBRANCH  10  11
ENDBRANCH   1  10
TORSDOF 13
ENDMDL
MODEL 7
REMARK VINA RESULT:    -4.421      2.287      3.491
REMARK INTER + INTRA:          -8.824
REMARK INTER:                  -7.141
REMARK INTRA:                  -1.683
REMARK UNBOUND:                -1.043
REMARK SMILES CCCCCCC=CCCCCCCCC(=O)[O-]
REMARK SMILES IDX 10 1 11 2 12 3 13 4 14 5 15 6 16 7 17 8 18 9 9 10 8 11 7 12
REMARK SMILES IDX 6 13 5 14 4 15 3 16 2 17 1 18
REMARK H PARENT
REMARK Flexibility Score: inf
ROOT
ATOM      1  C   UNL     1      -3.467  -9.337  -0.128  1.00  0.00     0.004 C 
ENDROOT
BRANCH   1   2
ATOM      2  C   UNL     1      -4.095  -8.622  -1.337  1.00  0.00     0.000 C 
BRANCH   2   3
ATOM      3  C   UNL     1      -3.301  -8.847  -2.633  1.00  0.00     0.000 C 
BRANCH   3   4
ATOM      4  C   UNL     1      -2.899  -7.528  -3.316  1.00  0.00     0.000 C 
BRANCH   4   5
ATOM      5  C   UNL     1      -3.928  -6.405  -3.094  1.00  0.00     0.006 C 
BRANCH   5   6
ATOM      6  C   UNL     1      -3.332  -4.988  -3.126  1.00  0.00     0.053 C 
BRANCH   6   7
ATOM      7  C   UNL     1      -2.404  -4.795  -4.287  1.00  0.00     0.041 C 
ATOM      8  O   UNL     1      -2.868  -4.589  -5.440  1.00  0.00    -0.550 OA
ATOM      9  O   UNL     1      -1.029  -4.807  -4.089  1.00  0.00    -0.550 OA
ENDBRANCH   6   7
ENDBRANCH   5   6
ENDBRANCH   4   5
ENDBRANCH   3   4
ENDBRANCH   2   3
ENDBRANCH   1   2
BRANCH   1  10
ATOM     10  C   UNL     1      -2.985  -8.348   0.941  1.00  0.00     0.027 C 
BRANCH  10  11
ATOM     11  C   UNL     1      -3.417  -6.937   0.618  1.00  0.00    -0.031 C 
ATOM     12  C   UNL     1      -2.587  -5.900   0.397  1.00  0.00    -0.031 C 
BRANCH  12  13
ATOM     13  C   UNL     1      -1.081  -5.980   0.383  1.00  0.00     0.027 C 
BRANCH  13  14
ATOM     14  C   UNL     1      -0.433  -4.884  -0.482  1.00  0.00     0.004 C 
BRANCH  14  15
ATOM     15  C   UNL     1      -0.663  -3.448   0.032  1.00  0.00     0.000 C 
BRANCH  15  16
ATOM     16  C   UNL     1      -0.357  -3.233   1.527  1.00  0.00    -0.000 C 
BRANCH  16  17
ATOM     17  C   UNL     1       0.067  -1.804   1.904  1.00  0.00    -0.003 C 
ATOM     18  C   UNL     1      -0.321  -0.769   0.849  1.00  0.00     0.004 C 
ENDBRANCH  16  17
ENDBRANCH  15  16
ENDBRANCH  14  15
ENDBRANCH  13  14
ENDBRANCH  12  13
ENDBRANCH  10  11
ENDBRANCH   1  10
TORSDOF 13
ENDMDL
MODEL 8
REMARK VINA RESULT:    -4.373      2.968      5.130
REMARK INTER + INTRA:          -8.740
REMARK INTER:                  -6.281
REMARK INTRA:                  -2.459
REMARK UNBOUND:                -1.043
REMARK SMILES CCCCCCC=CCCCCCCCC(=O)[O-]
REMARK SMILES IDX 10 1 11 2 12 3 13 4 14 5 15 6 16 7 17 8 18 9 9 10 8 11 7 12
REMARK SMILES IDX 6 13 5 14 4 15 3 16 2 17 1 18
REMARK H PARENT
REMARK Flexibility Score: inf
ROOT
ATOM      1  C   UNL     1      -1.342  -5.122   0.086  1.00  0.00     0.004 C 
ENDROOT
BRANCH   1   2
ATOM      2  C   UNL     1      -0.042  -5.153  -0.737  1.00  0.00     0.000 C 
BRANCH   2   3
ATOM      3  C   UNL     1       0.113  -6.449  -1.547  1.00  0.00     0.000 C 
BRANCH   3   4
ATOM      4  C   UNL     1      -0.441  -6.322  -2.977  1.00  0.00     0.000 C 
BRANCH   4   5
ATOM      5  C   UNL     1      -0.055  -7.513  -3.872  1.00  0.00     0.006 C 
BRANCH   5   6
ATOM      6  C   UNL     1      -0.622  -7.439  -5.300  1.00  0.00     0.053 C 
BRANCH   6   7
ATOM      7  C   UNL     1      -0.024  -6.312  -6.085  1.00  0.00     0.041 C 
ATOM      8  O   UNL     1       1.161  -6.392  -6.504  1.00  0.00    -0.550 OA
ATOM      9  O   UNL     1      -0.786  -5.190  -6.383  1.00  0.00    -0.550 OA
ENDBRANCH   6   7
ENDBRANCH   5   6
ENDBRANCH   4   5
ENDBRANCH   3   4
ENDBRANCH   2   3
ENDBRANCH   1   2
BRANCH   1  10
ATOM     10  C   UNL     1      -1.648  -6.480   0.732  1.00  0.00     0.027 C 
BRANCH  10  11
ATOM     11  C   UNL     1      -3.128  -6.782   0.700  1.00  0.00    -0.031 C 
ATOM     12  C   UNL     1      -3.710  -7.737  -0.049  1.00  0.00    -0.031 C 
BRANCH  12  13
ATOM     13  C   UNL     1      -2.980  -8.706  -0.946  1.00  0.00     0.027 C 
BRANCH  13  14
ATOM     14  C   UNL     1      -3.244  -8.452  -2.441  1.00  0.00     0.004 C 
BRANCH  14  15
ATOM     15  C   UNL     1      -4.119  -7.216  -2.733  1.00  0.00     0.000 C 
BRANCH  15  16
ATOM     16  C   UNL     1      -4.057  -6.700  -4.184  1.00  0.00    -0.000 C 
BRANCH  16  17
ATOM     17  C   UNL     1      -3.568  -5.250  -4.338  1.00  0.00    -0.003 C 
ATOM     18  C   UNL     1      -3.521  -4.494  -3.011  1.00  0.00     0.004 C 
ENDBRANCH  16  17
ENDBRANCH  15  16
ENDBRANCH  14  15
ENDBRANCH  13  14
ENDBRANCH  12  13
ENDBRANCH  10  11
ENDBRANCH   1  10
TORSDOF 13
ENDMDL
MODEL 9
REMARK VINA RESULT:    -4.327      3.486      6.690
REMARK INTER + INTRA:          -8.659
REMARK INTER:                  -6.310
REMARK INTRA:                  -2.349
REMARK UNBOUND:                -1.043
REMARK SMILES CCCCCCC=CCCCCCCCC(=O)[O-]
REMARK SMILES IDX 10 1 11 2 12 3 13 4 14 5 15 6 16 7 17 8 18 9 9 10 8 11 7 12
REMARK SMILES IDX 6 13 5 14 4 15 3 16 2 17 1 18
REMARK H PARENT
REMARK Flexibility Score: inf
ROOT
ATOM      1  C   UNL     1      -1.361  -4.366  -2.257  1.00  0.00     0.004 C 
ENDROOT
BRANCH   1   2
ATOM      2  C   UNL     1      -0.553  -4.961  -1.091  1.00  0.00     0.000 C 
BRANCH   2   3
ATOM      3  C   UNL     1      -1.421  -5.242   0.145  1.00  0.00     0.000 C 
BRANCH   3   4
ATOM      4  C   UNL     1      -1.398  -6.723   0.559  1.00  0.00     0.000 C 
BRANCH   4   5
ATOM      5  C   UNL     1      -2.791  -7.258   0.935  1.00  0.00     0.006 C 
BRANCH   5   6
ATOM      6  C   UNL     1      -2.808  -8.149   2.188  1.00  0.00     0.053 C 
BRANCH   6   7
ATOM      7  C   UNL     1      -4.194  -8.337   2.726  1.00  0.00     0.041 C 
ATOM      8  O   UNL     1      -5.133  -8.663   1.953  1.00  0.00    -0.550 OA
ATOM      9  O   UNL     1      -4.440  -8.187   4.085  1.00  0.00    -0.550 OA
ENDBRANCH   6   7
ENDBRANCH   5   6
ENDBRANCH   4   5
ENDBRANCH   3   4
ENDBRANCH   2   3
ENDBRANCH   1   2
BRANCH   1  10
ATOM     10  C   UNL     1      -2.831  -4.807  -2.225  1.00  0.00     0.027 C 
BRANCH  10  11
ATOM     11  C   UNL     1      -3.396  -4.933  -3.620  1.00  0.00    -0.031 C 
ATOM     12  C   UNL     1      -3.919  -6.055  -4.148  1.00  0.00    -0.031 C 
BRANCH  12  13
ATOM     13  C   UNL     1      -4.079  -7.367  -3.420  1.00  0.00     0.027 C 
BRANCH  13  14
ATOM     14  C   UNL     1      -2.954  -8.368  -3.737  1.00  0.00     0.004 C 
BRANCH  14  15
ATOM     15  C   UNL     1      -1.728  -8.264  -2.808  1.00  0.00     0.000 C 
BRANCH  15  16
ATOM     16  C   UNL     1      -0.427  -7.801  -3.493  1.00  0.00    -0.000 C 
BRANCH  16  17
ATOM     17  C   UNL     1      -0.541  -7.560  -5.007  1.00  0.00    -0.003 C 
ATOM     18  C   UNL     1      -0.326  -6.098  -5.396  1.00  0.00     0.004 C 
ENDBRANCH  16  17
ENDBRANCH  15  16
ENDBRANCH  14  15
ENDBRANCH  13  14
ENDBRANCH  12  13
ENDBRANCH  10  11
ENDBRANCH   1  10
TORSDOF 13
ENDMDL
