MODEL 1
REMARK VINA RESULT:    -6.323      0.000      0.000
REMARK INTER + INTRA:          -7.701
REMARK INTER:                  -7.432
REMARK INTRA:                  -0.269
REMARK UNBOUND:                -0.269
REMARK SMILES O=c1c(O)c(-c2ccc(O)c(O)c2)oc2cc(O)ccc12
REMARK SMILES IDX 5 1 3 2 2 3 1 4 21 5 15 6 14 7 16 8 17 9 19 10 20 11 6 12
REMARK SMILES IDX 7 13 8 14 9 15 13 16 11 17 10 18 12 20 4 22 18 24
REMARK H PARENT 10 19 12 21 4 23 18 25
REMARK Flexibility Score: inf
ROOT
ATOM      1  C   UNL     1      -3.287  14.098 -27.064  1.00  0.00     0.180 A 
ATOM      2  C   UNL     1      -4.016  13.052 -26.460  1.00  0.00     0.208 A 
ATOM      3  C   UNL     1      -4.486  12.003 -27.265  1.00  0.00     0.235 A 
ATOM      4  O   UNL     1      -5.130  11.050 -26.747  1.00  0.00    -0.285 OA
ATOM      5  C   UNL     1      -4.239  12.030 -28.647  1.00  0.00     0.069 A 
ATOM      6  C   UNL     1      -3.522  13.124 -29.178  1.00  0.00     0.142 A 
ATOM      7  O   UNL     1      -3.087  14.092 -28.380  1.00  0.00    -0.452 OA
ATOM      8  C   UNL     1      -3.264  13.191 -30.551  1.00  0.00     0.094 A 
ATOM      9  C   UNL     1      -3.714  12.174 -31.405  1.00  0.00     0.119 A 
ATOM     10  C   UNL     1      -4.422  11.088 -30.881  1.00  0.00     0.047 A 
ATOM     11  C   UNL     1      -4.687  11.012 -29.510  1.00  0.00     0.020 A 
ENDROOT
BRANCH   1  12
ATOM     12  C   UNL     1      -2.742  15.231 -26.280  1.00  0.00     0.025 A 
ATOM     13  C   UNL     1      -3.392  16.477 -26.246  1.00  0.00     0.016 A 
ATOM     14  C   UNL     1      -2.872  17.523 -25.480  1.00  0.00     0.051 A 
ATOM     15  C   UNL     1      -1.706  17.338 -24.727  1.00  0.00     0.157 A 
ATOM     16  C   UNL     1      -1.585  15.043 -25.507  1.00  0.00     0.062 A 
ATOM     17  C   UNL     1      -1.061  16.090 -24.739  1.00  0.00     0.158 A 
BRANCH  15  18
ATOM     18  O   UNL     1      -1.189  18.385 -23.966  1.00  0.00    -0.504 OA
ATOM     19  H   UNL     1      -1.755  19.186 -23.711  1.00  0.00     0.293 HD
ENDBRANCH  15  18
BRANCH  17  20
ATOM     20  O   UNL     1       0.098  15.870 -23.996  1.00  0.00    -0.504 OA
ATOM     21  H   UNL     1       0.234  16.279 -23.079  1.00  0.00     0.293 HD
ENDBRANCH  17  20
ENDBRANCH   1  12
BRANCH   2  22
ATOM     22  O   UNL     1      -4.288  13.078 -25.090  1.00  0.00    -0.502 OA
ATOM     23  H   UNL     1      -4.702  12.291 -24.605  1.00  0.00     0.293 HD
ENDBRANCH   2  22
BRANCH   9  24
ATOM     24  O   UNL     1      -3.461  12.232 -32.773  1.00  0.00    -0.508 OA
ATOM     25  H   UNL     1      -3.202  13.102 -33.227  1.00  0.00     0.293 HD
ENDBRANCH   9  24
TORSDOF 5
ENDMDL
MODEL 2
REMARK VINA RESULT:    -5.864      2.149      2.660
REMARK INTER + INTRA:          -7.161
REMARK INTER:                  -6.845
REMARK INTRA:                  -0.316
REMARK UNBOUND:                -0.269
REMARK SMILES O=c1c(O)c(-c2ccc(O)c(O)c2)oc2cc(O)ccc12
REMARK SMILES IDX 5 1 3 2 2 3 1 4 21 5 15 6 14 7 16 8 17 9 19 10 20 11 6 12
REMARK SMILES IDX 7 13 8 14 9 15 13 16 11 17 10 18 12 20 4 22 18 24
REMARK H PARENT 10 19 12 21 4 23 18 25
REMARK Flexibility Score: inf
ROOT
ATOM      1  C   UNL     1      -2.851  15.425 -26.676  1.00  0.00     0.180 A 
ATOM      2  C   UNL     1      -4.170  15.316 -26.191  1.00  0.00     0.208 A 
ATOM      3  C   UNL     1      -4.841  14.091 -26.325  1.00  0.00     0.235 A 
ATOM      4  O   UNL     1      -6.019  13.965 -25.889  1.00  0.00    -0.285 OA
ATOM      5  C   UNL     1      -4.194  13.015 -26.954  1.00  0.00     0.069 A 
ATOM      6  C   UNL     1      -2.881  13.211 -27.433  1.00  0.00     0.142 A 
ATOM      7  O   UNL     1      -2.278  14.384 -27.279  1.00  0.00    -0.452 OA
ATOM      8  C   UNL     1      -2.207  12.166 -28.074  1.00  0.00     0.094 A 
ATOM      9  C   UNL     1      -2.829  10.922 -28.241  1.00  0.00     0.119 A 
ATOM     10  C   UNL     1      -4.129  10.724 -27.765  1.00  0.00     0.047 A 
ATOM     11  C   UNL     1      -4.813  11.762 -27.124  1.00  0.00     0.020 A 
ENDROOT
BRANCH   1  12
ATOM     12  C   UNL     1      -2.070  16.678 -26.556  1.00  0.00     0.025 A 
ATOM     13  C   UNL     1      -2.095  17.656 -27.565  1.00  0.00     0.016 A 
ATOM     14  C   UNL     1      -1.369  18.840 -27.418  1.00  0.00     0.051 A 
ATOM     15  C   UNL     1      -0.620  19.072 -26.258  1.00  0.00     0.157 A 
ATOM     16  C   UNL     1      -1.334  16.924 -25.385  1.00  0.00     0.062 A 
ATOM     17  C   UNL     1      -0.605  18.110 -25.235  1.00  0.00     0.158 A 
BRANCH  15  18
ATOM     18  O   UNL     1       0.105  20.255 -26.116  1.00  0.00    -0.504 OA
ATOM     19  H   UNL     1      -0.115  20.929 -25.393  1.00  0.00     0.293 HD
ENDBRANCH  15  18
BRANCH  17  20
ATOM     20  O   UNL     1       0.125  18.312 -24.065  1.00  0.00    -0.504 OA
ATOM     21  H   UNL     1      -0.314  18.319 -23.152  1.00  0.00     0.293 HD
ENDBRANCH  17  20
ENDBRANCH   1  12
BRANCH   2  22
ATOM     22  O   UNL     1      -4.806  16.418 -25.614  1.00  0.00    -0.502 OA
ATOM     23  H   UNL     1      -5.732  16.718 -25.895  1.00  0.00     0.293 HD
ENDBRANCH   2  22
BRANCH   9  24
ATOM     24  O   UNL     1      -2.165   9.875 -28.877  1.00  0.00    -0.508 OA
ATOM     25  H   UNL     1      -1.408   9.376 -28.423  1.00  0.00     0.293 HD
ENDBRANCH   9  24
TORSDOF 5
ENDMDL
MODEL 3
REMARK VINA RESULT:    -5.645      2.581      6.537
REMARK INTER + INTRA:          -6.904
REMARK INTER:                  -6.597
REMARK INTRA:                  -0.307
REMARK UNBOUND:                -0.269
REMARK SMILES O=c1c(O)c(-c2ccc(O)c(O)c2)oc2cc(O)ccc12
REMARK SMILES IDX 5 1 3 2 2 3 1 4 21 5 15 6 14 7 16 8 17 9 19 10 20 11 6 12
REMARK SMILES IDX 7 13 8 14 9 15 13 16 11 17 10 18 12 20 4 22 18 24
REMARK H PARENT 10 19 12 21 4 23 18 25
REMARK Flexibility Score: inf
ROOT
ATOM      1  C   UNL     1      -3.688  15.152 -27.252  1.00  0.00     0.180 A 
ATOM      2  C   UNL     1      -4.305  15.829 -28.325  1.00  0.00     0.208 A 
ATOM      3  C   UNL     1      -3.882  17.130 -28.635  1.00  0.00     0.235 A 
ATOM      4  O   UNL     1      -4.410  17.753 -29.598  1.00  0.00    -0.285 OA
ATOM      5  C   UNL     1      -2.875  17.732 -27.862  1.00  0.00     0.069 A 
ATOM      6  C   UNL     1      -2.325  16.996 -26.791  1.00  0.00     0.142 A 
ATOM      7  O   UNL     1      -2.747  15.764 -26.535  1.00  0.00    -0.452 OA
ATOM      8  C   UNL     1      -1.327  17.565 -25.992  1.00  0.00     0.094 A 
ATOM      9  C   UNL     1      -0.869  18.864 -26.252  1.00  0.00     0.119 A 
ATOM     10  C   UNL     1      -1.411  19.593 -27.315  1.00  0.00     0.047 A 
ATOM     11  C   UNL     1      -2.410  19.035 -28.119  1.00  0.00     0.020 A 
ENDROOT
BRANCH   1  12
ATOM     12  C   UNL     1      -4.065  13.770 -26.874  1.00  0.00     0.025 A 
ATOM     13  C   UNL     1      -3.325  12.661 -27.318  1.00  0.00     0.016 A 
ATOM     14  C   UNL     1      -3.686  11.369 -26.928  1.00  0.00     0.051 A 
ATOM     15  C   UNL     1      -4.781  11.166 -26.078  1.00  0.00     0.157 A 
ATOM     16  C   UNL     1      -5.149  13.564 -26.004  1.00  0.00     0.062 A 
ATOM     17  C   UNL     1      -5.514  12.270 -25.612  1.00  0.00     0.158 A 
BRANCH  15  18
ATOM     18  O   UNL     1      -5.139   9.876 -25.693  1.00  0.00    -0.504 OA
ATOM     19  H   UNL     1      -4.662   9.060 -26.058  1.00  0.00     0.293 HD
ENDBRANCH  15  18
BRANCH  17  20
ATOM     20  O   UNL     1      -6.604  12.104 -24.759  1.00  0.00    -0.504 OA
ATOM     21  H   UNL     1      -6.489  11.905 -23.773  1.00  0.00     0.293 HD
ENDBRANCH  17  20
ENDBRANCH   1  12
BRANCH   2  22
ATOM     22  O   UNL     1      -5.337  15.223 -29.044  1.00  0.00    -0.502 OA
ATOM     23  H   UNL     1      -5.163  14.544 -29.775  1.00  0.00     0.293 HD
ENDBRANCH   2  22
BRANCH   9  24
ATOM     24  O   UNL     1       0.125  19.438 -25.463  1.00  0.00    -0.508 OA
ATOM     25  H   UNL     1      -0.035  19.652 -24.484  1.00  0.00     0.293 HD
ENDBRANCH   9  24
TORSDOF 5
ENDMDL
MODEL 4
REMARK VINA RESULT:    -5.605      3.403      5.964
REMARK INTER + INTRA:          -6.856
REMARK INTER:                  -6.532
REMARK INTRA:                  -0.324
REMARK UNBOUND:                -0.269
REMARK SMILES O=c1c(O)c(-c2ccc(O)c(O)c2)oc2cc(O)ccc12
REMARK SMILES IDX 5 1 3 2 2 3 1 4 21 5 15 6 14 7 16 8 17 9 19 10 20 11 6 12
REMARK SMILES IDX 7 13 8 14 9 15 13 16 11 17 10 18 12 20 4 22 18 24
REMARK H PARENT 10 19 12 21 4 23 18 25
REMARK Flexibility Score: inf
ROOT
ATOM      1  C   UNL     1      -4.592  15.089 -27.813  1.00  0.00     0.180 A 
ATOM      2  C   UNL     1      -3.473  15.938 -27.694  1.00  0.00     0.208 A 
ATOM      3  C   UNL     1      -3.512  17.198 -28.311  1.00  0.00     0.235 A 
ATOM      4  O   UNL     1      -2.528  17.981 -28.209  1.00  0.00    -0.285 OA
ATOM      5  C   UNL     1      -4.649  17.573 -29.044  1.00  0.00     0.069 A 
ATOM      6  C   UNL     1      -5.719  16.656 -29.135  1.00  0.00     0.142 A 
ATOM      7  O   UNL     1      -5.645  15.476 -28.530  1.00  0.00    -0.452 OA
ATOM      8  C   UNL     1      -6.865  16.989 -29.865  1.00  0.00     0.094 A 
ATOM      9  C   UNL     1      -6.957  18.232 -30.506  1.00  0.00     0.119 A 
ATOM     10  C   UNL     1      -5.900  19.142 -30.415  1.00  0.00     0.047 A 
ATOM     11  C   UNL     1      -4.749  18.820 -29.690  1.00  0.00     0.020 A 
ENDROOT
BRANCH   1  12
ATOM     12  C   UNL     1      -4.636  13.752 -27.177  1.00  0.00     0.025 A 
ATOM     13  C   UNL     1      -5.127  13.577 -25.871  1.00  0.00     0.016 A 
ATOM     14  C   UNL     1      -5.181  12.303 -25.301  1.00  0.00     0.051 A 
ATOM     15  C   UNL     1      -4.759  11.184 -26.030  1.00  0.00     0.157 A 
ATOM     16  C   UNL     1      -4.234  12.624 -27.911  1.00  0.00     0.062 A 
ATOM     17  C   UNL     1      -4.285  11.345 -27.342  1.00  0.00     0.158 A 
BRANCH  15  18
ATOM     18  O   UNL     1      -4.812   9.914 -25.456  1.00  0.00    -0.504 OA
ATOM     19  H   UNL     1      -4.009   9.297 -25.456  1.00  0.00     0.293 HD
ENDBRANCH  15  18
BRANCH  17  20
ATOM     20  O   UNL     1      -3.864  10.252 -28.097  1.00  0.00    -0.504 OA
ATOM     21  H   UNL     1      -2.979   9.790 -27.927  1.00  0.00     0.293 HD
ENDBRANCH  17  20
ENDBRANCH   1  12
BRANCH   2  22
ATOM     22  O   UNL     1      -2.336  15.518 -26.999  1.00  0.00    -0.502 OA
ATOM     23  H   UNL     1      -1.439  15.978 -27.100  1.00  0.00     0.293 HD
ENDBRANCH   2  22
BRANCH   9  24
ATOM     24  O   UNL     1      -8.095  18.572 -31.235  1.00  0.00    -0.508 OA
ATOM     25  H   UNL     1      -8.824  19.154 -30.836  1.00  0.00     0.293 HD
ENDBRANCH   9  24
TORSDOF 5
ENDMDL
MODEL 5
REMARK VINA RESULT:    -5.507      2.324      6.640
REMARK INTER + INTRA:          -6.741
REMARK INTER:                  -6.429
REMARK INTRA:                  -0.313
REMARK UNBOUND:                -0.269
REMARK SMILES O=c1c(O)c(-c2ccc(O)c(O)c2)oc2cc(O)ccc12
REMARK SMILES IDX 5 1 3 2 2 3 1 4 21 5 15 6 14 7 16 8 17 9 19 10 20 11 6 12
REMARK SMILES IDX 7 13 8 14 9 15 13 16 11 17 10 18 12 20 4 22 18 24
REMARK H PARENT 10 19 12 21 4 23 18 25
REMARK Flexibility Score: inf
ROOT
ATOM      1  C   UNL     1      -2.449  15.738 -26.533  1.00  0.00     0.180 A 
ATOM      2  C   UNL     1      -1.447  15.849 -25.547  1.00  0.00     0.208 A 
ATOM      3  C   UNL     1      -0.772  17.071 -25.403  1.00  0.00     0.235 A 
ATOM      4  O   UNL     1       0.121  17.199 -24.520  1.00  0.00    -0.285 OA
ATOM      5  C   UNL     1      -1.094  18.141 -26.253  1.00  0.00     0.069 A 
ATOM      6  C   UNL     1      -2.093  17.943 -27.230  1.00  0.00     0.142 A 
ATOM      7  O   UNL     1      -2.714  16.773 -27.328  1.00  0.00    -0.452 OA
ATOM      8  C   UNL     1      -2.435  18.982 -28.101  1.00  0.00     0.094 A 
ATOM      9  C   UNL     1      -1.791  20.223 -28.007  1.00  0.00     0.119 A 
ATOM     10  C   UNL     1      -0.802  20.423 -27.038  1.00  0.00     0.047 A 
ATOM     11  C   UNL     1      -0.452  19.391 -26.163  1.00  0.00     0.020 A 
ENDROOT
BRANCH   1  12
ATOM     12  C   UNL     1      -3.218  14.489 -26.735  1.00  0.00     0.025 A 
ATOM     13  C   UNL     1      -2.804  13.515 -27.661  1.00  0.00     0.016 A 
ATOM     14  C   UNL     1      -3.533  12.334 -27.817  1.00  0.00     0.051 A 
ATOM     15  C   UNL     1      -4.676  12.100 -27.042  1.00  0.00     0.157 A 
ATOM     16  C   UNL     1      -4.353  14.240 -25.945  1.00  0.00     0.062 A 
ATOM     17  C   UNL     1      -5.086  13.057 -26.100  1.00  0.00     0.158 A 
BRANCH  15  18
ATOM     18  O   UNL     1      -5.401  10.920 -27.202  1.00  0.00    -0.504 OA
ATOM     19  H   UNL     1      -6.231  10.881 -27.782  1.00  0.00     0.293 HD
ENDBRANCH  15  18
BRANCH  17  20
ATOM     20  O   UNL     1      -6.215  12.853 -25.308  1.00  0.00    -0.504 OA
ATOM     21  H   UNL     1      -6.767  12.006 -25.368  1.00  0.00     0.293 HD
ENDBRANCH  17  20
ENDBRANCH   1  12
BRANCH   2  22
ATOM     22  O   UNL     1      -1.114  14.751 -24.749  1.00  0.00    -0.502 OA
ATOM     23  H   UNL     1      -0.956  13.829 -25.136  1.00  0.00     0.293 HD
ENDBRANCH   2  22
BRANCH   9  24
ATOM     24  O   UNL     1      -2.126  21.265 -28.870  1.00  0.00    -0.508 OA
ATOM     25  H   UNL     1      -1.530  22.079 -28.973  1.00  0.00     0.293 HD
ENDBRANCH   9  24
TORSDOF 5
ENDMDL
MODEL 6
REMARK VINA RESULT:    -5.463      3.776      4.894
REMARK INTER + INTRA:          -6.690
REMARK INTER:                  -6.387
REMARK INTRA:                  -0.303
REMARK UNBOUND:                -0.269
REMARK SMILES O=c1c(O)c(-c2ccc(O)c(O)c2)oc2cc(O)ccc12
REMARK SMILES IDX 5 1 3 2 2 3 1 4 21 5 15 6 14 7 16 8 17 9 19 10 20 11 6 12
REMARK SMILES IDX 7 13 8 14 9 15 13 16 11 17 10 18 12 20 4 22 18 24
REMARK H PARENT 10 19 12 21 4 23 18 25
REMARK Flexibility Score: inf
ROOT
ATOM      1  C   UNL     1      -5.017  15.621 -28.670  1.00  0.00     0.180 A 
ATOM      2  C   UNL     1      -5.429  15.276 -27.366  1.00  0.00     0.208 A 
ATOM      3  C   UNL     1      -5.155  13.985 -26.890  1.00  0.00     0.235 A 
ATOM      4  O   UNL     1      -5.503  13.656 -25.722  1.00  0.00    -0.285 OA
ATOM      5  C   UNL     1      -4.499  13.066 -27.725  1.00  0.00     0.069 A 
ATOM      6  C   UNL     1      -4.141  13.481 -29.025  1.00  0.00     0.142 A 
ATOM      7  O   UNL     1      -4.411  14.715 -29.435  1.00  0.00    -0.452 OA
ATOM      8  C   UNL     1      -3.496  12.591 -29.891  1.00  0.00     0.094 A 
ATOM      9  C   UNL     1      -3.201  11.287 -29.471  1.00  0.00     0.119 A 
ATOM     10  C   UNL     1      -3.553  10.874 -28.182  1.00  0.00     0.047 A 
ATOM     11  C   UNL     1      -4.200  11.755 -27.310  1.00  0.00     0.020 A 
ENDROOT
BRANCH   1  12
ATOM     12  C   UNL     1      -5.253  16.969 -29.238  1.00  0.00     0.025 A 
ATOM     13  C   UNL     1      -4.245  17.949 -29.243  1.00  0.00     0.016 A 
ATOM     14  C   UNL     1      -4.484  19.204 -29.806  1.00  0.00     0.051 A 
ATOM     15  C   UNL     1      -5.725  19.496 -30.386  1.00  0.00     0.157 A 
ATOM     16  C   UNL     1      -6.489  17.258 -29.839  1.00  0.00     0.062 A 
ATOM     17  C   UNL     1      -6.732  18.516 -30.405  1.00  0.00     0.158 A 
BRANCH  15  18
ATOM     18  O   UNL     1      -5.960  20.750 -30.945  1.00  0.00    -0.504 OA
ATOM     19  H   UNL     1      -5.625  20.991 -31.871  1.00  0.00     0.293 HD
ENDBRANCH  15  18
BRANCH  17  20
ATOM     20  O   UNL     1      -7.976  18.771 -30.980  1.00  0.00    -0.504 OA
ATOM     21  H   UNL     1      -8.695  18.060 -31.042  1.00  0.00     0.293 HD
ENDBRANCH  17  20
ENDBRANCH   1  12
BRANCH   2  22
ATOM     22  O   UNL     1      -6.123  16.196 -26.576  1.00  0.00    -0.502 OA
ATOM     23  H   UNL     1      -5.982  16.266 -25.575  1.00  0.00     0.293 HD
ENDBRANCH   2  22
BRANCH   9  24
ATOM     24  O   UNL     1      -2.557  10.395 -30.325  1.00  0.00    -0.508 OA
ATOM     25  H   UNL     1      -2.108  10.709 -31.178  1.00  0.00     0.293 HD
ENDBRANCH   9  24
TORSDOF 5
ENDMDL
MODEL 7
REMARK VINA RESULT:    -5.338      2.083      3.573
REMARK INTER + INTRA:          -6.543
REMARK INTER:                  -6.257
REMARK INTRA:                  -0.286
REMARK UNBOUND:                -0.269
REMARK SMILES O=c1c(O)c(-c2ccc(O)c(O)c2)oc2cc(O)ccc12
REMARK SMILES IDX 5 1 3 2 2 3 1 4 21 5 15 6 14 7 16 8 17 9 19 10 20 11 6 12
REMARK SMILES IDX 7 13 8 14 9 15 13 16 11 17 10 18 12 20 4 22 18 24
REMARK H PARENT 10 19 12 21 4 23 18 25
REMARK Flexibility Score: inf
ROOT
ATOM      1  C   UNL     1      -2.387  13.942 -26.541  1.00  0.00     0.180 A 
ATOM      2  C   UNL     1      -1.710  13.259 -27.573  1.00  0.00     0.208 A 
ATOM      3  C   UNL     1      -2.245  12.053 -28.050  1.00  0.00     0.235 A 
ATOM      4  O   UNL     1      -1.664  11.429 -28.980  1.00  0.00    -0.285 OA
ATOM      5  C   UNL     1      -3.424  11.547 -27.479  1.00  0.00     0.069 A 
ATOM      6  C   UNL     1      -4.029  12.279 -26.435  1.00  0.00     0.142 A 
ATOM      7  O   UNL     1      -3.495  13.420 -26.017  1.00  0.00    -0.452 OA
ATOM      8  C   UNL     1      -5.199  11.802 -25.833  1.00  0.00     0.094 A 
ATOM      9  C   UNL     1      -5.776  10.600 -26.266  1.00  0.00     0.119 A 
ATOM     10  C   UNL     1      -5.179   9.875 -27.302  1.00  0.00     0.047 A 
ATOM     11  C   UNL     1      -4.009  10.341 -27.909  1.00  0.00     0.020 A 
ENDROOT
BRANCH   1  12
ATOM     12  C   UNL     1      -1.897  15.229 -25.996  1.00  0.00     0.025 A 
ATOM     13  C   UNL     1      -0.854  15.276 -25.054  1.00  0.00     0.016 A 
ATOM     14  C   UNL     1      -0.392  16.502 -24.572  1.00  0.00     0.051 A 
ATOM     15  C   UNL     1      -0.953  17.700 -25.033  1.00  0.00     0.157 A 
ATOM     16  C   UNL     1      -2.442  16.433 -26.471  1.00  0.00     0.062 A 
ATOM     17  C   UNL     1      -1.981  17.665 -25.990  1.00  0.00     0.158 A 
BRANCH  15  18
ATOM     18  O   UNL     1      -0.490  18.923 -24.549  1.00  0.00    -0.504 OA
ATOM     19  H   UNL     1      -1.120  19.610 -24.151  1.00  0.00     0.293 HD
ENDBRANCH  15  18
BRANCH  17  20
ATOM     20  O   UNL     1      -2.556  18.838 -26.474  1.00  0.00    -0.504 OA
ATOM     21  H   UNL     1      -2.214  19.300 -27.309  1.00  0.00     0.293 HD
ENDBRANCH  17  20
ENDBRANCH   1  12
BRANCH   2  22
ATOM     22  O   UNL     1      -0.512  13.762 -28.087  1.00  0.00    -0.502 OA
ATOM     23  H   UNL     1      -0.370  14.749 -28.263  1.00  0.00     0.293 HD
ENDBRANCH   2  22
BRANCH   9  24
ATOM     24  O   UNL     1      -6.942  10.119 -25.674  1.00  0.00    -0.508 OA
ATOM     25  H   UNL     1      -7.768  10.700 -25.583  1.00  0.00     0.293 HD
ENDBRANCH   9  24
TORSDOF 5
ENDMDL
MODEL 8
REMARK VINA RESULT:    -5.251      3.266      5.270
REMARK INTER + INTRA:          -6.440
REMARK INTER:                  -6.133
REMARK INTRA:                  -0.308
REMARK UNBOUND:                -0.269
REMARK SMILES O=c1c(O)c(-c2ccc(O)c(O)c2)oc2cc(O)ccc12
REMARK SMILES IDX 5 1 3 2 2 3 1 4 21 5 15 6 14 7 16 8 17 9 19 10 20 11 6 12
REMARK SMILES IDX 7 13 8 14 9 15 13 16 11 17 10 18 12 20 4 22 18 24
REMARK H PARENT 10 19 12 21 4 23 18 25
REMARK Flexibility Score: inf
ROOT
ATOM      1  C   UNL     1      -4.362  14.176 -28.653  1.00  0.00     0.180 A 
ATOM      2  C   UNL     1      -3.604  13.322 -29.482  1.00  0.00     0.208 A 
ATOM      3  C   UNL     1      -3.382  12.000 -29.067  1.00  0.00     0.235 A 
ATOM      4  O   UNL     1      -2.717  11.213 -29.796  1.00  0.00    -0.285 OA
ATOM      5  C   UNL     1      -3.899  11.567 -27.835  1.00  0.00     0.069 A 
ATOM      6  C   UNL     1      -4.627  12.489 -27.054  1.00  0.00     0.142 A 
ATOM      7  O   UNL     1      -4.822  13.730 -27.486  1.00  0.00    -0.452 OA
ATOM      8  C   UNL     1      -5.150  12.098 -25.816  1.00  0.00     0.094 A 
ATOM      9  C   UNL     1      -4.955  10.791 -25.349  1.00  0.00     0.119 A 
ATOM     10  C   UNL     1      -4.236   9.875 -26.123  1.00  0.00     0.047 A 
ATOM     11  C   UNL     1      -3.708  10.255 -27.360  1.00  0.00     0.020 A 
ENDROOT
BRANCH   1  12
ATOM     12  C   UNL     1      -4.655  15.578 -29.028  1.00  0.00     0.025 A 
ATOM     13  C   UNL     1      -3.737  16.612 -28.772  1.00  0.00     0.016 A 
ATOM     14  C   UNL     1      -4.025  17.923 -29.157  1.00  0.00     0.051 A 
ATOM     15  C   UNL     1      -5.225  18.221 -29.815  1.00  0.00     0.157 A 
ATOM     16  C   UNL     1      -5.847  15.877 -29.707  1.00  0.00     0.062 A 
ATOM     17  C   UNL     1      -6.139  17.191 -30.093  1.00  0.00     0.158 A 
BRANCH  15  18
ATOM     18  O   UNL     1      -5.510  19.531 -30.196  1.00  0.00    -0.504 OA
ATOM     19  H   UNL     1      -5.315  19.867 -31.131  1.00  0.00     0.293 HD
ENDBRANCH  15  18
BRANCH  17  20
ATOM     20  O   UNL     1      -7.340  17.451 -30.753  1.00  0.00    -0.504 OA
ATOM     21  H   UNL     1      -7.590  18.382 -31.066  1.00  0.00     0.293 HD
ENDBRANCH  17  20
ENDBRANCH   1  12
BRANCH   2  22
ATOM     22  O   UNL     1      -3.061  13.796 -30.678  1.00  0.00    -0.502 OA
ATOM     23  H   UNL     1      -3.288  13.386 -31.576  1.00  0.00     0.293 HD
ENDBRANCH   2  22
BRANCH   9  24
ATOM     24  O   UNL     1      -5.473  10.393 -24.118  1.00  0.00    -0.508 OA
ATOM     25  H   UNL     1      -5.952  11.047 -23.509  1.00  0.00     0.293 HD
ENDBRANCH   9  24
TORSDOF 5
ENDMDL
MODEL 9
REMARK VINA RESULT:    -5.193      1.815      3.602
REMARK INTER + INTRA:          -6.372
REMARK INTER:                  -6.289
REMARK INTRA:                  -0.083
REMARK UNBOUND:                -0.269
REMARK SMILES O=c1c(O)c(-c2ccc(O)c(O)c2)oc2cc(O)ccc12
REMARK SMILES IDX 5 1 3 2 2 3 1 4 21 5 15 6 14 7 16 8 17 9 19 10 20 11 6 12
REMARK SMILES IDX 7 13 8 14 9 15 13 16 11 17 10 18 12 20 4 22 18 24
REMARK H PARENT 10 19 12 21 4 23 18 25
REMARK Flexibility Score: inf
ROOT
ATOM      1  C   UNL     1      -3.420  14.349 -27.594  1.00  0.00     0.180 A 
ATOM      2  C   UNL     1      -3.442  13.749 -28.870  1.00  0.00     0.208 A 
ATOM      3  C   UNL     1      -3.980  12.460 -29.002  1.00  0.00     0.235 A 
ATOM      4  O   UNL     1      -4.021  11.906 -30.135  1.00  0.00    -0.285 OA
ATOM      5  C   UNL     1      -4.463  11.794 -27.864  1.00  0.00     0.069 A 
ATOM      6  C   UNL     1      -4.385  12.454 -26.619  1.00  0.00     0.142 A 
ATOM      7  O   UNL     1      -3.875  13.678 -26.538  1.00  0.00    -0.452 OA
ATOM      8  C   UNL     1      -4.846  11.819 -25.461  1.00  0.00     0.094 A 
ATOM      9  C   UNL     1      -5.390  10.530 -25.532  1.00  0.00     0.119 A 
ATOM     10  C   UNL     1      -5.471   9.875 -26.765  1.00  0.00     0.047 A 
ATOM     11  C   UNL     1      -5.011  10.499 -27.928  1.00  0.00     0.020 A 
ENDROOT
BRANCH   1  12
ATOM     12  C   UNL     1      -2.885  15.713 -27.376  1.00  0.00     0.025 A 
ATOM     13  C   UNL     1      -3.377  16.817 -28.094  1.00  0.00     0.016 A 
ATOM     14  C   UNL     1      -2.873  18.097 -27.853  1.00  0.00     0.051 A 
ATOM     15  C   UNL     1      -1.883  18.297 -26.884  1.00  0.00     0.157 A 
ATOM     16  C   UNL     1      -1.906  15.922 -26.390  1.00  0.00     0.062 A 
ATOM     17  C   UNL     1      -1.399  17.204 -26.147  1.00  0.00     0.158 A 
BRANCH  15  18
ATOM     18  O   UNL     1      -1.381  19.577 -26.648  1.00  0.00    -0.504 OA
ATOM     19  H   UNL     1      -0.569  19.730 -26.062  1.00  0.00     0.293 HD
ENDBRANCH  15  18
BRANCH  17  20
ATOM     20  O   UNL     1      -0.418  17.369 -25.170  1.00  0.00    -0.504 OA
ATOM     21  H   UNL     1       0.525  17.021 -25.291  1.00  0.00     0.293 HD
ENDBRANCH  17  20
ENDBRANCH   1  12
BRANCH   2  22
ATOM     22  O   UNL     1      -2.909  14.417 -29.976  1.00  0.00    -0.502 OA
ATOM     23  H   UNL     1      -2.056  14.961 -29.921  1.00  0.00     0.293 HD
ENDBRANCH   2  22
BRANCH   9  24
ATOM     24  O   UNL     1      -5.853   9.890 -24.384  1.00  0.00    -0.508 OA
ATOM     25  H   UNL     1      -6.477  10.356 -23.734  1.00  0.00     0.293 HD
ENDBRANCH   9  24
TORSDOF 5
ENDMDL
