MODEL 1
REMARK VINA RESULT:    -3.013      0.000      0.000
REMARK INTER + INTRA:          -8.488
REMARK INTER:                  -5.655
REMARK INTRA:                  -2.833
REMARK UNBOUND:                -2.833
REMARK SMILES CCCCCCCCC=CCCCCCCCC(=O)[O-]
REMARK SMILES IDX 10 1 9 2 11 3 12 4 13 5 14 6 15 7 16 8 17 9 18 10 19 11
REMARK SMILES IDX 20 12 8 13 7 14 6 15 5 16 4 17 3 18 2 19 1 20
REMARK H PARENT
REMARK Flexibility Score: inf
ROOT
ATOM      1  C   UNL     1      25.219  53.703  77.013  1.00  0.00    -0.031 C 
ATOM      2  C   UNL     1      24.837  54.740  77.773  1.00  0.00    -0.031 C 
ENDROOT
BRANCH   1   3
ATOM      3  C   UNL     1      24.560  52.354  77.132  1.00  0.00     0.027 C 
BRANCH   3   4
ATOM      4  C   UNL     1      23.035  52.428  76.953  1.00  0.00     0.004 C 
BRANCH   4   5
ATOM      5  C   UNL     1      22.234  51.641  78.010  1.00  0.00     0.000 C 
BRANCH   5   6
ATOM      6  C   UNL     1      21.519  52.540  79.040  1.00  0.00     0.000 C 
BRANCH   6   7
ATOM      7  C   UNL     1      21.641  54.035  78.696  1.00  0.00     0.000 C 
BRANCH   7   8
ATOM      8  C   UNL     1      21.503  54.948  79.930  1.00  0.00     0.006 C 
BRANCH   8   9
ATOM      9  C   UNL     1      22.236  56.295  79.790  1.00  0.00     0.053 C 
BRANCH   9  10
ATOM     10  C   UNL     1      22.283  57.063  81.075  1.00  0.00     0.041 C 
ATOM     11  O   UNL     1      21.287  57.742  81.445  1.00  0.00    -0.550 OA
ATOM     12  O   UNL     1      23.423  57.023  81.868  1.00  0.00    -0.550 OA
ENDBRANCH   9  10
ENDBRANCH   8   9
ENDBRANCH   7   8
ENDBRANCH   6   7
ENDBRANCH   5   6
ENDBRANCH   4   5
ENDBRANCH   3   4
ENDBRANCH   1   3
BRANCH   2  13
ATOM     13  C   UNL     1      25.507  56.080  77.637  1.00  0.00     0.027 C 
BRANCH  13  14
ATOM     14  C   UNL     1      25.902  56.643  79.010  1.00  0.00     0.004 C 
BRANCH  14  15
ATOM     15  C   UNL     1      27.409  56.531  79.288  1.00  0.00     0.000 C 
BRANCH  15  16
ATOM     16  C   UNL     1      27.730  55.534  80.415  1.00  0.00     0.000 C 
BRANCH  16  17
ATOM     17  C   UNL     1      27.963  54.105  79.901  1.00  0.00    -0.000 C 
BRANCH  17  18
ATOM     18  C   UNL     1      27.023  53.058  80.536  1.00  0.00    -0.000 C 
BRANCH  18  19
ATOM     19  C   UNL     1      25.999  53.694  81.489  1.00  0.00    -0.003 C 
ATOM     20  C   UNL     1      24.571  53.366  81.062  1.00  0.00     0.004 C 
ENDBRANCH  18  19
ENDBRANCH  17  18
ENDBRANCH  16  17
ENDBRANCH  15  16
ENDBRANCH  14  15
ENDBRANCH  13  14
ENDBRANCH   2  13
TORSDOF 15
ENDMDL
MODEL 2
REMARK VINA RESULT:    -2.983      1.883      3.267
REMARK INTER + INTRA:          -8.432
REMARK INTER:                  -6.019
REMARK INTRA:                  -2.413
REMARK UNBOUND:                -2.833
REMARK SMILES CCCCCCCCC=CCCCCCCCC(=O)[O-]
REMARK SMILES IDX 10 1 9 2 11 3 12 4 13 5 14 6 15 7 16 8 17 9 18 10 19 11
REMARK SMILES IDX 20 12 8 13 7 14 6 15 5 16 4 17 3 18 2 19 1 20
REMARK H PARENT
REMARK Flexibility Score: inf
ROOT
ATOM      1  C   UNL     1      25.779  53.842  78.757  1.00  0.00    -0.031 C 
ATOM      2  C   UNL     1      25.539  54.734  77.786  1.00  0.00    -0.031 C 
ENDROOT
BRANCH   1   3
ATOM      3  C   UNL     1      26.039  52.391  78.448  1.00  0.00     0.027 C 
BRANCH   3   4
ATOM      4  C   UNL     1      25.889  52.075  76.951  1.00  0.00     0.004 C 
BRANCH   4   5
ATOM      5  C   UNL     1      24.620  51.273  76.598  1.00  0.00     0.000 C 
BRANCH   5   6
ATOM      6  C   UNL     1      23.409  52.160  76.238  1.00  0.00     0.000 C 
BRANCH   6   7
ATOM      7  C   UNL     1      22.311  52.115  77.315  1.00  0.00     0.000 C 
BRANCH   7   8
ATOM      8  C   UNL     1      22.159  53.447  78.075  1.00  0.00     0.006 C 
BRANCH   8   9
ATOM      9  C   UNL     1      22.145  53.292  79.606  1.00  0.00     0.053 C 
BRANCH   9  10
ATOM     10  C   UNL     1      20.988  53.991  80.248  1.00  0.00     0.041 C 
ATOM     11  O   UNL     1      20.009  53.328  80.686  1.00  0.00    -0.550 OA
ATOM     12  O   UNL     1      20.992  55.375  80.369  1.00  0.00    -0.550 OA
ENDBRANCH   9  10
ENDBRANCH   8   9
ENDBRANCH   7   8
ENDBRANCH   6   7
ENDBRANCH   5   6
ENDBRANCH   4   5
ENDBRANCH   3   4
ENDBRANCH   1   3
BRANCH   2  13
ATOM     13  C   UNL     1      25.282  56.179  78.117  1.00  0.00     0.027 C 
BRANCH  13  14
ATOM     14  C   UNL     1      24.285  56.312  79.277  1.00  0.00     0.004 C 
BRANCH  14  15
ATOM     15  C   UNL     1      24.813  57.199  80.416  1.00  0.00     0.000 C 
BRANCH  15  16
ATOM     16  C   UNL     1      25.767  56.446  81.359  1.00  0.00     0.000 C 
BRANCH  16  17
ATOM     17  C   UNL     1      27.198  57.006  81.335  1.00  0.00    -0.000 C 
BRANCH  17  18
ATOM     18  C   UNL     1      28.144  56.250  80.379  1.00  0.00    -0.000 C 
BRANCH  18  19
ATOM     19  C   UNL     1      29.454  57.013  80.129  1.00  0.00    -0.003 C 
ATOM     20  C   UNL     1      29.380  57.828  78.841  1.00  0.00     0.004 C 
ENDBRANCH  18  19
ENDBRANCH  17  18
ENDBRANCH  16  17
ENDBRANCH  15  16
ENDBRANCH  14  15
ENDBRANCH  13  14
ENDBRANCH   2  13
TORSDOF 15
ENDMDL
MODEL 3
REMARK VINA RESULT:    -2.977      2.337      4.967
REMARK INTER + INTRA:          -8.420
REMARK INTER:                  -5.442
REMARK INTRA:                  -2.978
REMARK UNBOUND:                -2.833
REMARK SMILES CCCCCCCCC=CCCCCCCCC(=O)[O-]
REMARK SMILES IDX 10 1 9 2 11 3 12 4 13 5 14 6 15 7 16 8 17 9 18 10 19 11
REMARK SMILES IDX 20 12 8 13 7 14 6 15 5 16 4 17 3 18 2 19 1 20
REMARK H PARENT
REMARK Flexibility Score: inf
ROOT
ATOM      1  C   UNL     1      25.260  53.471  78.165  1.00  0.00    -0.031 C 
ATOM      2  C   UNL     1      24.629  53.745  77.014  1.00  0.00    -0.031 C 
ENDROOT
BRANCH   1   3
ATOM      3  C   UNL     1      26.054  54.520  78.898  1.00  0.00     0.027 C 
BRANCH   3   4
ATOM      4  C   UNL     1      25.587  55.947  78.566  1.00  0.00     0.004 C 
BRANCH   4   5
ATOM      5  C   UNL     1      25.238  56.802  79.801  1.00  0.00     0.000 C 
BRANCH   5   6
ATOM      6  C   UNL     1      23.919  56.388  80.488  1.00  0.00     0.000 C 
BRANCH   6   7
ATOM      7  C   UNL     1      22.710  56.492  79.542  1.00  0.00     0.000 C 
BRANCH   7   8
ATOM      8  C   UNL     1      21.957  55.157  79.379  1.00  0.00     0.006 C 
BRANCH   8   9
ATOM      9  C   UNL     1      22.429  54.056  80.346  1.00  0.00     0.053 C 
BRANCH   9  10
ATOM     10  C   UNL     1      21.366  53.040  80.628  1.00  0.00     0.041 C 
ATOM     11  O   UNL     1      21.406  52.357  81.686  1.00  0.00    -0.550 OA
ATOM     12  O   UNL     1      20.326  52.853  79.725  1.00  0.00    -0.550 OA
ENDBRANCH   9  10
ENDBRANCH   8   9
ENDBRANCH   7   8
ENDBRANCH   6   7
ENDBRANCH   5   6
ENDBRANCH   4   5
ENDBRANCH   3   4
ENDBRANCH   1   3
BRANCH   2  13
ATOM     13  C   UNL     1      23.840  52.683  76.298  1.00  0.00     0.027 C 
BRANCH  13  14
ATOM     14  C   UNL     1      22.524  52.383  77.032  1.00  0.00     0.004 C 
BRANCH  14  15
ATOM     15  C   UNL     1      22.237  50.878  77.148  1.00  0.00     0.000 C 
BRANCH  15  16
ATOM     16  C   UNL     1      22.780  50.271  78.453  1.00  0.00     0.000 C 
BRANCH  16  17
ATOM     17  C   UNL     1      23.870  49.214  78.214  1.00  0.00    -0.000 C 
BRANCH  17  18
ATOM     18  C   UNL     1      25.291  49.806  78.101  1.00  0.00    -0.000 C 
BRANCH  18  19
ATOM     19  C   UNL     1      25.833  49.756  76.664  1.00  0.00    -0.003 C 
ATOM     20  C   UNL     1      27.119  50.565  76.531  1.00  0.00     0.004 C 
ENDBRANCH  18  19
ENDBRANCH  17  18
ENDBRANCH  16  17
ENDBRANCH  15  16
ENDBRANCH  14  15
ENDBRANCH  13  14
ENDBRANCH   2  13
TORSDOF 15
ENDMDL
MODEL 4
REMARK VINA RESULT:    -2.941      4.083      5.833
REMARK INTER + INTRA:          -8.353
REMARK INTER:                  -5.757
REMARK INTRA:                  -2.596
REMARK UNBOUND:                -2.833
REMARK SMILES CCCCCCCCC=CCCCCCCCC(=O)[O-]
REMARK SMILES IDX 10 1 9 2 11 3 12 4 13 5 14 6 15 7 16 8 17 9 18 10 19 11
REMARK SMILES IDX 20 12 8 13 7 14 6 15 5 16 4 17 3 18 2 19 1 20
REMARK H PARENT
REMARK Flexibility Score: inf
ROOT
ATOM      1  C   UNL     1      25.020  53.943  77.088  1.00  0.00    -0.031 C 
ATOM      2  C   UNL     1      25.516  54.701  78.076  1.00  0.00    -0.031 C 
ENDROOT
BRANCH   1   3
ATOM      3  C   UNL     1      25.406  52.495  76.936  1.00  0.00     0.027 C 
BRANCH   3   4
ATOM      4  C   UNL     1      25.858  51.867  78.265  1.00  0.00     0.004 C 
BRANCH   4   5
ATOM      5  C   UNL     1      25.369  50.420  78.480  1.00  0.00     0.000 C 
BRANCH   5   6
ATOM      6  C   UNL     1      24.427  49.914  77.367  1.00  0.00     0.000 C 
BRANCH   6   7
ATOM      7  C   UNL     1      23.036  49.535  77.904  1.00  0.00     0.000 C 
BRANCH   7   8
ATOM      8  C   UNL     1      21.889  50.029  77.001  1.00  0.00     0.006 C 
BRANCH   8   9
ATOM      9  C   UNL     1      20.970  48.902  76.493  1.00  0.00     0.053 C 
BRANCH   9  10
ATOM     10  C   UNL     1      21.215  48.561  75.056  1.00  0.00     0.041 C 
ATOM     11  O   UNL     1      22.286  47.994  74.712  1.00  0.00    -0.550 OA
ATOM     12  O   UNL     1      20.255  48.862  74.097  1.00  0.00    -0.550 OA
ENDBRANCH   9  10
ENDBRANCH   8   9
ENDBRANCH   7   8
ENDBRANCH   6   7
ENDBRANCH   5   6
ENDBRANCH   4   5
ENDBRANCH   3   4
ENDBRANCH   1   3
BRANCH   2  13
ATOM     13  C   UNL     1      25.116  56.145  78.210  1.00  0.00     0.027 C 
BRANCH  13  14
ATOM     14  C   UNL     1      25.363  56.657  79.637  1.00  0.00     0.004 C 
BRANCH  14  15
ATOM     15  C   UNL     1      24.063  56.835  80.438  1.00  0.00     0.000 C 
BRANCH  15  16
ATOM     16  C   UNL     1      22.805  56.587  79.588  1.00  0.00     0.000 C 
BRANCH  16  17
ATOM     17  C   UNL     1      22.017  55.345  80.035  1.00  0.00    -0.000 C 
BRANCH  17  18
ATOM     18  C   UNL     1      21.829  54.296  78.919  1.00  0.00    -0.000 C 
BRANCH  18  19
ATOM     19  C   UNL     1      22.404  52.924  79.305  1.00  0.00    -0.003 C 
ATOM     20  C   UNL     1      23.187  53.001  80.612  1.00  0.00     0.004 C 
ENDBRANCH  18  19
ENDBRANCH  17  18
ENDBRANCH  16  17
ENDBRANCH  15  16
ENDBRANCH  14  15
ENDBRANCH  13  14
ENDBRANCH   2  13
TORSDOF 15
ENDMDL
MODEL 5
REMARK VINA RESULT:    -2.930      2.297      4.459
REMARK INTER + INTRA:          -8.333
REMARK INTER:                  -5.458
REMARK INTRA:                  -2.875
REMARK UNBOUND:                -2.833
REMARK SMILES CCCCCCCCC=CCCCCCCCC(=O)[O-]
REMARK SMILES IDX 10 1 9 2 11 3 12 4 13 5 14 6 15 7 16 8 17 9 18 10 19 11
REMARK SMILES IDX 20 12 8 13 7 14 6 15 5 16 4 17 3 18 2 19 1 20
REMARK H PARENT
REMARK Flexibility Score: inf
ROOT
ATOM      1  C   UNL     1      21.969  53.506  78.635  1.00  0.00    -0.031 C 
ATOM      2  C   UNL     1      22.104  54.813  78.900  1.00  0.00    -0.031 C 
ENDROOT
BRANCH   1   3
ATOM      3  C   UNL     1      22.508  52.899  77.366  1.00  0.00     0.027 C 
BRANCH   3   4
ATOM      4  C   UNL     1      23.984  52.486  77.495  1.00  0.00     0.004 C 
BRANCH   4   5
ATOM      5  C   UNL     1      24.981  53.516  76.928  1.00  0.00     0.000 C 
BRANCH   5   6
ATOM      6  C   UNL     1      25.637  54.403  78.008  1.00  0.00     0.000 C 
BRANCH   6   7
ATOM      7  C   UNL     1      25.396  55.902  77.759  1.00  0.00     0.000 C 
BRANCH   7   8
ATOM      8  C   UNL     1      26.151  56.805  78.754  1.00  0.00     0.006 C 
BRANCH   8   9
ATOM      9  C   UNL     1      27.459  56.188  79.284  1.00  0.00     0.053 C 
BRANCH   9  10
ATOM     10  C   UNL     1      28.493  57.219  79.611  1.00  0.00     0.041 C 
ATOM     11  O   UNL     1      29.260  57.657  78.712  1.00  0.00    -0.550 OA
ATOM     12  O   UNL     1      28.606  57.705  80.908  1.00  0.00    -0.550 OA
ENDBRANCH   9  10
ENDBRANCH   8   9
ENDBRANCH   7   8
ENDBRANCH   6   7
ENDBRANCH   5   6
ENDBRANCH   4   5
ENDBRANCH   3   4
ENDBRANCH   1   3
BRANCH   2  13
ATOM     13  C   UNL     1      21.559  55.398  80.175  1.00  0.00     0.027 C 
BRANCH  13  14
ATOM     14  C   UNL     1      22.631  56.218  80.909  1.00  0.00     0.004 C 
BRANCH  14  15
ATOM     15  C   UNL     1      23.348  55.412  82.005  1.00  0.00     0.000 C 
BRANCH  15  16
ATOM     16  C   UNL     1      24.711  54.869  81.544  1.00  0.00     0.000 C 
BRANCH  16  17
ATOM     17  C   UNL     1      24.728  53.338  81.402  1.00  0.00    -0.000 C 
BRANCH  17  18
ATOM     18  C   UNL     1      23.610  52.631  82.197  1.00  0.00    -0.000 C 
BRANCH  18  19
ATOM     19  C   UNL     1      22.848  51.603  81.344  1.00  0.00    -0.003 C 
ATOM     20  C   UNL     1      23.799  50.573  80.742  1.00  0.00     0.004 C 
ENDBRANCH  18  19
ENDBRANCH  17  18
ENDBRANCH  16  17
ENDBRANCH  15  16
ENDBRANCH  14  15
ENDBRANCH  13  14
ENDBRANCH   2  13
TORSDOF 15
ENDMDL
MODEL 6
REMARK VINA RESULT:    -2.898      2.853      4.591
REMARK INTER + INTRA:          -8.272
REMARK INTER:                  -4.971
REMARK INTRA:                  -3.301
REMARK UNBOUND:                -2.833
REMARK SMILES CCCCCCCCC=CCCCCCCCC(=O)[O-]
REMARK SMILES IDX 10 1 9 2 11 3 12 4 13 5 14 6 15 7 16 8 17 9 18 10 19 11
REMARK SMILES IDX 20 12 8 13 7 14 6 15 5 16 4 17 3 18 2 19 1 20
REMARK H PARENT
REMARK Flexibility Score: inf
ROOT
ATOM      1  C   UNL     1      24.377  52.902  80.418  1.00  0.00    -0.031 C 
ATOM      2  C   UNL     1      23.113  53.292  80.635  1.00  0.00    -0.031 C 
ENDROOT
BRANCH   1   3
ATOM      3  C   UNL     1      24.743  51.445  80.302  1.00  0.00     0.027 C 
BRANCH   3   4
ATOM      4  C   UNL     1      25.874  51.205  79.287  1.00  0.00     0.004 C 
BRANCH   4   5
ATOM      5  C   UNL     1      25.972  52.277  78.183  1.00  0.00     0.000 C 
BRANCH   5   6
ATOM      6  C   UNL     1      25.180  51.924  76.906  1.00  0.00     0.000 C 
BRANCH   6   7
ATOM      7  C   UNL     1      24.115  52.982  76.568  1.00  0.00     0.000 C 
BRANCH   7   8
ATOM      8  C   UNL     1      22.695  52.563  76.995  1.00  0.00     0.006 C 
BRANCH   8   9
ATOM      9  C   UNL     1      22.403  51.065  76.796  1.00  0.00     0.053 C 
BRANCH   9  10
ATOM     10  C   UNL     1      21.702  50.452  77.968  1.00  0.00     0.041 C 
ATOM     11  O   UNL     1      21.096  51.182  78.798  1.00  0.00    -0.550 OA
ATOM     12  O   UNL     1      21.712  49.073  78.141  1.00  0.00    -0.550 OA
ENDBRANCH   9  10
ENDBRANCH   8   9
ENDBRANCH   7   8
ENDBRANCH   6   7
ENDBRANCH   5   6
ENDBRANCH   4   5
ENDBRANCH   3   4
ENDBRANCH   1   3
BRANCH   2  13
ATOM     13  C   UNL     1      22.769  54.752  80.746  1.00  0.00     0.027 C 
BRANCH  13  14
ATOM     14  C   UNL     1      22.808  55.436  79.371  1.00  0.00     0.004 C 
BRANCH  14  15
ATOM     15  C   UNL     1      23.971  56.432  79.235  1.00  0.00     0.000 C 
BRANCH  15  16
ATOM     16  C   UNL     1      25.044  55.957  78.241  1.00  0.00     0.000 C 
BRANCH  16  17
ATOM     17  C   UNL     1      26.464  55.997  78.829  1.00  0.00    -0.000 C 
BRANCH  17  18
ATOM     18  C   UNL     1      26.518  56.515  80.282  1.00  0.00    -0.000 C 
BRANCH  18  19
ATOM     19  C   UNL     1      26.973  55.431  81.272  1.00  0.00    -0.003 C 
ATOM     20  C   UNL     1      27.808  54.362  80.573  1.00  0.00     0.004 C 
ENDBRANCH  18  19
ENDBRANCH  17  18
ENDBRANCH  16  17
ENDBRANCH  15  16
ENDBRANCH  14  15
ENDBRANCH  13  14
ENDBRANCH   2  13
TORSDOF 15
ENDMDL
MODEL 7
REMARK VINA RESULT:    -2.884      2.112      3.457
REMARK INTER + INTRA:          -8.246
REMARK INTER:                  -5.421
REMARK INTRA:                  -2.825
REMARK UNBOUND:                -2.833
REMARK SMILES CCCCCCCCC=CCCCCCCCC(=O)[O-]
REMARK SMILES IDX 10 1 9 2 11 3 12 4 13 5 14 6 15 7 16 8 17 9 18 10 19 11
REMARK SMILES IDX 20 12 8 13 7 14 6 15 5 16 4 17 3 18 2 19 1 20
REMARK H PARENT
REMARK Flexibility Score: inf
ROOT
ATOM      1  C   UNL     1      26.315  53.000  79.695  1.00  0.00    -0.031 C 
ATOM      2  C   UNL     1      27.524  53.507  79.974  1.00  0.00    -0.031 C 
ENDROOT
BRANCH   1   3
ATOM      3  C   UNL     1      26.157  51.648  79.051  1.00  0.00     0.027 C 
BRANCH   3   4
ATOM      4  C   UNL     1      26.056  51.736  77.519  1.00  0.00     0.004 C 
BRANCH   4   5
ATOM      5  C   UNL     1      25.073  52.809  77.010  1.00  0.00     0.000 C 
BRANCH   5   6
ATOM      6  C   UNL     1      23.792  52.223  76.378  1.00  0.00     0.000 C 
BRANCH   6   7
ATOM      7  C   UNL     1      22.513  52.759  77.045  1.00  0.00     0.000 C 
BRANCH   7   8
ATOM      8  C   UNL     1      22.635  52.871  78.577  1.00  0.00     0.006 C 
BRANCH   8   9
ATOM      9  C   UNL     1      21.638  53.858  79.210  1.00  0.00     0.053 C 
BRANCH   9  10
ATOM     10  C   UNL     1      20.691  53.194  80.160  1.00  0.00     0.041 C 
ATOM     11  O   UNL     1      20.246  52.042  79.910  1.00  0.00    -0.550 OA
ATOM     12  O   UNL     1      20.305  53.844  81.326  1.00  0.00    -0.550 OA
ENDBRANCH   9  10
ENDBRANCH   8   9
ENDBRANCH   7   8
ENDBRANCH   6   7
ENDBRANCH   5   6
ENDBRANCH   4   5
ENDBRANCH   3   4
ENDBRANCH   1   3
BRANCH   2  13
ATOM     13  C   UNL     1      27.659  54.860  80.619  1.00  0.00     0.027 C 
BRANCH  13  14
ATOM     14  C   UNL     1      28.051  55.928  79.587  1.00  0.00     0.004 C 
BRANCH  14  15
ATOM     15  C   UNL     1      26.893  56.879  79.247  1.00  0.00     0.000 C 
BRANCH  15  16
ATOM     16  C   UNL     1      25.929  56.290  78.204  1.00  0.00     0.000 C 
BRANCH  16  17
ATOM     17  C   UNL     1      24.518  56.046  78.763  1.00  0.00    -0.000 C 
BRANCH  17  18
ATOM     18  C   UNL     1      24.292  56.659  80.161  1.00  0.00    -0.000 C 
BRANCH  18  19
ATOM     19  C   UNL     1      24.024  55.590  81.232  1.00  0.00    -0.003 C 
ATOM     20  C   UNL     1      24.703  55.947  82.550  1.00  0.00     0.004 C 
ENDBRANCH  18  19
ENDBRANCH  17  18
ENDBRANCH  16  17
ENDBRANCH  15  16
ENDBRANCH  14  15
ENDBRANCH  13  14
ENDBRANCH   2  13
TORSDOF 15
ENDMDL
MODEL 8
REMARK VINA RESULT:    -2.881      1.647      4.837
REMARK INTER + INTRA:          -8.240
REMARK INTER:                  -5.286
REMARK INTRA:                  -2.954
REMARK UNBOUND:                -2.833
REMARK SMILES CCCCCCCCC=CCCCCCCCC(=O)[O-]
REMARK SMILES IDX 10 1 9 2 11 3 12 4 13 5 14 6 15 7 16 8 17 9 18 10 19 11
REMARK SMILES IDX 20 12 8 13 7 14 6 15 5 16 4 17 3 18 2 19 1 20
REMARK H PARENT
REMARK Flexibility Score: inf
ROOT
ATOM      1  C   UNL     1      26.511  53.108  80.243  1.00  0.00    -0.031 C 
ATOM      2  C   UNL     1      26.308  52.824  78.948  1.00  0.00    -0.031 C 
ENDROOT
BRANCH   1   3
ATOM      3  C   UNL     1      26.781  54.515  80.708  1.00  0.00     0.027 C 
BRANCH   3   4
ATOM      4  C   UNL     1      27.375  55.396  79.596  1.00  0.00     0.004 C 
BRANCH   4   5
ATOM      5  C   UNL     1      26.480  56.580  79.181  1.00  0.00     0.000 C 
BRANCH   5   6
ATOM      6  C   UNL     1      25.261  56.165  78.329  1.00  0.00     0.000 C 
BRANCH   6   7
ATOM      7  C   UNL     1      23.949  56.193  79.131  1.00  0.00     0.000 C 
BRANCH   7   8
ATOM      8  C   UNL     1      23.175  54.862  79.063  1.00  0.00     0.006 C 
BRANCH   8   9
ATOM      9  C   UNL     1      22.681  54.360  80.432  1.00  0.00     0.053 C 
BRANCH   9  10
ATOM     10  C   UNL     1      21.232  54.654  80.666  1.00  0.00     0.041 C 
ATOM     11  O   UNL     1      20.366  53.754  80.498  1.00  0.00    -0.550 OA
ATOM     12  O   UNL     1      20.837  55.921  81.079  1.00  0.00    -0.550 OA
ENDBRANCH   9  10
ENDBRANCH   8   9
ENDBRANCH   7   8
ENDBRANCH   6   7
ENDBRANCH   5   6
ENDBRANCH   4   5
ENDBRANCH   3   4
ENDBRANCH   1   3
BRANCH   2  13
ATOM     13  C   UNL     1      26.039  51.411  78.505  1.00  0.00     0.027 C 
BRANCH  13  14
ATOM     14  C   UNL     1      25.523  51.374  77.059  1.00  0.00     0.004 C 
BRANCH  14  15
ATOM     15  C   UNL     1      24.809  52.673  76.649  1.00  0.00     0.000 C 
BRANCH  15  16
ATOM     16  C   UNL     1      23.322  52.453  76.321  1.00  0.00     0.000 C 
BRANCH  16  17
ATOM     17  C   UNL     1      22.976  50.975  76.080  1.00  0.00    -0.000 C 
BRANCH  17  18
ATOM     18  C   UNL     1      22.004  50.388  77.125  1.00  0.00    -0.000 C 
BRANCH  18  19
ATOM     19  C   UNL     1      21.804  51.324  78.328  1.00  0.00    -0.003 C 
ATOM     20  C   UNL     1      22.486  50.772  79.576  1.00  0.00     0.004 C 
ENDBRANCH  18  19
ENDBRANCH  17  18
ENDBRANCH  16  17
ENDBRANCH  15  16
ENDBRANCH  14  15
ENDBRANCH  13  14
ENDBRANCH   2  13
TORSDOF 15
ENDMDL
MODEL 9
REMARK VINA RESULT:    -2.863      2.258      3.989
REMARK INTER + INTRA:          -8.207
REMARK INTER:                  -5.048
REMARK INTRA:                  -3.158
REMARK UNBOUND:                -2.833
REMARK SMILES CCCCCCCCC=CCCCCCCCC(=O)[O-]
REMARK SMILES IDX 10 1 9 2 11 3 12 4 13 5 14 6 15 7 16 8 17 9 18 10 19 11
REMARK SMILES IDX 20 12 8 13 7 14 6 15 5 16 4 17 3 18 2 19 1 20
REMARK H PARENT
REMARK Flexibility Score: inf
ROOT
ATOM      1  C   UNL     1      26.062  52.636  79.175  1.00  0.00    -0.031 C 
ATOM      2  C   UNL     1      25.394  52.569  80.335  1.00  0.00    -0.031 C 
ENDROOT
BRANCH   1   3
ATOM      3  C   UNL     1      26.392  51.398  78.383  1.00  0.00     0.027 C 
BRANCH   3   4
ATOM      4  C   UNL     1      25.640  51.341  77.043  1.00  0.00     0.004 C 
BRANCH   4   5
ATOM      5  C   UNL     1      24.928  52.655  76.661  1.00  0.00     0.000 C 
BRANCH   5   6
ATOM      6  C   UNL     1      23.433  52.472  76.322  1.00  0.00     0.000 C 
BRANCH   6   7
ATOM      7  C   UNL     1      22.520  52.754  77.528  1.00  0.00     0.000 C 
BRANCH   7   8
ATOM      8  C   UNL     1      21.893  51.476  78.118  1.00  0.00     0.006 C 
BRANCH   8   9
ATOM      9  C   UNL     1      22.182  51.277  79.617  1.00  0.00     0.053 C 
BRANCH   9  10
ATOM     10  C   UNL     1      21.085  51.799  80.492  1.00  0.00     0.041 C 
ATOM     11  O   UNL     1      21.132  51.628  81.739  1.00  0.00    -0.550 OA
ATOM     12  O   UNL     1      20.013  52.482  79.930  1.00  0.00    -0.550 OA
ENDBRANCH   9  10
ENDBRANCH   8   9
ENDBRANCH   7   8
ENDBRANCH   6   7
ENDBRANCH   5   6
ENDBRANCH   4   5
ENDBRANCH   3   4
ENDBRANCH   1   3
BRANCH   2  13
ATOM     13  C   UNL     1      25.073  53.818  81.110  1.00  0.00     0.027 C 
BRANCH  13  14
ATOM     14  C   UNL     1      23.798  54.487  80.576  1.00  0.00     0.004 C 
BRANCH  14  15
ATOM     15  C   UNL     1      24.055  55.897  80.019  1.00  0.00     0.000 C 
BRANCH  15  16
ATOM     16  C   UNL     1      24.208  55.909  78.488  1.00  0.00     0.000 C 
BRANCH  16  17
ATOM     17  C   UNL     1      25.677  55.947  78.035  1.00  0.00    -0.000 C 
BRANCH  17  18
ATOM     18  C   UNL     1      26.573  56.845  78.914  1.00  0.00    -0.000 C 
BRANCH  18  19
ATOM     19  C   UNL     1      27.766  56.079  79.505  1.00  0.00    -0.003 C 
ATOM     20  C   UNL     1      27.794  56.191  81.027  1.00  0.00     0.004 C 
ENDBRANCH  18  19
ENDBRANCH  17  18
ENDBRANCH  16  17
ENDBRANCH  15  16
ENDBRANCH  14  15
ENDBRANCH  13  14
ENDBRANCH   2  13
TORSDOF 15
ENDMDL
