MODEL 1
REMARK VINA RESULT:    -5.864      0.000      0.000
REMARK INTER + INTRA:          -7.534
REMARK INTER:                  -6.892
REMARK INTRA:                  -0.642
REMARK UNBOUND:                -0.642
REMARK SMILES C=C(C)[C@@H]1CC[C@]2(CO)CC[C@]3(C)[C@H](CC[C@H]4[C@@]5(C)CC[C@H](O)C(C)(C)[C@H]5CC[C@@]43C)[C@@H]12
REMARK SMILES IDX 4 1 5 2 6 3 7 4 32 5 14 6 15 7 16 8 17 9 18 10 20 11 21 12
REMARK SMILES IDX 22 13 24 14 27 15 28 16 29 17 30 18 12 19 11 20 10 21 13 22
REMARK SMILES IDX 31 23 25 24 26 25 19 26 2 27 3 28 1 29 8 30 9 31 23 33
REMARK H PARENT 9 32 23 34
REMARK Flexibility Score: inf
ROOT
ATOM      1  C   UNL     1     -19.651 -59.887  55.317  1.00  0.00     0.018 C 
ATOM      2  C   UNL     1     -18.370 -59.105  55.708  1.00  0.00     0.009 C 
ATOM      3  C   UNL     1     -17.363 -60.138  56.260  1.00  0.00     0.010 C 
ATOM      4  C   UNL     1     -18.223 -61.355  56.643  1.00  0.00    -0.003 C 
ATOM      5  C   UNL     1     -19.220 -61.354  55.455  1.00  0.00     0.008 C 
ATOM      6  C   UNL     1     -20.245 -62.497  55.623  1.00  0.00    -0.000 C 
ATOM      7  C   UNL     1     -21.578 -62.410  54.867  1.00  0.00     0.005 C 
ATOM      8  C   UNL     1     -22.610 -63.430  55.450  1.00  0.00     0.005 C 
ATOM      9  C   UNL     1     -21.944 -64.586  56.277  1.00  0.00     0.002 C 
ATOM     10  C   UNL     1     -22.925 -65.632  56.982  1.00  0.00    -0.026 C 
ATOM     11  C   UNL     1     -23.784 -66.442  55.980  1.00  0.00     0.010 C 
ATOM     12  C   UNL     1     -24.779 -67.401  56.654  1.00  0.00     0.033 C 
ATOM     13  C   UNL     1     -24.227 -68.168  57.884  1.00  0.00     0.120 C 
ATOM     14  C   UNL     1     -22.666 -68.126  58.031  1.00  0.00    -0.006 C 
ATOM     15  C   UNL     1     -22.105 -66.633  57.915  1.00  0.00     0.003 C 
ATOM     16  C   UNL     1     -20.563 -66.556  57.698  1.00  0.00     0.005 C 
ATOM     17  C   UNL     1     -20.165 -66.429  56.219  1.00  0.00     0.008 C 
ATOM     18  C   UNL     1     -20.665 -65.118  55.525  1.00  0.00    -0.024 C 
ATOM     19  C   UNL     1     -19.536 -63.920  55.482  1.00  0.00    -0.024 C 
ATOM     20  C   UNL     1     -18.466 -63.951  56.644  1.00  0.00     0.008 C 
ATOM     21  C   UNL     1     -17.483 -62.724  56.678  1.00  0.00     0.010 C 
ATOM     22  C   UNL     1     -18.710 -64.045  54.150  1.00  0.00     0.012 C 
ATOM     23  C   UNL     1     -21.066 -65.541  54.057  1.00  0.00     0.012 C 
ATOM     24  C   UNL     1     -22.053 -69.125  57.004  1.00  0.00     0.014 C 
ATOM     25  C   UNL     1     -22.294 -68.696  59.431  1.00  0.00     0.014 C 
ATOM     26  C   UNL     1     -23.903 -64.790  57.866  1.00  0.00     0.012 C 
ENDROOT
BRANCH   1  27
ATOM     27  C   UNL     1     -20.167 -59.513  53.928  1.00  0.00    -0.077 C 
ATOM     28  C   UNL     1     -21.536 -58.903  53.772  1.00  0.00     0.039 C 
ATOM     29  C   UNL     1     -19.422 -59.700  52.822  1.00  0.00     0.008 C 
ENDBRANCH   1  27
BRANCH   4  30
ATOM     30  C   UNL     1     -18.851 -61.080  58.058  1.00  0.00     0.163 C 
BRANCH  30  31
ATOM     31  O   UNL     1     -17.875 -61.207  59.060  1.00  0.00    -0.396 OA
ATOM     32  H   UNL     1     -16.997 -61.246  58.597  1.00  0.00     0.210 HD
ENDBRANCH  30  31
ENDBRANCH   4  30
BRANCH  13  33
ATOM     33  O   UNL     1     -24.856 -67.678  59.046  1.00  0.00    -0.393 OA
ATOM     34  H   UNL     1     -25.636 -68.260  59.240  1.00  0.00     0.210 HD
ENDBRANCH  13  33
TORSDOF 4
ENDMDL
MODEL 2
REMARK VINA RESULT:    -5.789      8.916     11.847
REMARK INTER + INTRA:          -7.446
REMARK INTER:                  -6.791
REMARK INTRA:                  -0.655
REMARK UNBOUND:                -0.642
REMARK SMILES C=C(C)[C@@H]1CC[C@]2(CO)CC[C@]3(C)[C@H](CC[C@H]4[C@@]5(C)CC[C@H](O)C(C)(C)[C@H]5CC[C@@]43C)[C@@H]12
REMARK SMILES IDX 4 1 5 2 6 3 7 4 32 5 14 6 15 7 16 8 17 9 18 10 20 11 21 12
REMARK SMILES IDX 22 13 24 14 27 15 28 16 29 17 30 18 12 19 11 20 10 21 13 22
REMARK SMILES IDX 31 23 25 24 26 25 19 26 2 27 3 28 1 29 8 30 9 31 23 33
REMARK H PARENT 9 32 23 34
REMARK Flexibility Score: inf
ROOT
ATOM      1  C   UNL     1     -29.560 -65.842  54.492  1.00  0.00     0.018 C 
ATOM      2  C   UNL     1     -29.531 -67.373  54.248  1.00  0.00     0.009 C 
ATOM      3  C   UNL     1     -30.360 -68.023  55.377  1.00  0.00     0.010 C 
ATOM      4  C   UNL     1     -30.414 -66.959  56.485  1.00  0.00    -0.003 C 
ATOM      5  C   UNL     1     -30.593 -65.686  55.616  1.00  0.00     0.008 C 
ATOM      6  C   UNL     1     -30.643 -64.433  56.517  1.00  0.00    -0.000 C 
ATOM      7  C   UNL     1     -30.335 -63.064  55.893  1.00  0.00     0.005 C 
ATOM      8  C   UNL     1     -30.060 -62.001  57.006  1.00  0.00     0.005 C 
ATOM      9  C   UNL     1     -30.618 -62.413  58.414  1.00  0.00     0.002 C 
ATOM     10  C   UNL     1     -30.313 -61.427  59.634  1.00  0.00    -0.026 C 
ATOM     11  C   UNL     1     -30.945 -60.024  59.464  1.00  0.00     0.010 C 
ATOM     12  C   UNL     1     -30.597 -59.048  60.600  1.00  0.00     0.033 C 
ATOM     13  C   UNL     1     -30.622 -59.659  62.026  1.00  0.00     0.120 C 
ATOM     14  C   UNL     1     -31.333 -61.054  62.125  1.00  0.00    -0.006 C 
ATOM     15  C   UNL     1     -30.796 -62.068  61.012  1.00  0.00     0.003 C 
ATOM     16  C   UNL     1     -31.694 -63.329  60.824  1.00  0.00     0.005 C 
ATOM     17  C   UNL     1     -32.708 -63.185  59.679  1.00  0.00     0.008 C 
ATOM     18  C   UNL     1     -32.064 -63.022  58.262  1.00  0.00    -0.024 C 
ATOM     19  C   UNL     1     -31.962 -64.430  57.414  1.00  0.00    -0.024 C 
ATOM     20  C   UNL     1     -31.855 -65.744  58.287  1.00  0.00     0.008 C 
ATOM     21  C   UNL     1     -31.612 -67.067  57.472  1.00  0.00     0.010 C 
ATOM     22  C   UNL     1     -33.268 -64.605  56.555  1.00  0.00     0.012 C 
ATOM     23  C   UNL     1     -32.982 -61.990  57.495  1.00  0.00     0.012 C 
ATOM     24  C   UNL     1     -32.874 -60.817  62.089  1.00  0.00     0.014 C 
ATOM     25  C   UNL     1     -31.042 -61.650  63.533  1.00  0.00     0.014 C 
ATOM     26  C   UNL     1     -28.759 -61.241  59.670  1.00  0.00     0.012 C 
ENDROOT
BRANCH   1  27
ATOM     27  C   UNL     1     -29.888 -65.051  53.225  1.00  0.00    -0.077 C 
ATOM     28  C   UNL     1     -31.324 -64.777  52.858  1.00  0.00     0.039 C 
ATOM     29  C   UNL     1     -28.921 -64.570  52.421  1.00  0.00     0.008 C 
ENDBRANCH   1  27
BRANCH   4  30
ATOM     30  C   UNL     1     -29.073 -67.040  57.303  1.00  0.00     0.163 C 
BRANCH  30  31
ATOM     31  O   UNL     1     -28.749 -68.377  57.581  1.00  0.00    -0.396 OA
ATOM     32  H   UNL     1     -29.192 -68.603  58.441  1.00  0.00     0.210 HD
ENDBRANCH  30  31
ENDBRANCH   4  30
BRANCH  13  33
ATOM     33  O   UNL     1     -29.301 -59.734  62.512  1.00  0.00    -0.393 OA
ATOM     34  H   UNL     1     -29.126 -60.673  62.782  1.00  0.00     0.210 HD
ENDBRANCH  13  33
TORSDOF 4
ENDMDL
MODEL 3
REMARK VINA RESULT:    -5.687      4.555      7.871
REMARK INTER + INTRA:          -7.326
REMARK INTER:                  -7.344
REMARK INTRA:                   0.018
REMARK UNBOUND:                -0.642
REMARK SMILES C=C(C)[C@@H]1CC[C@]2(CO)CC[C@]3(C)[C@H](CC[C@H]4[C@@]5(C)CC[C@H](O)C(C)(C)[C@H]5CC[C@@]43C)[C@@H]12
REMARK SMILES IDX 4 1 5 2 6 3 7 4 32 5 14 6 15 7 16 8 17 9 18 10 20 11 21 12
REMARK SMILES IDX 22 13 24 14 27 15 28 16 29 17 30 18 12 19 11 20 10 21 13 22
REMARK SMILES IDX 31 23 25 24 26 25 19 26 2 27 3 28 1 29 8 30 9 31 23 33
REMARK H PARENT 9 32 23 34
REMARK Flexibility Score: inf
ROOT
ATOM      1  C   UNL     1     -22.126 -68.863  57.034  1.00  0.00     0.018 C 
ATOM      2  C   UNL     1     -20.692 -69.124  56.503  1.00  0.00     0.009 C 
ATOM      3  C   UNL     1     -20.391 -68.022  55.463  1.00  0.00     0.010 C 
ATOM      4  C   UNL     1     -21.772 -67.485  55.052  1.00  0.00    -0.003 C 
ATOM      5  C   UNL     1     -22.477 -67.494  56.434  1.00  0.00     0.008 C 
ATOM      6  C   UNL     1     -23.937 -67.014  56.286  1.00  0.00    -0.000 C 
ATOM      7  C   UNL     1     -24.950 -67.384  57.380  1.00  0.00     0.005 C 
ATOM      8  C   UNL     1     -26.412 -67.152  56.878  1.00  0.00     0.005 C 
ATOM      9  C   UNL     1     -26.502 -66.183  55.646  1.00  0.00     0.002 C 
ATOM     10  C   UNL     1     -27.950 -65.949  55.010  1.00  0.00    -0.026 C 
ATOM     11  C   UNL     1     -28.949 -65.282  55.985  1.00  0.00     0.010 C 
ATOM     12  C   UNL     1     -30.363 -65.118  55.403  1.00  0.00     0.033 C 
ATOM     13  C   UNL     1     -30.419 -64.661  53.922  1.00  0.00     0.120 C 
ATOM     14  C   UNL     1     -29.066 -64.098  53.362  1.00  0.00    -0.006 C 
ATOM     15  C   UNL     1     -27.846 -65.084  53.674  1.00  0.00     0.003 C 
ATOM     16  C   UNL     1     -26.443 -64.433  53.468  1.00  0.00     0.005 C 
ATOM     17  C   UNL     1     -25.840 -63.870  54.764  1.00  0.00     0.008 C 
ATOM     18  C   UNL     1     -25.550 -64.946  55.863  1.00  0.00    -0.024 C 
ATOM     19  C   UNL     1     -23.989 -65.472  55.879  1.00  0.00    -0.024 C 
ATOM     20  C   UNL     1     -23.232 -65.398  54.494  1.00  0.00     0.008 C 
ATOM     21  C   UNL     1     -21.795 -66.035  54.486  1.00  0.00     0.010 C 
ATOM     22  C   UNL     1     -23.157 -64.568  56.860  1.00  0.00     0.012 C 
ATOM     23  C   UNL     1     -25.905 -64.255  57.239  1.00  0.00     0.012 C 
ATOM     24  C   UNL     1     -28.878 -62.650  53.908  1.00  0.00     0.014 C 
ATOM     25  C   UNL     1     -29.204 -63.941  51.820  1.00  0.00     0.014 C 
ATOM     26  C   UNL     1     -28.510 -67.369  54.661  1.00  0.00     0.012 C 
ENDROOT
BRANCH   1  27
ATOM     27  C   UNL     1     -22.208 -68.918  58.559  1.00  0.00    -0.077 C 
ATOM     28  C   UNL     1     -20.965 -68.724  59.388  1.00  0.00     0.039 C 
ATOM     29  C   UNL     1     -23.375 -69.125  59.199  1.00  0.00     0.008 C 
ENDBRANCH   1  27
BRANCH   4  30
ATOM     30  C   UNL     1     -22.373 -68.461  53.975  1.00  0.00     0.163 C 
BRANCH  30  31
ATOM     31  O   UNL     1     -21.397 -68.802  53.025  1.00  0.00    -0.396 OA
ATOM     32  H   UNL     1     -20.815 -69.485  53.451  1.00  0.00     0.210 HD
ENDBRANCH  30  31
ENDBRANCH   4  30
BRANCH  13  33
ATOM     33  O   UNL     1     -30.882 -65.732  53.132  1.00  0.00    -0.393 OA
ATOM     34  H   UNL     1     -30.287 -65.809  52.341  1.00  0.00     0.210 HD
ENDBRANCH  13  33
TORSDOF 4
ENDMDL
MODEL 4
REMARK VINA RESULT:    -5.542      3.498      7.138
REMARK INTER + INTRA:          -7.156
REMARK INTER:                  -6.472
REMARK INTRA:                  -0.683
REMARK UNBOUND:                -0.642
REMARK SMILES C=C(C)[C@@H]1CC[C@]2(CO)CC[C@]3(C)[C@H](CC[C@H]4[C@@]5(C)CC[C@H](O)C(C)(C)[C@H]5CC[C@@]43C)[C@@H]12
REMARK SMILES IDX 4 1 5 2 6 3 7 4 32 5 14 6 15 7 16 8 17 9 18 10 20 11 21 12
REMARK SMILES IDX 22 13 24 14 27 15 28 16 29 17 30 18 12 19 11 20 10 21 13 22
REMARK SMILES IDX 31 23 25 24 26 25 19 26 2 27 3 28 1 29 8 30 9 31 23 33
REMARK H PARENT 9 32 23 34
REMARK Flexibility Score: inf
ROOT
ATOM      1  C   UNL     1     -21.373 -68.120  56.925  1.00  0.00     0.018 C 
ATOM      2  C   UNL     1     -20.260 -68.766  56.058  1.00  0.00     0.009 C 
ATOM      3  C   UNL     1     -19.834 -67.709  55.015  1.00  0.00     0.010 C 
ATOM      4  C   UNL     1     -21.006 -66.715  54.965  1.00  0.00    -0.003 C 
ATOM      5  C   UNL     1     -21.360 -66.652  56.474  1.00  0.00     0.008 C 
ATOM      6  C   UNL     1     -22.568 -65.716  56.696  1.00  0.00    -0.000 C 
ATOM      7  C   UNL     1     -23.386 -65.862  57.987  1.00  0.00     0.005 C 
ATOM      8  C   UNL     1     -24.755 -65.118  57.858  1.00  0.00     0.005 C 
ATOM      9  C   UNL     1     -24.774 -64.040  56.717  1.00  0.00     0.002 C 
ATOM     10  C   UNL     1     -26.158 -63.284  56.455  1.00  0.00    -0.026 C 
ATOM     11  C   UNL     1     -26.640 -62.446  57.663  1.00  0.00     0.010 C 
ATOM     12  C   UNL     1     -28.004 -61.772  57.442  1.00  0.00     0.033 C 
ATOM     13  C   UNL     1     -28.218 -61.159  56.034  1.00  0.00     0.120 C 
ATOM     14  C   UNL     1     -26.907 -61.000  55.187  1.00  0.00    -0.006 C 
ATOM     15  C   UNL     1     -26.056 -62.354  55.164  1.00  0.00     0.003 C 
ATOM     16  C   UNL     1     -24.595 -62.169  54.650  1.00  0.00     0.005 C 
ATOM     17  C   UNL     1     -23.574 -61.978  55.783  1.00  0.00     0.008 C 
ATOM     18  C   UNL     1     -23.436 -63.206  56.743  1.00  0.00    -0.024 C 
ATOM     19  C   UNL     1     -22.181 -64.203  56.367  1.00  0.00    -0.024 C 
ATOM     20  C   UNL     1     -21.758 -64.221  54.844  1.00  0.00     0.008 C 
ATOM     21  C   UNL     1     -20.658 -65.281  54.471  1.00  0.00     0.010 C 
ATOM     22  C   UNL     1     -20.902 -63.731  57.150  1.00  0.00     0.012 C 
ATOM     23  C   UNL     1     -23.234 -62.597  58.186  1.00  0.00     0.012 C 
ATOM     24  C   UNL     1     -26.128 -59.760  55.721  1.00  0.00     0.014 C 
ATOM     25  C   UNL     1     -27.311 -60.634  53.728  1.00  0.00     0.014 C 
ATOM     26  C   UNL     1     -27.226 -64.400  56.201  1.00  0.00     0.012 C 
ENDROOT
BRANCH   1  27
ATOM     27  C   UNL     1     -21.140 -68.317  58.423  1.00  0.00    -0.077 C 
ATOM     28  C   UNL     1     -20.018 -67.586  59.114  1.00  0.00     0.039 C 
ATOM     29  C   UNL     1     -21.925 -69.125  59.161  1.00  0.00     0.008 C 
ENDBRANCH   1  27
BRANCH   4  30
ATOM     30  C   UNL     1     -22.118 -67.318  54.030  1.00  0.00     0.163 C 
BRANCH  30  31
ATOM     31  O   UNL     1     -21.577 -67.648  52.777  1.00  0.00    -0.396 OA
ATOM     32  H   UNL     1     -20.601 -67.774  52.913  1.00  0.00     0.210 HD
ENDBRANCH  30  31
ENDBRANCH   4  30
BRANCH  13  33
ATOM     33  O   UNL     1     -29.174 -61.929  55.342  1.00  0.00    -0.393 OA
ATOM     34  H   UNL     1     -29.136 -62.855  55.697  1.00  0.00     0.210 HD
ENDBRANCH  13  33
TORSDOF 4
ENDMDL
MODEL 5
REMARK VINA RESULT:    -5.458      4.235      7.961
REMARK INTER + INTRA:          -7.058
REMARK INTER:                  -6.442
REMARK INTRA:                  -0.616
REMARK UNBOUND:                -0.642
REMARK SMILES C=C(C)[C@@H]1CC[C@]2(CO)CC[C@]3(C)[C@H](CC[C@H]4[C@@]5(C)CC[C@H](O)C(C)(C)[C@H]5CC[C@@]43C)[C@@H]12
REMARK SMILES IDX 4 1 5 2 6 3 7 4 32 5 14 6 15 7 16 8 17 9 18 10 20 11 21 12
REMARK SMILES IDX 22 13 24 14 27 15 28 16 29 17 30 18 12 19 11 20 10 21 13 22
REMARK SMILES IDX 31 23 25 24 26 25 19 26 2 27 3 28 1 29 8 30 9 31 23 33
REMARK H PARENT 9 32 23 34
REMARK Flexibility Score: inf
ROOT
ATOM      1  C   UNL     1     -28.998 -64.694  52.724  1.00  0.00     0.018 C 
ATOM      2  C   UNL     1     -30.507 -64.974  52.947  1.00  0.00     0.009 C 
ATOM      3  C   UNL     1     -30.662 -65.462  54.405  1.00  0.00     0.010 C 
ATOM      4  C   UNL     1     -29.255 -65.927  54.813  1.00  0.00    -0.003 C 
ATOM      5  C   UNL     1     -28.407 -64.819  54.136  1.00  0.00     0.008 C 
ATOM      6  C   UNL     1     -26.904 -65.082  54.374  1.00  0.00    -0.000 C 
ATOM      7  C   UNL     1     -25.882 -64.429  53.432  1.00  0.00     0.005 C 
ATOM      8  C   UNL     1     -24.480 -65.103  53.587  1.00  0.00     0.005 C 
ATOM      9  C   UNL     1     -24.314 -65.894  54.933  1.00  0.00     0.002 C 
ATOM     10  C   UNL     1     -22.943 -66.687  55.145  1.00  0.00    -0.026 C 
ATOM     11  C   UNL     1     -21.700 -65.766  55.187  1.00  0.00     0.010 C 
ATOM     12  C   UNL     1     -20.371 -66.528  55.321  1.00  0.00     0.033 C 
ATOM     13  C   UNL     1     -20.392 -67.722  56.310  1.00  0.00     0.120 C 
ATOM     14  C   UNL     1     -21.629 -67.750  57.273  1.00  0.00    -0.006 C 
ATOM     15  C   UNL     1     -23.001 -67.569  56.472  1.00  0.00     0.003 C 
ATOM     16  C   UNL     1     -24.222 -67.233  57.383  1.00  0.00     0.005 C 
ATOM     17  C   UNL     1     -24.507 -65.726  57.482  1.00  0.00     0.008 C 
ATOM     18  C   UNL     1     -24.909 -65.054  56.127  1.00  0.00    -0.024 C 
ATOM     19  C   UNL     1     -26.535 -64.907  55.917  1.00  0.00    -0.024 C 
ATOM     20  C   UNL     1     -27.418 -65.985  56.663  1.00  0.00     0.008 C 
ATOM     21  C   UNL     1     -28.956 -65.925  56.340  1.00  0.00     0.010 C 
ATOM     22  C   UNL     1     -27.000 -63.518  56.487  1.00  0.00     0.012 C 
ATOM     23  C   UNL     1     -24.231 -63.627  56.144  1.00  0.00     0.012 C 
ATOM     24  C   UNL     1     -21.396 -66.692  58.395  1.00  0.00     0.014 C 
ATOM     25  C   UNL     1     -21.648 -69.125  58.002  1.00  0.00     0.014 C 
ATOM     26  C   UNL     1     -22.786 -67.631  53.906  1.00  0.00     0.012 C 
ENDROOT
BRANCH   1  27
ATOM     27  C   UNL     1     -28.744 -63.343  52.056  1.00  0.00    -0.077 C 
ATOM     28  C   UNL     1     -29.206 -62.073  52.723  1.00  0.00     0.039 C 
ATOM     29  C   UNL     1     -28.099 -63.246  50.877  1.00  0.00     0.008 C 
ENDBRANCH   1  27
BRANCH   4  30
ATOM     30  C   UNL     1     -29.042 -67.382  54.256  1.00  0.00     0.163 C 
BRANCH  30  31
ATOM     31  O   UNL     1     -29.963 -68.269  54.838  1.00  0.00    -0.396 OA
ATOM     32  H   UNL     1     -29.596 -68.513  55.729  1.00  0.00     0.210 HD
ENDBRANCH  30  31
ENDBRANCH   4  30
BRANCH  13  33
ATOM     33  O   UNL     1     -20.299 -68.922  55.577  1.00  0.00    -0.393 OA
ATOM     34  H   UNL     1     -21.115 -69.003  55.017  1.00  0.00     0.210 HD
ENDBRANCH  13  33
TORSDOF 4
ENDMDL
MODEL 6
REMARK VINA RESULT:    -5.330      4.183      8.619
REMARK INTER + INTRA:          -6.907
REMARK INTER:                  -6.236
REMARK INTRA:                  -0.671
REMARK UNBOUND:                -0.642
REMARK SMILES C=C(C)[C@@H]1CC[C@]2(CO)CC[C@]3(C)[C@H](CC[C@H]4[C@@]5(C)CC[C@H](O)C(C)(C)[C@H]5CC[C@@]43C)[C@@H]12
REMARK SMILES IDX 4 1 5 2 6 3 7 4 32 5 14 6 15 7 16 8 17 9 18 10 20 11 21 12
REMARK SMILES IDX 22 13 24 14 27 15 28 16 29 17 30 18 12 19 11 20 10 21 13 22
REMARK SMILES IDX 31 23 25 24 26 25 19 26 2 27 3 28 1 29 8 30 9 31 23 33
REMARK H PARENT 9 32 23 34
REMARK Flexibility Score: inf
ROOT
ATOM      1  C   UNL     1     -29.717 -65.991  54.830  1.00  0.00     0.018 C 
ATOM      2  C   UNL     1     -30.879 -65.524  53.915  1.00  0.00     0.009 C 
ATOM      3  C   UNL     1     -30.251 -64.662  52.797  1.00  0.00     0.010 C 
ATOM      4  C   UNL     1     -28.881 -64.240  53.353  1.00  0.00    -0.003 C 
ATOM      5  C   UNL     1     -28.465 -65.559  54.054  1.00  0.00     0.008 C 
ATOM      6  C   UNL     1     -27.094 -65.384  54.742  1.00  0.00    -0.000 C 
ATOM      7  C   UNL     1     -26.706 -66.350  55.870  1.00  0.00     0.005 C 
ATOM      8  C   UNL     1     -25.492 -65.791  56.681  1.00  0.00     0.005 C 
ATOM      9  C   UNL     1     -24.675 -64.697  55.906  1.00  0.00     0.002 C 
ATOM     10  C   UNL     1     -23.463 -64.007  56.687  1.00  0.00    -0.026 C 
ATOM     11  C   UNL     1     -22.338 -64.997  57.075  1.00  0.00     0.010 C 
ATOM     12  C   UNL     1     -21.202 -64.352  57.887  1.00  0.00     0.033 C 
ATOM     13  C   UNL     1     -20.762 -62.945  57.405  1.00  0.00     0.120 C 
ATOM     14  C   UNL     1     -21.279 -62.555  55.977  1.00  0.00    -0.006 C 
ATOM     15  C   UNL     1     -22.851 -62.809  55.831  1.00  0.00     0.003 C 
ATOM     16  C   UNL     1     -23.357 -62.783  54.356  1.00  0.00     0.005 C 
ATOM     17  C   UNL     1     -23.444 -64.179  53.720  1.00  0.00     0.008 C 
ATOM     18  C   UNL     1     -24.470 -65.139  54.407  1.00  0.00    -0.024 C 
ATOM     19  C   UNL     1     -25.938 -65.185  53.661  1.00  0.00    -0.024 C 
ATOM     20  C   UNL     1     -26.343 -63.874  52.877  1.00  0.00     0.008 C 
ATOM     21  C   UNL     1     -27.803 -63.873  52.292  1.00  0.00     0.010 C 
ATOM     22  C   UNL     1     -25.927 -66.330  52.583  1.00  0.00     0.012 C 
ATOM     23  C   UNL     1     -23.800 -66.570  54.376  1.00  0.00     0.012 C 
ATOM     24  C   UNL     1     -20.406 -63.301  54.922  1.00  0.00     0.014 C 
ATOM     25  C   UNL     1     -20.990 -61.041  55.752  1.00  0.00     0.014 C 
ATOM     26  C   UNL     1     -24.065 -63.435  58.014  1.00  0.00     0.012 C 
ENDROOT
BRANCH   1  27
ATOM     27  C   UNL     1     -29.778 -67.487  55.140  1.00  0.00    -0.077 C 
ATOM     28  C   UNL     1     -30.259 -67.958  56.488  1.00  0.00     0.039 C 
ATOM     29  C   UNL     1     -29.424 -68.413  54.229  1.00  0.00     0.008 C 
ENDBRANCH   1  27
BRANCH   4  30
ATOM     30  C   UNL     1     -29.101 -63.005  54.302  1.00  0.00     0.163 C 
BRANCH  30  31
ATOM     31  O   UNL     1     -29.947 -62.064  53.693  1.00  0.00    -0.396 OA
ATOM     32  H   UNL     1     -29.655 -61.991  52.746  1.00  0.00     0.210 HD
ENDBRANCH  30  31
ENDBRANCH   4  30
BRANCH  13  33
ATOM     33  O   UNL     1     -21.161 -61.991  58.362  1.00  0.00    -0.393 OA
ATOM     34  H   UNL     1     -22.142 -62.075  58.489  1.00  0.00     0.210 HD
ENDBRANCH  13  33
TORSDOF 4
ENDMDL
MODEL 7
REMARK VINA RESULT:    -5.316      4.614      6.408
REMARK INTER + INTRA:          -6.891
REMARK INTER:                  -6.198
REMARK INTRA:                  -0.693
REMARK UNBOUND:                -0.642
REMARK SMILES C=C(C)[C@@H]1CC[C@]2(CO)CC[C@]3(C)[C@H](CC[C@H]4[C@@]5(C)CC[C@H](O)C(C)(C)[C@H]5CC[C@@]43C)[C@@H]12
REMARK SMILES IDX 4 1 5 2 6 3 7 4 32 5 14 6 15 7 16 8 17 9 18 10 20 11 21 12
REMARK SMILES IDX 22 13 24 14 27 15 28 16 29 17 30 18 12 19 11 20 10 21 13 22
REMARK SMILES IDX 31 23 25 24 26 25 19 26 2 27 3 28 1 29 8 30 9 31 23 33
REMARK H PARENT 9 32 23 34
REMARK Flexibility Score: inf
ROOT
ATOM      1  C   UNL     1     -22.097 -61.527  55.908  1.00  0.00     0.018 C 
ATOM      2  C   UNL     1     -21.364 -61.244  57.245  1.00  0.00     0.009 C 
ATOM      3  C   UNL     1     -22.042 -62.121  58.323  1.00  0.00     0.010 C 
ATOM      4  C   UNL     1     -23.413 -62.479  57.728  1.00  0.00    -0.003 C 
ATOM      5  C   UNL     1     -23.003 -62.718  56.251  1.00  0.00     0.008 C 
ATOM      6  C   UNL     1     -24.247 -63.071  55.406  1.00  0.00    -0.000 C 
ATOM      7  C   UNL     1     -24.183 -62.880  53.884  1.00  0.00     0.005 C 
ATOM      8  C   UNL     1     -25.618 -62.917  53.264  1.00  0.00     0.005 C 
ATOM      9  C   UNL     1     -26.682 -63.600  54.194  1.00  0.00     0.002 C 
ATOM     10  C   UNL     1     -28.195 -63.612  53.680  1.00  0.00    -0.026 C 
ATOM     11  C   UNL     1     -28.393 -64.409  52.368  1.00  0.00     0.010 C 
ATOM     12  C   UNL     1     -29.834 -64.366  51.832  1.00  0.00     0.033 C 
ATOM     13  C   UNL     1     -30.943 -64.500  52.907  1.00  0.00     0.120 C 
ATOM     14  C   UNL     1     -30.441 -65.011  54.302  1.00  0.00    -0.006 C 
ATOM     15  C   UNL     1     -29.168 -64.184  54.807  1.00  0.00     0.003 C 
ATOM     16  C   UNL     1     -28.411 -64.857  55.993  1.00  0.00     0.005 C 
ATOM     17  C   UNL     1     -27.217 -65.713  55.541  1.00  0.00     0.008 C 
ATOM     18  C   UNL     1     -26.077 -64.909  54.833  1.00  0.00    -0.024 C 
ATOM     19  C   UNL     1     -24.840 -64.489  55.835  1.00  0.00    -0.024 C 
ATOM     20  C   UNL     1     -25.228 -64.316  57.358  1.00  0.00     0.008 C 
ATOM     21  C   UNL     1     -24.075 -63.775  58.281  1.00  0.00     0.010 C 
ATOM     22  C   UNL     1     -23.752 -65.624  55.807  1.00  0.00     0.012 C 
ATOM     23  C   UNL     1     -25.547 -65.850  53.679  1.00  0.00     0.012 C 
ATOM     24  C   UNL     1     -30.210 -66.549  54.203  1.00  0.00     0.014 C 
ATOM     25  C   UNL     1     -31.596 -64.835  55.330  1.00  0.00     0.014 C 
ATOM     26  C   UNL     1     -28.570 -62.121  53.386  1.00  0.00     0.012 C 
ENDROOT
BRANCH   1  27
ATOM     27  C   UNL     1     -21.131 -61.786  54.752  1.00  0.00    -0.077 C 
ATOM     28  C   UNL     1     -20.445 -63.122  54.628  1.00  0.00     0.039 C 
ATOM     29  C   UNL     1     -20.879 -60.850  53.816  1.00  0.00     0.008 C 
ENDBRANCH   1  27
BRANCH   4  30
ATOM     30  C   UNL     1     -24.384 -61.267  57.977  1.00  0.00     0.163 C 
BRANCH  30  31
ATOM     31  O   UNL     1     -24.395 -60.920  59.337  1.00  0.00    -0.396 OA
ATOM     32  H   UNL     1     -25.005 -61.561  59.788  1.00  0.00     0.210 HD
ENDBRANCH  30  31
ENDBRANCH   4  30
BRANCH  13  33
ATOM     33  O   UNL     1     -31.606 -63.262  53.034  1.00  0.00    -0.393 OA
ATOM     34  H   UNL     1     -31.819 -62.934  52.121  1.00  0.00     0.210 HD
ENDBRANCH  13  33
TORSDOF 4
ENDMDL
MODEL 8
REMARK VINA RESULT:    -5.279      1.578      2.544
REMARK INTER + INTRA:          -6.847
REMARK INTER:                  -6.193
REMARK INTRA:                  -0.655
REMARK UNBOUND:                -0.642
REMARK SMILES C=C(C)[C@@H]1CC[C@]2(CO)CC[C@]3(C)[C@H](CC[C@H]4[C@@]5(C)CC[C@H](O)C(C)(C)[C@H]5CC[C@@]43C)[C@@H]12
REMARK SMILES IDX 4 1 5 2 6 3 7 4 32 5 14 6 15 7 16 8 17 9 18 10 20 11 21 12
REMARK SMILES IDX 22 13 24 14 27 15 28 16 29 17 30 18 12 19 11 20 10 21 13 22
REMARK SMILES IDX 31 23 25 24 26 25 19 26 2 27 3 28 1 29 8 30 9 31 23 33
REMARK H PARENT 9 32 23 34
REMARK Flexibility Score: inf
ROOT
ATOM      1  C   UNL     1     -17.352 -58.609  55.780  1.00  0.00     0.018 C 
ATOM      2  C   UNL     1     -15.846 -58.430  56.102  1.00  0.00     0.009 C 
ATOM      3  C   UNL     1     -15.241 -59.847  56.224  1.00  0.00     0.010 C 
ATOM      4  C   UNL     1     -16.448 -60.766  56.474  1.00  0.00    -0.003 C 
ATOM      5  C   UNL     1     -17.476 -60.116  55.512  1.00  0.00     0.008 C 
ATOM      6  C   UNL     1     -18.828 -60.856  55.602  1.00  0.00    -0.000 C 
ATOM      7  C   UNL     1     -20.098 -60.133  55.131  1.00  0.00     0.005 C 
ATOM      8  C   UNL     1     -21.376 -60.871  55.647  1.00  0.00     0.005 C 
ATOM      9  C   UNL     1     -21.108 -62.360  56.068  1.00  0.00     0.002 C 
ATOM     10  C   UNL     1     -22.338 -63.172  56.686  1.00  0.00    -0.026 C 
ATOM     11  C   UNL     1     -23.516 -63.350  55.698  1.00  0.00     0.010 C 
ATOM     12  C   UNL     1     -24.731 -64.070  56.309  1.00  0.00     0.033 C 
ATOM     13  C   UNL     1     -24.392 -65.278  57.221  1.00  0.00     0.120 C 
ATOM     14  C   UNL     1     -22.917 -65.795  57.096  1.00  0.00    -0.006 C 
ATOM     15  C   UNL     1     -21.862 -64.599  57.215  1.00  0.00     0.003 C 
ATOM     16  C   UNL     1     -20.423 -64.981  56.751  1.00  0.00     0.005 C 
ATOM     17  C   UNL     1     -20.137 -64.599  55.290  1.00  0.00     0.008 C 
ATOM     18  C   UNL     1     -20.182 -63.062  55.003  1.00  0.00    -0.024 C 
ATOM     19  C   UNL     1     -18.702 -62.339  55.026  1.00  0.00    -0.024 C 
ATOM     20  C   UNL     1     -17.621 -63.035  55.946  1.00  0.00     0.008 C 
ATOM     21  C   UNL     1     -16.259 -62.258  56.075  1.00  0.00     0.010 C 
ATOM     22  C   UNL     1     -18.098 -62.367  53.575  1.00  0.00     0.012 C 
ATOM     23  C   UNL     1     -20.836 -62.917  53.572  1.00  0.00     0.012 C 
ATOM     24  C   UNL     1     -22.801 -66.625  55.782  1.00  0.00     0.014 C 
ATOM     25  C   UNL     1     -22.658 -66.812  58.247  1.00  0.00     0.014 C 
ATOM     26  C   UNL     1     -22.861 -62.324  57.893  1.00  0.00     0.012 C 
ENDROOT
BRANCH   1  27
ATOM     27  C   UNL     1     -17.815 -57.726  54.621  1.00  0.00    -0.077 C 
ATOM     28  C   UNL     1     -17.643 -58.196  53.200  1.00  0.00     0.039 C 
ATOM     29  C   UNL     1     -18.394 -56.528  54.831  1.00  0.00     0.008 C 
ENDBRANCH   1  27
BRANCH   4  30
ATOM     30  C   UNL     1     -16.808 -60.691  58.004  1.00  0.00     0.163 C 
BRANCH  30  31
ATOM     31  O   UNL     1     -16.063 -61.635  58.729  1.00  0.00    -0.396 OA
ATOM     32  H   UNL     1     -15.950 -61.265  59.643  1.00  0.00     0.210 HD
ENDBRANCH  30  31
ENDBRANCH   4  30
BRANCH  13  33
ATOM     33  O   UNL     1     -24.695 -64.940  58.555  1.00  0.00    -0.393 OA
ATOM     34  H   UNL     1     -24.954 -63.982  58.577  1.00  0.00     0.210 HD
ENDBRANCH  13  33
TORSDOF 4
ENDMDL
MODEL 9
REMARK VINA RESULT:    -5.153      1.328      7.798
REMARK INTER + INTRA:          -6.699
REMARK INTER:                  -6.191
REMARK INTRA:                  -0.508
REMARK UNBOUND:                -0.642
REMARK SMILES C=C(C)[C@@H]1CC[C@]2(CO)CC[C@]3(C)[C@H](CC[C@H]4[C@@]5(C)CC[C@H](O)C(C)(C)[C@H]5CC[C@@]43C)[C@@H]12
REMARK SMILES IDX 4 1 5 2 6 3 7 4 32 5 14 6 15 7 16 8 17 9 18 10 20 11 21 12
REMARK SMILES IDX 22 13 24 14 27 15 28 16 29 17 30 18 12 19 11 20 10 21 13 22
REMARK SMILES IDX 31 23 25 24 26 25 19 26 2 27 3 28 1 29 8 30 9 31 23 33
REMARK H PARENT 9 32 23 34
REMARK Flexibility Score: inf
ROOT
ATOM      1  C   UNL     1     -22.707 -67.438  58.144  1.00  0.00     0.018 C 
ATOM      2  C   UNL     1     -24.174 -67.940  58.119  1.00  0.00     0.009 C 
ATOM      3  C   UNL     1     -24.865 -67.248  56.923  1.00  0.00     0.010 C 
ATOM      4  C   UNL     1     -23.981 -66.030  56.612  1.00  0.00    -0.003 C 
ATOM      5  C   UNL     1     -22.581 -66.663  56.824  1.00  0.00     0.008 C 
ATOM      6  C   UNL     1     -21.480 -65.603  56.599  1.00  0.00    -0.000 C 
ATOM      7  C   UNL     1     -20.089 -65.843  57.203  1.00  0.00     0.005 C 
ATOM      8  C   UNL     1     -19.252 -64.523  57.201  1.00  0.00     0.005 C 
ATOM      9  C   UNL     1     -19.789 -63.446  56.192  1.00  0.00     0.002 C 
ATOM     10  C   UNL     1     -19.047 -62.030  56.179  1.00  0.00    -0.026 C 
ATOM     11  C   UNL     1     -17.561 -62.119  55.754  1.00  0.00     0.010 C 
ATOM     12  C   UNL     1     -16.823 -60.771  55.805  1.00  0.00     0.033 C 
ATOM     13  C   UNL     1     -17.630 -59.556  55.280  1.00  0.00     0.120 C 
ATOM     14  C   UNL     1     -18.913 -59.931  54.458  1.00  0.00    -0.006 C 
ATOM     15  C   UNL     1     -19.814 -61.001  55.232  1.00  0.00     0.003 C 
ATOM     16  C   UNL     1     -20.897 -61.676  54.336  1.00  0.00     0.005 C 
ATOM     17  C   UNL     1     -20.446 -63.024  53.752  1.00  0.00     0.008 C 
ATOM     18  C   UNL     1     -20.164 -64.130  54.823  1.00  0.00    -0.024 C 
ATOM     19  C   UNL     1     -21.430 -65.154  55.068  1.00  0.00    -0.024 C 
ATOM     20  C   UNL     1     -22.861 -64.546  54.783  1.00  0.00     0.008 C 
ATOM     21  C   UNL     1     -24.069 -65.481  55.158  1.00  0.00     0.010 C 
ATOM     22  C   UNL     1     -21.293 -66.378  54.092  1.00  0.00     0.012 C 
ATOM     23  C   UNL     1     -18.913 -64.932  54.286  1.00  0.00     0.012 C 
ATOM     24  C   UNL     1     -18.464 -60.378  53.034  1.00  0.00     0.014 C 
ATOM     25  C   UNL     1     -19.746 -58.635  54.238  1.00  0.00     0.014 C 
ATOM     26  C   UNL     1     -19.084 -61.501  57.651  1.00  0.00     0.012 C 
ENDROOT
BRANCH   1  27
ATOM     27  C   UNL     1     -21.699 -68.576  58.301  1.00  0.00    -0.077 C 
ATOM     28  C   UNL     1     -20.987 -69.125  57.092  1.00  0.00     0.039 C 
ATOM     29  C   UNL     1     -21.409 -69.104  59.506  1.00  0.00     0.008 C 
ENDBRANCH   1  27
BRANCH   4  30
ATOM     30  C   UNL     1     -24.366 -64.880  57.613  1.00  0.00     0.163 C 
BRANCH  30  31
ATOM     31  O   UNL     1     -25.755 -64.676  57.612  1.00  0.00    -0.396 OA
ATOM     32  H   UNL     1     -25.898 -63.696  57.698  1.00  0.00     0.210 HD
ENDBRANCH  30  31
ENDBRANCH   4  30
BRANCH  13  33
ATOM     33  O   UNL     1     -17.957 -58.721  56.368  1.00  0.00    -0.393 OA
ATOM     34  H   UNL     1     -18.557 -59.230  56.974  1.00  0.00     0.210 HD
ENDBRANCH  13  33
TORSDOF 4
ENDMDL
