MODEL 1
REMARK VINA RESULT:    -4.890      0.000      0.000
REMARK INTER + INTRA:          -7.295
REMARK INTER:                  -6.605
REMARK INTRA:                  -0.689
REMARK UNBOUND:                -0.689
REMARK SMILES C=C[C@](C)(CCC=C(C)C)OC(C)=O
REMARK SMILES IDX 3 1 4 2 5 3 6 4 7 5 9 6 8 7 10 8 2 9 1 10 11 11 12 12 14 13
REMARK SMILES IDX 13 14
REMARK H PARENT
REMARK Flexibility Score: inf
ROOT
ATOM      1  C   UNL     1      -6.249  62.222   4.291  1.00  0.00     0.127 C 
ATOM      2  C   UNL     1      -5.834  62.026   5.770  1.00  0.00     0.061 C 
ENDROOT
BRANCH   1   3
ATOM      3  C   UNL     1      -7.778  62.029   4.119  1.00  0.00     0.057 C 
BRANCH   3   4
ATOM      4  C   UNL     1      -8.418  62.803   2.950  1.00  0.00     0.032 C 
BRANCH   4   5
ATOM      5  C   UNL     1      -9.553  63.665   3.444  1.00  0.00    -0.028 C 
ATOM      6  C   UNL     1      -9.100  65.485   1.784  1.00  0.00     0.039 C 
ATOM      7  C   UNL     1      -9.857  64.884   2.946  1.00  0.00    -0.080 C 
ATOM      8  C   UNL     1     -10.998  65.649   3.564  1.00  0.00     0.039 C 
ENDBRANCH   4   5
ENDBRANCH   3   4
ENDBRANCH   1   3
BRANCH   1   9
ATOM      9  C   UNL     1      -5.504  61.304   3.327  1.00  0.00     0.013 C 
ATOM     10  C   UNL     1      -5.869  60.049   3.030  1.00  0.00     0.008 C 
ENDBRANCH   1   9
BRANCH   1  11
ATOM     11  O   UNL     1      -5.979  63.584   3.925  1.00  0.00    -0.455 OA
BRANCH  11  12
ATOM     12  C   UNL     1      -5.747  64.641   4.820  1.00  0.00     0.303 C 
ATOM     13  O   UNL     1      -4.593  64.876   5.268  1.00  0.00    -0.253 OA
ATOM     14  C   UNL     1      -6.895  65.478   5.273  1.00  0.00     0.139 C 
ENDBRANCH  11  12
ENDBRANCH   1  11
TORSDOF 6
ENDMDL
MODEL 2
REMARK VINA RESULT:    -4.843     13.299     16.493
REMARK INTER + INTRA:          -7.232
REMARK INTER:                  -6.423
REMARK INTRA:                  -0.809
REMARK UNBOUND:                -0.689
REMARK SMILES C=C[C@](C)(CCC=C(C)C)OC(C)=O
REMARK SMILES IDX 3 1 4 2 5 3 6 4 7 5 9 6 8 7 10 8 2 9 1 10 11 11 12 12 14 13
REMARK SMILES IDX 13 14
REMARK H PARENT
REMARK Flexibility Score: inf
ROOT
ATOM      1  C   UNL     1       3.896  53.829   6.121  1.00  0.00     0.127 C 
ATOM      2  C   UNL     1       3.851  54.314   7.591  1.00  0.00     0.061 C 
ENDROOT
BRANCH   1   3
ATOM      3  C   UNL     1       5.168  52.981   5.860  1.00  0.00     0.057 C 
BRANCH   3   4
ATOM      4  C   UNL     1       5.809  52.345   7.109  1.00  0.00     0.032 C 
BRANCH   4   5
ATOM      5  C   UNL     1       5.313  50.933   7.299  1.00  0.00    -0.028 C 
ATOM      6  C   UNL     1       4.717  51.299   9.704  1.00  0.00     0.039 C 
ATOM      7  C   UNL     1       4.842  50.441   8.466  1.00  0.00    -0.080 C 
ATOM      8  C   UNL     1       4.415  48.997   8.517  1.00  0.00     0.039 C 
ENDBRANCH   4   5
ENDBRANCH   3   4
ENDBRANCH   1   3
BRANCH   1   9
ATOM      9  C   UNL     1       3.821  54.967   5.108  1.00  0.00     0.013 C 
ATOM     10  C   UNL     1       2.718  55.315   4.429  1.00  0.00     0.008 C 
ENDBRANCH   1   9
BRANCH   1  11
ATOM     11  O   UNL     1       2.782  52.950   5.904  1.00  0.00    -0.455 OA
BRANCH  11  12
ATOM     12  C   UNL     1       1.669  52.815   6.749  1.00  0.00     0.303 C 
ATOM     13  O   UNL     1       0.766  53.694   6.785  1.00  0.00    -0.253 OA
ATOM     14  C   UNL     1       1.572  51.627   7.643  1.00  0.00     0.139 C 
ENDBRANCH  11  12
ENDBRANCH   1  11
TORSDOF 6
ENDMDL
MODEL 3
REMARK VINA RESULT:    -4.842      1.863      3.263
REMARK INTER + INTRA:          -7.230
REMARK INTER:                  -6.925
REMARK INTRA:                  -0.305
REMARK UNBOUND:                -0.689
REMARK SMILES C=C[C@](C)(CCC=C(C)C)OC(C)=O
REMARK SMILES IDX 3 1 4 2 5 3 6 4 7 5 9 6 8 7 10 8 2 9 1 10 11 11 12 12 14 13
REMARK SMILES IDX 13 14
REMARK H PARENT
REMARK Flexibility Score: inf
ROOT
ATOM      1  C   UNL     1      -6.122  61.875   4.474  1.00  0.00     0.127 C 
ATOM      2  C   UNL     1      -5.076  62.191   3.378  1.00  0.00     0.061 C 
ENDROOT
BRANCH   1   3
ATOM      3  C   UNL     1      -7.199  62.989   4.543  1.00  0.00     0.057 C 
BRANCH   3   4
ATOM      4  C   UNL     1      -8.176  63.043   3.352  1.00  0.00     0.032 C 
BRANCH   4   5
ATOM      5  C   UNL     1      -9.428  63.795   3.728  1.00  0.00    -0.028 C 
ATOM      6  C   UNL     1      -9.172  65.461   1.876  1.00  0.00     0.039 C 
ATOM      7  C   UNL     1      -9.875  64.898   3.089  1.00  0.00    -0.080 C 
ATOM      8  C   UNL     1     -11.125  65.568   3.601  1.00  0.00     0.039 C 
ENDBRANCH   4   5
ENDBRANCH   3   4
ENDBRANCH   1   3
BRANCH   1   9
ATOM      9  C   UNL     1      -5.508  61.667   5.854  1.00  0.00     0.013 C 
ATOM     10  C   UNL     1      -4.206  61.812   6.142  1.00  0.00     0.008 C 
ENDBRANCH   1   9
BRANCH   1  11
ATOM     11  O   UNL     1      -6.817  60.676   4.099  1.00  0.00    -0.455 OA
BRANCH  11  12
ATOM     12  C   UNL     1      -6.501  59.856   3.003  1.00  0.00     0.303 C 
ATOM     13  O   UNL     1      -5.468  59.133   3.005  1.00  0.00    -0.253 OA
ATOM     14  C   UNL     1      -7.387  59.866   1.805  1.00  0.00     0.139 C 
ENDBRANCH  11  12
ENDBRANCH   1  11
TORSDOF 6
ENDMDL
MODEL 4
REMARK VINA RESULT:    -4.836      1.459      4.675
REMARK INTER + INTRA:          -7.222
REMARK INTER:                  -6.722
REMARK INTRA:                  -0.501
REMARK UNBOUND:                -0.689
REMARK SMILES C=C[C@](C)(CCC=C(C)C)OC(C)=O
REMARK SMILES IDX 3 1 4 2 5 3 6 4 7 5 9 6 8 7 10 8 2 9 1 10 11 11 12 12 14 13
REMARK SMILES IDX 13 14
REMARK H PARENT
REMARK Flexibility Score: inf
ROOT
ATOM      1  C   UNL     1      -8.814  65.097   3.295  1.00  0.00     0.127 C 
ATOM      2  C   UNL     1      -8.997  65.236   1.764  1.00  0.00     0.061 C 
ENDROOT
BRANCH   1   3
ATOM      3  C   UNL     1      -8.956  63.617   3.734  1.00  0.00     0.057 C 
BRANCH   3   4
ATOM      4  C   UNL     1      -8.595  62.569   2.663  1.00  0.00     0.032 C 
BRANCH   4   5
ATOM      5  C   UNL     1      -7.384  61.774   3.086  1.00  0.00    -0.028 C 
ATOM      6  C   UNL     1      -7.858  59.906   1.486  1.00  0.00     0.039 C 
ATOM      7  C   UNL     1      -7.054  60.564   2.584  1.00  0.00    -0.080 C 
ATOM      8  C   UNL     1      -5.834  59.868   3.129  1.00  0.00     0.039 C 
ENDBRANCH   4   5
ENDBRANCH   3   4
ENDBRANCH   1   3
BRANCH   1   9
ATOM      9  C   UNL     1      -9.776  65.966   4.100  1.00  0.00     0.013 C 
ATOM     10  C   UNL     1     -11.112  65.868   4.058  1.00  0.00     0.008 C 
ENDBRANCH   1   9
BRANCH   1  11
ATOM     11  O   UNL     1      -7.470  65.480   3.624  1.00  0.00    -0.455 OA
BRANCH  11  12
ATOM     12  C   UNL     1      -6.784  65.132   4.798  1.00  0.00     0.303 C 
ATOM     13  O   UNL     1      -7.232  65.444   5.934  1.00  0.00    -0.253 OA
ATOM     14  C   UNL     1      -5.485  64.407   4.696  1.00  0.00     0.139 C 
ENDBRANCH  11  12
ENDBRANCH   1  11
TORSDOF 6
ENDMDL
MODEL 5
REMARK VINA RESULT:    -4.783     14.085     15.460
REMARK INTER + INTRA:          -7.150
REMARK INTER:                  -6.692
REMARK INTRA:                  -0.458
REMARK UNBOUND:                -0.689
REMARK SMILES C=C[C@](C)(CCC=C(C)C)OC(C)=O
REMARK SMILES IDX 3 1 4 2 5 3 6 4 7 5 9 6 8 7 10 8 2 9 1 10 11 11 12 12 14 13
REMARK SMILES IDX 13 14
REMARK H PARENT
REMARK Flexibility Score: inf
ROOT
ATOM      1  C   UNL     1       3.985  53.324   6.839  1.00  0.00     0.127 C 
ATOM      2  C   UNL     1       5.230  52.422   6.658  1.00  0.00     0.061 C 
ENDROOT
BRANCH   1   3
ATOM      3  C   UNL     1       3.776  53.678   8.334  1.00  0.00     0.057 C 
BRANCH   3   4
ATOM      4  C   UNL     1       3.867  55.177   8.680  1.00  0.00     0.032 C 
BRANCH   4   5
ATOM      5  C   UNL     1       4.952  55.420   9.701  1.00  0.00    -0.028 C 
ATOM      6  C   UNL     1       4.054  57.667  10.350  1.00  0.00     0.039 C 
ATOM      7  C   UNL     1       5.063  56.545  10.441  1.00  0.00    -0.080 C 
ATOM      8  C   UNL     1       6.222  56.665  11.397  1.00  0.00     0.039 C 
ENDBRANCH   4   5
ENDBRANCH   3   4
ENDBRANCH   1   3
BRANCH   1   9
ATOM      9  C   UNL     1       2.708  52.711   6.273  1.00  0.00     0.013 C 
ATOM     10  C   UNL     1       1.490  52.840   6.819  1.00  0.00     0.008 C 
ENDBRANCH   1   9
BRANCH   1  11
ATOM     11  O   UNL     1       4.229  54.569   6.168  1.00  0.00    -0.455 OA
BRANCH  11  12
ATOM     12  C   UNL     1       3.988  54.827   4.809  1.00  0.00     0.303 C 
ATOM     13  O   UNL     1       2.879  55.280   4.417  1.00  0.00    -0.253 OA
ATOM     14  C   UNL     1       5.053  54.528   3.809  1.00  0.00     0.139 C 
ENDBRANCH  11  12
ENDBRANCH   1  11
TORSDOF 6
ENDMDL
MODEL 6
REMARK VINA RESULT:    -4.679     14.308     16.484
REMARK INTER + INTRA:          -7.009
REMARK INTER:                  -6.088
REMARK INTRA:                  -0.921
REMARK UNBOUND:                -0.689
REMARK SMILES C=C[C@](C)(CCC=C(C)C)OC(C)=O
REMARK SMILES IDX 3 1 4 2 5 3 6 4 7 5 9 6 8 7 10 8 2 9 1 10 11 11 12 12 14 13
REMARK SMILES IDX 13 14
REMARK H PARENT
REMARK Flexibility Score: inf
ROOT
ATOM      1  C   UNL     1       4.108  53.285   6.783  1.00  0.00     0.127 C 
ATOM      2  C   UNL     1       5.341  52.441   6.377  1.00  0.00     0.061 C 
ENDROOT
BRANCH   1   3
ATOM      3  C   UNL     1       4.098  53.544   8.312  1.00  0.00     0.057 C 
BRANCH   3   4
ATOM      4  C   UNL     1       4.956  52.579   9.154  1.00  0.00     0.032 C 
BRANCH   4   5
ATOM      5  C   UNL     1       4.085  51.765  10.078  1.00  0.00    -0.028 C 
ATOM      6  C   UNL     1       4.111  49.754   8.585  1.00  0.00     0.039 C 
ATOM      7  C   UNL     1       3.676  50.502   9.823  1.00  0.00    -0.080 C 
ATOM      8  C   UNL     1       2.774  49.823  10.823  1.00  0.00     0.039 C 
ENDBRANCH   4   5
ENDBRANCH   3   4
ENDBRANCH   1   3
BRANCH   1   9
ATOM      9  C   UNL     1       2.783  52.659   6.360  1.00  0.00     0.013 C 
ATOM     10  C   UNL     1       1.744  52.441   7.179  1.00  0.00     0.008 C 
ENDBRANCH   1   9
BRANCH   1  11
ATOM     11  O   UNL     1       4.222  54.575   6.164  1.00  0.00    -0.455 OA
BRANCH  11  12
ATOM     12  C   UNL     1       3.914  54.870   4.826  1.00  0.00     0.303 C 
ATOM     13  O   UNL     1       2.775  55.297   4.497  1.00  0.00    -0.253 OA
ATOM     14  C   UNL     1       4.944  54.642   3.773  1.00  0.00     0.139 C 
ENDBRANCH  11  12
ENDBRANCH   1  11
TORSDOF 6
ENDMDL
MODEL 7
REMARK VINA RESULT:    -4.659     14.485     16.198
REMARK INTER + INTRA:          -6.983
REMARK INTER:                  -6.238
REMARK INTRA:                  -0.745
REMARK UNBOUND:                -0.689
REMARK SMILES C=C[C@](C)(CCC=C(C)C)OC(C)=O
REMARK SMILES IDX 3 1 4 2 5 3 6 4 7 5 9 6 8 7 10 8 2 9 1 10 11 11 12 12 14 13
REMARK SMILES IDX 13 14
REMARK H PARENT
REMARK Flexibility Score: inf
ROOT
ATOM      1  C   UNL     1       4.088  53.566   7.340  1.00  0.00     0.127 C 
ATOM      2  C   UNL     1       4.549  53.924   8.774  1.00  0.00     0.061 C 
ENDROOT
BRANCH   1   3
ATOM      3  C   UNL     1       2.577  53.217   7.319  1.00  0.00     0.057 C 
BRANCH   3   4
ATOM      4  C   UNL     1       2.243  51.722   7.155  1.00  0.00     0.032 C 
BRANCH   4   5
ATOM      5  C   UNL     1       1.658  51.166   8.430  1.00  0.00    -0.028 C 
ATOM      6  C   UNL     1       3.675  49.766   8.927  1.00  0.00     0.039 C 
ATOM      7  C   UNL     1       2.280  50.267   9.224  1.00  0.00    -0.080 C 
ATOM      8  C   UNL     1       1.558  49.771  10.450  1.00  0.00     0.039 C 
ENDBRANCH   4   5
ENDBRANCH   3   4
ENDBRANCH   1   3
BRANCH   1   9
ATOM      9  C   UNL     1       4.886  52.425   6.716  1.00  0.00     0.013 C 
ATOM     10  C   UNL     1       6.089  52.012   7.140  1.00  0.00     0.008 C 
ENDBRANCH   1   9
BRANCH   1  11
ATOM     11  O   UNL     1       4.237  54.731   6.515  1.00  0.00    -0.455 OA
BRANCH  11  12
ATOM     12  C   UNL     1       4.024  54.785   5.128  1.00  0.00     0.303 C 
ATOM     13  O   UNL     1       2.875  54.987   4.651  1.00  0.00    -0.253 OA
ATOM     14  C   UNL     1       5.173  54.566   4.205  1.00  0.00     0.139 C 
ENDBRANCH  11  12
ENDBRANCH   1  11
TORSDOF 6
ENDMDL
MODEL 8
REMARK VINA RESULT:    -4.643     14.615     16.147
REMARK INTER + INTRA:          -6.961
REMARK INTER:                  -6.450
REMARK INTRA:                  -0.511
REMARK UNBOUND:                -0.689
REMARK SMILES C=C[C@](C)(CCC=C(C)C)OC(C)=O
REMARK SMILES IDX 3 1 4 2 5 3 6 4 7 5 9 6 8 7 10 8 2 9 1 10 11 11 12 12 14 13
REMARK SMILES IDX 13 14
REMARK H PARENT
REMARK Flexibility Score: inf
ROOT
ATOM      1  C   UNL     1       3.336  53.320   6.741  1.00  0.00     0.127 C 
ATOM      2  C   UNL     1       1.933  52.671   6.646  1.00  0.00     0.061 C 
ENDROOT
BRANCH   1   3
ATOM      3  C   UNL     1       3.682  53.666   8.212  1.00  0.00     0.057 C 
BRANCH   3   4
ATOM      4  C   UNL     1       3.865  55.166   8.515  1.00  0.00     0.032 C 
BRANCH   4   5
ATOM      5  C   UNL     1       4.903  55.367   9.592  1.00  0.00    -0.028 C 
ATOM      6  C   UNL     1       4.035  57.630  10.224  1.00  0.00     0.039 C 
ATOM      7  C   UNL     1       5.007  56.480  10.351  1.00  0.00    -0.080 C 
ATOM      8  C   UNL     1       6.120  56.556  11.365  1.00  0.00     0.039 C 
ENDBRANCH   4   5
ENDBRANCH   3   4
ENDBRANCH   1   3
BRANCH   1   9
ATOM      9  C   UNL     1       3.486  54.564   5.871  1.00  0.00     0.013 C 
ATOM     10  C   UNL     1       4.214  54.627   4.747  1.00  0.00     0.008 C 
ENDBRANCH   1   9
BRANCH   1  11
ATOM     11  O   UNL     1       4.309  52.350   6.323  1.00  0.00    -0.455 OA
BRANCH  11  12
ATOM     12  C   UNL     1       5.094  51.559   7.177  1.00  0.00     0.303 C 
ATOM     13  O   UNL     1       4.628  50.522   7.720  1.00  0.00    -0.253 OA
ATOM     14  C   UNL     1       6.496  51.974   7.472  1.00  0.00     0.139 C 
ENDBRANCH  11  12
ENDBRANCH   1  11
TORSDOF 6
ENDMDL
MODEL 9
REMARK VINA RESULT:    -4.628      1.578      2.674
REMARK INTER + INTRA:          -6.941
REMARK INTER:                  -6.222
REMARK INTRA:                  -0.719
REMARK UNBOUND:                -0.689
REMARK SMILES C=C[C@](C)(CCC=C(C)C)OC(C)=O
REMARK SMILES IDX 3 1 4 2 5 3 6 4 7 5 9 6 8 7 10 8 2 9 1 10 11 11 12 12 14 13
REMARK SMILES IDX 13 14
REMARK H PARENT
REMARK Flexibility Score: inf
ROOT
ATOM      1  C   UNL     1      -5.908  62.551   4.467  1.00  0.00     0.127 C 
ATOM      2  C   UNL     1      -5.477  61.627   3.303  1.00  0.00     0.061 C 
ENDROOT
BRANCH   1   3
ATOM      3  C   UNL     1      -7.454  62.646   4.550  1.00  0.00     0.057 C 
BRANCH   3   4
ATOM      4  C   UNL     1      -8.176  62.901   3.213  1.00  0.00     0.032 C 
BRANCH   4   5
ATOM      5  C   UNL     1      -9.472  63.637   3.442  1.00  0.00    -0.028 C 
ATOM      6  C   UNL     1      -8.577  65.807   2.567  1.00  0.00     0.039 C 
ATOM      7  C   UNL     1      -9.660  64.949   3.180  1.00  0.00    -0.080 C 
ATOM      8  C   UNL     1     -11.001  65.561   3.496  1.00  0.00     0.039 C 
ENDBRANCH   4   5
ENDBRANCH   3   4
ENDBRANCH   1   3
BRANCH   1   9
ATOM      9  C   UNL     1      -5.312  63.953   4.379  1.00  0.00     0.013 C 
ATOM     10  C   UNL     1      -5.800  65.032   5.006  1.00  0.00     0.008 C 
ENDBRANCH   1   9
BRANCH   1  11
ATOM     11  O   UNL     1      -5.482  61.951   5.700  1.00  0.00    -0.455 OA
BRANCH  11  12
ATOM     12  C   UNL     1      -4.164  61.922   6.183  1.00  0.00     0.303 C 
ATOM     13  O   UNL     1      -3.282  61.209   5.633  1.00  0.00    -0.253 OA
ATOM     14  C   UNL     1      -3.811  62.726   7.387  1.00  0.00     0.139 C 
ENDBRANCH  11  12
ENDBRANCH   1  11
TORSDOF 6
ENDMDL
