MODEL 1
REMARK VINA RESULT:    -3.579      0.000      0.000
REMARK INTER + INTRA:          -9.284
REMARK INTER:                  -6.717
REMARK INTRA:                  -2.567
REMARK UNBOUND:                -2.567
REMARK SMILES O=C([O-])CCCCCCCCCCCCCCC(=O)[O-]
REMARK SMILES IDX 10 1 9 2 8 3 7 4 6 5 5 6 4 7 2 8 1 9 3 10 11 11 12 12 13 13
REMARK SMILES IDX 14 14 15 15 16 16 17 17 18 18 19 19 20 20
REMARK H PARENT
REMARK Flexibility Score: inf
ROOT
ATOM      1  C   UNL     1       5.520  -4.456  -6.483  1.00  0.00     0.000 C 
ENDROOT
BRANCH   1   2
ATOM      2  C   UNL     1       4.584  -3.351  -7.002  1.00  0.00     0.000 C 
BRANCH   2   3
ATOM      3  C   UNL     1       5.086  -2.735  -8.325  1.00  0.00     0.000 C 
BRANCH   3   4
ATOM      4  C   UNL     1       4.894  -3.655  -9.546  1.00  0.00     0.000 C 
BRANCH   4   5
ATOM      5  C   UNL     1       3.443  -4.091  -9.808  1.00  0.00     0.000 C 
BRANCH   5   6
ATOM      6  C   UNL     1       3.299  -5.614  -9.969  1.00  0.00     0.006 C 
BRANCH   6   7
ATOM      7  C   UNL     1       4.531  -6.369  -9.454  1.00  0.00     0.053 C 
BRANCH   7   8
ATOM      8  C   UNL     1       4.159  -7.431  -8.465  1.00  0.00     0.041 C 
ATOM      9  O   UNL     1       3.452  -7.146  -7.462  1.00  0.00    -0.550 OA
ATOM     10  O   UNL     1       4.621  -8.730  -8.633  1.00  0.00    -0.550 OA
ENDBRANCH   7   8
ENDBRANCH   6   7
ENDBRANCH   5   6
ENDBRANCH   4   5
ENDBRANCH   3   4
ENDBRANCH   2   3
ENDBRANCH   1   2
BRANCH   1  11
ATOM     11  C   UNL     1       6.955  -3.959  -6.231  1.00  0.00     0.000 C 
BRANCH  11  12
ATOM     12  C   UNL     1       8.054  -5.025  -6.401  1.00  0.00     0.000 C 
BRANCH  12  13
ATOM     13  C   UNL     1       7.601  -6.221  -7.255  1.00  0.00     0.000 C 
BRANCH  13  14
ATOM     14  C   UNL     1       8.487  -6.430  -8.493  1.00  0.00     0.000 C 
BRANCH  14  15
ATOM     15  C   UNL     1       8.144  -5.463  -9.637  1.00  0.00     0.000 C 
BRANCH  15  16
ATOM     16  C   UNL     1       9.193  -4.348  -9.743  1.00  0.00     0.006 C 
BRANCH  16  17
ATOM     17  C   UNL     1       8.527  -2.987  -9.964  1.00  0.00     0.053 C 
BRANCH  17  18
ATOM     18  C   UNL     1       8.936  -2.024  -8.895  1.00  0.00     0.041 C 
ATOM     19  O   UNL     1       9.819  -2.346  -8.056  1.00  0.00    -0.550 OA
ATOM     20  O   UNL     1       8.379  -0.752  -8.853  1.00  0.00    -0.550 OA
ENDBRANCH  17  18
ENDBRANCH  16  17
ENDBRANCH  15  16
ENDBRANCH  14  15
ENDBRANCH  13  14
ENDBRANCH  12  13
ENDBRANCH  11  12
ENDBRANCH   1  11
TORSDOF 15
ENDMDL
MODEL 2
REMARK VINA RESULT:    -3.577      0.637      5.811
REMARK INTER + INTRA:          -9.280
REMARK INTER:                  -7.036
REMARK INTRA:                  -2.244
REMARK UNBOUND:                -2.567
REMARK SMILES O=C([O-])CCCCCCCCCCCCCCC(=O)[O-]
REMARK SMILES IDX 10 1 9 2 8 3 7 4 6 5 5 6 4 7 2 8 1 9 3 10 11 11 12 12 13 13
REMARK SMILES IDX 14 14 15 15 16 16 17 17 18 18 19 19 20 20
REMARK H PARENT
REMARK Flexibility Score: inf
ROOT
ATOM      1  C   UNL     1       6.010  -5.247  -5.621  1.00  0.00     0.000 C 
ENDROOT
BRANCH   1   2
ATOM      2  C   UNL     1       7.129  -6.289  -5.790  1.00  0.00     0.000 C 
BRANCH   2   3
ATOM      3  C   UNL     1       8.360  -5.709  -6.520  1.00  0.00     0.000 C 
BRANCH   3   4
ATOM      4  C   UNL     1       8.769  -6.509  -7.773  1.00  0.00     0.000 C 
BRANCH   4   5
ATOM      5  C   UNL     1       8.392  -5.852  -9.111  1.00  0.00     0.000 C 
BRANCH   5   6
ATOM      6  C   UNL     1       9.203  -4.576  -9.397  1.00  0.00     0.006 C 
BRANCH   6   7
ATOM      7  C   UNL     1       8.305  -3.342  -9.549  1.00  0.00     0.053 C 
BRANCH   7   8
ATOM      8  C   UNL     1       8.807  -2.185  -8.741  1.00  0.00     0.041 C 
ATOM      9  O   UNL     1       8.169  -1.099  -8.721  1.00  0.00    -0.550 OA
ATOM     10  O   UNL     1       9.998  -2.294  -8.035  1.00  0.00    -0.550 OA
ENDBRANCH   7   8
ENDBRANCH   6   7
ENDBRANCH   5   6
ENDBRANCH   4   5
ENDBRANCH   3   4
ENDBRANCH   2   3
ENDBRANCH   1   2
BRANCH   1  11
ATOM     11  C   UNL     1       6.111  -4.086  -6.626  1.00  0.00     0.000 C 
BRANCH  11  12
ATOM     12  C   UNL     1       4.766  -3.460  -7.040  1.00  0.00     0.000 C 
BRANCH  12  13
ATOM     13  C   UNL     1       4.874  -2.590  -8.304  1.00  0.00     0.000 C 
BRANCH  13  14
ATOM     14  C   UNL     1       4.327  -3.298  -9.554  1.00  0.00     0.000 C 
BRANCH  14  15
ATOM     15  C   UNL     1       3.214  -4.305  -9.225  1.00  0.00     0.000 C 
BRANCH  15  16
ATOM     16  C   UNL     1       3.467  -5.648  -9.921  1.00  0.00     0.006 C 
BRANCH  16  17
ATOM     17  C   UNL     1       4.716  -6.332  -9.357  1.00  0.00     0.053 C 
BRANCH  17  18
ATOM     18  C   UNL     1       4.332  -7.408  -8.391  1.00  0.00     0.041 C 
ATOM     19  O   UNL     1       3.644  -7.130  -7.373  1.00  0.00    -0.550 OA
ATOM     20  O   UNL     1       4.691  -8.727  -8.640  1.00  0.00    -0.550 OA
ENDBRANCH  17  18
ENDBRANCH  16  17
ENDBRANCH  15  16
ENDBRANCH  14  15
ENDBRANCH  13  14
ENDBRANCH  12  13
ENDBRANCH  11  12
ENDBRANCH   1  11
TORSDOF 15
ENDMDL
MODEL 3
REMARK VINA RESULT:    -3.499      1.629      2.452
REMARK INTER + INTRA:          -9.134
REMARK INTER:                  -6.830
REMARK INTRA:                  -2.304
REMARK UNBOUND:                -2.567
REMARK SMILES O=C([O-])CCCCCCCCCCCCCCC(=O)[O-]
REMARK SMILES IDX 10 1 9 2 8 3 7 4 6 5 5 6 4 7 2 8 1 9 3 10 11 11 12 12 13 13
REMARK SMILES IDX 14 14 15 15 16 16 17 17 18 18 19 19 20 20
REMARK H PARENT
REMARK Flexibility Score: inf
ROOT
ATOM      1  C   UNL     1       4.198  -3.665  -6.719  1.00  0.00     0.000 C 
ENDROOT
BRANCH   1   2
ATOM      2  C   UNL     1       3.339  -4.697  -7.468  1.00  0.00     0.000 C 
BRANCH   2   3
ATOM      3  C   UNL     1       3.324  -4.448  -8.991  1.00  0.00     0.000 C 
BRANCH   3   4
ATOM      4  C   UNL     1       4.194  -5.439  -9.788  1.00  0.00     0.000 C 
BRANCH   4   5
ATOM      5  C   UNL     1       5.704  -5.147  -9.754  1.00  0.00     0.000 C 
BRANCH   5   6
ATOM      6  C   UNL     1       6.532  -6.349  -9.269  1.00  0.00     0.006 C 
BRANCH   6   7
ATOM      7  C   UNL     1       5.664  -7.405  -8.572  1.00  0.00     0.053 C 
BRANCH   7   8
ATOM      8  C   UNL     1       6.182  -7.739  -7.207  1.00  0.00     0.041 C 
ATOM      9  O   UNL     1       7.360  -8.159  -7.060  1.00  0.00    -0.550 OA
ATOM     10  O   UNL     1       5.354  -7.615  -6.100  1.00  0.00    -0.550 OA
ENDBRANCH   7   8
ENDBRANCH   6   7
ENDBRANCH   5   6
ENDBRANCH   4   5
ENDBRANCH   3   4
ENDBRANCH   2   3
ENDBRANCH   1   2
BRANCH   1  11
ATOM     11  C   UNL     1       5.437  -4.286  -6.048  1.00  0.00     0.000 C 
BRANCH  11  12
ATOM     12  C   UNL     1       6.788  -3.704  -6.503  1.00  0.00     0.000 C 
BRANCH  12  13
ATOM     13  C   UNL     1       7.947  -4.707  -6.373  1.00  0.00     0.000 C 
BRANCH  13  14
ATOM     14  C   UNL     1       9.266  -4.160  -6.941  1.00  0.00     0.000 C 
BRANCH  14  15
ATOM     15  C   UNL     1       9.112  -2.757  -7.550  1.00  0.00     0.000 C 
BRANCH  15  16
ATOM     16  C   UNL     1       9.568  -2.743  -9.014  1.00  0.00     0.006 C 
BRANCH  16  17
ATOM     17  C   UNL     1       8.368  -2.804  -9.964  1.00  0.00     0.053 C 
BRANCH  17  18
ATOM     18  C   UNL     1       7.488  -1.610  -9.772  1.00  0.00     0.041 C 
ATOM     19  O   UNL     1       6.246  -1.755  -9.621  1.00  0.00    -0.550 OA
ATOM     20  O   UNL     1       8.044  -0.338  -9.711  1.00  0.00    -0.550 OA
ENDBRANCH  17  18
ENDBRANCH  16  17
ENDBRANCH  15  16
ENDBRANCH  14  15
ENDBRANCH  13  14
ENDBRANCH  12  13
ENDBRANCH  11  12
ENDBRANCH   1  11
TORSDOF 15
ENDMDL
MODEL 4
REMARK VINA RESULT:    -3.488      2.725      4.365
REMARK INTER + INTRA:          -9.113
REMARK INTER:                  -7.287
REMARK INTRA:                  -1.827
REMARK UNBOUND:                -2.567
REMARK SMILES O=C([O-])CCCCCCCCCCCCCCC(=O)[O-]
REMARK SMILES IDX 10 1 9 2 8 3 7 4 6 5 5 6 4 7 2 8 1 9 3 10 11 11 12 12 13 13
REMARK SMILES IDX 14 14 15 15 16 16 17 17 18 18 19 19 20 20
REMARK H PARENT
REMARK Flexibility Score: inf
ROOT
ATOM      1  C   UNL     1       8.060  -2.582  -7.032  1.00  0.00     0.000 C 
ENDROOT
BRANCH   1   2
ATOM      2  C   UNL     1       8.866  -2.123  -8.260  1.00  0.00     0.000 C 
BRANCH   2   3
ATOM      3  C   UNL     1       7.957  -1.773  -9.457  1.00  0.00     0.000 C 
BRANCH   3   4
ATOM      4  C   UNL     1       7.157  -2.974  -9.997  1.00  0.00     0.000 C 
BRANCH   4   5
ATOM      5  C   UNL     1       5.635  -2.876  -9.806  1.00  0.00     0.000 C 
BRANCH   5   6
ATOM      6  C   UNL     1       5.109  -3.828  -8.717  1.00  0.00     0.006 C 
BRANCH   6   7
ATOM      7  C   UNL     1       4.554  -3.070  -7.505  1.00  0.00     0.053 C 
BRANCH   7   8
ATOM      8  C   UNL     1       3.756  -3.964  -6.607  1.00  0.00     0.041 C 
ATOM      9  O   UNL     1       2.976  -4.823  -7.096  1.00  0.00    -0.550 OA
ATOM     10  O   UNL     1       3.850  -3.826  -5.228  1.00  0.00    -0.550 OA
ENDBRANCH   7   8
ENDBRANCH   6   7
ENDBRANCH   5   6
ENDBRANCH   4   5
ENDBRANCH   3   4
ENDBRANCH   2   3
ENDBRANCH   1   2
BRANCH   1  11
ATOM     11  C   UNL     1       8.352  -4.040  -6.632  1.00  0.00     0.000 C 
BRANCH  11  12
ATOM     12  C   UNL     1       9.766  -4.542  -6.976  1.00  0.00     0.000 C 
BRANCH  12  13
ATOM     13  C   UNL     1       9.761  -5.694  -7.995  1.00  0.00     0.000 C 
BRANCH  13  14
ATOM     14  C   UNL     1       9.670  -7.074  -7.322  1.00  0.00     0.000 C 
BRANCH  14  15
ATOM     15  C   UNL     1       9.783  -6.995  -5.792  1.00  0.00     0.000 C 
BRANCH  15  16
ATOM     16  C   UNL     1       8.499  -7.498  -5.122  1.00  0.00     0.006 C 
BRANCH  16  17
ATOM     17  C   UNL     1       7.433  -7.845  -6.166  1.00  0.00     0.053 C 
BRANCH  17  18
ATOM     18  C   UNL     1       6.158  -7.120  -5.874  1.00  0.00     0.041 C 
ATOM     19  O   UNL     1       6.127  -6.222  -4.992  1.00  0.00    -0.550 OA
ATOM     20  O   UNL     1       5.014  -7.401  -6.611  1.00  0.00    -0.550 OA
ENDBRANCH  17  18
ENDBRANCH  16  17
ENDBRANCH  15  16
ENDBRANCH  14  15
ENDBRANCH  13  14
ENDBRANCH  12  13
ENDBRANCH  11  12
ENDBRANCH   1  11
TORSDOF 15
ENDMDL
MODEL 5
REMARK VINA RESULT:    -3.479      2.234      4.567
REMARK INTER + INTRA:          -9.098
REMARK INTER:                  -6.676
REMARK INTRA:                  -2.422
REMARK UNBOUND:                -2.567
REMARK SMILES O=C([O-])CCCCCCCCCCCCCCC(=O)[O-]
REMARK SMILES IDX 10 1 9 2 8 3 7 4 6 5 5 6 4 7 2 8 1 9 3 10 11 11 12 12 13 13
REMARK SMILES IDX 14 14 15 15 16 16 17 17 18 18 19 19 20 20
REMARK H PARENT
REMARK Flexibility Score: inf
ROOT
ATOM      1  C   UNL     1       8.262  -2.499  -7.506  1.00  0.00     0.000 C 
ENDROOT
BRANCH   1   2
ATOM      2  C   UNL     1       8.818  -2.940  -8.870  1.00  0.00     0.000 C 
BRANCH   2   3
ATOM      3  C   UNL     1       7.763  -2.837  -9.992  1.00  0.00     0.000 C 
BRANCH   3   4
ATOM      4  C   UNL     1       6.409  -2.274  -9.517  1.00  0.00     0.000 C 
BRANCH   4   5
ATOM      5  C   UNL     1       5.176  -3.045 -10.016  1.00  0.00     0.000 C 
BRANCH   5   6
ATOM      6  C   UNL     1       4.103  -3.220  -8.927  1.00  0.00     0.006 C 
BRANCH   6   7
ATOM      7  C   UNL     1       4.668  -3.000  -7.518  1.00  0.00     0.053 C 
BRANCH   7   8
ATOM      8  C   UNL     1       4.090  -3.965  -6.529  1.00  0.00     0.041 C 
ATOM      9  O   UNL     1       4.808  -4.441  -5.611  1.00  0.00    -0.550 OA
ATOM     10  O   UNL     1       2.764  -4.364  -6.641  1.00  0.00    -0.550 OA
ENDBRANCH   7   8
ENDBRANCH   6   7
ENDBRANCH   5   6
ENDBRANCH   4   5
ENDBRANCH   3   4
ENDBRANCH   2   3
ENDBRANCH   1   2
BRANCH   1  11
ATOM     11  C   UNL     1       8.309  -3.617  -6.447  1.00  0.00     0.000 C 
BRANCH  11  12
ATOM     12  C   UNL     1       8.813  -4.979  -6.957  1.00  0.00     0.000 C 
BRANCH  12  13
ATOM     13  C   UNL     1       8.005  -6.163  -6.400  1.00  0.00     0.000 C 
BRANCH  13  14
ATOM     14  C   UNL     1       7.317  -6.980  -7.505  1.00  0.00     0.000 C 
BRANCH  14  15
ATOM     15  C   UNL     1       6.335  -6.141  -8.338  1.00  0.00     0.000 C 
BRANCH  15  16
ATOM     16  C   UNL     1       5.754  -6.965  -9.494  1.00  0.00     0.006 C 
BRANCH  16  17
ATOM     17  C   UNL     1       4.230  -6.831  -9.553  1.00  0.00     0.053 C 
BRANCH  17  18
ATOM     18  C   UNL     1       3.580  -7.841  -8.662  1.00  0.00     0.041 C 
ATOM     19  O   UNL     1       3.438  -9.031  -9.050  1.00  0.00    -0.550 OA
ATOM     20  O   UNL     1       3.176  -7.482  -7.381  1.00  0.00    -0.550 OA
ENDBRANCH  17  18
ENDBRANCH  16  17
ENDBRANCH  15  16
ENDBRANCH  14  15
ENDBRANCH  13  14
ENDBRANCH  12  13
ENDBRANCH  11  12
ENDBRANCH   1  11
TORSDOF 15
ENDMDL
MODEL 6
REMARK VINA RESULT:    -3.473      2.210      5.286
REMARK INTER + INTRA:          -9.086
REMARK INTER:                  -6.952
REMARK INTRA:                  -2.134
REMARK UNBOUND:                -2.567
REMARK SMILES O=C([O-])CCCCCCCCCCCCCCC(=O)[O-]
REMARK SMILES IDX 10 1 9 2 8 3 7 4 6 5 5 6 4 7 2 8 1 9 3 10 11 11 12 12 13 13
REMARK SMILES IDX 14 14 15 15 16 16 17 17 18 18 19 19 20 20
REMARK H PARENT
REMARK Flexibility Score: inf
ROOT
ATOM      1  C   UNL     1       8.027  -2.608  -7.346  1.00  0.00     0.000 C 
ENDROOT
BRANCH   1   2
ATOM      2  C   UNL     1       9.366  -3.343  -7.161  1.00  0.00     0.000 C 
BRANCH   2   3
ATOM      3  C   UNL     1       9.844  -4.021  -8.462  1.00  0.00     0.000 C 
BRANCH   3   4
ATOM      4  C   UNL     1       9.611  -5.544  -8.487  1.00  0.00     0.000 C 
BRANCH   4   5
ATOM      5  C   UNL     1       8.155  -5.972  -8.737  1.00  0.00     0.000 C 
BRANCH   5   6
ATOM      6  C   UNL     1       7.637  -6.965  -7.682  1.00  0.00     0.006 C 
BRANCH   6   7
ATOM      7  C   UNL     1       7.586  -6.345  -6.280  1.00  0.00     0.053 C 
BRANCH   7   8
ATOM      8  C   UNL     1       6.191  -6.312  -5.736  1.00  0.00     0.041 C 
ATOM      9  O   UNL     1       5.598  -5.213  -5.573  1.00  0.00    -0.550 OA
ATOM     10  O   UNL     1       5.555  -7.495  -5.380  1.00  0.00    -0.550 OA
ENDBRANCH   7   8
ENDBRANCH   6   7
ENDBRANCH   5   6
ENDBRANCH   4   5
ENDBRANCH   3   4
ENDBRANCH   2   3
ENDBRANCH   1   2
BRANCH   1  11
ATOM     11  C   UNL     1       7.801  -2.123  -8.790  1.00  0.00     0.000 C 
BRANCH  11  12
ATOM     12  C   UNL     1       6.554  -2.699  -9.485  1.00  0.00     0.000 C 
BRANCH  12  13
ATOM     13  C   UNL     1       5.318  -2.727  -8.570  1.00  0.00     0.000 C 
BRANCH  13  14
ATOM     14  C   UNL     1       4.005  -2.540  -9.347  1.00  0.00     0.000 C 
BRANCH  14  15
ATOM     15  C   UNL     1       3.259  -3.864  -9.576  1.00  0.00     0.000 C 
BRANCH  15  16
ATOM     16  C   UNL     1       3.658  -4.906  -8.524  1.00  0.00     0.006 C 
BRANCH  16  17
ATOM     17  C   UNL     1       4.303  -6.131  -9.181  1.00  0.00     0.053 C 
BRANCH  17  18
ATOM     18  C   UNL     1       3.938  -7.376  -8.437  1.00  0.00     0.041 C 
ATOM     19  O   UNL     1       4.467  -8.477  -8.744  1.00  0.00    -0.550 OA
ATOM     20  O   UNL     1       3.050  -7.314  -7.369  1.00  0.00    -0.550 OA
ENDBRANCH  17  18
ENDBRANCH  16  17
ENDBRANCH  15  16
ENDBRANCH  14  15
ENDBRANCH  13  14
ENDBRANCH  12  13
ENDBRANCH  11  12
ENDBRANCH   1  11
TORSDOF 15
ENDMDL
MODEL 7
REMARK VINA RESULT:    -3.388      2.308      4.096
REMARK INTER + INTRA:          -8.926
REMARK INTER:                  -6.700
REMARK INTRA:                  -2.226
REMARK UNBOUND:                -2.567
REMARK SMILES O=C([O-])CCCCCCCCCCCCCCC(=O)[O-]
REMARK SMILES IDX 10 1 9 2 8 3 7 4 6 5 5 6 4 7 2 8 1 9 3 10 11 11 12 12 13 13
REMARK SMILES IDX 14 14 15 15 16 16 17 17 18 18 19 19 20 20
REMARK H PARENT
REMARK Flexibility Score: inf
ROOT
ATOM      1  C   UNL     1       8.931  -4.186  -6.757  1.00  0.00     0.000 C 
ENDROOT
BRANCH   1   2
ATOM      2  C   UNL     1       8.455  -5.601  -7.130  1.00  0.00     0.000 C 
BRANCH   2   3
ATOM      3  C   UNL     1       8.708  -5.929  -8.617  1.00  0.00     0.000 C 
BRANCH   3   4
ATOM      4  C   UNL     1       7.421  -6.229  -9.411  1.00  0.00     0.000 C 
BRANCH   4   5
ATOM      5  C   UNL     1       6.257  -6.781  -8.572  1.00  0.00     0.000 C 
BRANCH   5   6
ATOM      6  C   UNL     1       4.879  -6.388  -9.135  1.00  0.00     0.006 C 
BRANCH   6   7
ATOM      7  C   UNL     1       4.082  -7.607  -9.615  1.00  0.00     0.053 C 
BRANCH   7   8
ATOM      8  C   UNL     1       3.155  -8.119  -8.557  1.00  0.00     0.041 C 
ATOM      9  O   UNL     1       2.389  -9.089  -8.797  1.00  0.00    -0.550 OA
ATOM     10  O   UNL     1       3.114  -7.504  -7.312  1.00  0.00    -0.550 OA
ENDBRANCH   7   8
ENDBRANCH   6   7
ENDBRANCH   5   6
ENDBRANCH   4   5
ENDBRANCH   3   4
ENDBRANCH   2   3
ENDBRANCH   1   2
BRANCH   1  11
ATOM     11  C   UNL     1      10.065  -3.674  -7.665  1.00  0.00     0.000 C 
BRANCH  11  12
ATOM     12  C   UNL     1       9.754  -2.373  -8.428  1.00  0.00     0.000 C 
BRANCH  12  13
ATOM     13  C   UNL     1       8.280  -1.951  -8.315  1.00  0.00     0.000 C 
BRANCH  13  14
ATOM     14  C   UNL     1       7.503  -2.167  -9.623  1.00  0.00     0.000 C 
BRANCH  14  15
ATOM     15  C   UNL     1       6.046  -2.593  -9.383  1.00  0.00     0.000 C 
BRANCH  15  16
ATOM     16  C   UNL     1       5.865  -3.152  -7.967  1.00  0.00     0.006 C 
BRANCH  16  17
ATOM     17  C   UNL     1       4.427  -2.953  -7.477  1.00  0.00     0.053 C 
BRANCH  17  18
ATOM     18  C   UNL     1       4.166  -3.791  -6.266  1.00  0.00     0.041 C 
ATOM     19  O   UNL     1       5.052  -4.576  -5.835  1.00  0.00    -0.550 OA
ATOM     20  O   UNL     1       2.962  -3.669  -5.582  1.00  0.00    -0.550 OA
ENDBRANCH  17  18
ENDBRANCH  16  17
ENDBRANCH  15  16
ENDBRANCH  14  15
ENDBRANCH  13  14
ENDBRANCH  12  13
ENDBRANCH  11  12
ENDBRANCH   1  11
TORSDOF 15
ENDMDL
MODEL 8
REMARK VINA RESULT:    -3.368      1.908      3.377
REMARK INTER + INTRA:          -8.889
REMARK INTER:                  -6.267
REMARK INTRA:                  -2.622
REMARK UNBOUND:                -2.567
REMARK SMILES O=C([O-])CCCCCCCCCCCCCCC(=O)[O-]
REMARK SMILES IDX 10 1 9 2 8 3 7 4 6 5 5 6 4 7 2 8 1 9 3 10 11 11 12 12 13 13
REMARK SMILES IDX 14 14 15 15 16 16 17 17 18 18 19 19 20 20
REMARK H PARENT
REMARK Flexibility Score: inf
ROOT
ATOM      1  C   UNL     1       4.164  -4.048  -6.878  1.00  0.00     0.000 C 
ENDROOT
BRANCH   1   2
ATOM      2  C   UNL     1       3.107  -4.626  -7.836  1.00  0.00     0.000 C 
BRANCH   2   3
ATOM      3  C   UNL     1       3.367  -6.112  -8.162  1.00  0.00     0.000 C 
BRANCH   3   4
ATOM      4  C   UNL     1       3.950  -6.343  -9.570  1.00  0.00     0.000 C 
BRANCH   4   5
ATOM      5  C   UNL     1       5.485  -6.294  -9.650  1.00  0.00     0.000 C 
BRANCH   5   6
ATOM      6  C   UNL     1       6.163  -7.252  -8.655  1.00  0.00     0.006 C 
BRANCH   6   7
ATOM      7  C   UNL     1       6.993  -6.502  -7.606  1.00  0.00     0.053 C 
BRANCH   7   8
ATOM      8  C   UNL     1       6.675  -6.959  -6.215  1.00  0.00     0.041 C 
ATOM      9  O   UNL     1       5.563  -7.491  -5.960  1.00  0.00    -0.550 OA
ATOM     10  O   UNL     1       7.597  -6.768  -5.193  1.00  0.00    -0.550 OA
ENDBRANCH   7   8
ENDBRANCH   6   7
ENDBRANCH   5   6
ENDBRANCH   4   5
ENDBRANCH   3   4
ENDBRANCH   2   3
ENDBRANCH   1   2
BRANCH   1  11
ATOM     11  C   UNL     1       5.070  -2.998  -7.545  1.00  0.00     0.000 C 
BRANCH  11  12
ATOM     12  C   UNL     1       4.542  -2.429  -8.875  1.00  0.00     0.000 C 
BRANCH  12  13
ATOM     13  C   UNL     1       5.514  -2.647 -10.047  1.00  0.00     0.000 C 
BRANCH  13  14
ATOM     14  C   UNL     1       6.966  -2.300  -9.681  1.00  0.00     0.000 C 
BRANCH  14  15
ATOM     15  C   UNL     1       7.938  -3.458  -9.956  1.00  0.00     0.000 C 
BRANCH  15  16
ATOM     16  C   UNL     1       9.293  -3.207  -9.282  1.00  0.00     0.006 C 
BRANCH  16  17
ATOM     17  C   UNL     1       9.111  -2.553  -7.909  1.00  0.00     0.053 C 
BRANCH  17  18
ATOM     18  C   UNL     1       9.007  -3.597  -6.842  1.00  0.00     0.041 C 
ATOM     19  O   UNL     1       8.055  -3.568  -6.018  1.00  0.00    -0.550 OA
ATOM     20  O   UNL     1       9.934  -4.631  -6.788  1.00  0.00    -0.550 OA
ENDBRANCH  17  18
ENDBRANCH  16  17
ENDBRANCH  15  16
ENDBRANCH  14  15
ENDBRANCH  13  14
ENDBRANCH  12  13
ENDBRANCH  11  12
ENDBRANCH   1  11
TORSDOF 15
ENDMDL
