MODEL 1
REMARK VINA RESULT:    -2.949      0.000      0.000
REMARK INTER + INTRA:          -4.763
REMARK INTER:                  -4.501
REMARK INTRA:                  -0.263
REMARK UNBOUND:                -0.263
REMARK SMILES CC1=CCC[C@H](C)C(=O)C[C@H](C(C)C)C(=O)C1
REMARK SMILES IDX 8 1 9 2 6 3 7 4 5 5 4 6 3 7 2 8 1 9 10 11 11 12 15 13 16 14
REMARK SMILES IDX 17 15 12 17 13 18 14 19
REMARK H PARENT
REMARK Flexibility Score: 70.00
ROOT
ATOM      1  C   UNL     1      23.371  51.741  -0.854  1.00  0.00     0.136 C 
ATOM      2  O   UNL     1      23.543  52.871  -1.288  1.00  0.00    -0.299 OA
ENDROOT
BRANCH   1   3
ATOM      3  C   UNL     1      23.884  51.370   0.529  1.00  0.00     0.053 C 
ATOM      4  C   UNL     1      25.170  52.144   0.850  1.00  0.00     0.016 C 
BRANCH   3   5
ATOM      5  C   UNL     1      22.787  51.621   1.604  1.00  0.00     0.015 C 
BRANCH   5   6
ATOM      6  C   UNL     1      22.442  50.401   2.485  1.00  0.00     0.028 C 
BRANCH   6   7
ATOM      7  C   UNL     1      21.035  49.857   2.357  1.00  0.00    -0.028 C 
ATOM      8  C   UNL     1      20.622  48.888   1.506  1.00  0.00    -0.070 CG0
ATOM      9  C   UNL     1      19.145  48.586   1.442  1.00  0.00     0.039 C 
ATOM     10  G   UNL     1      21.565  48.089   0.632  1.00  0.00     0.000 G0
ENDBRANCH   6   7
ENDBRANCH   5   6
ENDBRANCH   3   5
ENDBRANCH   1   3
BRANCH   1  11
ATOM     11  C   UNL     1      22.613  50.738  -1.690  1.00  0.00     0.087 C 
BRANCH  11  12
ATOM     12  C   UNL     1      22.921  49.253  -1.329  1.00  0.00     0.066 C 
BRANCH  12  13
ATOM     13  C   UNL     1      21.670  48.564  -0.783  1.00  0.00     0.140 C 
ATOM     14  O   UNL     1      20.714  48.380  -1.524  1.00  0.00    -0.299 OA
BRANCH  13  15
ATOM     15  C   UNL     1      21.576  48.070   0.640  1.00  0.00     0.106 CG0
ATOM     16  G   UNL     1      20.633  48.902   1.482  1.00  0.00     0.000 G0
ENDBRANCH  13  15
ENDBRANCH  12  13
BRANCH  12  17
ATOM     17  C   UNL     1      23.571  48.430  -2.493  1.00  0.00    -0.006 C 
ATOM     18  C   UNL     1      23.295  49.039  -3.881  1.00  0.00     0.008 C 
ATOM     19  C   UNL     1      25.096  48.322  -2.302  1.00  0.00     0.008 C 
ENDBRANCH  12  17
ENDBRANCH  11  12
ENDBRANCH   1  11
TORSDOF 1
ENDMDL
MODEL 2
REMARK VINA RESULT:    -2.887      1.770      3.998
REMARK INTER + INTRA:          -4.668
REMARK INTER:                  -5.172
REMARK INTRA:                   0.504
REMARK UNBOUND:                -0.263
REMARK SMILES CC1=CCC[C@H](C)C(=O)C[C@H](C(C)C)C(=O)C1
REMARK SMILES IDX 8 1 9 2 6 3 7 4 5 5 4 6 3 7 2 8 1 9 10 11 11 12 15 13 16 14
REMARK SMILES IDX 17 15 12 17 13 18 14 19
REMARK H PARENT
REMARK Flexibility Score: 70.00
ROOT
ATOM      1  C   UNL     1      22.926  50.676  -1.769  1.00  0.00     0.136 C 
ATOM      2  O   UNL     1      22.761  51.613  -2.536  1.00  0.00    -0.299 OA
ENDROOT
BRANCH   1   3
ATOM      3  C   UNL     1      21.937  49.521  -1.753  1.00  0.00     0.053 C 
ATOM      4  C   UNL     1      22.219  48.557  -2.914  1.00  0.00     0.016 C 
BRANCH   3   5
ATOM      5  C   UNL     1      21.978  48.786  -0.382  1.00  0.00     0.015 C 
BRANCH   5   6
ATOM      6  C   UNL     1      20.910  49.240   0.637  1.00  0.00     0.028 C 
BRANCH   6   7
ATOM      7  C   UNL     1      21.275  49.098   2.099  1.00  0.00    -0.028 C 
ATOM      8  C   UNL     1      22.048  49.944   2.821  1.00  0.00    -0.070 CG0
ATOM      9  C   UNL     1      22.402  49.547   4.233  1.00  0.00     0.039 C 
ATOM     10  G   UNL     1      22.561  51.265   2.287  1.00  0.00     0.000 G0
ENDBRANCH   6   7
ENDBRANCH   5   6
ENDBRANCH   3   5
ENDBRANCH   1   3
BRANCH   1  11
ATOM     11  C   UNL     1      24.140  50.664  -0.871  1.00  0.00     0.087 C 
BRANCH  11  12
ATOM     12  C   UNL     1      24.133  51.784   0.215  1.00  0.00     0.066 C 
BRANCH  12  13
ATOM     13  C   UNL     1      23.892  51.185   1.600  1.00  0.00     0.140 C 
ATOM     14  O   UNL     1      24.813  50.629   2.184  1.00  0.00    -0.299 OA
BRANCH  13  15
ATOM     15  C   UNL     1      22.558  51.279   2.300  1.00  0.00     0.106 CG0
ATOM     16  G   UNL     1      22.080  49.940   2.820  1.00  0.00     0.000 G0
ENDBRANCH  13  15
ENDBRANCH  12  13
BRANCH  12  17
ATOM     17  C   UNL     1      25.403  52.704   0.197  1.00  0.00    -0.006 C 
ATOM     18  C   UNL     1      25.284  53.864  -0.810  1.00  0.00     0.008 C 
ATOM     19  C   UNL     1      25.670  53.296   1.594  1.00  0.00     0.008 C 
ENDBRANCH  12  17
ENDBRANCH  11  12
ENDBRANCH   1  11
TORSDOF 1
ENDMDL
MODEL 3
REMARK VINA RESULT:    -2.870      2.122      4.175
REMARK INTER + INTRA:          -4.643
REMARK INTER:                  -4.716
REMARK INTRA:                   0.074
REMARK UNBOUND:                -0.263
REMARK SMILES CC1=CCC[C@H](C)C(=O)C[C@H](C(C)C)C(=O)C1
REMARK SMILES IDX 8 1 9 2 6 3 7 4 5 5 4 6 3 7 2 8 1 9 10 11 11 12 15 13 16 14
REMARK SMILES IDX 17 15 12 17 13 18 14 19
REMARK H PARENT
REMARK Flexibility Score: 70.00
ROOT
ATOM      1  C   UNL     1      21.854  49.042   1.063  1.00  0.00     0.136 C 
ATOM      2  O   UNL     1      21.973  48.227   1.966  1.00  0.00    -0.299 OA
ENDROOT
BRANCH   1   3
ATOM      3  C   UNL     1      20.978  50.269   1.254  1.00  0.00     0.053 C 
ATOM      4  C   UNL     1      19.653  49.882   1.927  1.00  0.00     0.016 C 
BRANCH   3   5
ATOM      5  C   UNL     1      21.732  51.358   2.071  1.00  0.00     0.015 C 
BRANCH   5   6
ATOM      6  C   UNL     1      23.268  51.205   2.102  1.00  0.00     0.028 C 
BRANCH   6   7
ATOM      7  C   UNL     1      24.064  52.282   1.396  1.00  0.00    -0.028 C 
ATOM      8  C   UNL     1      24.655  52.179   0.182  1.00  0.00    -0.070 CG0
ATOM      9  C   UNL     1      25.518  53.326  -0.284  1.00  0.00     0.039 C 
ATOM     10  G   UNL     1      24.484  50.983  -0.730  1.00  0.00     0.000 G0
ENDBRANCH   6   7
ENDBRANCH   5   6
ENDBRANCH   3   5
ENDBRANCH   1   3
BRANCH   1  11
ATOM     11  C   UNL     1      22.617  48.832  -0.224  1.00  0.00     0.087 C 
BRANCH  11  12
ATOM     12  C   UNL     1      22.197  49.800  -1.372  1.00  0.00     0.066 C 
BRANCH  12  13
ATOM     13  C   UNL     1      23.162  50.983  -1.455  1.00  0.00     0.140 C 
ATOM     14  O   UNL     1      22.842  51.975  -2.095  1.00  0.00    -0.299 OA
BRANCH  13  15
ATOM     15  C   UNL     1      24.494  50.990  -0.746  1.00  0.00     0.106 CG0
ATOM     16  G   UNL     1      24.650  52.176   0.181  1.00  0.00     0.000 G0
ENDBRANCH  13  15
ENDBRANCH  12  13
BRANCH  12  17
ATOM     17  C   UNL     1      22.016  49.104  -2.765  1.00  0.00    -0.006 C 
ATOM     18  C   UNL     1      23.212  48.209  -3.145  1.00  0.00     0.008 C 
ATOM     19  C   UNL     1      20.738  48.243  -2.785  1.00  0.00     0.008 C 
ENDBRANCH  12  17
ENDBRANCH  11  12
ENDBRANCH   1  11
TORSDOF 1
ENDMDL
MODEL 4
REMARK VINA RESULT:    -2.743      2.264      4.095
REMARK INTER + INTRA:          -4.449
REMARK INTER:                  -4.658
REMARK INTRA:                   0.209
REMARK UNBOUND:                -0.263
REMARK SMILES CC1=CCC[C@H](C)C(=O)C[C@H](C(C)C)C(=O)C1
REMARK SMILES IDX 8 1 9 2 6 3 7 4 5 5 4 6 3 7 2 8 1 9 10 11 11 12 15 13 16 14
REMARK SMILES IDX 17 15 12 17 13 18 14 19
REMARK H PARENT
REMARK Flexibility Score: 70.00
ROOT
ATOM      1  C   UNL     1      20.518  50.194   1.648  1.00  0.00     0.136 C 
ATOM      2  O   UNL     1      20.497  51.410   1.775  1.00  0.00    -0.299 OA
ENDROOT
BRANCH   1   3
ATOM      3  C   UNL     1      19.666  49.319   2.554  1.00  0.00     0.053 C 
ATOM      4  C   UNL     1      19.270  48.024   1.830  1.00  0.00     0.016 C 
BRANCH   3   5
ATOM      5  C   UNL     1      20.412  49.020   3.886  1.00  0.00     0.015 C 
BRANCH   5   6
ATOM      6  C   UNL     1      21.745  48.256   3.732  1.00  0.00     0.028 C 
BRANCH   6   7
ATOM      7  C   UNL     1      22.998  49.007   4.130  1.00  0.00    -0.028 C 
ATOM      8  C   UNL     1      24.029  49.338   3.317  1.00  0.00    -0.070 CG0
ATOM      9  C   UNL     1      25.249  49.969   3.943  1.00  0.00     0.039 C 
ATOM     10  G   UNL     1      24.013  49.118   1.819  1.00  0.00     0.000 G0
ENDBRANCH   6   7
ENDBRANCH   5   6
ENDBRANCH   3   5
ENDBRANCH   1   3
BRANCH   1  11
ATOM     11  C   UNL     1      21.368  49.581   0.561  1.00  0.00     0.087 C 
BRANCH  11  12
ATOM     12  C   UNL     1      22.540  50.494   0.085  1.00  0.00     0.066 C 
BRANCH  12  13
ATOM     13  C   UNL     1      23.729  50.379   1.039  1.00  0.00     0.140 C 
ATOM     14  O   UNL     1      24.461  51.346   1.204  1.00  0.00    -0.299 OA
BRANCH  13  15
ATOM     15  C   UNL     1      24.022  49.121   1.817  1.00  0.00     0.106 CG0
ATOM     16  G   UNL     1      24.020  49.351   3.314  1.00  0.00     0.000 G0
ENDBRANCH  13  15
ENDBRANCH  12  13
BRANCH  12  17
ATOM     17  C   UNL     1      22.970  50.262  -1.405  1.00  0.00    -0.006 C 
ATOM     18  C   UNL     1      22.107  49.204  -2.117  1.00  0.00     0.008 C 
ATOM     19  C   UNL     1      22.892  51.576  -2.207  1.00  0.00     0.008 C 
ENDBRANCH  12  17
ENDBRANCH  11  12
ENDBRANCH   1  11
TORSDOF 1
ENDMDL
MODEL 5
REMARK VINA RESULT:    -2.737      2.157      5.045
REMARK INTER + INTRA:          -4.439
REMARK INTER:                  -5.185
REMARK INTRA:                   0.746
REMARK UNBOUND:                -0.263
REMARK SMILES CC1=CCC[C@H](C)C(=O)C[C@H](C(C)C)C(=O)C1
REMARK SMILES IDX 8 1 9 2 6 3 7 4 5 5 4 6 3 7 2 8 1 9 10 11 11 12 15 13 16 14
REMARK SMILES IDX 17 15 12 17 13 18 14 19
REMARK H PARENT
REMARK Flexibility Score: 70.00
ROOT
ATOM      1  C   UNL     1      22.830  48.800  -1.059  1.00  0.00     0.136 C 
ATOM      2  O   UNL     1      23.791  48.169  -0.643  1.00  0.00    -0.299 OA
ENDROOT
BRANCH   1   3
ATOM      3  C   UNL     1      22.697  49.093  -2.545  1.00  0.00     0.053 C 
ATOM      4  C   UNL     1      21.230  48.982  -2.984  1.00  0.00     0.016 C 
BRANCH   3   5
ATOM      5  C   UNL     1      23.287  50.493  -2.881  1.00  0.00     0.015 C 
BRANCH   5   6
ATOM      6  C   UNL     1      23.025  51.585  -1.823  1.00  0.00     0.028 C 
BRANCH   6   7
ATOM      7  C   UNL     1      24.187  51.937  -0.919  1.00  0.00    -0.028 C 
ATOM      8  C   UNL     1      24.161  52.014   0.432  1.00  0.00    -0.070 CG0
ATOM      9  C   UNL     1      25.397  52.515   1.137  1.00  0.00     0.039 C 
ATOM     10  G   UNL     1      22.962  51.612   1.266  1.00  0.00     0.000 G0
ENDBRANCH   6   7
ENDBRANCH   5   6
ENDBRANCH   3   5
ENDBRANCH   1   3
BRANCH   1  11
ATOM     11  C   UNL     1      21.765  49.248  -0.087  1.00  0.00     0.087 C 
BRANCH  11  12
ATOM     12  C   UNL     1      22.165  49.076   1.411  1.00  0.00     0.066 C 
BRANCH  12  13
ATOM     13  C   UNL     1      23.056  50.232   1.865  1.00  0.00     0.140 C 
ATOM     14  O   UNL     1      23.911  50.033   2.716  1.00  0.00    -0.299 OA
BRANCH  13  15
ATOM     15  C   UNL     1      22.944  51.617   1.276  1.00  0.00     0.106 CG0
ATOM     16  G   UNL     1      24.156  51.996   0.451  1.00  0.00     0.000 G0
ENDBRANCH  13  15
ENDBRANCH  12  13
BRANCH  12  17
ATOM     17  C   UNL     1      20.950  48.868   2.380  1.00  0.00    -0.006 C 
ATOM     18  C   UNL     1      21.199  49.452   3.784  1.00  0.00     0.008 C 
ATOM     19  C   UNL     1      19.674  49.513   1.803  1.00  0.00     0.008 C 
ENDBRANCH  12  17
ENDBRANCH  11  12
ENDBRANCH   1  11
TORSDOF 1
ENDMDL
MODEL 6
REMARK VINA RESULT:    -2.697      2.855      4.385
REMARK INTER + INTRA:          -4.379
REMARK INTER:                  -4.542
REMARK INTRA:                   0.163
REMARK UNBOUND:                -0.263
REMARK SMILES CC1=CCC[C@H](C)C(=O)C[C@H](C(C)C)C(=O)C1
REMARK SMILES IDX 8 1 9 2 6 3 7 4 5 5 4 6 3 7 2 8 1 9 10 11 11 12 15 13 16 14
REMARK SMILES IDX 17 15 12 17 13 18 14 19
REMARK H PARENT
REMARK Flexibility Score: 70.00
ROOT
ATOM      1  C   UNL     1      24.143  51.195   1.421  1.00  0.00     0.136 C 
ATOM      2  O   UNL     1      25.213  51.784   1.355  1.00  0.00    -0.299 OA
ENDROOT
BRANCH   1   3
ATOM      3  C   UNL     1      22.916  51.763   0.726  1.00  0.00     0.053 C 
ATOM      4  C   UNL     1      22.790  51.190  -0.693  1.00  0.00     0.016 C 
BRANCH   3   5
ATOM      5  C   UNL     1      21.636  51.487   1.566  1.00  0.00     0.015 C 
BRANCH   5   6
ATOM      6  C   UNL     1      20.894  50.179   1.218  1.00  0.00     0.028 C 
BRANCH   6   7
ATOM      7  C   UNL     1      20.065  49.562   2.325  1.00  0.00    -0.028 C 
ATOM      8  C   UNL     1      20.506  48.708   3.278  1.00  0.00    -0.070 CG0
ATOM      9  C   UNL     1      19.486  48.101   4.210  1.00  0.00     0.039 C 
ATOM     10  G   UNL     1      21.964  48.342   3.460  1.00  0.00     0.000 G0
ENDBRANCH   6   7
ENDBRANCH   5   6
ENDBRANCH   3   5
ENDBRANCH   1   3
BRANCH   1  11
ATOM     11  C   UNL     1      24.071  49.883   2.165  1.00  0.00     0.087 C 
BRANCH  11  12
ATOM     12  C   UNL     1      23.994  50.039   3.715  1.00  0.00     0.066 C 
BRANCH  12  13
ATOM     13  C   UNL     1      22.754  49.335   4.264  1.00  0.00     0.140 C 
ATOM     14  O   UNL     1      22.358  49.606   5.390  1.00  0.00    -0.299 OA
BRANCH  13  15
ATOM     15  C   UNL     1      21.969  48.332   3.455  1.00  0.00     0.106 CG0
ATOM     16  G   UNL     1      20.515  48.723   3.299  1.00  0.00     0.000 G0
ENDBRANCH  13  15
ENDBRANCH  12  13
BRANCH  12  17
ATOM     17  C   UNL     1      25.294  49.592   4.470  1.00  0.00    -0.006 C 
ATOM     18  C   UNL     1      26.184  48.660   3.626  1.00  0.00     0.008 C 
ATOM     19  C   UNL     1      26.130  50.816   4.891  1.00  0.00     0.008 C 
ENDBRANCH  12  17
ENDBRANCH  11  12
ENDBRANCH   1  11
TORSDOF 1
ENDMDL
MODEL 7
REMARK VINA RESULT:    -2.681      6.879      8.519
REMARK INTER + INTRA:          -4.354
REMARK INTER:                  -4.049
REMARK INTRA:                  -0.305
REMARK UNBOUND:                -0.263
REMARK SMILES CC1=CCC[C@H](C)C(=O)C[C@H](C(C)C)C(=O)C1
REMARK SMILES IDX 8 1 9 2 6 3 7 4 5 5 4 6 3 7 2 8 1 9 10 11 11 12 15 13 16 14
REMARK SMILES IDX 17 15 12 17 13 18 14 19
REMARK H PARENT
REMARK Flexibility Score: 70.00
ROOT
ATOM      1  C   UNL     1      21.802  54.346  -7.266  1.00  0.00     0.136 C 
ATOM      2  O   UNL     1      22.654  55.184  -7.523  1.00  0.00    -0.299 OA
ENDROOT
BRANCH   1   3
ATOM      3  C   UNL     1      20.467  54.774  -6.678  1.00  0.00     0.053 C 
ATOM      4  C   UNL     1      20.676  55.481  -5.331  1.00  0.00     0.016 C 
BRANCH   3   5
ATOM      5  C   UNL     1      19.692  55.677  -7.680  1.00  0.00     0.015 C 
BRANCH   5   6
ATOM      6  C   UNL     1      18.622  54.952  -8.523  1.00  0.00     0.028 C 
BRANCH   6   7
ATOM      7  C   UNL     1      17.843  53.859  -7.822  1.00  0.00    -0.028 C 
ATOM      8  C   UNL     1      18.084  52.529  -7.892  1.00  0.00    -0.070 CG0
ATOM      9  C   UNL     1      17.103  51.596  -7.224  1.00  0.00     0.039 C 
ATOM     10  G   UNL     1      19.287  51.935  -8.594  1.00  0.00     0.000 G0
ENDBRANCH   6   7
ENDBRANCH   5   6
ENDBRANCH   3   5
ENDBRANCH   1   3
BRANCH   1  11
ATOM     11  C   UNL     1      22.079  52.894  -7.575  1.00  0.00     0.087 C 
BRANCH  11  12
ATOM     12  C   UNL     1      21.212  51.895  -6.749  1.00  0.00     0.066 C 
BRANCH  12  13
ATOM     13  C   UNL     1      20.209  51.181  -7.655  1.00  0.00     0.140 C 
ATOM     14  O   UNL     1      20.122  49.961  -7.611  1.00  0.00    -0.299 OA
BRANCH  13  15
ATOM     15  C   UNL     1      19.289  51.928  -8.589  1.00  0.00     0.106 CG0
ATOM     16  G   UNL     1      18.104  52.538  -7.870  1.00  0.00     0.000 G0
ENDBRANCH  13  15
ENDBRANCH  12  13
BRANCH  12  17
ATOM     17  C   UNL     1      22.043  50.879  -5.894  1.00  0.00    -0.006 C 
ATOM     18  C   UNL     1      23.507  50.762  -6.361  1.00  0.00     0.008 C 
ATOM     19  C   UNL     1      22.036  51.281  -4.406  1.00  0.00     0.008 C 
ENDBRANCH  12  17
ENDBRANCH  11  12
ENDBRANCH   1  11
TORSDOF 1
ENDMDL
MODEL 8
REMARK VINA RESULT:    -2.624      1.690      4.161
REMARK INTER + INTRA:          -4.267
REMARK INTER:                  -4.512
REMARK INTRA:                   0.245
REMARK UNBOUND:                -0.263
REMARK SMILES CC1=CCC[C@H](C)C(=O)C[C@H](C(C)C)C(=O)C1
REMARK SMILES IDX 8 1 9 2 6 3 7 4 5 5 4 6 3 7 2 8 1 9 10 11 11 12 15 13 16 14
REMARK SMILES IDX 17 15 12 17 13 18 14 19
REMARK H PARENT
REMARK Flexibility Score: 70.00
ROOT
ATOM      1  C   UNL     1      22.937  51.485   1.436  1.00  0.00     0.136 C 
ATOM      2  O   UNL     1      21.936  52.030   1.881  1.00  0.00    -0.299 OA
ENDROOT
BRANCH   1   3
ATOM      3  C   UNL     1      24.126  52.322   0.992  1.00  0.00     0.053 C 
ATOM      4  C   UNL     1      25.392  51.901   1.752  1.00  0.00     0.016 C 
BRANCH   3   5
ATOM      5  C   UNL     1      24.325  52.216  -0.547  1.00  0.00     0.015 C 
BRANCH   5   6
ATOM      6  C   UNL     1      23.031  52.002  -1.362  1.00  0.00     0.028 C 
BRANCH   6   7
ATOM      7  C   UNL     1      23.143  51.103  -2.575  1.00  0.00    -0.028 C 
ATOM      8  C   UNL     1      23.375  49.769  -2.569  1.00  0.00    -0.070 CG0
ATOM      9  C   UNL     1      23.586  49.082  -3.895  1.00  0.00     0.039 C 
ATOM     10  G   UNL     1      23.420  48.937  -1.305  1.00  0.00     0.000 G0
ENDBRANCH   6   7
ENDBRANCH   5   6
ENDBRANCH   3   5
ENDBRANCH   1   3
BRANCH   1  11
ATOM     11  C   UNL     1      22.987  49.978   1.370  1.00  0.00     0.087 C 
BRANCH  11  12
ATOM     12  C   UNL     1      21.726  49.331   0.720  1.00  0.00     0.066 C 
BRANCH  12  13
ATOM     13  C   UNL     1      22.065  48.766  -0.660  1.00  0.00     0.140 C 
ATOM     14  O   UNL     1      21.204  48.168  -1.292  1.00  0.00    -0.299 OA
BRANCH  13  15
ATOM     15  C   UNL     1      23.422  48.944  -1.294  1.00  0.00     0.106 CG0
ATOM     16  G   UNL     1      23.364  49.761  -2.567  1.00  0.00     0.000 G0
ENDBRANCH  13  15
ENDBRANCH  12  13
BRANCH  12  17
ATOM     17  C   UNL     1      21.013  48.265   1.621  1.00  0.00    -0.006 C 
ATOM     18  C   UNL     1      21.449  48.344   3.097  1.00  0.00     0.008 C 
ATOM     19  C   UNL     1      19.482  48.428   1.556  1.00  0.00     0.008 C 
ENDBRANCH  12  17
ENDBRANCH  11  12
ENDBRANCH   1  11
TORSDOF 1
ENDMDL
MODEL 9
REMARK VINA RESULT:    -2.465      2.037      4.627
REMARK INTER + INTRA:          -4.025
REMARK INTER:                  -3.824
REMARK INTRA:                  -0.201
REMARK UNBOUND:                -0.263
REMARK SMILES CC1=CCC[C@H](C)C(=O)C[C@H](C(C)C)C(=O)C1
REMARK SMILES IDX 8 1 9 2 6 3 7 4 5 5 4 6 3 7 2 8 1 9 10 11 11 12 15 13 16 14
REMARK SMILES IDX 17 15 12 17 13 18 14 19
REMARK H PARENT
REMARK Flexibility Score: 70.00
ROOT
ATOM      1  C   UNL     1      21.066  50.343   2.122  1.00  0.00     0.136 C 
ATOM      2  O   UNL     1      20.323  51.239   1.749  1.00  0.00    -0.299 OA
ENDROOT
BRANCH   1   3
ATOM      3  C   UNL     1      20.532  48.929   2.285  1.00  0.00     0.053 C 
ATOM      4  C   UNL     1      19.440  48.889   3.364  1.00  0.00     0.016 C 
BRANCH   3   5
ATOM      5  C   UNL     1      20.007  48.383   0.925  1.00  0.00     0.015 C 
BRANCH   5   6
ATOM      6  C   UNL     1      21.098  47.875  -0.041  1.00  0.00     0.028 C 
BRANCH   6   7
ATOM      7  C   UNL     1      21.287  48.669  -1.316  1.00  0.00    -0.028 C 
ATOM      8  C   UNL     1      22.412  49.318  -1.700  1.00  0.00    -0.070 CG0
ATOM      9  C   UNL     1      22.349  50.166  -2.946  1.00  0.00     0.039 C 
ATOM     10  G   UNL     1      23.724  49.226  -0.950  1.00  0.00     0.000 G0
ENDBRANCH   6   7
ENDBRANCH   5   6
ENDBRANCH   3   5
ENDBRANCH   1   3
BRANCH   1  11
ATOM     11  C   UNL     1      22.522  50.651   2.379  1.00  0.00     0.087 C 
BRANCH  11  12
ATOM     12  C   UNL     1      23.510  49.682   1.660  1.00  0.00     0.066 C 
BRANCH  12  13
ATOM     13  C   UNL     1      23.786  50.158   0.234  1.00  0.00     0.140 C 
ATOM     14  O   UNL     1      24.086  51.328   0.039  1.00  0.00    -0.299 OA
BRANCH  13  15
ATOM     15  C   UNL     1      23.734  49.228  -0.953  1.00  0.00     0.106 CG0
ATOM     16  G   UNL     1      22.419  49.312  -1.699  1.00  0.00     0.000 G0
ENDBRANCH  13  15
ENDBRANCH  12  13
BRANCH  12  17
ATOM     17  C   UNL     1      24.839  49.418   2.448  1.00  0.00    -0.006 C 
ATOM     18  C   UNL     1      25.320  50.651   3.237  1.00  0.00     0.008 C 
ATOM     19  C   UNL     1      24.667  48.246   3.434  1.00  0.00     0.008 C 
ENDBRANCH  12  17
ENDBRANCH  11  12
ENDBRANCH   1  11
TORSDOF 1
ENDMDL
