MODEL 1
REMARK VINA RESULT:    -2.732      0.000      0.000
REMARK INTER + INTRA:          -2.732
REMARK INTER:                  -2.732
REMARK INTRA:                   0.000
REMARK UNBOUND:                 0.000
REMARK SMILES CC(=O)[O-]
REMARK SMILES IDX 1 1 2 2 3 3 4 4
REMARK H PARENT
REMARK Flexibility Score: inf
ROOT
ATOM      1  C   UNL     1      54.271 -39.711  -1.921  1.00  0.00     0.063 C 
ATOM      2  C   UNL     1      54.124 -41.193  -1.856  1.00  0.00     0.038 C 
ATOM      3  O   UNL     1      55.142 -41.925  -1.745  1.00  0.00    -0.550 OA
ATOM      4  O   UNL     1      52.859 -41.768  -1.862  1.00  0.00    -0.550 OA
ENDROOT
TORSDOF 0
ENDMDL
MODEL 2
REMARK VINA RESULT:    -2.697      0.213      1.627
REMARK INTER + INTRA:          -2.697
REMARK INTER:                  -2.697
REMARK INTRA:                   0.000
REMARK UNBOUND:                 0.000
REMARK SMILES CC(=O)[O-]
REMARK SMILES IDX 1 1 2 2 3 3 4 4
REMARK H PARENT
REMARK Flexibility Score: inf
ROOT
ATOM      1  C   UNL     1      54.298 -39.548  -1.988  1.00  0.00     0.063 C 
ATOM      2  C   UNL     1      54.045 -41.014  -1.888  1.00  0.00     0.038 C 
ATOM      3  O   UNL     1      52.872 -41.460  -1.977  1.00  0.00    -0.550 OA
ATOM      4  O   UNL     1      55.110 -41.896  -1.752  1.00  0.00    -0.550 OA
ENDROOT
TORSDOF 0
ENDMDL
MODEL 3
REMARK VINA RESULT:    -2.675      1.361      1.766
REMARK INTER + INTRA:          -2.675
REMARK INTER:                  -2.675
REMARK INTRA:                   0.000
REMARK UNBOUND:                 0.000
REMARK SMILES CC(=O)[O-]
REMARK SMILES IDX 1 1 2 2 3 3 4 4
REMARK H PARENT
REMARK Flexibility Score: inf
ROOT
ATOM      1  C   UNL     1      52.776 -41.458  -1.907  1.00  0.00     0.063 C 
ATOM      2  C   UNL     1      54.200 -41.022  -1.838  1.00  0.00     0.038 C 
ATOM      3  O   UNL     1      55.120 -41.878  -1.765  1.00  0.00    -0.550 OA
ATOM      4  O   UNL     1      54.520 -39.672  -1.911  1.00  0.00    -0.550 OA
ENDROOT
TORSDOF 0
ENDMDL
MODEL 4
REMARK VINA RESULT:    -2.423      1.849      2.121
REMARK INTER + INTRA:          -2.423
REMARK INTER:                  -2.423
REMARK INTRA:                   0.000
REMARK UNBOUND:                 0.000
REMARK SMILES CC(=O)[O-]
REMARK SMILES IDX 1 1 2 2 3 3 4 4
REMARK H PARENT
REMARK Flexibility Score: inf
ROOT
ATOM      1  C   UNL     1      53.314 -41.561  -1.829  1.00  0.00     0.063 C 
ATOM      2  C   UNL     1      53.613 -40.146  -2.192  1.00  0.00     0.038 C 
ATOM      3  O   UNL     1      54.719 -39.633  -1.880  1.00  0.00    -0.550 OA
ATOM      4  O   UNL     1      52.693 -39.407  -2.926  1.00  0.00    -0.550 OA
ENDROOT
TORSDOF 0
ENDMDL
MODEL 5
REMARK VINA RESULT:    -2.381      1.933      2.680
REMARK INTER + INTRA:          -2.381
REMARK INTER:                  -2.381
REMARK INTRA:                   0.000
REMARK UNBOUND:                 0.000
REMARK SMILES CC(=O)[O-]
REMARK SMILES IDX 1 1 2 2 3 3 4 4
REMARK H PARENT
REMARK Flexibility Score: inf
ROOT
ATOM      1  C   UNL     1      53.424 -41.477  -1.846  1.00  0.00     0.063 C 
ATOM      2  C   UNL     1      53.505 -40.044  -2.250  1.00  0.00     0.038 C 
ATOM      3  O   UNL     1      52.562 -39.515  -2.894  1.00  0.00    -0.550 OA
ATOM      4  O   UNL     1      54.596 -39.273  -1.869  1.00  0.00    -0.550 OA
ENDROOT
TORSDOF 0
ENDMDL
MODEL 6
REMARK VINA RESULT:    -2.243      2.784      2.986
REMARK INTER + INTRA:          -2.243
REMARK INTER:                  -2.243
REMARK INTRA:                   0.000
REMARK UNBOUND:                 0.000
REMARK SMILES CC(=O)[O-]
REMARK SMILES IDX 1 1 2 2 3 3 4 4
REMARK H PARENT
REMARK Flexibility Score: inf
ROOT
ATOM      1  C   UNL     1      52.903 -41.675  -1.849  1.00  0.00     0.063 C 
ATOM      2  C   UNL     1      51.774 -41.304  -2.750  1.00  0.00     0.038 C 
ATOM      3  O   UNL     1      51.588 -40.100  -3.067  1.00  0.00    -0.550 OA
ATOM      4  O   UNL     1      50.958 -42.292  -3.286  1.00  0.00    -0.550 OA
ENDROOT
TORSDOF 0
ENDMDL
MODEL 7
REMARK VINA RESULT:    -2.174     14.367     14.583
REMARK INTER + INTRA:          -2.174
REMARK INTER:                  -2.174
REMARK INTRA:                   0.000
REMARK UNBOUND:                 0.000
REMARK SMILES CC(=O)[O-]
REMARK SMILES IDX 1 1 2 2 3 3 4 4
REMARK H PARENT
REMARK Flexibility Score: inf
ROOT
ATOM      1  C   UNL     1      49.719 -33.312  10.919  1.00  0.00     0.063 C 
ATOM      2  C   UNL     1      50.934 -33.984  10.376  1.00  0.00     0.038 C 
ATOM      3  O   UNL     1      52.042 -33.854  10.959  1.00  0.00    -0.550 OA
ATOM      4  O   UNL     1      50.837 -34.803   9.258  1.00  0.00    -0.550 OA
ENDROOT
TORSDOF 0
ENDMDL
MODEL 8
REMARK VINA RESULT:    -2.093      2.966      3.625
REMARK INTER + INTRA:          -2.093
REMARK INTER:                  -2.093
REMARK INTRA:                   0.000
REMARK UNBOUND:                 0.000
REMARK SMILES CC(=O)[O-]
REMARK SMILES IDX 1 1 2 2 3 3 4 4
REMARK H PARENT
REMARK Flexibility Score: inf
ROOT
ATOM      1  C   UNL     1      50.133 -41.804  -3.351  1.00  0.00     0.063 C 
ATOM      2  C   UNL     1      51.363 -41.065  -2.947  1.00  0.00     0.038 C 
ATOM      3  O   UNL     1      51.508 -39.857  -3.269  1.00  0.00    -0.550 OA
ATOM      4  O   UNL     1      52.327 -41.690  -2.167  1.00  0.00    -0.550 OA
ENDROOT
TORSDOF 0
ENDMDL
MODEL 9
REMARK VINA RESULT:    -2.080     15.599     15.869
REMARK INTER + INTRA:          -2.080
REMARK INTER:                  -2.080
REMARK INTRA:                   0.000
REMARK UNBOUND:                 0.000
REMARK SMILES CC(=O)[O-]
REMARK SMILES IDX 1 1 2 2 3 3 4 4
REMARK H PARENT
REMARK Flexibility Score: inf
ROOT
ATOM      1  C   UNL     1      50.752 -33.158  10.908  1.00  0.00     0.063 C 
ATOM      2  C   UNL     1      50.215 -34.180  11.850  1.00  0.00     0.038 C 
ATOM      3  O   UNL     1      49.774 -33.833  12.976  1.00  0.00    -0.550 OA
ATOM      4  O   UNL     1      50.148 -35.514  11.466  1.00  0.00    -0.550 OA
ENDROOT
TORSDOF 0
ENDMDL
