MODEL 1
REMARK VINA RESULT:    -2.785      0.000      0.000
REMARK INTER + INTRA:          -3.496
REMARK INTER:                  -4.250
REMARK INTRA:                   0.754
REMARK UNBOUND:                 0.754
REMARK SMILES CC1=CCC[C@H](C)C(=O)C[C@H](C(C)C)C(=O)C1
REMARK SMILES IDX 8 1 9 2 6 3 7 4 5 5 4 6 3 7 2 8 1 9 10 11 11 12 15 13 16 14
REMARK SMILES IDX 17 15 12 17 13 18 14 19
REMARK H PARENT
REMARK Flexibility Score: 70.00
ROOT
ATOM      1  C   UNL     1      10.076 -32.419  13.602  1.00  0.00     0.136 C 
ATOM      2  O   UNL     1       9.574 -31.499  12.972  1.00  0.00    -0.299 OA
ENDROOT
BRANCH   1   3
ATOM      3  C   UNL     1      10.594 -33.655  12.876  1.00  0.00     0.053 C 
ATOM      4  C   UNL     1      12.087 -33.908  13.144  1.00  0.00     0.016 C 
BRANCH   3   5
ATOM      5  C   UNL     1       9.750 -34.913  13.184  1.00  0.00     0.015 C 
BRANCH   5   6
ATOM      6  C   UNL     1       8.234 -34.673  13.053  1.00  0.00     0.028 C 
BRANCH   6   7
ATOM      7  C   UNL     1       7.411 -35.511  14.001  1.00  0.00    -0.028 C 
ATOM      8  C   UNL     1       7.386 -35.411  15.357  1.00  0.00    -0.070 CG0
ATOM      9  C   UNL     1       6.576 -36.442  16.105  1.00  0.00     0.039 C 
ATOM     10  G   UNL     1       8.050 -34.294  16.160  1.00  0.00     0.000 G0
ENDBRANCH   6   7
ENDBRANCH   5   6
ENDBRANCH   3   5
ENDBRANCH   1   3
BRANCH   1  11
ATOM     11  C   UNL     1      10.136 -32.334  15.110  1.00  0.00     0.087 C 
BRANCH  11  12
ATOM     12  C   UNL     1       8.829 -31.822  15.783  1.00  0.00     0.066 C 
BRANCH  12  13
ATOM     13  C   UNL     1       7.738 -32.891  15.746  1.00  0.00     0.140 C 
ATOM     14  O   UNL     1       6.626 -32.628  15.308  1.00  0.00    -0.299 OA
BRANCH  13  15
ATOM     15  C   UNL     1       8.047 -34.304  16.174  1.00  0.00     0.106 CG0
ATOM     16  G   UNL     1       7.376 -35.392  15.338  1.00  0.00     0.000 G0
ENDBRANCH  13  15
ENDBRANCH  12  13
BRANCH  12  17
ATOM     17  C   UNL     1       9.023 -31.218  17.219  1.00  0.00    -0.006 C 
ATOM     18  C   UNL     1      10.496 -30.830  17.455  1.00  0.00     0.008 C 
ATOM     19  C   UNL     1       8.586 -32.175  18.342  1.00  0.00     0.008 C 
ENDBRANCH  12  17
ENDBRANCH  11  12
ENDBRANCH   1  11
TORSDOF 1
ENDMDL
MODEL 2
REMARK VINA RESULT:    -2.552      1.601      3.769
REMARK INTER + INTRA:          -3.141
REMARK INTER:                  -3.692
REMARK INTRA:                   0.551
REMARK UNBOUND:                 0.754
REMARK SMILES CC1=CCC[C@H](C)C(=O)C[C@H](C(C)C)C(=O)C1
REMARK SMILES IDX 8 1 9 2 6 3 7 4 5 5 4 6 3 7 2 8 1 9 10 11 11 12 15 13 16 14
REMARK SMILES IDX 17 15 12 17 13 18 14 19
REMARK H PARENT
REMARK Flexibility Score: 70.00
ROOT
ATOM      1  C   UNL     1       6.956 -33.655  14.947  1.00  0.00     0.136 C 
ATOM      2  O   UNL     1       5.888 -33.610  14.354  1.00  0.00    -0.299 OA
ENDROOT
BRANCH   1   3
ATOM      3  C   UNL     1       7.560 -34.998  15.339  1.00  0.00     0.053 C 
ATOM      4  C   UNL     1       6.699 -35.749  16.368  1.00  0.00     0.016 C 
BRANCH   3   5
ATOM      5  C   UNL     1       7.864 -35.885  14.110  1.00  0.00     0.015 C 
BRANCH   5   6
ATOM      6  C   UNL     1       8.403 -35.091  12.907  1.00  0.00     0.028 C 
BRANCH   6   7
ATOM      7  C   UNL     1       9.906 -34.952  12.905  1.00  0.00    -0.028 C 
ATOM      8  C   UNL     1      10.613 -33.797  13.030  1.00  0.00    -0.070 CG0
ATOM      9  C   UNL     1      12.112 -33.891  12.875  1.00  0.00     0.039 C 
ATOM     10  G   UNL     1      10.009 -32.441  13.391  1.00  0.00     0.000 G0
ENDBRANCH   6   7
ENDBRANCH   5   6
ENDBRANCH   3   5
ENDBRANCH   1   3
BRANCH   1  11
ATOM     11  C   UNL     1       7.646 -32.364  15.325  1.00  0.00     0.087 C 
BRANCH  11  12
ATOM     12  C   UNL     1       9.092 -32.538  15.871  1.00  0.00     0.066 C 
BRANCH  12  13
ATOM     13  C   UNL     1      10.124 -32.044  14.857  1.00  0.00     0.140 C 
ATOM     14  O   UNL     1      11.091 -31.391  15.223  1.00  0.00    -0.299 OA
BRANCH  13  15
ATOM     15  C   UNL     1      10.002 -32.429  13.403  1.00  0.00     0.106 CG0
ATOM     16  G   UNL     1      10.600 -33.788  13.044  1.00  0.00     0.000 G0
ENDBRANCH  13  15
ENDBRANCH  12  13
BRANCH  12  17
ATOM     17  C   UNL     1       9.331 -31.941  17.302  1.00  0.00    -0.006 C 
ATOM     18  C   UNL     1       8.013 -31.893  18.101  1.00  0.00     0.008 C 
ATOM     19  C   UNL     1       9.934 -30.526  17.275  1.00  0.00     0.008 C 
ENDBRANCH  12  17
ENDBRANCH  11  12
ENDBRANCH   1  11
TORSDOF 1
ENDMDL
MODEL 3
REMARK VINA RESULT:    -1.915      1.676      4.228
REMARK INTER + INTRA:          -2.168
REMARK INTER:                  -2.878
REMARK INTRA:                   0.710
REMARK UNBOUND:                 0.754
REMARK SMILES CC1=CCC[C@H](C)C(=O)C[C@H](C(C)C)C(=O)C1
REMARK SMILES IDX 8 1 9 2 6 3 7 4 5 5 4 6 3 7 2 8 1 9 10 11 11 12 15 13 16 14
REMARK SMILES IDX 17 15 12 17 13 18 14 19
REMARK H PARENT
REMARK Flexibility Score: 70.00
ROOT
ATOM      1  C   UNL     1      10.083 -33.893  13.648  1.00  0.00     0.136 C 
ATOM      2  O   UNL     1      10.790 -34.815  14.029  1.00  0.00    -0.299 OA
ENDROOT
BRANCH   1   3
ATOM      3  C   UNL     1      10.697 -32.533  13.336  1.00  0.00     0.053 C 
ATOM      4  C   UNL     1       9.647 -31.509  12.876  1.00  0.00     0.016 C 
BRANCH   3   5
ATOM      5  C   UNL     1      11.536 -31.985  14.513  1.00  0.00     0.015 C 
BRANCH   5   6
ATOM      6  C   UNL     1      10.873 -30.793  15.228  1.00  0.00     0.028 C 
BRANCH   6   7
ATOM      7  C   UNL     1      10.372 -31.128  16.612  1.00  0.00    -0.028 C 
ATOM      8  C   UNL     1       9.206 -31.754  16.922  1.00  0.00    -0.070 CG0
ATOM      9  C   UNL     1       8.859 -31.870  18.387  1.00  0.00     0.039 C 
ATOM     10  G   UNL     1       8.272 -32.409  15.907  1.00  0.00     0.000 G0
ENDBRANCH   6   7
ENDBRANCH   5   6
ENDBRANCH   3   5
ENDBRANCH   1   3
BRANCH   1  11
ATOM     11  C   UNL     1       8.591 -34.104  13.533  1.00  0.00     0.087 C 
BRANCH  11  12
ATOM     12  C   UNL     1       7.932 -34.767  14.777  1.00  0.00     0.066 C 
BRANCH  12  13
ATOM     13  C   UNL     1       8.155 -33.921  16.031  1.00  0.00     0.140 C 
ATOM     14  O   UNL     1       8.325 -34.456  17.118  1.00  0.00    -0.299 OA
BRANCH  13  15
ATOM     15  C   UNL     1       8.249 -32.419  15.924  1.00  0.00     0.106 CG0
ATOM     16  G   UNL     1       9.181 -31.759  16.938  1.00  0.00     0.000 G0
ENDBRANCH  13  15
ENDBRANCH  12  13
BRANCH  12  17
ATOM     17  C   UNL     1       6.427 -35.168  14.589  1.00  0.00    -0.006 C 
ATOM     18  C   UNL     1       6.204 -36.648  14.959  1.00  0.00     0.008 C 
ATOM     19  C   UNL     1       5.916 -34.944  13.155  1.00  0.00     0.008 C 
ENDBRANCH  12  17
ENDBRANCH  11  12
ENDBRANCH   1  11
TORSDOF 1
ENDMDL
MODEL 4
REMARK VINA RESULT:    -1.742      1.633      3.893
REMARK INTER + INTRA:          -1.905
REMARK INTER:                  -2.278
REMARK INTRA:                   0.373
REMARK UNBOUND:                 0.754
REMARK SMILES CC1=CCC[C@H](C)C(=O)C[C@H](C(C)C)C(=O)C1
REMARK SMILES IDX 8 1 9 2 6 3 7 4 5 5 4 6 3 7 2 8 1 9 10 11 11 12 15 13 16 14
REMARK SMILES IDX 17 15 12 17 13 18 14 19
REMARK H PARENT
REMARK Flexibility Score: 70.00
ROOT
ATOM      1  C   UNL     1      10.125 -33.803  13.474  1.00  0.00     0.136 C 
ATOM      2  O   UNL     1      10.920 -34.549  14.028  1.00  0.00    -0.299 OA
ENDROOT
BRANCH   1   3
ATOM      3  C   UNL     1      10.439 -32.318  13.327  1.00  0.00     0.053 C 
ATOM      4  C   UNL     1       9.213 -31.502  12.886  1.00  0.00     0.016 C 
BRANCH   3   5
ATOM      5  C   UNL     1      11.077 -31.725  14.605  1.00  0.00     0.015 C 
BRANCH   5   6
ATOM      6  C   UNL     1      10.045 -31.377  15.693  1.00  0.00     0.028 C 
BRANCH   6   7
ATOM      7  C   UNL     1       9.577 -32.576  16.481  1.00  0.00    -0.028 C 
ATOM      8  C   UNL     1       8.311 -33.069  16.531  1.00  0.00    -0.070 CG0
ATOM      9  C   UNL     1       8.056 -34.208  17.489  1.00  0.00     0.039 C 
ATOM     10  G   UNL     1       7.160 -32.606  15.640  1.00  0.00     0.000 G0
ENDBRANCH   6   7
ENDBRANCH   5   6
ENDBRANCH   3   5
ENDBRANCH   1   3
BRANCH   1  11
ATOM     11  C   UNL     1       8.812 -34.361  12.978  1.00  0.00     0.087 C 
BRANCH  11  12
ATOM     12  C   UNL     1       7.761 -34.635  14.092  1.00  0.00     0.066 C 
BRANCH  12  13
ATOM     13  C   UNL     1       6.927 -33.387  14.379  1.00  0.00     0.140 C 
ATOM     14  O   UNL     1       6.042 -33.042  13.609  1.00  0.00    -0.299 OA
BRANCH  13  15
ATOM     15  C   UNL     1       7.135 -32.614  15.658  1.00  0.00     0.106 CG0
ATOM     16  G   UNL     1       8.310 -33.088  16.512  1.00  0.00     0.000 G0
ENDBRANCH  13  15
ENDBRANCH  12  13
BRANCH  12  17
ATOM     17  C   UNL     1       6.870 -35.906  13.858  1.00  0.00    -0.006 C 
ATOM     18  C   UNL     1       6.151 -36.317  15.158  1.00  0.00     0.008 C 
ATOM     19  C   UNL     1       7.667 -37.116  13.340  1.00  0.00     0.008 C 
ENDBRANCH  12  17
ENDBRANCH  11  12
ENDBRANCH   1  11
TORSDOF 1
ENDMDL
MODEL 5
REMARK VINA RESULT:    -1.588      1.987      3.654
REMARK INTER + INTRA:          -1.669
REMARK INTER:                  -2.439
REMARK INTRA:                   0.770
REMARK UNBOUND:                 0.754
REMARK SMILES CC1=CCC[C@H](C)C(=O)C[C@H](C(C)C)C(=O)C1
REMARK SMILES IDX 8 1 9 2 6 3 7 4 5 5 4 6 3 7 2 8 1 9 10 11 11 12 15 13 16 14
REMARK SMILES IDX 17 15 12 17 13 18 14 19
REMARK H PARENT
REMARK Flexibility Score: 70.00
ROOT
ATOM      1  C   UNL     1       8.191 -32.503  15.886  1.00  0.00     0.136 C 
ATOM      2  O   UNL     1       8.442 -31.563  16.626  1.00  0.00    -0.299 OA
ENDROOT
BRANCH   1   3
ATOM      3  C   UNL     1       6.870 -32.553  15.127  1.00  0.00     0.053 C 
ATOM      4  C   UNL     1       7.034 -32.188  13.643  1.00  0.00     0.016 C 
BRANCH   3   5
ATOM      5  C   UNL     1       6.149 -33.910  15.294  1.00  0.00     0.015 C 
BRANCH   5   6
ATOM      6  C   UNL     1       5.971 -34.670  13.967  1.00  0.00     0.028 C 
BRANCH   6   7
ATOM      7  C   UNL     1       6.948 -35.808  13.793  1.00  0.00    -0.028 C 
ATOM      8  C   UNL     1       8.194 -35.730  13.254  1.00  0.00    -0.070 CG0
ATOM      9  C   UNL     1       8.943 -37.028  13.070  1.00  0.00     0.039 C 
ATOM     10  G   UNL     1       8.910 -34.429  12.899  1.00  0.00     0.000 G0
ENDBRANCH   6   7
ENDBRANCH   5   6
ENDBRANCH   3   5
ENDBRANCH   1   3
BRANCH   1  11
ATOM     11  C   UNL     1       9.185 -33.636  15.769  1.00  0.00     0.087 C 
BRANCH  11  12
ATOM     12  C   UNL     1      10.371 -33.360  14.799  1.00  0.00     0.066 C 
BRANCH  12  13
ATOM     13  C   UNL     1      10.263 -34.223  13.542  1.00  0.00     0.140 C 
ATOM     14  O   UNL     1      11.246 -34.804  13.103  1.00  0.00    -0.299 OA
BRANCH  13  15
ATOM     15  C   UNL     1       8.925 -34.430  12.879  1.00  0.00     0.106 CG0
ATOM     16  G   UNL     1       8.208 -35.722  13.266  1.00  0.00     0.000 G0
ENDBRANCH  13  15
ENDBRANCH  12  13
BRANCH  12  17
ATOM     17  C   UNL     1      10.607 -31.845  14.464  1.00  0.00    -0.006 C 
ATOM     18  C   UNL     1      10.455 -31.589  12.952  1.00  0.00     0.008 C 
ATOM     19  C   UNL     1      11.991 -31.336  14.906  1.00  0.00     0.008 C 
ENDBRANCH  12  17
ENDBRANCH  11  12
ENDBRANCH   1  11
TORSDOF 1
ENDMDL
MODEL 6
REMARK VINA RESULT:    -1.498      1.802      4.248
REMARK INTER + INTRA:          -1.532
REMARK INTER:                  -2.538
REMARK INTRA:                   1.007
REMARK UNBOUND:                 0.754
REMARK SMILES CC1=CCC[C@H](C)C(=O)C[C@H](C(C)C)C(=O)C1
REMARK SMILES IDX 8 1 9 2 6 3 7 4 5 5 4 6 3 7 2 8 1 9 10 11 11 12 15 13 16 14
REMARK SMILES IDX 17 15 12 17 13 18 14 19
REMARK H PARENT
REMARK Flexibility Score: 70.00
ROOT
ATOM      1  C   UNL     1       8.343 -35.769  13.486  1.00  0.00     0.136 C 
ATOM      2  O   UNL     1       8.586 -36.801  12.877  1.00  0.00    -0.299 OA
ENDROOT
BRANCH   1   3
ATOM      3  C   UNL     1       6.964 -35.127  13.389  1.00  0.00     0.053 C 
ATOM      4  C   UNL     1       5.880 -36.129  12.959  1.00  0.00     0.016 C 
BRANCH   3   5
ATOM      5  C   UNL     1       6.565 -34.396  14.692  1.00  0.00     0.015 C 
BRANCH   5   6
ATOM      6  C   UNL     1       6.707 -32.866  14.597  1.00  0.00     0.028 C 
BRANCH   6   7
ATOM      7  C   UNL     1       6.990 -32.207  15.925  1.00  0.00    -0.028 C 
ATOM      8  C   UNL     1       8.119 -32.342  16.672  1.00  0.00    -0.070 CG0
ATOM      9  C   UNL     1       8.125 -31.682  18.030  1.00  0.00     0.039 C 
ATOM     10  G   UNL     1       9.394 -33.040  16.204  1.00  0.00     0.000 G0
ENDBRANCH   6   7
ENDBRANCH   5   6
ENDBRANCH   3   5
ENDBRANCH   1   3
BRANCH   1  11
ATOM     11  C   UNL     1       9.437 -35.116  14.299  1.00  0.00     0.087 C 
BRANCH  11  12
ATOM     12  C   UNL     1       9.909 -33.735  13.760  1.00  0.00     0.066 C 
BRANCH  12  13
ATOM     13  C   UNL     1       9.907 -32.684  14.869  1.00  0.00     0.140 C 
ATOM     14  O   UNL     1      10.248 -31.533  14.634  1.00  0.00    -0.299 OA
BRANCH  13  15
ATOM     15  C   UNL     1       9.405 -33.038  16.247  1.00  0.00     0.106 CG0
ATOM     16  G   UNL     1       8.123 -32.323  16.668  1.00  0.00     0.000 G0
ENDBRANCH  13  15
ENDBRANCH  12  13
BRANCH  12  17
ATOM     17  C   UNL     1      11.266 -33.766  12.971  1.00  0.00    -0.006 C 
ATOM     18  C   UNL     1      11.869 -35.185  12.976  1.00  0.00     0.008 C 
ATOM     19  C   UNL     1      12.314 -32.790  13.532  1.00  0.00     0.008 C 
ENDBRANCH  12  17
ENDBRANCH  11  12
ENDBRANCH   1  11
TORSDOF 1
ENDMDL
MODEL 7
REMARK VINA RESULT:    -1.083      1.992      5.379
REMARK INTER + INTRA:          -0.899
REMARK INTER:                  -1.209
REMARK INTRA:                   0.310
REMARK UNBOUND:                 0.754
REMARK SMILES CC1=CCC[C@H](C)C(=O)C[C@H](C(C)C)C(=O)C1
REMARK SMILES IDX 8 1 9 2 6 3 7 4 5 5 4 6 3 7 2 8 1 9 10 11 11 12 15 13 16 14
REMARK SMILES IDX 17 15 12 17 13 18 14 19
REMARK H PARENT
REMARK Flexibility Score: 70.00
ROOT
ATOM      1  C   UNL     1       7.784 -32.511  15.991  1.00  0.00     0.136 C 
ATOM      2  O   UNL     1       6.782 -32.053  15.461  1.00  0.00    -0.299 OA
ENDROOT
BRANCH   1   3
ATOM      3  C   UNL     1       8.250 -31.979  17.342  1.00  0.00     0.053 C 
ATOM      4  C   UNL     1       8.746 -33.099  18.271  1.00  0.00     0.016 C 
BRANCH   3   5
ATOM      5  C   UNL     1       9.307 -30.861  17.199  1.00  0.00     0.015 C 
BRANCH   5   6
ATOM      6  C   UNL     1      10.746 -31.396  17.094  1.00  0.00     0.028 C 
BRANCH   6   7
ATOM      7  C   UNL     1      11.565 -30.709  16.027  1.00  0.00    -0.028 C 
ATOM      8  C   UNL     1      11.868 -31.201  14.797  1.00  0.00    -0.070 CG0
ATOM      9  C   UNL     1      12.808 -30.382  13.944  1.00  0.00     0.039 C 
ATOM     10  G   UNL     1      11.269 -32.470  14.194  1.00  0.00     0.000 G0
ENDBRANCH   6   7
ENDBRANCH   5   6
ENDBRANCH   3   5
ENDBRANCH   1   3
BRANCH   1  11
ATOM     11  C   UNL     1       8.579 -33.575  15.271  1.00  0.00     0.087 C 
BRANCH  11  12
ATOM     12  C   UNL     1       8.798 -33.306  13.754  1.00  0.00     0.066 C 
BRANCH  12  13
ATOM     13  C   UNL     1       9.913 -32.284  13.534  1.00  0.00     0.140 C 
ATOM     14  O   UNL     1       9.708 -31.274  12.875  1.00  0.00    -0.299 OA
BRANCH  13  15
ATOM     15  C   UNL     1      11.255 -32.473  14.197  1.00  0.00     0.106 CG0
ATOM     16  G   UNL     1      11.861 -31.205  14.796  1.00  0.00     0.000 G0
ENDBRANCH  13  15
ENDBRANCH  12  13
BRANCH  12  17
ATOM     17  C   UNL     1       8.990 -34.595  12.879  1.00  0.00    -0.006 C 
ATOM     18  C   UNL     1       7.797 -35.556  13.051  1.00  0.00     0.008 C 
ATOM     19  C   UNL     1      10.283 -35.362  13.207  1.00  0.00     0.008 C 
ENDBRANCH  12  17
ENDBRANCH  11  12
ENDBRANCH   1  11
TORSDOF 1
ENDMDL
MODEL 8
REMARK VINA RESULT:    -0.572      1.528      2.629
REMARK INTER + INTRA:          -0.120
REMARK INTER:                  -1.936
REMARK INTRA:                   1.816
REMARK UNBOUND:                 0.754
REMARK SMILES CC1=CCC[C@H](C)C(=O)C[C@H](C(C)C)C(=O)C1
REMARK SMILES IDX 8 1 9 2 6 3 7 4 5 5 4 6 3 7 2 8 1 9 10 11 11 12 15 13 16 14
REMARK SMILES IDX 17 15 12 17 13 18 14 19
REMARK H PARENT
REMARK Flexibility Score: 70.00
ROOT
ATOM      1  C   UNL     1       6.924 -32.938  13.620  1.00  0.00     0.136 C 
ATOM      2  O   UNL     1       7.030 -31.879  13.019  1.00  0.00    -0.299 OA
ENDROOT
BRANCH   1   3
ATOM      3  C   UNL     1       7.060 -34.261  12.875  1.00  0.00     0.053 C 
ATOM      4  C   UNL     1       8.467 -34.866  13.009  1.00  0.00     0.016 C 
BRANCH   3   5
ATOM      5  C   UNL     1       5.972 -35.279  13.285  1.00  0.00     0.015 C 
BRANCH   5   6
ATOM      6  C   UNL     1       6.549 -36.599  13.828  1.00  0.00     0.028 C 
BRANCH   6   7
ATOM      7  C   UNL     1       6.368 -36.764  15.318  1.00  0.00    -0.028 C 
ATOM      8  C   UNL     1       7.163 -36.248  16.292  1.00  0.00    -0.070 CG0
ATOM      9  C   UNL     1       6.854 -36.651  17.714  1.00  0.00     0.039 C 
ATOM     10  G   UNL     1       8.284 -35.238  16.058  1.00  0.00     0.000 G0
ENDBRANCH   6   7
ENDBRANCH   5   6
ENDBRANCH   3   5
ENDBRANCH   1   3
BRANCH   1  11
ATOM     11  C   UNL     1       6.611 -32.920  15.099  1.00  0.00     0.087 C 
BRANCH  11  12
ATOM     12  C   UNL     1       7.841 -32.666  16.019  1.00  0.00     0.066 C 
BRANCH  12  13
ATOM     13  C   UNL     1       8.221 -33.931  16.787  1.00  0.00     0.140 C 
ATOM     14  O   UNL     1       8.389 -33.894  17.998  1.00  0.00    -0.299 OA
BRANCH  13  15
ATOM     15  C   UNL     1       8.312 -35.255  16.070  1.00  0.00     0.106 CG0
ATOM     16  G   UNL     1       7.135 -36.199  16.309  1.00  0.00     0.000 G0
ENDBRANCH  13  15
ENDBRANCH  12  13
BRANCH  12  17
ATOM     17  C   UNL     1       9.074 -32.012  15.302  1.00  0.00    -0.006 C 
ATOM     18  C   UNL     1       9.953 -33.087  14.634  1.00  0.00     0.008 C 
ATOM     19  C   UNL     1       9.957 -31.184  16.252  1.00  0.00     0.008 C 
ENDBRANCH  12  17
ENDBRANCH  11  12
ENDBRANCH   1  11
TORSDOF 1
ENDMDL
MODEL 9
REMARK VINA RESULT:     0.164      1.628      2.373
REMARK INTER + INTRA:           1.004
REMARK INTER:                  -1.289
REMARK INTRA:                   2.293
REMARK UNBOUND:                 0.754
REMARK SMILES CC1=CCC[C@H](C)C(=O)C[C@H](C(C)C)C(=O)C1
REMARK SMILES IDX 8 1 9 2 6 3 7 4 5 5 4 6 3 7 2 8 1 9 10 11 11 12 15 13 16 14
REMARK SMILES IDX 17 15 12 17 13 18 14 19
REMARK H PARENT
REMARK Flexibility Score: 70.00
ROOT
ATOM      1  C   UNL     1      10.215 -31.632  15.315  1.00  0.00     0.136 C 
ATOM      2  O   UNL     1      10.809 -31.586  16.382  1.00  0.00    -0.299 OA
ENDROOT
BRANCH   1   3
ATOM      3  C   UNL     1      10.988 -31.573  14.002  1.00  0.00     0.053 C 
ATOM      4  C   UNL     1      12.423 -31.055  14.191  1.00  0.00     0.016 C 
BRANCH   3   5
ATOM      5  C   UNL     1      10.975 -32.925  13.253  1.00  0.00     0.015 C 
BRANCH   5   6
ATOM      6  C   UNL     1      10.533 -34.105  14.138  1.00  0.00     0.028 C 
BRANCH   6   7
ATOM      7  C   UNL     1       9.612 -35.071  13.433  1.00  0.00    -0.028 C 
ATOM      8  C   UNL     1       8.299 -35.286  13.709  1.00  0.00    -0.070 CG0
ATOM      9  C   UNL     1       7.611 -36.395  12.949  1.00  0.00     0.039 C 
ATOM     10  G   UNL     1       7.460 -34.443  14.668  1.00  0.00     0.000 G0
ENDBRANCH   6   7
ENDBRANCH   5   6
ENDBRANCH   3   5
ENDBRANCH   1   3
BRANCH   1  11
ATOM     11  C   UNL     1       8.705 -31.701  15.312  1.00  0.00     0.087 C 
BRANCH  11  12
ATOM     12  C   UNL     1       8.096 -32.610  16.419  1.00  0.00     0.066 C 
BRANCH  12  13
ATOM     13  C   UNL     1       8.067 -34.072  15.974  1.00  0.00     0.140 C 
ATOM     14  O   UNL     1       8.504 -34.951  16.703  1.00  0.00    -0.299 OA
BRANCH  13  15
ATOM     15  C   UNL     1       7.424 -34.451  14.663  1.00  0.00     0.106 CG0
ATOM     16  G   UNL     1       8.302 -35.287  13.733  1.00  0.00     0.000 G0
ENDBRANCH  13  15
ENDBRANCH  12  13
BRANCH  12  17
ATOM     17  C   UNL     1       8.736 -32.433  17.841  1.00  0.00    -0.006 C 
ATOM     18  C   UNL     1       8.037 -33.341  18.872  1.00  0.00     0.008 C 
ATOM     19  C   UNL     1       8.680 -30.983  18.353  1.00  0.00     0.008 C 
ENDBRANCH  12  17
ENDBRANCH  11  12
ENDBRANCH   1  11
TORSDOF 1
ENDMDL
