MODEL 1
REMARK VINA RESULT:    -4.159      0.000      0.000
REMARK INTER + INTRA:          -7.822
REMARK INTER:                  -7.077
REMARK INTRA:                  -0.744
REMARK UNBOUND:                -0.744
REMARK SMILES CCCCCCCCCCCCCC(=O)[O-]
REMARK SMILES IDX 8 1 9 2 10 3 11 4 12 5 13 6 14 7 15 8 16 9 7 10 6 11 5 12
REMARK SMILES IDX 4 13 3 14 2 15 1 16
REMARK H PARENT
REMARK Flexibility Score: inf
ROOT
ATOM      1  C   UNL     1      31.649  -0.461  42.293  1.00  0.00     0.000 C 
ENDROOT
BRANCH   1   2
ATOM      2  C   UNL     1      33.030  -0.302  42.961  1.00  0.00     0.000 C 
BRANCH   2   3
ATOM      3  C   UNL     1      34.236  -0.564  42.037  1.00  0.00     0.000 C 
BRANCH   3   4
ATOM      4  C   UNL     1      35.557  -0.889  42.763  1.00  0.00     0.000 C 
BRANCH   4   5
ATOM      5  C   UNL     1      36.415  -1.976  42.092  1.00  0.00     0.006 C 
BRANCH   5   6
ATOM      6  C   UNL     1      35.724  -3.345  42.060  1.00  0.00     0.053 C 
BRANCH   6   7
ATOM      7  C   UNL     1      35.706  -3.953  43.428  1.00  0.00     0.041 C 
ATOM      8  O   UNL     1      34.615  -4.288  43.959  1.00  0.00    -0.550 OA
ATOM      9  O   UNL     1      36.900  -4.195  44.096  1.00  0.00    -0.550 OA
ENDBRANCH   6   7
ENDBRANCH   5   6
ENDBRANCH   4   5
ENDBRANCH   3   4
ENDBRANCH   2   3
ENDBRANCH   1   2
BRANCH   1  10
ATOM     10  C   UNL     1      30.601  -1.201  43.143  1.00  0.00     0.000 C 
BRANCH  10  11
ATOM     11  C   UNL     1      31.159  -1.671  44.498  1.00  0.00    -0.000 C 
BRANCH  11  12
ATOM     12  C   UNL     1      30.052  -1.987  45.517  1.00  0.00    -0.000 C 
BRANCH  12  13
ATOM     13  C   UNL     1      28.710  -1.330  45.152  1.00  0.00    -0.000 C 
BRANCH  13  14
ATOM     14  C   UNL     1      27.545  -1.851  46.009  1.00  0.00    -0.000 C 
BRANCH  14  15
ATOM     15  C   UNL     1      27.871  -3.182  46.704  1.00  0.00    -0.003 C 
ATOM     16  C   UNL     1      26.742  -3.603  47.640  1.00  0.00     0.004 C 
ENDBRANCH  14  15
ENDBRANCH  13  14
ENDBRANCH  12  13
ENDBRANCH  11  12
ENDBRANCH  10  11
ENDBRANCH   1  10
TORSDOF 12
ENDMDL
MODEL 2
REMARK VINA RESULT:    -4.040      2.738      7.163
REMARK INTER + INTRA:          -7.618
REMARK INTER:                  -6.943
REMARK INTRA:                  -0.674
REMARK UNBOUND:                -0.744
REMARK SMILES CCCCCCCCCCCCCC(=O)[O-]
REMARK SMILES IDX 8 1 9 2 10 3 11 4 12 5 13 6 14 7 15 8 16 9 7 10 6 11 5 12
REMARK SMILES IDX 4 13 3 14 2 15 1 16
REMARK H PARENT
REMARK Flexibility Score: inf
ROOT
ATOM      1  C   UNL     1      31.897  -0.372  42.228  1.00  0.00     0.000 C 
ENDROOT
BRANCH   1   2
ATOM      2  C   UNL     1      30.795  -1.137  42.987  1.00  0.00     0.000 C 
BRANCH   2   3
ATOM      3  C   UNL     1      31.158  -1.543  44.429  1.00  0.00     0.000 C 
BRANCH   3   4
ATOM      4  C   UNL     1      30.073  -1.242  45.485  1.00  0.00     0.000 C 
BRANCH   4   5
ATOM      5  C   UNL     1      28.627  -1.472  45.012  1.00  0.00     0.006 C 
BRANCH   5   6
ATOM      6  C   UNL     1      27.679  -1.853  46.156  1.00  0.00     0.053 C 
BRANCH   6   7
ATOM      7  C   UNL     1      27.782  -3.316  46.453  1.00  0.00     0.041 C 
ATOM      8  O   UNL     1      28.548  -4.049  45.775  1.00  0.00    -0.550 OA
ATOM      9  O   UNL     1      27.067  -3.862  47.512  1.00  0.00    -0.550 OA
ENDBRANCH   6   7
ENDBRANCH   5   6
ENDBRANCH   4   5
ENDBRANCH   3   4
ENDBRANCH   2   3
ENDBRANCH   1   2
BRANCH   1  10
ATOM     10  C   UNL     1      33.186  -0.126  43.032  1.00  0.00     0.000 C 
BRANCH  10  11
ATOM     11  C   UNL     1      34.424  -0.769  42.383  1.00  0.00    -0.000 C 
BRANCH  11  12
ATOM     12  C   UNL     1      35.742  -0.174  42.903  1.00  0.00    -0.000 C 
BRANCH  12  13
ATOM     13  C   UNL     1      36.716  -1.252  43.409  1.00  0.00    -0.000 C 
BRANCH  13  14
ATOM     14  C   UNL     1      36.499  -2.612  42.726  1.00  0.00    -0.000 C 
BRANCH  14  15
ATOM     15  C   UNL     1      36.362  -3.765  43.731  1.00  0.00    -0.003 C 
ATOM     16  C   UNL     1      34.905  -4.197  43.876  1.00  0.00     0.004 C 
ENDBRANCH  14  15
ENDBRANCH  13  14
ENDBRANCH  12  13
ENDBRANCH  11  12
ENDBRANCH  10  11
ENDBRANCH   1  10
TORSDOF 12
ENDMDL
MODEL 3
REMARK VINA RESULT:    -4.020      1.491      1.907
REMARK INTER + INTRA:          -7.584
REMARK INTER:                  -6.525
REMARK INTRA:                  -1.059
REMARK UNBOUND:                -0.744
REMARK SMILES CCCCCCCCCCCCCC(=O)[O-]
REMARK SMILES IDX 8 1 9 2 10 3 11 4 12 5 13 6 14 7 15 8 16 9 7 10 6 11 5 12
REMARK SMILES IDX 4 13 3 14 2 15 1 16
REMARK H PARENT
REMARK Flexibility Score: inf
ROOT
ATOM      1  C   UNL     1      31.878  -0.737  42.821  1.00  0.00     0.000 C 
ENDROOT
BRANCH   1   2
ATOM      2  C   UNL     1      33.103   0.165  42.568  1.00  0.00     0.000 C 
BRANCH   2   3
ATOM      3  C   UNL     1      34.401  -0.585  42.205  1.00  0.00     0.000 C 
BRANCH   3   4
ATOM      4  C   UNL     1      35.639  -0.184  43.032  1.00  0.00     0.000 C 
BRANCH   4   5
ATOM      5  C   UNL     1      36.647  -1.320  43.281  1.00  0.00     0.006 C 
BRANCH   5   6
ATOM      6  C   UNL     1      36.286  -2.612  42.537  1.00  0.00     0.053 C 
BRANCH   6   7
ATOM      7  C   UNL     1      36.120  -3.741  43.504  1.00  0.00     0.041 C 
ATOM      8  O   UNL     1      34.977  -4.217  43.733  1.00  0.00    -0.550 OA
ATOM      9  O   UNL     1      37.234  -4.303  44.114  1.00  0.00    -0.550 OA
ENDBRANCH   6   7
ENDBRANCH   5   6
ENDBRANCH   4   5
ENDBRANCH   3   4
ENDBRANCH   2   3
ENDBRANCH   1   2
BRANCH   1  10
ATOM     10  C   UNL     1      30.656  -0.431  41.938  1.00  0.00     0.000 C 
BRANCH  10  11
ATOM     11  C   UNL     1      29.545  -1.487  42.074  1.00  0.00    -0.000 C 
BRANCH  11  12
ATOM     12  C   UNL     1      28.425  -1.049  43.031  1.00  0.00    -0.000 C 
BRANCH  12  13
ATOM     13  C   UNL     1      28.410  -1.866  44.335  1.00  0.00    -0.000 C 
BRANCH  13  14
ATOM     14  C   UNL     1      29.053  -1.111  45.510  1.00  0.00    -0.000 C 
BRANCH  14  15
ATOM     15  C   UNL     1      30.319  -1.804  46.036  1.00  0.00    -0.003 C 
ATOM     16  C   UNL     1      30.582  -3.108  45.289  1.00  0.00     0.004 C 
ENDBRANCH  14  15
ENDBRANCH  13  14
ENDBRANCH  12  13
ENDBRANCH  11  12
ENDBRANCH  10  11
ENDBRANCH   1  10
TORSDOF 12
ENDMDL
MODEL 4
REMARK VINA RESULT:    -3.782     12.294     15.332
REMARK INTER + INTRA:          -7.180
REMARK INTER:                  -5.622
REMARK INTRA:                  -1.558
REMARK UNBOUND:                -0.744
REMARK SMILES CCCCCCCCCCCCCC(=O)[O-]
REMARK SMILES IDX 8 1 9 2 10 3 11 4 12 5 13 6 14 7 15 8 16 9 7 10 6 11 5 12
REMARK SMILES IDX 4 13 3 14 2 15 1 16
REMARK H PARENT
REMARK Flexibility Score: inf
ROOT
ATOM      1  C   UNL     1      21.796 -11.686  45.739  1.00  0.00     0.000 C 
ENDROOT
BRANCH   1   2
ATOM      2  C   UNL     1      22.046 -10.696  44.583  1.00  0.00     0.000 C 
BRANCH   2   3
ATOM      3  C   UNL     1      20.813  -9.881  44.146  1.00  0.00     0.000 C 
BRANCH   3   4
ATOM      4  C   UNL     1      20.519  -9.904  42.632  1.00  0.00     0.000 C 
BRANCH   4   5
ATOM      5  C   UNL     1      20.674  -8.549  41.920  1.00  0.00     0.006 C 
BRANCH   5   6
ATOM      6  C   UNL     1      21.783  -7.680  42.527  1.00  0.00     0.053 C 
BRANCH   6   7
ATOM      7  C   UNL     1      21.354  -6.248  42.580  1.00  0.00     0.041 C 
ATOM      8  O   UNL     1      22.013  -5.365  41.971  1.00  0.00    -0.550 OA
ATOM      9  O   UNL     1      20.196  -5.894  43.262  1.00  0.00    -0.550 OA
ENDBRANCH   6   7
ENDBRANCH   5   6
ENDBRANCH   4   5
ENDBRANCH   3   4
ENDBRANCH   2   3
ENDBRANCH   1   2
BRANCH   1  10
ATOM     10  C   UNL     1      20.391 -11.614  46.362  1.00  0.00     0.000 C 
BRANCH  10  11
ATOM     11  C   UNL     1      19.545 -12.864  46.065  1.00  0.00    -0.000 C 
BRANCH  11  12
ATOM     12  C   UNL     1      20.375 -14.158  46.076  1.00  0.00    -0.000 C 
BRANCH  12  13
ATOM     13  C   UNL     1      20.401 -14.852  44.703  1.00  0.00    -0.000 C 
BRANCH  13  14
ATOM     14  C   UNL     1      19.349 -14.286  43.735  1.00  0.00    -0.000 C 
BRANCH  14  15
ATOM     15  C   UNL     1      19.976 -13.644  42.488  1.00  0.00    -0.003 C 
ATOM     16  C   UNL     1      21.498 -13.761  42.518  1.00  0.00     0.004 C 
ENDBRANCH  14  15
ENDBRANCH  13  14
ENDBRANCH  12  13
ENDBRANCH  11  12
ENDBRANCH  10  11
ENDBRANCH   1  10
TORSDOF 12
ENDMDL
MODEL 5
REMARK VINA RESULT:    -3.678      2.711      7.070
REMARK INTER + INTRA:          -7.003
REMARK INTER:                  -6.272
REMARK INTRA:                  -0.730
REMARK UNBOUND:                -0.744
REMARK SMILES CCCCCCCCCCCCCC(=O)[O-]
REMARK SMILES IDX 8 1 9 2 10 3 11 4 12 5 13 6 14 7 15 8 16 9 7 10 6 11 5 12
REMARK SMILES IDX 4 13 3 14 2 15 1 16
REMARK H PARENT
REMARK Flexibility Score: inf
ROOT
ATOM      1  C   UNL     1      31.829  -0.872  42.983  1.00  0.00     0.000 C 
ENDROOT
BRANCH   1   2
ATOM      2  C   UNL     1      30.861  -0.410  41.875  1.00  0.00     0.000 C 
BRANCH   2   3
ATOM      3  C   UNL     1      29.378  -0.754  42.118  1.00  0.00     0.000 C 
BRANCH   3   4
ATOM      4  C   UNL     1      29.121  -1.772  43.248  1.00  0.00     0.000 C 
BRANCH   4   5
ATOM      5  C   UNL     1      28.633  -1.160  44.573  1.00  0.00     0.006 C 
BRANCH   5   6
ATOM      6  C   UNL     1      29.233  -1.850  45.805  1.00  0.00     0.053 C 
BRANCH   6   7
ATOM      7  C   UNL     1      28.526  -3.141  46.075  1.00  0.00     0.041 C 
ATOM      8  O   UNL     1      27.494  -3.161  46.797  1.00  0.00    -0.550 OA
ATOM      9  O   UNL     1      28.978  -4.317  45.489  1.00  0.00    -0.550 OA
ENDBRANCH   6   7
ENDBRANCH   5   6
ENDBRANCH   4   5
ENDBRANCH   3   4
ENDBRANCH   2   3
ENDBRANCH   1   2
BRANCH   1  10
ATOM     10  C   UNL     1      33.101  -0.017  43.129  1.00  0.00     0.000 C 
BRANCH  10  11
ATOM     11  C   UNL     1      34.175  -0.369  42.086  1.00  0.00    -0.000 C 
BRANCH  11  12
ATOM     12  C   UNL     1      35.595  -0.015  42.556  1.00  0.00    -0.000 C 
BRANCH  12  13
ATOM     13  C   UNL     1      36.544  -1.227  42.530  1.00  0.00    -0.000 C 
BRANCH  13  14
ATOM     14  C   UNL     1      35.801  -2.552  42.291  1.00  0.00    -0.000 C 
BRANCH  14  15
ATOM     15  C   UNL     1      35.834  -3.478  43.515  1.00  0.00    -0.003 C 
ATOM     16  C   UNL     1      37.192  -4.163  43.649  1.00  0.00     0.004 C 
ENDBRANCH  14  15
ENDBRANCH  13  14
ENDBRANCH  12  13
ENDBRANCH  11  12
ENDBRANCH  10  11
ENDBRANCH   1  10
TORSDOF 12
ENDMDL
MODEL 6
REMARK VINA RESULT:    -3.613     12.108     14.760
REMARK INTER + INTRA:          -6.891
REMARK INTER:                  -5.945
REMARK INTRA:                  -0.947
REMARK UNBOUND:                -0.744
REMARK SMILES CCCCCCCCCCCCCC(=O)[O-]
REMARK SMILES IDX 8 1 9 2 10 3 11 4 12 5 13 6 14 7 15 8 16 9 7 10 6 11 5 12
REMARK SMILES IDX 4 13 3 14 2 15 1 16
REMARK H PARENT
REMARK Flexibility Score: inf
ROOT
ATOM      1  C   UNL     1      20.436 -10.144  44.803  1.00  0.00     0.000 C 
ENDROOT
BRANCH   1   2
ATOM      2  C   UNL     1      21.482  -9.530  43.852  1.00  0.00     0.000 C 
BRANCH   2   3
ATOM      3  C   UNL     1      20.950  -8.417  42.927  1.00  0.00     0.000 C 
BRANCH   3   4
ATOM      4  C   UNL     1      22.033  -7.507  42.311  1.00  0.00     0.000 C 
BRANCH   4   5
ATOM      5  C   UNL     1      21.661  -6.015  42.239  1.00  0.00     0.006 C 
BRANCH   5   6
ATOM      6  C   UNL     1      20.518  -5.639  43.190  1.00  0.00     0.053 C 
BRANCH   6   7
ATOM      7  C   UNL     1      20.698  -4.242  43.695  1.00  0.00     0.041 C 
ATOM      8  O   UNL     1      20.962  -3.307  42.894  1.00  0.00    -0.550 OA
ATOM      9  O   UNL     1      20.524  -3.963  45.045  1.00  0.00    -0.550 OA
ENDBRANCH   6   7
ENDBRANCH   5   6
ENDBRANCH   4   5
ENDBRANCH   3   4
ENDBRANCH   2   3
ENDBRANCH   1   2
BRANCH   1  10
ATOM     10  C   UNL     1      21.011 -11.086  45.875  1.00  0.00     0.000 C 
BRANCH  10  11
ATOM     11  C   UNL     1      19.950 -11.548  46.890  1.00  0.00    -0.000 C 
BRANCH  11  12
ATOM     12  C   UNL     1      19.749 -13.072  46.885  1.00  0.00    -0.000 C 
BRANCH  12  13
ATOM     13  C   UNL     1      20.863 -13.811  46.123  1.00  0.00    -0.000 C 
BRANCH  13  14
ATOM     14  C   UNL     1      20.314 -14.714  45.005  1.00  0.00    -0.000 C 
BRANCH  14  15
ATOM     15  C   UNL     1      20.401 -14.059  43.619  1.00  0.00    -0.003 C 
ATOM     16  C   UNL     1      21.821 -13.585  43.324  1.00  0.00     0.004 C 
ENDBRANCH  14  15
ENDBRANCH  13  14
ENDBRANCH  12  13
ENDBRANCH  11  12
ENDBRANCH  10  11
ENDBRANCH   1  10
TORSDOF 12
ENDMDL
MODEL 7
REMARK VINA RESULT:    -3.593      1.154      2.161
REMARK INTER + INTRA:          -6.858
REMARK INTER:                  -6.136
REMARK INTRA:                  -0.723
REMARK UNBOUND:                -0.744
REMARK SMILES CCCCCCCCCCCCCC(=O)[O-]
REMARK SMILES IDX 8 1 9 2 10 3 11 4 12 5 13 6 14 7 15 8 16 9 7 10 6 11 5 12
REMARK SMILES IDX 4 13 3 14 2 15 1 16
REMARK H PARENT
REMARK Flexibility Score: inf
ROOT
ATOM      1  C   UNL     1      31.456  -2.401  44.776  1.00  0.00     0.000 C 
ENDROOT
BRANCH   1   2
ATOM      2  C   UNL     1      31.323  -1.249  43.760  1.00  0.00     0.000 C 
BRANCH   2   3
ATOM      3  C   UNL     1      32.581  -0.373  43.599  1.00  0.00     0.000 C 
BRANCH   3   4
ATOM      4  C   UNL     1      33.464  -0.717  42.382  1.00  0.00     0.000 C 
BRANCH   4   5
ATOM      5  C   UNL     1      34.941  -1.001  42.712  1.00  0.00     0.006 C 
BRANCH   5   6
ATOM      6  C   UNL     1      35.232  -2.494  42.904  1.00  0.00     0.053 C 
BRANCH   6   7
ATOM      7  C   UNL     1      36.643  -2.696  43.359  1.00  0.00     0.041 C 
ATOM      8  O   UNL     1      37.477  -1.758  43.274  1.00  0.00    -0.550 OA
ATOM      9  O   UNL     1      37.024  -3.907  43.925  1.00  0.00    -0.550 OA
ENDBRANCH   6   7
ENDBRANCH   5   6
ENDBRANCH   4   5
ENDBRANCH   3   4
ENDBRANCH   2   3
ENDBRANCH   1   2
BRANCH   1  10
ATOM     10  C   UNL     1      30.600  -2.247  46.045  1.00  0.00     0.000 C 
BRANCH  10  11
ATOM     11  C   UNL     1      29.801  -0.932  46.067  1.00  0.00    -0.000 C 
BRANCH  11  12
ATOM     12  C   UNL     1      28.351  -1.112  45.588  1.00  0.00    -0.000 C 
BRANCH  12  13
ATOM     13  C   UNL     1      27.837  -2.548  45.791  1.00  0.00    -0.000 C 
BRANCH  13  14
ATOM     14  C   UNL     1      26.720  -2.632  46.844  1.00  0.00    -0.000 C 
BRANCH  14  15
ATOM     15  C   UNL     1      26.775  -3.929  47.664  1.00  0.00    -0.003 C 
ATOM     16  C   UNL     1      26.986  -3.632  49.146  1.00  0.00     0.004 C 
ENDBRANCH  14  15
ENDBRANCH  13  14
ENDBRANCH  12  13
ENDBRANCH  11  12
ENDBRANCH  10  11
ENDBRANCH   1  10
TORSDOF 12
ENDMDL
MODEL 8
REMARK VINA RESULT:    -3.579     12.241     15.905
REMARK INTER + INTRA:          -6.833
REMARK INTER:                  -5.591
REMARK INTRA:                  -1.242
REMARK UNBOUND:                -0.744
REMARK SMILES CCCCCCCCCCCCCC(=O)[O-]
REMARK SMILES IDX 8 1 9 2 10 3 11 4 12 5 13 6 14 7 15 8 16 9 7 10 6 11 5 12
REMARK SMILES IDX 4 13 3 14 2 15 1 16
REMARK H PARENT
REMARK Flexibility Score: inf
ROOT
ATOM      1  C   UNL     1      20.553 -11.311  46.151  1.00  0.00     0.000 C 
ENDROOT
BRANCH   1   2
ATOM      2  C   UNL     1      19.918 -12.633  46.626  1.00  0.00     0.000 C 
BRANCH   2   3
ATOM      3  C   UNL     1      20.766 -13.894  46.368  1.00  0.00     0.000 C 
BRANCH   3   4
ATOM      4  C   UNL     1      20.086 -14.972  45.500  1.00  0.00     0.000 C 
BRANCH   4   5
ATOM      5  C   UNL     1      19.003 -14.445  44.542  1.00  0.00     0.006 C 
BRANCH   5   6
ATOM      6  C   UNL     1      19.406 -14.558  43.067  1.00  0.00     0.053 C 
BRANCH   6   7
ATOM      7  C   UNL     1      20.395 -13.493  42.713  1.00  0.00     0.041 C 
ATOM      8  O   UNL     1      21.629 -13.743  42.728  1.00  0.00    -0.550 OA
ATOM      9  O   UNL     1      19.953 -12.236  42.319  1.00  0.00    -0.550 OA
ENDBRANCH   6   7
ENDBRANCH   5   6
ENDBRANCH   4   5
ENDBRANCH   3   4
ENDBRANCH   2   3
ENDBRANCH   1   2
BRANCH   1  10
ATOM     10  C   UNL     1      21.938 -11.457  45.495  1.00  0.00     0.000 C 
BRANCH  10  11
ATOM     11  C   UNL     1      22.166 -10.445  44.359  1.00  0.00    -0.000 C 
BRANCH  11  12
ATOM     12  C   UNL     1      21.004  -9.451  44.208  1.00  0.00    -0.000 C 
BRANCH  12  13
ATOM     13  C   UNL     1      20.888  -8.891  42.780  1.00  0.00    -0.000 C 
BRANCH  13  14
ATOM     14  C   UNL     1      20.258  -7.489  42.745  1.00  0.00    -0.000 C 
BRANCH  14  15
ATOM     15  C   UNL     1      21.306  -6.372  42.634  1.00  0.00    -0.003 C 
ATOM     16  C   UNL     1      22.568  -6.871  41.936  1.00  0.00     0.004 C 
ENDBRANCH  14  15
ENDBRANCH  13  14
ENDBRANCH  12  13
ENDBRANCH  11  12
ENDBRANCH  10  11
ENDBRANCH   1  10
TORSDOF 12
ENDMDL
MODEL 9
REMARK VINA RESULT:    -3.472      3.058      7.227
REMARK INTER + INTRA:          -6.652
REMARK INTER:                  -5.949
REMARK INTRA:                  -0.703
REMARK UNBOUND:                -0.744
REMARK SMILES CCCCCCCCCCCCCC(=O)[O-]
REMARK SMILES IDX 8 1 9 2 10 3 11 4 12 5 13 6 14 7 15 8 16 9 7 10 6 11 5 12
REMARK SMILES IDX 4 13 3 14 2 15 1 16
REMARK H PARENT
REMARK Flexibility Score: inf
ROOT
ATOM      1  C   UNL     1      32.385  -1.053  42.928  1.00  0.00     0.000 C 
ENDROOT
BRANCH   1   2
ATOM      2  C   UNL     1      31.458  -0.937  44.154  1.00  0.00     0.000 C 
BRANCH   2   3
ATOM      3  C   UNL     1      31.356  -2.210  45.018  1.00  0.00     0.000 C 
BRANCH   3   4
ATOM      4  C   UNL     1      30.331  -2.138  46.169  1.00  0.00     0.000 C 
BRANCH   4   5
ATOM      5  C   UNL     1      29.306  -0.996  46.053  1.00  0.00     0.006 C 
BRANCH   5   6
ATOM      6  C   UNL     1      27.961  -1.459  45.479  1.00  0.00     0.053 C 
BRANCH   6   7
ATOM      7  C   UNL     1      28.097  -1.779  44.024  1.00  0.00     0.041 C 
ATOM      8  O   UNL     1      28.073  -2.976  43.633  1.00  0.00    -0.550 OA
ATOM      9  O   UNL     1      28.200  -0.753  43.093  1.00  0.00    -0.550 OA
ENDBRANCH   6   7
ENDBRANCH   5   6
ENDBRANCH   4   5
ENDBRANCH   3   4
ENDBRANCH   2   3
ENDBRANCH   1   2
BRANCH   1  10
ATOM     10  C   UNL     1      33.560  -0.059  42.909  1.00  0.00     0.000 C 
BRANCH  10  11
ATOM     11  C   UNL     1      34.749  -0.562  42.071  1.00  0.00    -0.000 C 
BRANCH  11  12
ATOM     12  C   UNL     1      36.064  -0.592  42.867  1.00  0.00    -0.000 C 
BRANCH  12  13
ATOM     13  C   UNL     1      37.016  -1.702  42.389  1.00  0.00    -0.000 C 
BRANCH  13  14
ATOM     14  C   UNL     1      37.325  -2.728  43.492  1.00  0.00    -0.000 C 
BRANCH  14  15
ATOM     15  C   UNL     1      36.626  -4.076  43.260  1.00  0.00    -0.003 C 
ATOM     16  C   UNL     1      35.163  -4.016  43.688  1.00  0.00     0.004 C 
ENDBRANCH  14  15
ENDBRANCH  13  14
ENDBRANCH  12  13
ENDBRANCH  11  12
ENDBRANCH  10  11
ENDBRANCH   1  10
TORSDOF 12
ENDMDL
