MODEL 1
REMARK VINA RESULT:    -4.868      0.000      0.000
REMARK INTER + INTRA:          -7.770
REMARK INTER:                  -7.144
REMARK INTRA:                  -0.626
REMARK UNBOUND:                -0.626
REMARK SMILES O=C([O-])CCCCCCCC(=O)[O-]
REMARK SMILES IDX 7 1 6 2 5 3 4 4 2 5 1 6 3 7 8 8 9 9 10 10 11 11 12 12 13 13
REMARK H PARENT
REMARK Flexibility Score: inf
ROOT
ATOM      1  C   UNL     1      46.647  -7.528  24.713  1.00  0.00     0.000 C 
ENDROOT
BRANCH   1   2
ATOM      2  C   UNL     1      47.122  -7.375  23.264  1.00  0.00     0.000 C 
BRANCH   2   3
ATOM      3  C   UNL     1      48.500  -6.705  23.203  1.00  0.00     0.006 C 
BRANCH   3   4
ATOM      4  C   UNL     1      48.604  -5.568  24.223  1.00  0.00     0.053 C 
BRANCH   4   5
ATOM      5  C   UNL     1      49.735  -5.814  25.171  1.00  0.00     0.041 C 
ATOM      6  O   UNL     1      49.845  -5.126  26.219  1.00  0.00    -0.550 OA
ATOM      7  O   UNL     1      50.696  -6.771  24.871  1.00  0.00    -0.550 OA
ENDBRANCH   4   5
ENDBRANCH   3   4
ENDBRANCH   2   3
ENDBRANCH   1   2
BRANCH   1   8
ATOM      8  C   UNL     1      45.125  -7.365  24.813  1.00  0.00     0.000 C 
BRANCH   8   9
ATOM      9  C   UNL     1      44.753  -6.296  25.851  1.00  0.00     0.006 C 
BRANCH   9  10
ATOM     10  C   UNL     1      45.942  -5.914  26.743  1.00  0.00     0.053 C 
BRANCH  10  11
ATOM     11  C   UNL     1      45.944  -4.453  27.072  1.00  0.00     0.041 C 
ATOM     12  O   UNL     1      45.099  -3.984  27.879  1.00  0.00    -0.550 OA
ATOM     13  O   UNL     1      46.900  -3.615  26.513  1.00  0.00    -0.550 OA
ENDBRANCH  10  11
ENDBRANCH   9  10
ENDBRANCH   8   9
ENDBRANCH   1   8
TORSDOF 8
ENDMDL
MODEL 2
REMARK VINA RESULT:    -4.860      1.343      2.073
REMARK INTER + INTRA:          -7.758
REMARK INTER:                  -7.042
REMARK INTRA:                  -0.717
REMARK UNBOUND:                -0.626
REMARK SMILES O=C([O-])CCCCCCCC(=O)[O-]
REMARK SMILES IDX 7 1 6 2 5 3 4 4 2 5 1 6 3 7 8 8 9 9 10 10 11 11 12 12 13 13
REMARK H PARENT
REMARK Flexibility Score: inf
ROOT
ATOM      1  C   UNL     1      45.713  -7.554  26.373  1.00  0.00     0.000 C 
ENDROOT
BRANCH   1   2
ATOM      2  C   UNL     1      45.428  -7.654  24.870  1.00  0.00     0.000 C 
BRANCH   2   3
ATOM      3  C   UNL     1      46.702  -7.417  24.050  1.00  0.00     0.006 C 
BRANCH   3   4
ATOM      4  C   UNL     1      47.945  -7.446  24.944  1.00  0.00     0.053 C 
BRANCH   4   5
ATOM      5  C   UNL     1      49.023  -6.580  24.372  1.00  0.00     0.041 C 
ATOM      6  O   UNL     1      50.227  -6.788  24.671  1.00  0.00    -0.550 OA
ATOM      7  O   UNL     1      48.692  -5.512  23.548  1.00  0.00    -0.550 OA
ENDBRANCH   4   5
ENDBRANCH   3   4
ENDBRANCH   2   3
ENDBRANCH   1   2
BRANCH   1   8
ATOM      8  C   UNL     1      44.682  -6.658  27.071  1.00  0.00     0.000 C 
BRANCH   8   9
ATOM      9  C   UNL     1      44.798  -5.206  26.585  1.00  0.00     0.006 C 
BRANCH   9  10
ATOM     10  C   UNL     1      45.877  -4.423  27.344  1.00  0.00     0.053 C 
BRANCH  10  11
ATOM     11  C   UNL     1      46.975  -3.965  26.434  1.00  0.00     0.041 C 
ATOM     12  O   UNL     1      46.718  -3.206  25.462  1.00  0.00    -0.550 OA
ATOM     13  O   UNL     1      48.288  -4.348  26.679  1.00  0.00    -0.550 OA
ENDBRANCH  10  11
ENDBRANCH   9  10
ENDBRANCH   8   9
ENDBRANCH   1   8
TORSDOF 8
ENDMDL
MODEL 3
REMARK VINA RESULT:    -4.825      1.546      2.020
REMARK INTER + INTRA:          -7.707
REMARK INTER:                  -7.087
REMARK INTRA:                  -0.620
REMARK UNBOUND:                -0.626
REMARK SMILES O=C([O-])CCCCCCCC(=O)[O-]
REMARK SMILES IDX 7 1 6 2 5 3 4 4 2 5 1 6 3 7 8 8 9 9 10 10 11 11 12 12 13 13
REMARK H PARENT
REMARK Flexibility Score: inf
ROOT
ATOM      1  C   UNL     1      45.475  -7.791  24.813  1.00  0.00     0.000 C 
ENDROOT
BRANCH   1   2
ATOM      2  C   UNL     1      46.543  -7.402  23.784  1.00  0.00     0.000 C 
BRANCH   2   3
ATOM      3  C   UNL     1      47.943  -7.425  24.408  1.00  0.00     0.006 C 
BRANCH   3   4
ATOM      4  C   UNL     1      48.664  -6.092  24.191  1.00  0.00     0.053 C 
BRANCH   4   5
ATOM      5  C   UNL     1      49.004  -5.460  25.504  1.00  0.00     0.041 C 
ATOM      6  O   UNL     1      48.128  -4.822  26.145  1.00  0.00    -0.550 OA
ATOM      7  O   UNL     1      50.301  -5.534  25.996  1.00  0.00    -0.550 OA
ENDBRANCH   4   5
ENDBRANCH   3   4
ENDBRANCH   2   3
ENDBRANCH   1   2
BRANCH   1   8
ATOM      8  C   UNL     1      46.039  -7.741  26.239  1.00  0.00     0.000 C 
BRANCH   8   9
ATOM      9  C   UNL     1      45.235  -6.769  27.115  1.00  0.00     0.006 C 
BRANCH   9  10
ATOM     10  C   UNL     1      44.378  -5.808  26.280  1.00  0.00     0.053 C 
BRANCH  10  11
ATOM     11  C   UNL     1      43.319  -5.146  27.108  1.00  0.00     0.041 C 
ATOM     12  O   UNL     1      42.136  -5.072  26.681  1.00  0.00    -0.550 OA
ATOM     13  O   UNL     1      43.630  -4.641  28.363  1.00  0.00    -0.550 OA
ENDBRANCH  10  11
ENDBRANCH   9  10
ENDBRANCH   8   9
ENDBRANCH   1   8
TORSDOF 8
ENDMDL
MODEL 4
REMARK VINA RESULT:    -4.822      1.223      4.210
REMARK INTER + INTRA:          -7.702
REMARK INTER:                  -7.001
REMARK INTRA:                  -0.701
REMARK UNBOUND:                -0.626
REMARK SMILES O=C([O-])CCCCCCCC(=O)[O-]
REMARK SMILES IDX 7 1 6 2 5 3 4 4 2 5 1 6 3 7 8 8 9 9 10 10 11 11 12 12 13 13
REMARK H PARENT
REMARK Flexibility Score: inf
ROOT
ATOM      1  C   UNL     1      45.375  -7.215  26.017  1.00  0.00     0.000 C 
ENDROOT
BRANCH   1   2
ATOM      2  C   UNL     1      44.300  -6.169  26.332  1.00  0.00     0.000 C 
BRANCH   2   3
ATOM      3  C   UNL     1      44.736  -5.261  27.489  1.00  0.00     0.006 C 
BRANCH   3   4
ATOM      4  C   UNL     1      46.242  -4.989  27.436  1.00  0.00     0.053 C 
BRANCH   4   5
ATOM      5  C   UNL     1      46.514  -3.674  26.777  1.00  0.00     0.041 C 
ATOM      6  O   UNL     1      46.920  -3.634  25.586  1.00  0.00    -0.550 OA
ATOM      7  O   UNL     1      46.367  -2.493  27.495  1.00  0.00    -0.550 OA
ENDBRANCH   4   5
ENDBRANCH   3   4
ENDBRANCH   2   3
ENDBRANCH   1   2
BRANCH   1   8
ATOM      8  C   UNL     1      45.445  -7.496  24.511  1.00  0.00     0.000 C 
BRANCH   8   9
ATOM      9  C   UNL     1      46.878  -7.323  23.985  1.00  0.00     0.006 C 
BRANCH   9  10
ATOM     10  C   UNL     1      47.918  -7.353  25.112  1.00  0.00     0.053 C 
BRANCH  10  11
ATOM     11  C   UNL     1      48.983  -6.318  24.915  1.00  0.00     0.041 C 
ATOM     12  O   UNL     1      48.906  -5.505  23.955  1.00  0.00    -0.550 OA
ATOM     13  O   UNL     1      50.041  -6.228  25.809  1.00  0.00    -0.550 OA
ENDBRANCH  10  11
ENDBRANCH   9  10
ENDBRANCH   8   9
ENDBRANCH   1   8
TORSDOF 8
ENDMDL
MODEL 5
REMARK VINA RESULT:    -4.733      1.760      4.566
REMARK INTER + INTRA:          -7.572
REMARK INTER:                  -7.075
REMARK INTRA:                  -0.497
REMARK UNBOUND:                -0.626
REMARK SMILES O=C([O-])CCCCCCCC(=O)[O-]
REMARK SMILES IDX 7 1 6 2 5 3 4 4 2 5 1 6 3 7 8 8 9 9 10 10 11 11 12 12 13 13
REMARK H PARENT
REMARK Flexibility Score: inf
ROOT
ATOM      1  C   UNL     1      45.174  -7.515  26.267  1.00  0.00     0.000 C 
ENDROOT
BRANCH   1   2
ATOM      2  C   UNL     1      44.842  -6.028  26.439  1.00  0.00     0.000 C 
BRANCH   2   3
ATOM      3  C   UNL     1      45.571  -5.438  27.652  1.00  0.00     0.006 C 
BRANCH   3   4
ATOM      4  C   UNL     1      45.948  -3.974  27.408  1.00  0.00     0.053 C 
BRANCH   4   5
ATOM      5  C   UNL     1      47.014  -3.875  26.363  1.00  0.00     0.041 C 
ATOM      6  O   UNL     1      46.815  -3.203  25.317  1.00  0.00    -0.550 OA
ATOM      7  O   UNL     1      48.209  -4.564  26.522  1.00  0.00    -0.550 OA
ENDBRANCH   4   5
ENDBRANCH   3   4
ENDBRANCH   2   3
ENDBRANCH   1   2
BRANCH   1   8
ATOM      8  C   UNL     1      45.455  -7.850  24.797  1.00  0.00     0.000 C 
BRANCH   8   9
ATOM      9  C   UNL     1      46.664  -7.061  24.274  1.00  0.00     0.006 C 
BRANCH   9  10
ATOM     10  C   UNL     1      46.995  -7.404  22.816  1.00  0.00     0.053 C 
BRANCH  10  11
ATOM     11  C   UNL     1      48.467  -7.584  22.607  1.00  0.00     0.041 C 
ATOM     12  O   UNL     1      49.276  -7.310  23.533  1.00  0.00    -0.550 OA
ATOM     13  O   UNL     1      48.944  -8.084  21.403  1.00  0.00    -0.550 OA
ENDBRANCH  10  11
ENDBRANCH   9  10
ENDBRANCH   8   9
ENDBRANCH   1   8
TORSDOF 8
ENDMDL
MODEL 6
REMARK VINA RESULT:    -4.676      2.503      3.495
REMARK INTER + INTRA:          -7.489
REMARK INTER:                  -6.672
REMARK INTRA:                  -0.816
REMARK UNBOUND:                -0.626
REMARK SMILES O=C([O-])CCCCCCCC(=O)[O-]
REMARK SMILES IDX 7 1 6 2 5 3 4 4 2 5 1 6 3 7 8 8 9 9 10 10 11 11 12 12 13 13
REMARK H PARENT
REMARK Flexibility Score: inf
ROOT
ATOM      1  C   UNL     1      46.559  -4.254  26.223  1.00  0.00     0.000 C 
ENDROOT
BRANCH   1   2
ATOM      2  C   UNL     1      48.074  -4.438  26.373  1.00  0.00     0.000 C 
BRANCH   2   3
ATOM      3  C   UNL     1      48.555  -5.686  25.623  1.00  0.00     0.006 C 
BRANCH   3   4
ATOM      4  C   UNL     1      48.463  -5.487  24.108  1.00  0.00     0.053 C 
BRANCH   4   5
ATOM      5  C   UNL     1      48.220  -6.794  23.421  1.00  0.00     0.041 C 
ATOM      6  O   UNL     1      48.704  -7.857  23.892  1.00  0.00    -0.550 OA
ATOM      7  O   UNL     1      47.500  -6.832  22.234  1.00  0.00    -0.550 OA
ENDBRANCH   4   5
ENDBRANCH   3   4
ENDBRANCH   2   3
ENDBRANCH   1   2
BRANCH   1   8
ATOM      8  C   UNL     1      45.825  -4.671  27.504  1.00  0.00     0.000 C 
BRANCH   8   9
ATOM      9  C   UNL     1      44.762  -5.738  27.206  1.00  0.00     0.006 C 
BRANCH   9  10
ATOM     10  C   UNL     1      44.704  -6.101  25.716  1.00  0.00     0.053 C 
BRANCH  10  11
ATOM     11  C   UNL     1      45.238  -7.477  25.458  1.00  0.00     0.041 C 
ATOM     12  O   UNL     1      45.019  -8.044  24.355  1.00  0.00    -0.550 OA
ATOM     13  O   UNL     1      46.004  -8.119  26.421  1.00  0.00    -0.550 OA
ENDBRANCH  10  11
ENDBRANCH   9  10
ENDBRANCH   8   9
ENDBRANCH   1   8
TORSDOF 8
ENDMDL
MODEL 7
REMARK VINA RESULT:    -4.634      1.729      5.024
REMARK INTER + INTRA:          -7.427
REMARK INTER:                  -6.838
REMARK INTRA:                  -0.589
REMARK UNBOUND:                -0.626
REMARK SMILES O=C([O-])CCCCCCCC(=O)[O-]
REMARK SMILES IDX 7 1 6 2 5 3 4 4 2 5 1 6 3 7 8 8 9 9 10 10 11 11 12 12 13 13
REMARK H PARENT
REMARK Flexibility Score: inf
ROOT
ATOM      1  C   UNL     1      45.533  -7.799  26.222  1.00  0.00     0.000 C 
ENDROOT
BRANCH   1   2
ATOM      2  C   UNL     1      45.019  -6.679  27.135  1.00  0.00     0.000 C 
BRANCH   2   3
ATOM      3  C   UNL     1      44.193  -5.658  26.344  1.00  0.00     0.006 C 
BRANCH   3   4
ATOM      4  C   UNL     1      42.952  -5.227  27.131  1.00  0.00     0.053 C 
BRANCH   4   5
ATOM      5  C   UNL     1      43.343  -4.677  28.467  1.00  0.00     0.041 C 
ATOM      6  O   UNL     1      42.923  -5.220  29.522  1.00  0.00    -0.550 OA
ATOM      7  O   UNL     1      44.132  -3.537  28.546  1.00  0.00    -0.550 OA
ENDBRANCH   4   5
ENDBRANCH   3   4
ENDBRANCH   2   3
ENDBRANCH   1   2
BRANCH   1   8
ATOM      8  C   UNL     1      45.404  -7.407  24.745  1.00  0.00     0.000 C 
BRANCH   8   9
ATOM      9  C   UNL     1      46.784  -7.322  24.076  1.00  0.00     0.006 C 
BRANCH   9  10
ATOM     10  C   UNL     1      47.921  -7.218  25.102  1.00  0.00     0.053 C 
BRANCH  10  11
ATOM     11  C   UNL     1      48.451  -5.821  25.204  1.00  0.00     0.041 C 
ATOM     12  O   UNL     1      47.726  -4.900  25.667  1.00  0.00    -0.550 OA
ATOM     13  O   UNL     1      49.756  -5.541  24.820  1.00  0.00    -0.550 OA
ENDBRANCH  10  11
ENDBRANCH   9  10
ENDBRANCH   8   9
ENDBRANCH   1   8
TORSDOF 8
ENDMDL
MODEL 8
REMARK VINA RESULT:    -4.623      2.857      3.249
REMARK INTER + INTRA:          -7.411
REMARK INTER:                  -7.043
REMARK INTRA:                  -0.368
REMARK UNBOUND:                -0.626
REMARK SMILES O=C([O-])CCCCCCCC(=O)[O-]
REMARK SMILES IDX 7 1 6 2 5 3 4 4 2 5 1 6 3 7 8 8 9 9 10 10 11 11 12 12 13 13
REMARK H PARENT
REMARK Flexibility Score: inf
ROOT
ATOM      1  C   UNL     1      46.185  -7.666  25.397  1.00  0.00     0.000 C 
ENDROOT
BRANCH   1   2
ATOM      2  C   UNL     1      47.509  -6.893  25.412  1.00  0.00     0.000 C 
BRANCH   2   3
ATOM      3  C   UNL     1      48.571  -7.602  24.563  1.00  0.00     0.006 C 
BRANCH   3   4
ATOM      4  C   UNL     1      48.777  -6.883  23.227  1.00  0.00     0.053 C 
BRANCH   4   5
ATOM      5  C   UNL     1      48.388  -7.772  22.088  1.00  0.00     0.041 C 
ATOM      6  O   UNL     1      47.215  -8.221  22.007  1.00  0.00    -0.550 OA
ATOM      7  O   UNL     1      49.336  -8.144  21.143  1.00  0.00    -0.550 OA
ENDBRANCH   4   5
ENDBRANCH   3   4
ENDBRANCH   2   3
ENDBRANCH   1   2
BRANCH   1   8
ATOM      8  C   UNL     1      45.475  -7.568  26.753  1.00  0.00     0.000 C 
BRANCH   8   9
ATOM      9  C   UNL     1      45.161  -6.107  27.105  1.00  0.00     0.006 C 
BRANCH   9  10
ATOM     10  C   UNL     1      43.967  -5.561  26.311  1.00  0.00     0.053 C 
BRANCH  10  11
ATOM     11  C   UNL     1      42.786  -5.297  27.194  1.00  0.00     0.041 C 
ATOM     12  O   UNL     1      41.831  -4.588  26.779  1.00  0.00    -0.550 OA
ATOM     13  O   UNL     1      42.725  -5.859  28.463  1.00  0.00    -0.550 OA
ENDBRANCH  10  11
ENDBRANCH   9  10
ENDBRANCH   8   9
ENDBRANCH   1   8
TORSDOF 8
ENDMDL
MODEL 9
REMARK VINA RESULT:    -4.588      1.353      4.724
REMARK INTER + INTRA:          -7.359
REMARK INTER:                  -6.787
REMARK INTRA:                  -0.573
REMARK UNBOUND:                -0.626
REMARK SMILES O=C([O-])CCCCCCCC(=O)[O-]
REMARK SMILES IDX 7 1 6 2 5 3 4 4 2 5 1 6 3 7 8 8 9 9 10 10 11 11 12 12 13 13
REMARK H PARENT
REMARK Flexibility Score: inf
ROOT
ATOM      1  C   UNL     1      45.745  -7.864  24.415  1.00  0.00     0.000 C 
ENDROOT
BRANCH   1   2
ATOM      2  C   UNL     1      45.091  -6.760  25.253  1.00  0.00     0.000 C 
BRANCH   2   3
ATOM      3  C   UNL     1      45.316  -6.998  26.751  1.00  0.00     0.006 C 
BRANCH   3   4
ATOM      4  C   UNL     1      45.629  -5.686  27.475  1.00  0.00     0.053 C 
BRANCH   4   5
ATOM      5  C   UNL     1      44.373  -5.065  28.001  1.00  0.00     0.041 C 
ATOM      6  O   UNL     1      44.353  -3.847  28.319  1.00  0.00    -0.550 OA
ATOM      7  O   UNL     1      43.237  -5.844  28.186  1.00  0.00    -0.550 OA
ENDBRANCH   4   5
ENDBRANCH   3   4
ENDBRANCH   2   3
ENDBRANCH   1   2
BRANCH   1   8
ATOM      8  C   UNL     1      46.536  -7.271  23.242  1.00  0.00     0.000 C 
BRANCH   8   9
ATOM      9  C   UNL     1      48.035  -7.574  23.380  1.00  0.00     0.006 C 
BRANCH   9  10
ATOM     10  C   UNL     1      48.512  -7.498  24.837  1.00  0.00     0.053 C 
BRANCH  10  11
ATOM     11  C   UNL     1      49.122  -6.168  25.154  1.00  0.00     0.041 C 
ATOM     12  O   UNL     1      50.372  -6.017  25.109  1.00  0.00    -0.550 OA
ATOM     13  O   UNL     1      48.310  -5.086  25.467  1.00  0.00    -0.550 OA
ENDBRANCH  10  11
ENDBRANCH   9  10
ENDBRANCH   8   9
ENDBRANCH   1   8
TORSDOF 8
ENDMDL
