MODEL 1
REMARK VINA RESULT:    -7.295      0.000      0.000
REMARK INTER + INTRA:          -8.840
REMARK INTER:                  -8.575
REMARK INTRA:                  -0.265
REMARK UNBOUND:                -0.265
REMARK SMILES O=c1cc(-c2ccc(O)c(O)c2)oc2cc(O)cc(O)c12
REMARK SMILES IDX 4 1 3 2 2 3 1 4 21 5 19 6 18 7 16 8 15 9 14 10 13 11 5 12
REMARK SMILES IDX 6 13 7 14 8 15 12 16 10 17 9 18 11 20 20 22 17 24
REMARK H PARENT 9 19 11 21 20 23 17 25
REMARK Flexibility Score: inf
ROOT
ATOM      1  C   UNL     1      -4.578  15.346   6.917  1.00  0.00     0.138 A 
ATOM      2  C   UNL     1      -4.952  14.324   6.029  1.00  0.00     0.100 A 
ATOM      3  C   UNL     1      -6.287  14.208   5.637  1.00  0.00     0.197 A 
ATOM      4  O   UNL     1      -6.614  13.288   4.840  1.00  0.00    -0.289 OA
ATOM      5  C   UNL     1      -7.240  15.116   6.140  1.00  0.00     0.107 A 
ATOM      6  C   UNL     1      -8.611  15.071   5.793  1.00  0.00     0.134 A 
ATOM      7  C   UNL     1      -9.497  16.009   6.343  1.00  0.00     0.093 A 
ATOM      8  C   UNL     1      -9.039  16.990   7.231  1.00  0.00     0.123 A 
ATOM      9  C   UNL     1      -7.686  17.037   7.575  1.00  0.00     0.094 A 
ATOM     10  C   UNL     1      -6.787  16.112   7.038  1.00  0.00     0.146 A 
ATOM     11  O   UNL     1      -5.504  16.180   7.381  1.00  0.00    -0.456 OA
ENDROOT
BRANCH   1  12
ATOM     12  C   UNL     1      -3.174  15.514   7.369  1.00  0.00     0.021 A 
ATOM     13  C   UNL     1      -2.729  14.826   8.512  1.00  0.00     0.016 A 
ATOM     14  C   UNL     1      -1.415  14.973   8.963  1.00  0.00     0.051 A 
ATOM     15  C   UNL     1      -0.526  15.815   8.289  1.00  0.00     0.157 A 
ATOM     16  C   UNL     1      -2.278  16.372   6.702  1.00  0.00     0.062 A 
ATOM     17  C   UNL     1      -0.960  16.521   7.155  1.00  0.00     0.158 A 
BRANCH  15  18
ATOM     18  O   UNL     1       0.779  15.940   8.763  1.00  0.00    -0.504 OA
ATOM     19  H   UNL     1       1.057  16.691   9.385  1.00  0.00     0.293 HD
ENDBRANCH  15  18
BRANCH  17  20
ATOM     20  O   UNL     1      -0.080  17.372   6.486  1.00  0.00    -0.504 OA
ATOM     21  H   UNL     1       0.613  17.918   6.984  1.00  0.00     0.293 HD
ENDBRANCH  17  20
ENDBRANCH   1  12
BRANCH   6  22
ATOM     22  O   UNL     1      -9.097  14.106   4.910  1.00  0.00    -0.507 OA
ATOM     23  H   UNL     1      -9.608  13.294   5.237  1.00  0.00     0.293 HD
ENDBRANCH   6  22
BRANCH   8  24
ATOM     24  O   UNL     1      -9.920  17.921   7.777  1.00  0.00    -0.508 OA
ATOM     25  H   UNL     1      -9.941  18.112   8.771  1.00  0.00     0.293 HD
ENDBRANCH   8  24
TORSDOF 5
ENDMDL
MODEL 2
REMARK VINA RESULT:    -6.869      1.556      3.300
REMARK INTER + INTRA:          -8.338
REMARK INTER:                  -8.072
REMARK INTRA:                  -0.266
REMARK UNBOUND:                -0.265
REMARK SMILES O=c1cc(-c2ccc(O)c(O)c2)oc2cc(O)cc(O)c12
REMARK SMILES IDX 4 1 3 2 2 3 1 4 21 5 19 6 18 7 16 8 15 9 14 10 13 11 5 12
REMARK SMILES IDX 6 13 7 14 8 15 12 16 10 17 9 18 11 20 20 22 17 24
REMARK H PARENT 9 19 11 21 20 23 17 25
REMARK Flexibility Score: inf
ROOT
ATOM      1  C   UNL     1      -3.531  15.618   8.053  1.00  0.00     0.138 A 
ATOM      2  C   UNL     1      -4.425  16.239   8.941  1.00  0.00     0.100 A 
ATOM      3  C   UNL     1      -5.798  16.139   8.715  1.00  0.00     0.197 A 
ATOM      4  O   UNL     1      -6.594  16.700   9.517  1.00  0.00    -0.289 OA
ATOM      5  C   UNL     1      -6.269  15.419   7.599  1.00  0.00     0.107 A 
ATOM      6  C   UNL     1      -7.644  15.267   7.299  1.00  0.00     0.134 A 
ATOM      7  C   UNL     1      -8.030  14.539   6.163  1.00  0.00     0.093 A 
ATOM      8  C   UNL     1      -7.069  13.961   5.325  1.00  0.00     0.123 A 
ATOM      9  C   UNL     1      -5.712  14.109   5.619  1.00  0.00     0.094 A 
ATOM     10  C   UNL     1      -5.306  14.830   6.746  1.00  0.00     0.146 A 
ATOM     11  O   UNL     1      -4.008  14.954   7.004  1.00  0.00    -0.456 OA
ENDROOT
BRANCH   1  12
ATOM     12  C   UNL     1      -2.060  15.693   8.243  1.00  0.00     0.021 A 
ATOM     13  C   UNL     1      -1.271  16.335   7.274  1.00  0.00     0.016 A 
ATOM     14  C   UNL     1       0.115  16.413   7.425  1.00  0.00     0.051 A 
ATOM     15  C   UNL     1       0.739  15.844   8.538  1.00  0.00     0.157 A 
ATOM     16  C   UNL     1      -1.426  15.109   9.357  1.00  0.00     0.062 A 
ATOM     17  C   UNL     1      -0.034  15.185   9.508  1.00  0.00     0.158 A 
BRANCH  15  18
ATOM     18  O   UNL     1       2.125  15.939   8.661  1.00  0.00    -0.504 OA
ATOM     19  H   UNL     1       2.621  15.567   9.463  1.00  0.00     0.293 HD
ENDBRANCH  15  18
BRANCH  17  20
ATOM     20  O   UNL     1       0.584  14.605  10.616  1.00  0.00    -0.504 OA
ATOM     21  H   UNL     1       1.151  15.152  11.253  1.00  0.00     0.293 HD
ENDBRANCH  17  20
ENDBRANCH   1  12
BRANCH   6  22
ATOM     22  O   UNL     1      -8.624  15.832   8.115  1.00  0.00    -0.507 OA
ATOM     23  H   UNL     1      -8.850  15.444   9.023  1.00  0.00     0.293 HD
ENDBRANCH   6  22
BRANCH   8  24
ATOM     24  O   UNL     1      -7.453  13.237   4.198  1.00  0.00    -0.508 OA
ATOM     25  H   UNL     1      -7.358  12.230   4.158  1.00  0.00     0.293 HD
ENDBRANCH   8  24
TORSDOF 5
ENDMDL
MODEL 3
REMARK VINA RESULT:    -6.774      1.688      7.535
REMARK INTER + INTRA:          -8.227
REMARK INTER:                  -7.963
REMARK INTRA:                  -0.264
REMARK UNBOUND:                -0.265
REMARK SMILES O=c1cc(-c2ccc(O)c(O)c2)oc2cc(O)cc(O)c12
REMARK SMILES IDX 4 1 3 2 2 3 1 4 21 5 19 6 18 7 16 8 15 9 14 10 13 11 5 12
REMARK SMILES IDX 6 13 7 14 8 15 12 16 10 17 9 18 11 20 20 22 17 24
REMARK H PARENT 9 19 11 21 20 23 17 25
REMARK Flexibility Score: inf
ROOT
ATOM      1  C   UNL     1      -2.809  15.810   7.094  1.00  0.00     0.138 A 
ATOM      2  C   UNL     1      -1.998  16.472   6.158  1.00  0.00     0.100 A 
ATOM      3  C   UNL     1      -0.653  16.699   6.452  1.00  0.00     0.197 A 
ATOM      4  O   UNL     1       0.067  17.296   5.606  1.00  0.00    -0.289 OA
ATOM      5  C   UNL     1      -0.128  16.263   7.684  1.00  0.00     0.107 A 
ATOM      6  C   UNL     1       1.223  16.451   8.061  1.00  0.00     0.134 A 
ATOM      7  C   UNL     1       1.667  15.992   9.310  1.00  0.00     0.093 A 
ATOM      8  C   UNL     1       0.785  15.350  10.189  1.00  0.00     0.123 A 
ATOM      9  C   UNL     1      -0.549  15.162   9.820  1.00  0.00     0.094 A 
ATOM     10  C   UNL     1      -1.010  15.612   8.579  1.00  0.00     0.146 A 
ATOM     11  O   UNL     1      -2.284  15.420   8.253  1.00  0.00    -0.456 OA
ENDROOT
BRANCH   1  12
ATOM     12  C   UNL     1      -4.247  15.543   6.835  1.00  0.00     0.021 A 
ATOM     13  C   UNL     1      -5.219  16.365   7.431  1.00  0.00     0.016 A 
ATOM     14  C   UNL     1      -6.578  16.131   7.210  1.00  0.00     0.051 A 
ATOM     15  C   UNL     1      -6.991  15.069   6.400  1.00  0.00     0.157 A 
ATOM     16  C   UNL     1      -4.667  14.466   6.032  1.00  0.00     0.062 A 
ATOM     17  C   UNL     1      -6.032  14.229   5.811  1.00  0.00     0.158 A 
BRANCH  15  18
ATOM     18  O   UNL     1      -8.355  14.862   6.198  1.00  0.00    -0.504 OA
ATOM     19  H   UNL     1      -8.879  15.378   5.500  1.00  0.00     0.293 HD
ENDBRANCH  15  18
BRANCH  17  20
ATOM     20  O   UNL     1      -6.438  13.161   5.012  1.00  0.00    -0.504 OA
ATOM     21  H   UNL     1      -6.291  13.163   4.009  1.00  0.00     0.293 HD
ENDBRANCH  17  20
ENDBRANCH   1  12
BRANCH   6  22
ATOM     22  O   UNL     1       2.125  17.088   7.207  1.00  0.00    -0.507 OA
ATOM     23  H   UNL     1       2.027  17.044   6.200  1.00  0.00     0.293 HD
ENDBRANCH   6  22
BRANCH   8  24
ATOM     24  O   UNL     1       1.226  14.894  11.429  1.00  0.00    -0.508 OA
ATOM     25  H   UNL     1       2.028  15.306  11.891  1.00  0.00     0.293 HD
ENDBRANCH   8  24
TORSDOF 5
ENDMDL
MODEL 4
REMARK VINA RESULT:    -6.616      5.175      6.730
REMARK INTER + INTRA:          -8.041
REMARK INTER:                  -7.728
REMARK INTRA:                  -0.312
REMARK UNBOUND:                -0.265
REMARK SMILES O=c1cc(-c2ccc(O)c(O)c2)oc2cc(O)cc(O)c12
REMARK SMILES IDX 4 1 3 2 2 3 1 4 21 5 19 6 18 7 16 8 15 9 14 10 13 11 5 12
REMARK SMILES IDX 6 13 7 14 8 15 12 16 10 17 9 18 11 20 20 22 17 24
REMARK H PARENT 9 19 11 21 20 23 17 25
REMARK Flexibility Score: inf
ROOT
ATOM      1  C   UNL     1      -7.306  14.179  11.185  1.00  0.00     0.138 A 
ATOM      2  C   UNL     1      -8.302  15.161  11.052  1.00  0.00     0.100 A 
ATOM      3  C   UNL     1      -8.431  15.849   9.845  1.00  0.00     0.197 A 
ATOM      4  O   UNL     1      -9.327  16.729   9.734  1.00  0.00    -0.289 OA
ATOM      5  C   UNL     1      -7.560  15.552   8.778  1.00  0.00     0.107 A 
ATOM      6  C   UNL     1      -7.623  16.200   7.522  1.00  0.00     0.134 A 
ATOM      7  C   UNL     1      -6.714  15.849   6.513  1.00  0.00     0.093 A 
ATOM      8  C   UNL     1      -5.744  14.864   6.736  1.00  0.00     0.123 A 
ATOM      9  C   UNL     1      -5.679  14.222   7.975  1.00  0.00     0.094 A 
ATOM     10  C   UNL     1      -6.576  14.556   8.993  1.00  0.00     0.146 A 
ATOM     11  O   UNL     1      -6.494  13.929  10.162  1.00  0.00    -0.456 OA
ENDROOT
BRANCH   1  12
ATOM     12  C   UNL     1      -7.122  13.418  12.447  1.00  0.00     0.021 A 
ATOM     13  C   UNL     1      -7.626  13.943  13.649  1.00  0.00     0.016 A 
ATOM     14  C   UNL     1      -7.459  13.251  14.851  1.00  0.00     0.051 A 
ATOM     15  C   UNL     1      -6.779  12.030  14.876  1.00  0.00     0.157 A 
ATOM     16  C   UNL     1      -6.426  12.194  12.479  1.00  0.00     0.062 A 
ATOM     17  C   UNL     1      -6.257  11.500  13.685  1.00  0.00     0.158 A 
BRANCH  15  18
ATOM     18  O   UNL     1      -6.631  11.362  16.091  1.00  0.00    -0.504 OA
ATOM     19  H   UNL     1      -6.066  11.736  16.845  1.00  0.00     0.293 HD
ENDBRANCH  15  18
BRANCH  17  20
ATOM     20  O   UNL     1      -5.568  10.287  13.706  1.00  0.00    -0.504 OA
ATOM     21  H   UNL     1      -5.399   9.787  14.571  1.00  0.00     0.293 HD
ENDBRANCH  17  20
ENDBRANCH   1  12
BRANCH   6  22
ATOM     22  O   UNL     1      -8.578  17.185   7.269  1.00  0.00    -0.507 OA
ATOM     23  H   UNL     1      -8.498  18.118   7.658  1.00  0.00     0.293 HD
ENDBRANCH   6  22
BRANCH   8  24
ATOM     24  O   UNL     1      -4.842  14.516   5.734  1.00  0.00    -0.508 OA
ATOM     25  H   UNL     1      -4.806  15.019   4.855  1.00  0.00     0.293 HD
ENDBRANCH   8  24
TORSDOF 5
ENDMDL
MODEL 5
REMARK VINA RESULT:    -6.572      1.649      7.616
REMARK INTER + INTRA:          -7.990
REMARK INTER:                  -7.723
REMARK INTRA:                  -0.266
REMARK UNBOUND:                -0.265
REMARK SMILES O=c1cc(-c2ccc(O)c(O)c2)oc2cc(O)cc(O)c12
REMARK SMILES IDX 4 1 3 2 2 3 1 4 21 5 19 6 18 7 16 8 15 9 14 10 13 11 5 12
REMARK SMILES IDX 6 13 7 14 8 15 12 16 10 17 9 18 11 20 20 22 17 24
REMARK H PARENT 9 19 11 21 20 23 17 25
REMARK Flexibility Score: inf
ROOT
ATOM      1  C   UNL     1      -2.787  15.716   7.254  1.00  0.00     0.138 A 
ATOM      2  C   UNL     1      -2.235  15.233   8.452  1.00  0.00     0.100 A 
ATOM      3  C   UNL     1      -0.884  15.451   8.723  1.00  0.00     0.197 A 
ATOM      4  O   UNL     1      -0.397  15.013   9.800  1.00  0.00    -0.289 OA
ATOM      5  C   UNL     1      -0.092  16.150   7.790  1.00  0.00     0.107 A 
ATOM      6  C   UNL     1       1.284  16.416   7.987  1.00  0.00     0.134 A 
ATOM      7  C   UNL     1       2.004  17.114   7.006  1.00  0.00     0.093 A 
ATOM      8  C   UNL     1       1.374  17.550   5.833  1.00  0.00     0.123 A 
ATOM      9  C   UNL     1       0.016  17.290   5.636  1.00  0.00     0.094 A 
ATOM     10  C   UNL     1      -0.719  16.597   6.602  1.00  0.00     0.146 A 
ATOM     11  O   UNL     1      -2.010  16.363   6.390  1.00  0.00    -0.456 OA
ENDROOT
BRANCH   1  12
ATOM     12  C   UNL     1      -4.218  15.511   6.913  1.00  0.00     0.021 A 
ATOM     13  C   UNL     1      -5.184  16.391   7.431  1.00  0.00     0.016 A 
ATOM     14  C   UNL     1      -6.537  16.215   7.132  1.00  0.00     0.051 A 
ATOM     15  C   UNL     1      -6.952  15.154   6.322  1.00  0.00     0.157 A 
ATOM     16  C   UNL     1      -4.641  14.435   6.108  1.00  0.00     0.062 A 
ATOM     17  C   UNL     1      -6.000  14.257   5.810  1.00  0.00     0.158 A 
BRANCH  15  18
ATOM     18  O   UNL     1      -8.309  15.007   6.041  1.00  0.00    -0.504 OA
ATOM     19  H   UNL     1      -8.745  15.456   5.244  1.00  0.00     0.293 HD
ENDBRANCH  15  18
BRANCH  17  20
ATOM     20  O   UNL     1      -6.409  13.190   5.010  1.00  0.00    -0.504 OA
ATOM     21  H   UNL     1      -7.374  12.881   4.990  1.00  0.00     0.293 HD
ENDBRANCH  17  20
ENDBRANCH   1  12
BRANCH   6  22
ATOM     22  O   UNL     1       1.939  15.993   9.144  1.00  0.00    -0.507 OA
ATOM     23  H   UNL     1       1.776  15.077   9.545  1.00  0.00     0.293 HD
ENDBRANCH   6  22
BRANCH   8  24
ATOM     24  O   UNL     1       2.089  18.244   4.860  1.00  0.00    -0.508 OA
ATOM     25  H   UNL     1       1.625  18.835   4.181  1.00  0.00     0.293 HD
ENDBRANCH   8  24
TORSDOF 5
ENDMDL
MODEL 6
REMARK VINA RESULT:    -6.490      4.813      6.605
REMARK INTER + INTRA:          -7.893
REMARK INTER:                  -7.627
REMARK INTRA:                  -0.266
REMARK UNBOUND:                -0.265
REMARK SMILES O=c1cc(-c2ccc(O)c(O)c2)oc2cc(O)cc(O)c12
REMARK SMILES IDX 4 1 3 2 2 3 1 4 21 5 19 6 18 7 16 8 15 9 14 10 13 11 5 12
REMARK SMILES IDX 6 13 7 14 8 15 12 16 10 17 9 18 11 20 20 22 17 24
REMARK H PARENT 9 19 11 21 20 23 17 25
REMARK Flexibility Score: inf
ROOT
ATOM      1  C   UNL     1      -6.138  14.166  10.567  1.00  0.00     0.138 A 
ATOM      2  C   UNL     1      -5.178  15.191  10.604  1.00  0.00     0.100 A 
ATOM      3  C   UNL     1      -4.792  15.815   9.417  1.00  0.00     0.197 A 
ATOM      4  O   UNL     1      -3.930  16.733   9.459  1.00  0.00    -0.289 OA
ATOM      5  C   UNL     1      -5.369  15.406   8.198  1.00  0.00     0.107 A 
ATOM      6  C   UNL     1      -5.036  15.986   6.950  1.00  0.00     0.134 A 
ATOM      7  C   UNL     1      -5.652  15.517   5.780  1.00  0.00     0.093 A 
ATOM      8  C   UNL     1      -6.592  14.481   5.834  1.00  0.00     0.123 A 
ATOM      9  C   UNL     1      -6.923  13.907   7.064  1.00  0.00     0.094 A 
ATOM     10  C   UNL     1      -6.322  14.360   8.241  1.00  0.00     0.146 A 
ATOM     11  O   UNL     1      -6.655  13.797   9.398  1.00  0.00    -0.456 OA
ENDROOT
BRANCH   1  12
ATOM     12  C   UNL     1      -6.584  13.467  11.799  1.00  0.00     0.021 A 
ATOM     13  C   UNL     1      -7.475  14.111  12.674  1.00  0.00     0.016 A 
ATOM     14  C   UNL     1      -7.903  13.478  13.843  1.00  0.00     0.051 A 
ATOM     15  C   UNL     1      -7.443  12.198  14.165  1.00  0.00     0.157 A 
ATOM     16  C   UNL     1      -6.112  12.182  12.133  1.00  0.00     0.062 A 
ATOM     17  C   UNL     1      -6.541  11.548  13.308  1.00  0.00     0.158 A 
BRANCH  15  18
ATOM     18  O   UNL     1      -7.891  11.593  15.338  1.00  0.00    -0.504 OA
ATOM     19  H   UNL     1      -7.377  10.842  15.786  1.00  0.00     0.293 HD
ENDBRANCH  15  18
BRANCH  17  20
ATOM     20  O   UNL     1      -6.070  10.275  13.629  1.00  0.00    -0.504 OA
ATOM     21  H   UNL     1      -5.600  10.088  14.508  1.00  0.00     0.293 HD
ENDBRANCH  17  20
ENDBRANCH   1  12
BRANCH   6  22
ATOM     22  O   UNL     1      -4.103  17.019   6.865  1.00  0.00    -0.507 OA
ATOM     23  H   UNL     1      -3.131  16.843   6.637  1.00  0.00     0.293 HD
ENDBRANCH   6  22
BRANCH   8  24
ATOM     24  O   UNL     1      -7.204  14.016   4.672  1.00  0.00    -0.508 OA
ATOM     25  H   UNL     1      -8.175  14.217   4.467  1.00  0.00     0.293 HD
ENDBRANCH   8  24
TORSDOF 5
ENDMDL
MODEL 7
REMARK VINA RESULT:    -6.483      2.193      3.259
REMARK INTER + INTRA:          -7.884
REMARK INTER:                  -7.572
REMARK INTRA:                  -0.313
REMARK UNBOUND:                -0.265
REMARK SMILES O=c1cc(-c2ccc(O)c(O)c2)oc2cc(O)cc(O)c12
REMARK SMILES IDX 4 1 3 2 2 3 1 4 21 5 19 6 18 7 16 8 15 9 14 10 13 11 5 12
REMARK SMILES IDX 6 13 7 14 8 15 12 16 10 17 9 18 11 20 20 22 17 24
REMARK H PARENT 9 19 11 21 20 23 17 25
REMARK Flexibility Score: inf
ROOT
ATOM      1  C   UNL     1      -7.152  15.726   7.682  1.00  0.00     0.138 A 
ATOM      2  C   UNL     1      -7.697  15.474   6.412  1.00  0.00     0.100 A 
ATOM      3  C   UNL     1      -9.024  15.819   6.152  1.00  0.00     0.197 A 
ATOM      4  O   UNL     1      -9.504  15.588   5.010  1.00  0.00    -0.289 OA
ATOM      5  C   UNL     1      -9.799  16.412   7.168  1.00  0.00     0.107 A 
ATOM      6  C   UNL     1     -11.150  16.793   6.989  1.00  0.00     0.134 A 
ATOM      7  C   UNL     1     -11.855  17.373   8.054  1.00  0.00     0.093 A 
ATOM      8  C   UNL     1     -11.236  17.579   9.293  1.00  0.00     0.123 A 
ATOM      9  C   UNL     1      -9.902  17.204   9.473  1.00  0.00     0.094 A 
ATOM     10  C   UNL     1      -9.182  16.625   8.424  1.00  0.00     0.146 A 
ATOM     11  O   UNL     1      -7.914  16.279   8.622  1.00  0.00    -0.456 OA
ENDROOT
BRANCH   1  12
ATOM     12  C   UNL     1      -5.747  15.379   8.014  1.00  0.00     0.021 A 
ATOM     13  C   UNL     1      -5.072  14.420   7.239  1.00  0.00     0.016 A 
ATOM     14  C   UNL     1      -3.753  14.069   7.535  1.00  0.00     0.051 A 
ATOM     15  C   UNL     1      -3.088  14.659   8.614  1.00  0.00     0.157 A 
ATOM     16  C   UNL     1      -5.078  15.961   9.108  1.00  0.00     0.062 A 
ATOM     17  C   UNL     1      -3.754  15.607   9.407  1.00  0.00     0.158 A 
BRANCH  15  18
ATOM     18  O   UNL     1      -1.771  14.289   8.883  1.00  0.00    -0.504 OA
ATOM     19  H   UNL     1      -1.498  13.320   9.003  1.00  0.00     0.293 HD
ENDBRANCH  15  18
BRANCH  17  20
ATOM     20  O   UNL     1      -3.100  16.192  10.491  1.00  0.00    -0.504 OA
ATOM     21  H   UNL     1      -2.505  15.649  11.107  1.00  0.00     0.293 HD
ENDBRANCH  17  20
ENDBRANCH   1  12
BRANCH   6  22
ATOM     22  O   UNL     1     -11.795  16.601   5.767  1.00  0.00    -0.507 OA
ATOM     23  H   UNL     1     -12.804  16.560   5.697  1.00  0.00     0.293 HD
ENDBRANCH   6  22
BRANCH   8  24
ATOM     24  O   UNL     1     -11.936  18.155  10.350  1.00  0.00    -0.508 OA
ATOM     25  H   UNL     1     -12.885  17.879  10.570  1.00  0.00     0.293 HD
ENDBRANCH   8  24
TORSDOF 5
ENDMDL
MODEL 8
REMARK VINA RESULT:    -6.459      2.610      7.423
REMARK INTER + INTRA:          -7.856
REMARK INTER:                  -7.547
REMARK INTRA:                  -0.310
REMARK UNBOUND:                -0.265
REMARK SMILES O=c1cc(-c2ccc(O)c(O)c2)oc2cc(O)cc(O)c12
REMARK SMILES IDX 4 1 3 2 2 3 1 4 21 5 19 6 18 7 16 8 15 9 14 10 13 11 5 12
REMARK SMILES IDX 6 13 7 14 8 15 12 16 10 17 9 18 11 20 20 22 17 24
REMARK H PARENT 9 19 11 21 20 23 17 25
REMARK Flexibility Score: inf
ROOT
ATOM      1  C   UNL     1      -8.071  15.828   7.880  1.00  0.00     0.138 A 
ATOM      2  C   UNL     1      -7.538  14.831   7.046  1.00  0.00     0.100 A 
ATOM      3  C   UNL     1      -6.223  14.405   7.238  1.00  0.00     0.197 A 
ATOM      4  O   UNL     1      -5.753  13.510   6.486  1.00  0.00    -0.289 OA
ATOM      5  C   UNL     1      -5.448  14.983   8.263  1.00  0.00     0.107 A 
ATOM      6  C   UNL     1      -4.109  14.609   8.527  1.00  0.00     0.134 A 
ATOM      7  C   UNL     1      -3.403  15.238   9.564  1.00  0.00     0.093 A 
ATOM      8  C   UNL     1      -4.010  16.233  10.340  1.00  0.00     0.123 A 
ATOM      9  C   UNL     1      -5.332  16.604  10.082  1.00  0.00     0.094 A 
ATOM     10  C   UNL     1      -6.053  15.989   9.055  1.00  0.00     0.146 A 
ATOM     11  O   UNL     1      -7.309  16.360   8.831  1.00  0.00    -0.456 OA
ENDROOT
BRANCH   1  12
ATOM     12  C   UNL     1      -9.463  16.321   7.719  1.00  0.00     0.021 A 
ATOM     13  C   UNL     1     -10.089  16.223   6.464  1.00  0.00     0.016 A 
ATOM     14  C   UNL     1     -11.394  16.686   6.284  1.00  0.00     0.051 A 
ATOM     15  C   UNL     1     -12.094  17.263   7.348  1.00  0.00     0.157 A 
ATOM     16  C   UNL     1     -10.166  16.916   8.785  1.00  0.00     0.062 A 
ATOM     17  C   UNL     1     -11.476  17.383   8.604  1.00  0.00     0.158 A 
BRANCH  15  18
ATOM     18  O   UNL     1     -13.396  17.715   7.138  1.00  0.00    -0.504 OA
ATOM     19  H   UNL     1     -13.606  18.467   6.492  1.00  0.00     0.293 HD
ENDBRANCH  15  18
BRANCH  17  20
ATOM     20  O   UNL     1     -12.164  17.968   9.666  1.00  0.00    -0.504 OA
ATOM     21  H   UNL     1     -11.676  18.376  10.455  1.00  0.00     0.293 HD
ENDBRANCH  17  20
ENDBRANCH   1  12
BRANCH   6  22
ATOM     22  O   UNL     1      -3.477  13.621   7.771  1.00  0.00    -0.507 OA
ATOM     23  H   UNL     1      -3.901  12.714   7.617  1.00  0.00     0.293 HD
ENDBRANCH   6  22
BRANCH   8  24
ATOM     24  O   UNL     1      -3.309  16.857  11.369  1.00  0.00    -0.508 OA
ATOM     25  H   UNL     1      -2.307  16.990  11.323  1.00  0.00     0.293 HD
ENDBRANCH   8  24
TORSDOF 5
ENDMDL
MODEL 9
REMARK VINA RESULT:    -6.355      2.921      7.109
REMARK INTER + INTRA:          -7.735
REMARK INTER:                  -7.425
REMARK INTRA:                  -0.310
REMARK UNBOUND:                -0.265
REMARK SMILES O=c1cc(-c2ccc(O)c(O)c2)oc2cc(O)cc(O)c12
REMARK SMILES IDX 4 1 3 2 2 3 1 4 21 5 19 6 18 7 16 8 15 9 14 10 13 11 5 12
REMARK SMILES IDX 6 13 7 14 8 15 12 16 10 17 9 18 11 20 20 22 17 24
REMARK H PARENT 9 19 11 21 20 23 17 25
REMARK Flexibility Score: inf
ROOT
ATOM      1  C   UNL     1      -9.051  16.448   8.458  1.00  0.00     0.138 A 
ATOM      2  C   UNL     1      -9.570  16.299   7.161  1.00  0.00     0.100 A 
ATOM      3  C   UNL     1      -8.825  15.617   6.198  1.00  0.00     0.197 A 
ATOM      4  O   UNL     1      -9.298  15.488   5.036  1.00  0.00    -0.289 OA
ATOM      5  C   UNL     1      -7.563  15.091   6.538  1.00  0.00     0.107 A 
ATOM      6  C   UNL     1      -6.745  14.386   5.623  1.00  0.00     0.134 A 
ATOM      7  C   UNL     1      -5.498  13.899   6.041  1.00  0.00     0.093 A 
ATOM      8  C   UNL     1      -5.053  14.103   7.353  1.00  0.00     0.123 A 
ATOM      9  C   UNL     1      -5.858  14.798   8.258  1.00  0.00     0.094 A 
ATOM     10  C   UNL     1      -7.105  15.291   7.863  1.00  0.00     0.146 A 
ATOM     11  O   UNL     1      -7.852  15.948   8.744  1.00  0.00    -0.456 OA
ENDROOT
BRANCH   1  12
ATOM     12  C   UNL     1      -9.799  17.166   9.522  1.00  0.00     0.021 A 
ATOM     13  C   UNL     1     -11.199  17.262   9.436  1.00  0.00     0.016 A 
ATOM     14  C   UNL     1     -11.925  17.939  10.419  1.00  0.00     0.051 A 
ATOM     15  C   UNL     1     -11.268  18.538  11.498  1.00  0.00     0.157 A 
ATOM     16  C   UNL     1      -9.140  17.783  10.603  1.00  0.00     0.062 A 
ATOM     17  C   UNL     1      -9.869  18.464  11.589  1.00  0.00     0.158 A 
BRANCH  15  18
ATOM     18  O   UNL     1     -12.021  19.204  12.464  1.00  0.00    -0.504 OA
ATOM     19  H   UNL     1     -13.001  18.995  12.621  1.00  0.00     0.293 HD
ENDBRANCH  15  18
BRANCH  17  20
ATOM     20  O   UNL     1      -9.207  19.070  12.657  1.00  0.00    -0.504 OA
ATOM     21  H   UNL     1      -9.223  18.668  13.587  1.00  0.00     0.293 HD
ENDBRANCH  17  20
ENDBRANCH   1  12
BRANCH   6  22
ATOM     22  O   UNL     1      -7.160  14.167   4.310  1.00  0.00    -0.507 OA
ATOM     23  H   UNL     1      -8.000  13.642   4.097  1.00  0.00     0.293 HD
ENDBRANCH   6  22
BRANCH   8  24
ATOM     24  O   UNL     1      -3.815  13.619   7.767  1.00  0.00    -0.508 OA
ATOM     25  H   UNL     1      -2.949  14.000   7.405  1.00  0.00     0.293 HD
ENDBRANCH   8  24
TORSDOF 5
ENDMDL
