MODEL 1
REMARK VINA RESULT:    16.713      0.000      0.000
REMARK INTER + INTRA:          19.212
REMARK INTER:                  18.667
REMARK INTRA:                   0.545
REMARK UNBOUND:                 0.545
REMARK SMILES CC1(C)CC[C@]2(C(=O)[O-])[C@H](C1)C1=CC[C@H]3[C@]4(C)CC[C@H](O)C(C)(C)[C@@H]4CC[C@]3(C)[C@@]1(C)C[C@@H]2O
REMARK SMILES IDX 6 1 5 2 10 3 33 4 4 5 11 6 12 7 32 8 2 9 13 10 30 11 1 12
REMARK SMILES IDX 3 13 14 14 28 15 31 16 15 17 27 18 29 19 16 20 26 21 18 22
REMARK SMILES IDX 17 23 25 24 19 25 22 26 20 27 23 28 24 29 7 30 8 31 9 32
REMARK SMILES IDX 34 33 21 35
REMARK H PARENT 34 34 21 36
REMARK Flexibility Score: inf
ROOT
ATOM      1  C   UNL     1     -33.591  21.191 -15.339  1.00  0.00     0.042 C 
ATOM      2  C   UNL     1     -33.755  22.156 -14.117  1.00  0.00     0.017 C 
ATOM      3  C   UNL     1     -34.811  21.411 -16.312  1.00  0.00     0.030 C 
ATOM      4  C   UNL     1     -33.457  19.684 -14.890  1.00  0.00     0.127 C 
ATOM      5  C   UNL     1     -33.825  23.637 -14.522  1.00  0.00     0.007 C 
ATOM      6  C   UNL     1     -34.900  22.924 -16.715  1.00  0.00     0.015 C 
ATOM      7  C   UNL     1     -36.129  20.749 -15.824  1.00  0.00    -0.063 C 
ATOM      8  C   UNL     1     -34.662  18.787 -15.239  1.00  0.00     0.044 C 
ATOM      9  C   UNL     1     -34.957  23.937 -15.533  1.00  0.00    -0.035 C 
ATOM     10  C   UNL     1     -37.332  21.220 -16.244  1.00  0.00    -0.027 C 
ATOM     11  C   UNL     1     -36.082  19.417 -15.051  1.00  0.00    -0.003 C 
ATOM     12  C   UNL     1     -36.329  23.926 -14.822  1.00  0.00     0.011 C 
ATOM     13  C   UNL     1     -34.742  25.360 -16.097  1.00  0.00     0.011 C 
ATOM     14  C   UNL     1     -38.670  20.551 -16.039  1.00  0.00     0.032 C 
ATOM     15  C   UNL     1     -37.239  18.427 -15.595  1.00  0.00    -0.020 C 
ATOM     16  C   UNL     1     -36.319  19.737 -13.533  1.00  0.00     0.017 C 
ATOM     17  C   UNL     1     -38.635  19.143 -15.375  1.00  0.00     0.006 C 
ATOM     18  C   UNL     1     -37.199  17.047 -14.844  1.00  0.00     0.008 C 
ATOM     19  C   UNL     1     -37.048  18.108 -17.114  1.00  0.00     0.012 C 
ATOM     20  C   UNL     1     -39.953  18.264 -15.616  1.00  0.00    -0.025 C 
ATOM     21  C   UNL     1     -38.515  16.629 -14.192  1.00  0.00     0.005 C 
ATOM     22  C   UNL     1     -41.135  18.920 -14.807  1.00  0.00     0.010 C 
ATOM     23  C   UNL     1     -40.384  18.299 -17.125  1.00  0.00     0.012 C 
ATOM     24  C   UNL     1     -39.729  16.750 -15.153  1.00  0.00     0.003 C 
ATOM     25  C   UNL     1     -41.276  18.395 -13.384  1.00  0.00     0.033 C 
ATOM     26  C   UNL     1     -41.021  16.054 -14.535  1.00  0.00    -0.006 C 
ATOM     27  C   UNL     1     -41.593  16.883 -13.321  1.00  0.00     0.120 C 
ATOM     28  C   UNL     1     -42.124  15.885 -15.622  1.00  0.00     0.014 C 
ATOM     29  C   UNL     1     -40.717  14.586 -14.093  1.00  0.00     0.014 C 
ENDROOT
BRANCH   1  30
ATOM     30  C   UNL     1     -32.278  21.528 -16.054  1.00  0.00     0.051 C 
ATOM     31  O   UNL     1     -32.251  22.412 -16.954  1.00  0.00    -0.549 OA
ATOM     32  O   UNL     1     -31.076  20.976 -15.629  1.00  0.00    -0.549 OA
ENDBRANCH   1  30
BRANCH   4  33
ATOM     33  O   UNL     1     -33.141  19.553 -13.524  1.00  0.00    -0.392 OA
ATOM     34  H   UNL     1     -33.396  20.408 -13.083  1.00  0.00     0.210 HD
ENDBRANCH   4  33
BRANCH  27  35
ATOM     35  O   UNL     1     -41.110  16.388 -12.096  1.00  0.00    -0.393 OA
ATOM     36  H   UNL     1     -40.961  15.412 -12.217  1.00  0.00     0.210 HD
ENDBRANCH  27  35
TORSDOF 3
ENDMDL
