MODEL 1
REMARK VINA RESULT:    -4.617      0.000      0.000
REMARK INTER + INTRA:          -5.204
REMARK INTER:                  -5.021
REMARK INTRA:                  -0.182
REMARK UNBOUND:                -0.182
REMARK SMILES CC(C)(C)[C@@H]1C=C[C@@H](O)CC1
REMARK SMILES IDX 5 1 11 2 10 3 8 4 7 5 6 6 2 7 1 8 3 9 4 10 9 11
REMARK H PARENT 9 12
REMARK Flexibility Score: inf
ROOT
ATOM      1  C   UNL     1     126.932 119.489 119.208  1.00  0.00     0.017 C 
ATOM      2  C   UNL     1     126.331 118.604 120.344  1.00  0.00     0.011 C 
ATOM      3  C   UNL     1     124.986 119.123 120.871  1.00  0.00     0.037 C 
ATOM      4  C   UNL     1     123.965 119.248 119.735  1.00  0.00     0.137 C 
ATOM      5  C   UNL     1     124.532 120.019 118.577  1.00  0.00     0.000 C 
ATOM      6  C   UNL     1     125.847 120.076 118.310  1.00  0.00    -0.025 C 
ENDROOT
BRANCH   1   7
ATOM      7  C   UNL     1     127.986 120.567 119.688  1.00  0.00    -0.032 C 
ATOM      8  C   UNL     1     127.571 121.998 119.286  1.00  0.00     0.011 C 
ATOM      9  C   UNL     1     128.156 120.511 121.228  1.00  0.00     0.011 C 
ATOM     10  C   UNL     1     129.379 120.276 119.072  1.00  0.00     0.011 C 
ENDBRANCH   1   7
BRANCH   4  11
ATOM     11  O   UNL     1     123.575 117.977 119.284  1.00  0.00    -0.389 OA
ATOM     12  H   UNL     1     122.595 118.015 119.132  1.00  0.00     0.211 HD
ENDBRANCH   4  11
TORSDOF 2
ENDMDL
MODEL 2
REMARK VINA RESULT:    -4.521     14.852     16.667
REMARK INTER + INTRA:          -5.100
REMARK INTER:                  -4.866
REMARK INTRA:                  -0.234
REMARK UNBOUND:                -0.182
REMARK SMILES CC(C)(C)[C@@H]1C=C[C@@H](O)CC1
REMARK SMILES IDX 5 1 11 2 10 3 8 4 7 5 6 6 2 7 1 8 3 9 4 10 9 11
REMARK H PARENT 9 12
REMARK Flexibility Score: inf
ROOT
ATOM      1  C   UNL     1     115.942 120.213 131.626  1.00  0.00     0.017 C 
ATOM      2  C   UNL     1     117.318 120.260 132.360  1.00  0.00     0.011 C 
ATOM      3  C   UNL     1     117.285 121.073 133.661  1.00  0.00     0.037 C 
ATOM      4  C   UNL     1     116.221 120.529 134.619  1.00  0.00     0.137 C 
ATOM      5  C   UNL     1     114.894 120.381 133.931  1.00  0.00     0.000 C 
ATOM      6  C   UNL     1     114.775 120.181 132.608  1.00  0.00    -0.025 C 
ENDROOT
BRANCH   1   7
ATOM      7  C   UNL     1     115.758 121.291 130.483  1.00  0.00    -0.032 C 
ATOM      8  C   UNL     1     117.068 122.051 130.190  1.00  0.00     0.011 C 
ATOM      9  C   UNL     1     115.269 120.616 129.175  1.00  0.00     0.011 C 
ATOM     10  C   UNL     1     114.676 122.327 130.883  1.00  0.00     0.011 C 
ENDBRANCH   1   7
BRANCH   4  11
ATOM     11  O   UNL     1     116.610 119.279 135.125  1.00  0.00    -0.389 OA
ATOM     12  H   UNL     1     116.687 119.379 136.110  1.00  0.00     0.211 HD
ENDBRANCH   4  11
TORSDOF 2
ENDMDL
MODEL 3
REMARK VINA RESULT:    -4.512     15.314     16.349
REMARK INTER + INTRA:          -5.090
REMARK INTER:                  -4.828
REMARK INTRA:                  -0.262
REMARK UNBOUND:                -0.182
REMARK SMILES CC(C)(C)[C@@H]1C=C[C@@H](O)CC1
REMARK SMILES IDX 5 1 11 2 10 3 8 4 7 5 6 6 2 7 1 8 3 9 4 10 9 11
REMARK H PARENT 9 12
REMARK Flexibility Score: inf
ROOT
ATOM      1  C   UNL     1     120.347 130.736 128.468  1.00  0.00     0.017 C 
ATOM      2  C   UNL     1     119.874 132.215 128.312  1.00  0.00     0.011 C 
ATOM      3  C   UNL     1     120.754 133.217 129.070  1.00  0.00     0.037 C 
ATOM      4  C   UNL     1     122.216 133.106 128.625  1.00  0.00     0.137 C 
ATOM      5  C   UNL     1     122.692 131.682 128.672  1.00  0.00     0.000 C 
ATOM      6  C   UNL     1     121.867 130.630 128.543  1.00  0.00    -0.025 C 
ENDROOT
BRANCH   1   7
ATOM      7  C   UNL     1     119.614 129.916 129.606  1.00  0.00    -0.032 C 
ATOM      8  C   UNL     1     119.630 128.400 129.325  1.00  0.00     0.011 C 
ATOM      9  C   UNL     1     120.285 130.177 130.979  1.00  0.00     0.011 C 
ATOM     10  C   UNL     1     118.137 130.369 129.736  1.00  0.00     0.011 C 
ENDBRANCH   1   7
BRANCH   4  11
ATOM     11  O   UNL     1     122.369 133.590 127.316  1.00  0.00    -0.389 OA
ATOM     12  H   UNL     1     123.334 133.519 127.095  1.00  0.00     0.211 HD
ENDBRANCH   4  11
TORSDOF 2
ENDMDL
MODEL 4
REMARK VINA RESULT:    -4.240     14.500     16.235
REMARK INTER + INTRA:          -4.794
REMARK INTER:                  -4.518
REMARK INTRA:                  -0.276
REMARK UNBOUND:                -0.182
REMARK SMILES CC(C)(C)[C@@H]1C=C[C@@H](O)CC1
REMARK SMILES IDX 5 1 11 2 10 3 8 4 7 5 6 6 2 7 1 8 3 9 4 10 9 11
REMARK H PARENT 9 12
REMARK Flexibility Score: inf
ROOT
ATOM      1  C   UNL     1     116.165 121.823 131.519  1.00  0.00     0.017 C 
ATOM      2  C   UNL     1     114.746 121.306 131.913  1.00  0.00     0.011 C 
ATOM      3  C   UNL     1     114.781 120.045 132.787  1.00  0.00     0.037 C 
ATOM      4  C   UNL     1     115.603 120.283 134.058  1.00  0.00     0.137 C 
ATOM      5  C   UNL     1     116.949 120.868 133.735  1.00  0.00     0.000 C 
ATOM      6  C   UNL     1     117.182 121.602 132.634  1.00  0.00    -0.025 C 
ENDROOT
BRANCH   1   7
ATOM      7  C   UNL     1     116.684 121.338 130.105  1.00  0.00    -0.032 C 
ATOM      8  C   UNL     1     115.524 121.102 129.115  1.00  0.00     0.011 C 
ATOM      9  C   UNL     1     117.655 122.381 129.497  1.00  0.00     0.011 C 
ATOM     10  C   UNL     1     117.478 120.014 130.244  1.00  0.00     0.011 C 
ENDBRANCH   1   7
BRANCH   4  11
ATOM     11  O   UNL     1     114.927 121.159 134.922  1.00  0.00    -0.389 OA
ATOM     12  H   UNL     1     113.979 121.177 134.628  1.00  0.00     0.211 HD
ENDBRANCH   4  11
TORSDOF 2
ENDMDL
MODEL 5
REMARK VINA RESULT:    -4.199      1.151      2.392
REMARK INTER + INTRA:          -4.749
REMARK INTER:                  -4.577
REMARK INTRA:                  -0.172
REMARK UNBOUND:                -0.182
REMARK SMILES CC(C)(C)[C@@H]1C=C[C@@H](O)CC1
REMARK SMILES IDX 5 1 11 2 10 3 8 4 7 5 6 6 2 7 1 8 3 9 4 10 9 11
REMARK H PARENT 9 12
REMARK Flexibility Score: inf
ROOT
ATOM      1  C   UNL     1     125.699 119.899 120.286  1.00  0.00     0.017 C 
ATOM      2  C   UNL     1     124.642 119.859 119.139  1.00  0.00     0.011 C 
ATOM      3  C   UNL     1     124.303 118.437 118.674  1.00  0.00     0.037 C 
ATOM      4  C   UNL     1     123.809 117.581 119.845  1.00  0.00     0.137 C 
ATOM      5  C   UNL     1     124.752 117.659 121.012  1.00  0.00     0.000 C 
ATOM      6  C   UNL     1     125.549 118.717 121.238  1.00  0.00    -0.025 C 
ENDROOT
BRANCH   1   7
ATOM      7  C   UNL     1     127.191 120.125 119.812  1.00  0.00    -0.032 C 
ATOM      8  C   UNL     1     127.668 119.010 118.858  1.00  0.00     0.011 C 
ATOM      9  C   UNL     1     127.331 121.491 119.093  1.00  0.00     0.011 C 
ATOM     10  C   UNL     1     128.148 120.161 121.031  1.00  0.00     0.011 C 
ENDBRANCH   1   7
BRANCH   4  11
ATOM     11  O   UNL     1     122.539 118.009 120.262  1.00  0.00    -0.389 OA
ATOM     12  H   UNL     1     122.443 117.738 121.213  1.00  0.00     0.211 HD
ENDBRANCH   4  11
TORSDOF 2
ENDMDL
MODEL 6
REMARK VINA RESULT:    -4.179     13.958     15.767
REMARK INTER + INTRA:          -4.727
REMARK INTER:                  -4.468
REMARK INTRA:                  -0.259
REMARK UNBOUND:                -0.182
REMARK SMILES CC(C)(C)[C@@H]1C=C[C@@H](O)CC1
REMARK SMILES IDX 5 1 11 2 10 3 8 4 7 5 6 6 2 7 1 8 3 9 4 10 9 11
REMARK H PARENT 9 12
REMARK Flexibility Score: inf
ROOT
ATOM      1  C   UNL     1     115.756 122.371 130.328  1.00  0.00     0.017 C 
ATOM      2  C   UNL     1     114.592 122.140 131.342  1.00  0.00     0.011 C 
ATOM      3  C   UNL     1     114.681 120.793 132.071  1.00  0.00     0.037 C 
ATOM      4  C   UNL     1     116.021 120.653 132.802  1.00  0.00     0.137 C 
ATOM      5  C   UNL     1     117.173 120.955 131.886  1.00  0.00     0.000 C 
ATOM      6  C   UNL     1     117.068 121.766 130.820  1.00  0.00    -0.025 C 
ENDROOT
BRANCH   1   7
ATOM      7  C   UNL     1     115.424 121.986 128.830  1.00  0.00    -0.032 C 
ATOM      8  C   UNL     1     115.490 120.462 128.598  1.00  0.00     0.011 C 
ATOM      9  C   UNL     1     114.009 122.489 128.442  1.00  0.00     0.011 C 
ATOM     10  C   UNL     1     116.423 122.667 127.860  1.00  0.00     0.011 C 
ENDBRANCH   1   7
BRANCH   4  11
ATOM     11  O   UNL     1     116.075 121.528 133.898  1.00  0.00    -0.389 OA
ATOM     12  H   UNL     1     116.078 120.964 134.715  1.00  0.00     0.211 HD
ENDBRANCH   4  11
TORSDOF 2
ENDMDL
MODEL 7
REMARK VINA RESULT:    -4.128     13.656     15.384
REMARK INTER + INTRA:          -4.672
REMARK INTER:                  -4.397
REMARK INTRA:                  -0.275
REMARK UNBOUND:                -0.182
REMARK SMILES CC(C)(C)[C@@H]1C=C[C@@H](O)CC1
REMARK SMILES IDX 5 1 11 2 10 3 8 4 7 5 6 6 2 7 1 8 3 9 4 10 9 11
REMARK H PARENT 9 12
REMARK Flexibility Score: inf
ROOT
ATOM      1  C   UNL     1     115.423 121.033 129.746  1.00  0.00     0.017 C 
ATOM      2  C   UNL     1     116.071 119.832 130.503  1.00  0.00     0.011 C 
ATOM      3  C   UNL     1     116.564 120.194 131.909  1.00  0.00     0.037 C 
ATOM      4  C   UNL     1     115.425 120.769 132.758  1.00  0.00     0.137 C 
ATOM      5  C   UNL     1     114.711 121.874 132.032  1.00  0.00     0.000 C 
ATOM      6  C   UNL     1     114.662 121.957 130.692  1.00  0.00    -0.025 C 
ENDROOT
BRANCH   1   7
ATOM      7  C   UNL     1     116.397 121.814 128.774  1.00  0.00    -0.032 C 
ATOM      8  C   UNL     1     117.495 120.895 128.199  1.00  0.00     0.011 C 
ATOM      9  C   UNL     1     115.603 122.438 127.598  1.00  0.00     0.011 C 
ATOM     10  C   UNL     1     117.087 122.984 129.520  1.00  0.00     0.011 C 
ENDBRANCH   1   7
BRANCH   4  11
ATOM     11  O   UNL     1     114.497 119.765 133.077  1.00  0.00    -0.389 OA
ATOM     12  H   UNL     1     114.596 119.054 132.392  1.00  0.00     0.211 HD
ENDBRANCH   4  11
TORSDOF 2
ENDMDL
MODEL 8
REMARK VINA RESULT:    -4.067     14.010     15.515
REMARK INTER + INTRA:          -4.605
REMARK INTER:                  -4.364
REMARK INTRA:                  -0.241
REMARK UNBOUND:                -0.182
REMARK SMILES CC(C)(C)[C@@H]1C=C[C@@H](O)CC1
REMARK SMILES IDX 5 1 11 2 10 3 8 4 7 5 6 6 2 7 1 8 3 9 4 10 9 11
REMARK H PARENT 9 12
REMARK Flexibility Score: inf
ROOT
ATOM      1  C   UNL     1     115.413 122.259 130.978  1.00  0.00     0.017 C 
ATOM      2  C   UNL     1     116.545 123.331 130.912  1.00  0.00     0.011 C 
ATOM      3  C   UNL     1     117.318 123.317 129.587  1.00  0.00     0.037 C 
ATOM      4  C   UNL     1     116.371 123.510 128.398  1.00  0.00     0.137 C 
ATOM      5  C   UNL     1     115.212 122.557 128.465  1.00  0.00     0.000 C 
ATOM      6  C   UNL     1     114.750 122.048 129.620  1.00  0.00    -0.025 C 
ENDROOT
BRANCH   1   7
ATOM      7  C   UNL     1     115.817 120.903 131.685  1.00  0.00    -0.032 C 
ATOM      8  C   UNL     1     117.189 121.003 132.383  1.00  0.00     0.011 C 
ATOM      9  C   UNL     1     114.750 120.500 132.735  1.00  0.00     0.011 C 
ATOM     10  C   UNL     1     115.884 119.750 130.650  1.00  0.00     0.011 C 
ENDBRANCH   1   7
BRANCH   4  11
ATOM     11  O   UNL     1     115.875 124.823 128.375  1.00  0.00    -0.389 OA
ATOM     12  H   UNL     1     115.349 124.916 127.538  1.00  0.00     0.211 HD
ENDBRANCH   4  11
TORSDOF 2
ENDMDL
MODEL 9
REMARK VINA RESULT:    -3.747     16.657     17.424
REMARK INTER + INTRA:          -4.258
REMARK INTER:                  -3.983
REMARK INTRA:                  -0.275
REMARK UNBOUND:                -0.182
REMARK SMILES CC(C)(C)[C@@H]1C=C[C@@H](O)CC1
REMARK SMILES IDX 5 1 11 2 10 3 8 4 7 5 6 6 2 7 1 8 3 9 4 10 9 11
REMARK H PARENT 9 12
REMARK Flexibility Score: inf
ROOT
ATOM      1  C   UNL     1     120.576 133.051 127.992  1.00  0.00     0.017 C 
ATOM      2  C   UNL     1     119.138 132.570 127.625  1.00  0.00     0.011 C 
ATOM      3  C   UNL     1     118.085 132.945 128.676  1.00  0.00     0.037 C 
ATOM      4  C   UNL     1     118.066 134.459 128.915  1.00  0.00     0.137 C 
ATOM      5  C   UNL     1     119.447 134.985 129.185  1.00  0.00     0.000 C 
ATOM      6  C   UNL     1     120.559 134.389 128.724  1.00  0.00    -0.025 C 
ENDROOT
BRANCH   1   7
ATOM      7  C   UNL     1     121.480 131.968 128.708  1.00  0.00    -0.032 C 
ATOM      8  C   UNL     1     122.958 132.074 128.278  1.00  0.00     0.011 C 
ATOM      9  C   UNL     1     121.396 132.124 130.248  1.00  0.00     0.011 C 
ATOM     10  C   UNL     1     120.981 130.538 128.375  1.00  0.00     0.011 C 
ENDBRANCH   1   7
BRANCH   4  11
ATOM     11  O   UNL     1     117.540 135.125 127.797  1.00  0.00    -0.389 OA
ATOM     12  H   UNL     1     117.071 134.442 127.250  1.00  0.00     0.211 HD
ENDBRANCH   4  11
TORSDOF 2
ENDMDL
