MODEL 1
REMARK VINA RESULT:    -5.764      0.000      0.000
REMARK INTER + INTRA:          -5.932
REMARK INTER:                  -5.932
REMARK INTRA:                   0.000
REMARK UNBOUND:                 0.000
REMARK SMILES O=c1ccc2ccc(O)cc2o1
REMARK SMILES IDX 6 1 7 2 8 3 10 4 11 5 5 6 4 7 3 8 2 9 1 10 12 11 9 12
REMARK H PARENT 9 13
REMARK Flexibility Score: inf
ROOT
ATOM      1  C   UNL     1      60.415  38.272  38.477  1.00  0.00     0.016 A 
ATOM      2  C   UNL     1      61.585  39.030  38.601  1.00  0.00     0.047 A 
ATOM      3  C   UNL     1      61.887  40.024  37.657  1.00  0.00     0.119 A 
ATOM      4  C   UNL     1      61.016  40.259  36.587  1.00  0.00     0.094 A 
ATOM      5  C   UNL     1      59.844  39.506  36.455  1.00  0.00     0.142 A 
ATOM      6  C   UNL     1      59.541  38.506  37.406  1.00  0.00     0.018 A 
ATOM      7  C   UNL     1      58.363  37.770  37.248  1.00  0.00     0.019 A 
ATOM      8  C   UNL     1      57.527  38.042  36.165  1.00  0.00     0.094 A 
ATOM      9  C   UNL     1      57.891  39.047  35.263  1.00  0.00     0.336 A 
ATOM     10  O   UNL     1      57.150  39.306  34.279  1.00  0.00    -0.246 OA
ATOM     11  O   UNL     1      59.019  39.733  35.436  1.00  0.00    -0.423 OA
ENDROOT
BRANCH   3  12
ATOM     12  O   UNL     1      63.050  40.781  37.774  1.00  0.00    -0.508 OA
ATOM     13  H   UNL     1      63.434  41.025  38.680  1.00  0.00     0.293 HD
ENDBRANCH   3  12
TORSDOF 1
ENDMDL
MODEL 2
REMARK VINA RESULT:    -5.671     19.310     20.551
REMARK INTER + INTRA:          -5.836
REMARK INTER:                  -5.836
REMARK INTRA:                   0.000
REMARK UNBOUND:                 0.000
REMARK SMILES O=c1ccc2ccc(O)cc2o1
REMARK SMILES IDX 6 1 7 2 8 3 10 4 11 5 5 6 4 7 3 8 2 9 1 10 12 11 9 12
REMARK H PARENT 9 13
REMARK Flexibility Score: inf
ROOT
ATOM      1  C   UNL     1      45.673  36.258  49.711  1.00  0.00     0.016 A 
ATOM      2  C   UNL     1      44.531  36.959  50.110  1.00  0.00     0.047 A 
ATOM      3  C   UNL     1      44.365  37.335  51.452  1.00  0.00     0.119 A 
ATOM      4  C   UNL     1      45.346  37.008  52.396  1.00  0.00     0.094 A 
ATOM      5  C   UNL     1      46.492  36.307  52.005  1.00  0.00     0.142 A 
ATOM      6  C   UNL     1      46.657  35.929  50.653  1.00  0.00     0.018 A 
ATOM      7  C   UNL     1      47.812  35.229  50.293  1.00  0.00     0.019 A 
ATOM      8  C   UNL     1      48.762  34.927  51.269  1.00  0.00     0.094 A 
ATOM      9  C   UNL     1      48.531  35.333  52.588  1.00  0.00     0.336 A 
ATOM     10  O   UNL     1      49.376  35.070  53.483  1.00  0.00    -0.246 OA
ATOM     11  O   UNL     1      47.423  35.999  52.905  1.00  0.00    -0.423 OA
ENDROOT
BRANCH   3  12
ATOM     12  O   UNL     1      43.229  38.034  51.857  1.00  0.00    -0.508 OA
ATOM     13  H   UNL     1      42.999  38.941  51.469  1.00  0.00     0.293 HD
ENDBRANCH   3  12
TORSDOF 1
ENDMDL
MODEL 3
REMARK VINA RESULT:    -5.670      1.753      2.604
REMARK INTER + INTRA:          -5.835
REMARK INTER:                  -5.835
REMARK INTRA:                   0.000
REMARK UNBOUND:                 0.000
REMARK SMILES O=c1ccc2ccc(O)cc2o1
REMARK SMILES IDX 6 1 7 2 8 3 10 4 11 5 5 6 4 7 3 8 2 9 1 10 12 11 9 12
REMARK H PARENT 9 13
REMARK Flexibility Score: inf
ROOT
ATOM      1  C   UNL     1      60.085  40.134  36.391  1.00  0.00     0.016 A 
ATOM      2  C   UNL     1      60.700  39.577  37.518  1.00  0.00     0.047 A 
ATOM      3  C   UNL     1      60.152  38.441  38.134  1.00  0.00     0.119 A 
ATOM      4  C   UNL     1      58.985  37.862  37.620  1.00  0.00     0.094 A 
ATOM      5  C   UNL     1      58.363  38.413  36.494  1.00  0.00     0.142 A 
ATOM      6  C   UNL     1      58.917  39.556  35.875  1.00  0.00     0.018 A 
ATOM      7  C   UNL     1      58.273  40.083  34.752  1.00  0.00     0.019 A 
ATOM      8  C   UNL     1      57.113  39.471  34.277  1.00  0.00     0.094 A 
ATOM      9  C   UNL     1      56.623  38.341  34.941  1.00  0.00     0.336 A 
ATOM     10  O   UNL     1      55.578  37.775  34.528  1.00  0.00    -0.246 OA
ATOM     11  O   UNL     1      57.255  37.859  36.009  1.00  0.00    -0.423 OA
ENDROOT
BRANCH   3  12
ATOM     12  O   UNL     1      60.759  37.881  39.256  1.00  0.00    -0.508 OA
ATOM     13  H   UNL     1      61.522  37.220  39.171  1.00  0.00     0.293 HD
ENDBRANCH   3  12
TORSDOF 1
ENDMDL
MODEL 4
REMARK VINA RESULT:    -5.546      0.815      4.222
REMARK INTER + INTRA:          -5.709
REMARK INTER:                  -5.709
REMARK INTRA:                   0.000
REMARK UNBOUND:                 0.000
REMARK SMILES O=c1ccc2ccc(O)cc2o1
REMARK SMILES IDX 6 1 7 2 8 3 10 4 11 5 5 6 4 7 3 8 2 9 1 10 12 11 9 12
REMARK H PARENT 9 13
REMARK Flexibility Score: inf
ROOT
ATOM      1  C   UNL     1      58.386  37.653  37.157  1.00  0.00     0.016 A 
ATOM      2  C   UNL     1      57.535  38.003  36.103  1.00  0.00     0.047 A 
ATOM      3  C   UNL     1      57.819  39.122  35.305  1.00  0.00     0.119 A 
ATOM      4  C   UNL     1      58.959  39.893  35.565  1.00  0.00     0.094 A 
ATOM      5  C   UNL     1      59.815  39.551  36.617  1.00  0.00     0.142 A 
ATOM      6  C   UNL     1      59.527  38.423  37.419  1.00  0.00     0.018 A 
ATOM      7  C   UNL     1      60.401  38.107  38.463  1.00  0.00     0.019 A 
ATOM      8  C   UNL     1      61.523  38.906  38.682  1.00  0.00     0.094 A 
ATOM      9  C   UNL     1      61.745  40.007  37.847  1.00  0.00     0.336 A 
ATOM     10  O   UNL     1      62.752  40.739  38.029  1.00  0.00    -0.246 OA
ATOM     11  O   UNL     1      60.897  40.287  36.860  1.00  0.00    -0.423 OA
ENDROOT
BRANCH   3  12
ATOM     12  O   UNL     1      56.977  39.475  34.254  1.00  0.00    -0.508 OA
ATOM     13  H   UNL     1      56.575  38.776  33.639  1.00  0.00     0.293 HD
ENDBRANCH   3  12
TORSDOF 1
ENDMDL
MODEL 5
REMARK VINA RESULT:    -5.514      1.858      4.950
REMARK INTER + INTRA:          -5.676
REMARK INTER:                  -5.676
REMARK INTRA:                   0.000
REMARK UNBOUND:                 0.000
REMARK SMILES O=c1ccc2ccc(O)cc2o1
REMARK SMILES IDX 6 1 7 2 8 3 10 4 11 5 5 6 4 7 3 8 2 9 1 10 12 11 9 12
REMARK H PARENT 9 13
REMARK Flexibility Score: inf
ROOT
ATOM      1  C   UNL     1      58.107  40.025  34.698  1.00  0.00     0.016 A 
ATOM      2  C   UNL     1      56.925  39.433  34.239  1.00  0.00     0.047 A 
ATOM      3  C   UNL     1      56.427  38.275  34.856  1.00  0.00     0.119 A 
ATOM      4  C   UNL     1      57.116  37.707  35.935  1.00  0.00     0.094 A 
ATOM      5  C   UNL     1      58.299  38.292  36.400  1.00  0.00     0.142 A 
ATOM      6  C   UNL     1      58.798  39.458  35.778  1.00  0.00     0.018 A 
ATOM      7  C   UNL     1      59.982  40.019  36.265  1.00  0.00     0.019 A 
ATOM      8  C   UNL     1      60.632  39.417  37.343  1.00  0.00     0.094 A 
ATOM      9  C   UNL     1      60.079  38.263  37.909  1.00  0.00     0.336 A 
ATOM     10  O   UNL     1      60.651  37.706  38.882  1.00  0.00    -0.246 OA
ATOM     11  O   UNL     1      58.950  37.749  37.426  1.00  0.00    -0.423 OA
ENDROOT
BRANCH   3  12
ATOM     12  O   UNL     1      55.251  37.681  34.404  1.00  0.00    -0.508 OA
ATOM     13  H   UNL     1      54.676  37.113  35.016  1.00  0.00     0.293 HD
ENDBRANCH   3  12
TORSDOF 1
ENDMDL
MODEL 6
REMARK VINA RESULT:    -5.482     11.101     12.250
REMARK INTER + INTRA:          -5.642
REMARK INTER:                  -5.642
REMARK INTRA:                   0.000
REMARK UNBOUND:                 0.000
REMARK SMILES O=c1ccc2ccc(O)cc2o1
REMARK SMILES IDX 6 1 7 2 8 3 10 4 11 5 5 6 4 7 3 8 2 9 1 10 12 11 9 12
REMARK H PARENT 9 13
REMARK Flexibility Score: inf
ROOT
ATOM      1  C   UNL     1      53.732  35.875  45.838  1.00  0.00     0.016 A 
ATOM      2  C   UNL     1      52.981  36.450  46.869  1.00  0.00     0.047 A 
ATOM      3  C   UNL     1      51.594  36.247  46.933  1.00  0.00     0.119 A 
ATOM      4  C   UNL     1      50.957  35.466  45.961  1.00  0.00     0.094 A 
ATOM      5  C   UNL     1      51.700  34.887  44.926  1.00  0.00     0.142 A 
ATOM      6  C   UNL     1      53.097  35.093  44.863  1.00  0.00     0.018 A 
ATOM      7  C   UNL     1      53.811  34.502  43.817  1.00  0.00     0.019 A 
ATOM      8  C   UNL     1      53.132  33.732  42.873  1.00  0.00     0.094 A 
ATOM      9  C   UNL     1      51.748  33.572  42.998  1.00  0.00     0.336 A 
ATOM     10  O   UNL     1      51.117  32.881  42.156  1.00  0.00    -0.246 OA
ATOM     11  O   UNL     1      51.090  34.145  44.004  1.00  0.00    -0.423 OA
ENDROOT
BRANCH   3  12
ATOM     12  O   UNL     1      50.841  36.816  47.957  1.00  0.00    -0.508 OA
ATOM     13  H   UNL     1      50.480  36.258  48.722  1.00  0.00     0.293 HD
ENDBRANCH   3  12
TORSDOF 1
ENDMDL
MODEL 7
REMARK VINA RESULT:    -5.424      8.695      9.754
REMARK INTER + INTRA:          -5.583
REMARK INTER:                  -5.583
REMARK INTRA:                   0.000
REMARK UNBOUND:                 0.000
REMARK SMILES O=c1ccc2ccc(O)cc2o1
REMARK SMILES IDX 6 1 7 2 8 3 10 4 11 5 5 6 4 7 3 8 2 9 1 10 12 11 9 12
REMARK H PARENT 9 13
REMARK Flexibility Score: inf
ROOT
ATOM      1  C   UNL     1      52.126  39.485  44.133  1.00  0.00     0.016 A 
ATOM      2  C   UNL     1      52.556  40.541  43.322  1.00  0.00     0.047 A 
ATOM      3  C   UNL     1      53.295  40.283  42.156  1.00  0.00     0.119 A 
ATOM      4  C   UNL     1      53.603  38.964  41.803  1.00  0.00     0.094 A 
ATOM      5  C   UNL     1      53.177  37.902  42.608  1.00  0.00     0.142 A 
ATOM      6  C   UNL     1      52.433  38.164  43.781  1.00  0.00     0.018 A 
ATOM      7  C   UNL     1      52.022  37.082  44.565  1.00  0.00     0.019 A 
ATOM      8  C   UNL     1      52.354  35.786  44.171  1.00  0.00     0.094 A 
ATOM      9  C   UNL     1      53.092  35.602  42.997  1.00  0.00     0.336 A 
ATOM     10  O   UNL     1      53.401  34.440  42.626  1.00  0.00    -0.246 OA
ATOM     11  O   UNL     1      53.472  36.649  42.268  1.00  0.00    -0.423 OA
ENDROOT
BRANCH   3  12
ATOM     12  O   UNL     1      53.726  41.329  41.344  1.00  0.00    -0.508 OA
ATOM     13  H   UNL     1      54.711  41.484  41.159  1.00  0.00     0.293 HD
ENDBRANCH   3  12
TORSDOF 1
ENDMDL
MODEL 8
REMARK VINA RESULT:    -5.419      2.081      2.649
REMARK INTER + INTRA:          -5.577
REMARK INTER:                  -5.577
REMARK INTRA:                   0.000
REMARK UNBOUND:                 0.000
REMARK SMILES O=c1ccc2ccc(O)cc2o1
REMARK SMILES IDX 6 1 7 2 8 3 10 4 11 5 5 6 4 7 3 8 2 9 1 10 12 11 9 12
REMARK H PARENT 9 13
REMARK Flexibility Score: inf
ROOT
ATOM      1  C   UNL     1      60.288  37.897  35.099  1.00  0.00     0.016 A 
ATOM      2  C   UNL     1      61.512  38.574  35.044  1.00  0.00     0.047 A 
ATOM      3  C   UNL     1      61.908  39.407  36.101  1.00  0.00     0.119 A 
ATOM      4  C   UNL     1      61.076  39.564  37.216  1.00  0.00     0.094 A 
ATOM      5  C   UNL     1      59.851  38.891  37.280  1.00  0.00     0.142 A 
ATOM      6  C   UNL     1      59.454  38.052  36.215  1.00  0.00     0.018 A 
ATOM      7  C   UNL     1      58.224  37.394  36.307  1.00  0.00     0.019 A 
ATOM      8  C   UNL     1      57.431  37.582  37.439  1.00  0.00     0.094 A 
ATOM      9  C   UNL     1      57.889  38.427  38.455  1.00  0.00     0.336 A 
ATOM     10  O   UNL     1      57.187  38.609  39.484  1.00  0.00    -0.246 OA
ATOM     11  O   UNL     1      59.064  39.043  38.342  1.00  0.00    -0.423 OA
ENDROOT
BRANCH   3  12
ATOM     12  O   UNL     1      63.125  40.084  36.052  1.00  0.00    -0.508 OA
ATOM     13  H   UNL     1      63.458  40.630  36.839  1.00  0.00     0.293 HD
ENDBRANCH   3  12
TORSDOF 1
ENDMDL
MODEL 9
REMARK VINA RESULT:    -5.397      9.447     10.561
REMARK INTER + INTRA:          -5.555
REMARK INTER:                  -5.555
REMARK INTRA:                   0.000
REMARK UNBOUND:                 0.000
REMARK SMILES O=c1ccc2ccc(O)cc2o1
REMARK SMILES IDX 6 1 7 2 8 3 10 4 11 5 5 6 4 7 3 8 2 9 1 10 12 11 9 12
REMARK H PARENT 9 13
REMARK Flexibility Score: inf
ROOT
ATOM      1  C   UNL     1      54.898  37.362  43.845  1.00  0.00     0.016 A 
ATOM      2  C   UNL     1      54.030  37.956  44.768  1.00  0.00     0.047 A 
ATOM      3  C   UNL     1      53.144  37.165  45.516  1.00  0.00     0.119 A 
ATOM      4  C   UNL     1      53.127  35.776  45.338  1.00  0.00     0.094 A 
ATOM      5  C   UNL     1      53.991  35.174  44.417  1.00  0.00     0.142 A 
ATOM      6  C   UNL     1      54.883  35.972  43.665  1.00  0.00     0.018 A 
ATOM      7  C   UNL     1      55.733  35.341  42.752  1.00  0.00     0.019 A 
ATOM      8  C   UNL     1      55.679  33.955  42.611  1.00  0.00     0.094 A 
ATOM      9  C   UNL     1      54.771  33.229  43.390  1.00  0.00     0.336 A 
ATOM     10  O   UNL     1      54.707  31.978  43.276  1.00  0.00    -0.246 OA
ATOM     11  O   UNL     1      53.971  33.854  44.252  1.00  0.00    -0.423 OA
ENDROOT
BRANCH   3  12
ATOM     12  O   UNL     1      52.277  37.750  46.437  1.00  0.00    -0.508 OA
ATOM     13  H   UNL     1      52.463  38.664  46.832  1.00  0.00     0.293 HD
ENDBRANCH   3  12
TORSDOF 1
ENDMDL
