MODEL 1
REMARK VINA RESULT:    -5.955      0.000      0.000
REMARK INTER + INTRA:          -7.269
REMARK INTER:                  -6.999
REMARK INTRA:                  -0.270
REMARK UNBOUND:                -0.270
REMARK SMILES O=c1cc(-c2ccc(O)c(O)c2)oc2cc(O)cc(O)c12
REMARK SMILES IDX 4 1 3 2 2 3 1 4 21 5 19 6 18 7 16 8 15 9 14 10 13 11 5 12
REMARK SMILES IDX 6 13 7 14 8 15 12 16 10 17 9 18 11 20 20 22 17 24
REMARK H PARENT 9 19 11 21 20 23 17 25
REMARK Flexibility Score: inf
ROOT
ATOM      1  C   UNL     1      -9.120   8.318  16.864  1.00  0.00     0.138 A 
ATOM      2  C   UNL     1     -10.467   8.512  17.202  1.00  0.00     0.100 A 
ATOM      3  C   UNL     1     -10.796   9.072  18.438  1.00  0.00     0.197 A 
ATOM      4  O   UNL     1     -12.009   9.292  18.687  1.00  0.00    -0.289 OA
ATOM      5  C   UNL     1      -9.769   9.410  19.351  1.00  0.00     0.107 A 
ATOM      6  C   UNL     1      -9.986   9.949  20.655  1.00  0.00     0.134 A 
ATOM      7  C   UNL     1      -8.889  10.354  21.426  1.00  0.00     0.093 A 
ATOM      8  C   UNL     1      -7.582  10.183  20.964  1.00  0.00     0.123 A 
ATOM      9  C   UNL     1      -7.358   9.609  19.716  1.00  0.00     0.094 A 
ATOM     10  C   UNL     1      -8.432   9.226  18.908  1.00  0.00     0.146 A 
ATOM     11  O   UNL     1      -8.174   8.695  17.718  1.00  0.00    -0.456 OA
ENDROOT
BRANCH   1  12
ATOM     12  C   UNL     1      -8.716   7.726  15.564  1.00  0.00     0.021 A 
ATOM     13  C   UNL     1      -8.999   6.374  15.302  1.00  0.00     0.016 A 
ATOM     14  C   UNL     1      -8.637   5.796  14.084  1.00  0.00     0.051 A 
ATOM     15  C   UNL     1      -7.996   6.555  13.102  1.00  0.00     0.157 A 
ATOM     16  C   UNL     1      -8.082   8.492  14.567  1.00  0.00     0.062 A 
ATOM     17  C   UNL     1      -7.719   7.912  13.342  1.00  0.00     0.158 A 
BRANCH  15  18
ATOM     18  O   UNL     1      -7.645   5.949  11.897  1.00  0.00    -0.504 OA
ATOM     19  H   UNL     1      -8.323   5.775  11.165  1.00  0.00     0.293 HD
ENDBRANCH  15  18
BRANCH  17  20
ATOM     20  O   UNL     1      -7.091   8.678  12.363  1.00  0.00    -0.504 OA
ATOM     21  H   UNL     1      -6.539   8.251  11.627  1.00  0.00     0.293 HD
ENDBRANCH  17  20
ENDBRANCH   1  12
BRANCH   6  22
ATOM     22  O   UNL     1     -11.246  10.084  21.244  1.00  0.00    -0.507 OA
ATOM     23  H   UNL     1     -11.998  10.645  20.875  1.00  0.00     0.293 HD
ENDBRANCH   6  22
BRANCH   8  24
ATOM     24  O   UNL     1      -6.496  10.575  21.745  1.00  0.00    -0.508 OA
ATOM     25  H   UNL     1      -5.881  11.328  21.458  1.00  0.00     0.293 HD
ENDBRANCH   8  24
TORSDOF 5
ENDMDL
MODEL 2
REMARK VINA RESULT:    -5.773      3.118      4.720
REMARK INTER + INTRA:          -7.056
REMARK INTER:                  -6.738
REMARK INTRA:                  -0.318
REMARK UNBOUND:                -0.270
REMARK SMILES O=c1cc(-c2ccc(O)c(O)c2)oc2cc(O)cc(O)c12
REMARK SMILES IDX 4 1 3 2 2 3 1 4 21 5 19 6 18 7 16 8 15 9 14 10 13 11 5 12
REMARK SMILES IDX 6 13 7 14 8 15 12 16 10 17 9 18 11 20 20 22 17 24
REMARK H PARENT 9 19 11 21 20 23 17 25
REMARK Flexibility Score: inf
ROOT
ATOM      1  C   UNL     1      -5.882  10.124  17.594  1.00  0.00     0.138 A 
ATOM      2  C   UNL     1      -5.505  10.187  18.943  1.00  0.00     0.100 A 
ATOM      3  C   UNL     1      -6.467  10.007  19.938  1.00  0.00     0.197 A 
ATOM      4  O   UNL     1      -6.088  10.006  21.137  1.00  0.00    -0.289 OA
ATOM      5  C   UNL     1      -7.819   9.793  19.578  1.00  0.00     0.107 A 
ATOM      6  C   UNL     1      -8.892   9.637  20.506  1.00  0.00     0.134 A 
ATOM      7  C   UNL     1     -10.170   9.315  20.035  1.00  0.00     0.093 A 
ATOM      8  C   UNL     1     -10.427   9.203  18.666  1.00  0.00     0.123 A 
ATOM      9  C   UNL     1      -9.398   9.407  17.750  1.00  0.00     0.094 A 
ATOM     10  C   UNL     1      -8.104   9.696  18.190  1.00  0.00     0.146 A 
ATOM     11  O   UNL     1      -7.148   9.868  17.284  1.00  0.00    -0.456 OA
ENDROOT
BRANCH   1  12
ATOM     12  C   UNL     1      -4.899  10.310  16.497  1.00  0.00     0.021 A 
ATOM     13  C   UNL     1      -3.554  10.570  16.810  1.00  0.00     0.016 A 
ATOM     14  C   UNL     1      -2.608  10.740  15.796  1.00  0.00     0.051 A 
ATOM     15  C   UNL     1      -2.985  10.646  14.454  1.00  0.00     0.157 A 
ATOM     16  C   UNL     1      -5.272  10.203  15.142  1.00  0.00     0.062 A 
ATOM     17  C   UNL     1      -4.323  10.372  14.124  1.00  0.00     0.158 A 
BRANCH  15  18
ATOM     18  O   UNL     1      -2.019  10.823  13.464  1.00  0.00    -0.504 OA
ATOM     19  H   UNL     1      -1.977  11.661  12.897  1.00  0.00     0.293 HD
ENDBRANCH  15  18
BRANCH  17  20
ATOM     20  O   UNL     1      -4.703  10.265  12.787  1.00  0.00    -0.504 OA
ATOM     21  H   UNL     1      -5.507  10.763  12.422  1.00  0.00     0.293 HD
ENDBRANCH  17  20
ENDBRANCH   1  12
BRANCH   6  22
ATOM     22  O   UNL     1      -8.761   9.811  21.887  1.00  0.00    -0.507 OA
ATOM     23  H   UNL     1      -8.088  10.416  22.331  1.00  0.00     0.293 HD
ENDBRANCH   6  22
BRANCH   8  24
ATOM     24  O   UNL     1     -11.706   8.897  18.205  1.00  0.00    -0.508 OA
ATOM     25  H   UNL     1     -11.861   8.540  17.269  1.00  0.00     0.293 HD
ENDBRANCH   8  24
TORSDOF 5
ENDMDL
MODEL 3
REMARK VINA RESULT:    -5.693      2.775      8.639
REMARK INTER + INTRA:          -6.962
REMARK INTER:                  -6.687
REMARK INTRA:                  -0.275
REMARK UNBOUND:                -0.270
REMARK SMILES O=c1cc(-c2ccc(O)c(O)c2)oc2cc(O)cc(O)c12
REMARK SMILES IDX 4 1 3 2 2 3 1 4 21 5 19 6 18 7 16 8 15 9 14 10 13 11 5 12
REMARK SMILES IDX 6 13 7 14 8 15 12 16 10 17 9 18 11 20 20 22 17 24
REMARK H PARENT 9 19 11 21 20 23 17 25
REMARK Flexibility Score: inf
ROOT
ATOM      1  C   UNL     1      -9.534   7.315  13.576  1.00  0.00     0.138 A 
ATOM      2  C   UNL     1      -8.193   7.339  13.169  1.00  0.00     0.100 A 
ATOM      3  C   UNL     1      -7.858   6.956  11.869  1.00  0.00     0.197 A 
ATOM      4  O   UNL     1      -6.655   7.047  11.514  1.00  0.00    -0.289 OA
ATOM      5  C   UNL     1      -8.871   6.518  10.983  1.00  0.00     0.107 A 
ATOM      6  C   UNL     1      -8.643   6.067   9.648  1.00  0.00     0.134 A 
ATOM      7  C   UNL     1      -9.735   5.768   8.825  1.00  0.00     0.093 A 
ATOM      8  C   UNL     1     -11.044   5.847   9.308  1.00  0.00     0.123 A 
ATOM      9  C   UNL     1     -11.274   6.235  10.625  1.00  0.00     0.094 A 
ATOM     10  C   UNL     1     -10.208   6.573  11.461  1.00  0.00     0.146 A 
ATOM     11  O   UNL     1     -10.472   6.952  12.706  1.00  0.00    -0.456 OA
ENDROOT
BRANCH   1  12
ATOM     12  C   UNL     1      -9.945   7.710  14.947  1.00  0.00     0.021 A 
ATOM     13  C   UNL     1     -10.996   8.628  15.117  1.00  0.00     0.016 A 
ATOM     14  C   UNL     1     -11.406   9.010  16.396  1.00  0.00     0.051 A 
ATOM     15  C   UNL     1     -10.783   8.477  17.527  1.00  0.00     0.157 A 
ATOM     16  C   UNL     1      -9.328   7.166  16.091  1.00  0.00     0.062 A 
ATOM     17  C   UNL     1      -9.741   7.548  17.376  1.00  0.00     0.158 A 
BRANCH  15  18
ATOM     18  O   UNL     1     -11.214   8.880  18.791  1.00  0.00    -0.504 OA
ATOM     19  H   UNL     1     -12.039   8.487  19.228  1.00  0.00     0.293 HD
ENDBRANCH  15  18
BRANCH  17  20
ATOM     20  O   UNL     1      -9.123   7.004  18.500  1.00  0.00    -0.504 OA
ATOM     21  H   UNL     1      -8.905   7.570  19.312  1.00  0.00     0.293 HD
ENDBRANCH  17  20
ENDBRANCH   1  12
BRANCH   6  22
ATOM     22  O   UNL     1      -7.374   5.872   9.096  1.00  0.00    -0.507 OA
ATOM     23  H   UNL     1      -6.525   5.754   9.628  1.00  0.00     0.293 HD
ENDBRANCH   6  22
BRANCH   8  24
ATOM     24  O   UNL     1     -12.125   5.533   8.485  1.00  0.00    -0.508 OA
ATOM     25  H   UNL     1     -12.144   4.681   7.937  1.00  0.00     0.293 HD
ENDBRANCH   8  24
TORSDOF 5
ENDMDL
MODEL 4
REMARK VINA RESULT:    -5.684      1.640      6.996
REMARK INTER + INTRA:          -6.951
REMARK INTER:                  -6.660
REMARK INTRA:                  -0.291
REMARK UNBOUND:                -0.270
REMARK SMILES O=c1cc(-c2ccc(O)c(O)c2)oc2cc(O)cc(O)c12
REMARK SMILES IDX 4 1 3 2 2 3 1 4 21 5 19 6 18 7 16 8 15 9 14 10 13 11 5 12
REMARK SMILES IDX 6 13 7 14 8 15 12 16 10 17 9 18 11 20 20 22 17 24
REMARK H PARENT 9 19 11 21 20 23 17 25
REMARK Flexibility Score: inf
ROOT
ATOM      1  C   UNL     1      -8.871   8.305  16.932  1.00  0.00     0.138 A 
ATOM      2  C   UNL     1      -9.874   7.332  16.816  1.00  0.00     0.100 A 
ATOM      3  C   UNL     1     -10.181   6.802  15.562  1.00  0.00     0.197 A 
ATOM      4  O   UNL     1     -11.041   5.887  15.498  1.00  0.00    -0.289 OA
ATOM      5  C   UNL     1      -9.498   7.272  14.414  1.00  0.00     0.107 A 
ATOM      6  C   UNL     1      -9.754   6.834  13.080  1.00  0.00     0.134 A 
ATOM      7  C   UNL     1      -8.936   7.284  12.037  1.00  0.00     0.093 A 
ATOM      8  C   UNL     1      -7.910   8.203  12.272  1.00  0.00     0.123 A 
ATOM      9  C   UNL     1      -7.687   8.677  13.562  1.00  0.00     0.094 A 
ATOM     10  C   UNL     1      -8.463   8.221  14.629  1.00  0.00     0.146 A 
ATOM     11  O   UNL     1      -8.208   8.688  15.846  1.00  0.00    -0.456 OA
ENDROOT
BRANCH   1  12
ATOM     12  C   UNL     1      -8.507   8.902  18.241  1.00  0.00     0.021 A 
ATOM     13  C   UNL     1      -7.227   9.455  18.417  1.00  0.00     0.016 A 
ATOM     14  C   UNL     1      -6.862  10.031  19.637  1.00  0.00     0.051 A 
ATOM     15  C   UNL     1      -7.770  10.073  20.698  1.00  0.00     0.157 A 
ATOM     16  C   UNL     1      -9.423   8.959  19.310  1.00  0.00     0.062 A 
ATOM     17  C   UNL     1      -9.058   9.538  20.535  1.00  0.00     0.158 A 
BRANCH  15  18
ATOM     18  O   UNL     1      -7.376  10.653  21.904  1.00  0.00    -0.504 OA
ATOM     19  H   UNL     1      -7.885  11.422  22.322  1.00  0.00     0.293 HD
ENDBRANCH  15  18
BRANCH  17  20
ATOM     20  O   UNL     1      -9.971   9.588  21.586  1.00  0.00    -0.504 OA
ATOM     21  H   UNL     1      -9.706   9.341  22.533  1.00  0.00     0.293 HD
ENDBRANCH  17  20
ENDBRANCH   1  12
BRANCH   6  22
ATOM     22  O   UNL     1     -10.806   5.984  12.726  1.00  0.00    -0.507 OA
ATOM     23  H   UNL     1     -10.698   5.026  12.430  1.00  0.00     0.293 HD
ENDBRANCH   6  22
BRANCH   8  24
ATOM     24  O   UNL     1      -7.110   8.657  11.225  1.00  0.00    -0.508 OA
ATOM     25  H   UNL     1      -7.326   8.437  10.259  1.00  0.00     0.293 HD
ENDBRANCH   8  24
TORSDOF 5
ENDMDL
MODEL 5
REMARK VINA RESULT:    -5.423      3.124      7.652
REMARK INTER + INTRA:          -6.644
REMARK INTER:                  -6.327
REMARK INTRA:                  -0.318
REMARK UNBOUND:                -0.270
REMARK SMILES O=c1cc(-c2ccc(O)c(O)c2)oc2cc(O)cc(O)c12
REMARK SMILES IDX 4 1 3 2 2 3 1 4 21 5 19 6 18 7 16 8 15 9 14 10 13 11 5 12
REMARK SMILES IDX 6 13 7 14 8 15 12 16 10 17 9 18 11 20 20 22 17 24
REMARK H PARENT 9 19 11 21 20 23 17 25
REMARK Flexibility Score: inf
ROOT
ATOM      1  C   UNL     1      -6.086  10.178  17.754  1.00  0.00     0.138 A 
ATOM      2  C   UNL     1      -4.747  10.562  17.915  1.00  0.00     0.100 A 
ATOM      3  C   UNL     1      -3.933  10.719  16.793  1.00  0.00     0.197 A 
ATOM      4  O   UNL     1      -2.755  11.125  16.965  1.00  0.00    -0.289 OA
ATOM      5  C   UNL     1      -4.456  10.459  15.503  1.00  0.00     0.107 A 
ATOM      6  C   UNL     1      -3.709  10.546  14.290  1.00  0.00     0.134 A 
ATOM      7  C   UNL     1      -4.362  10.379  13.064  1.00  0.00     0.093 A 
ATOM      8  C   UNL     1      -5.724  10.067  13.009  1.00  0.00     0.123 A 
ATOM      9  C   UNL     1      -6.449   9.927  14.189  1.00  0.00     0.094 A 
ATOM     10  C   UNL     1      -5.834  10.122  15.428  1.00  0.00     0.146 A 
ATOM     11  O   UNL     1      -6.566   9.993  16.528  1.00  0.00    -0.456 OA
ENDROOT
BRANCH   1  12
ATOM     12  C   UNL     1      -6.994   9.996  18.914  1.00  0.00     0.021 A 
ATOM     13  C   UNL     1      -6.492  10.156  20.217  1.00  0.00     0.016 A 
ATOM     14  C   UNL     1      -7.328   9.998  21.324  1.00  0.00     0.051 A 
ATOM     15  C   UNL     1      -8.680   9.688  21.153  1.00  0.00     0.157 A 
ATOM     16  C   UNL     1      -8.360   9.696  18.745  1.00  0.00     0.062 A 
ATOM     17  C   UNL     1      -9.201   9.539  19.857  1.00  0.00     0.158 A 
BRANCH  15  18
ATOM     18  O   UNL     1      -9.488   9.535  22.278  1.00  0.00    -0.504 OA
ATOM     19  H   UNL     1      -9.524   8.667  22.801  1.00  0.00     0.293 HD
ENDBRANCH  15  18
BRANCH  17  20
ATOM     20  O   UNL     1     -10.550   9.241  19.679  1.00  0.00    -0.504 OA
ATOM     21  H   UNL     1     -11.275   9.921  19.877  1.00  0.00     0.293 HD
ENDBRANCH  17  20
ENDBRANCH   1  12
BRANCH   6  22
ATOM     22  O   UNL     1      -2.330  10.768  14.238  1.00  0.00    -0.507 OA
ATOM     23  H   UNL     1      -1.895  11.630  13.943  1.00  0.00     0.293 HD
ENDBRANCH   6  22
BRANCH   8  24
ATOM     24  O   UNL     1      -6.362   9.888  11.784  1.00  0.00    -0.508 OA
ATOM     25  H   UNL     1      -6.665   8.972  11.472  1.00  0.00     0.293 HD
ENDBRANCH   8  24
TORSDOF 5
ENDMDL
MODEL 6
REMARK VINA RESULT:    -5.407      1.986      6.739
REMARK INTER + INTRA:          -6.626
REMARK INTER:                  -6.326
REMARK INTRA:                  -0.299
REMARK UNBOUND:                -0.270
REMARK SMILES O=c1cc(-c2ccc(O)c(O)c2)oc2cc(O)cc(O)c12
REMARK SMILES IDX 4 1 3 2 2 3 1 4 21 5 19 6 18 7 16 8 15 9 14 10 13 11 5 12
REMARK SMILES IDX 6 13 7 14 8 15 12 16 10 17 9 18 11 20 20 22 17 24
REMARK H PARENT 9 19 11 21 20 23 17 25
REMARK Flexibility Score: inf
ROOT
ATOM      1  C   UNL     1      -9.004   8.828  16.596  1.00  0.00     0.138 A 
ATOM      2  C   UNL     1     -10.331   9.172  16.303  1.00  0.00     0.100 A 
ATOM      3  C   UNL     1     -10.912   8.733  15.112  1.00  0.00     0.197 A 
ATOM      4  O   UNL     1     -12.122   9.004  14.907  1.00  0.00    -0.289 OA
ATOM      5  C   UNL     1     -10.147   7.972  14.196  1.00  0.00     0.107 A 
ATOM      6  C   UNL     1     -10.621   7.504  12.934  1.00  0.00     0.134 A 
ATOM      7  C   UNL     1      -9.812   6.661  12.163  1.00  0.00     0.093 A 
ATOM      8  C   UNL     1      -8.524   6.317  12.582  1.00  0.00     0.123 A 
ATOM      9  C   UNL     1      -8.033   6.811  13.787  1.00  0.00     0.094 A 
ATOM     10  C   UNL     1      -8.827   7.628  14.595  1.00  0.00     0.146 A 
ATOM     11  O   UNL     1      -8.326   8.066  15.744  1.00  0.00    -0.456 OA
ENDROOT
BRANCH   1  12
ATOM     12  C   UNL     1      -8.338   9.270  17.847  1.00  0.00     0.021 A 
ATOM     13  C   UNL     1      -9.074   9.313  19.044  1.00  0.00     0.016 A 
ATOM     14  C   UNL     1      -8.468   9.717  20.236  1.00  0.00     0.051 A 
ATOM     15  C   UNL     1      -7.118  10.075  20.259  1.00  0.00     0.157 A 
ATOM     16  C   UNL     1      -6.973   9.619  17.877  1.00  0.00     0.062 A 
ATOM     17  C   UNL     1      -6.364  10.023  19.074  1.00  0.00     0.158 A 
BRANCH  15  18
ATOM     18  O   UNL     1      -6.543  10.476  21.464  1.00  0.00    -0.504 OA
ATOM     19  H   UNL     1      -5.875   9.897  21.960  1.00  0.00     0.293 HD
ENDBRANCH  15  18
BRANCH  17  20
ATOM     20  O   UNL     1      -5.015  10.368  19.092  1.00  0.00    -0.504 OA
ATOM     21  H   UNL     1      -4.314   9.796  18.634  1.00  0.00     0.293 HD
ENDBRANCH  17  20
ENDBRANCH   1  12
BRANCH   6  22
ATOM     22  O   UNL     1     -11.857   7.857  12.385  1.00  0.00    -0.507 OA
ATOM     23  H   UNL     1     -12.421   8.637  12.687  1.00  0.00     0.293 HD
ENDBRANCH   6  22
BRANCH   8  24
ATOM     24  O   UNL     1      -7.720   5.489  11.800  1.00  0.00    -0.508 OA
ATOM     25  H   UNL     1      -7.124   4.782  12.216  1.00  0.00     0.293 HD
ENDBRANCH   8  24
TORSDOF 5
ENDMDL
MODEL 7
REMARK VINA RESULT:    -5.340      3.274      4.983
REMARK INTER + INTRA:          -6.547
REMARK INTER:                  -6.275
REMARK INTRA:                  -0.272
REMARK UNBOUND:                -0.270
REMARK SMILES O=c1cc(-c2ccc(O)c(O)c2)oc2cc(O)cc(O)c12
REMARK SMILES IDX 4 1 3 2 2 3 1 4 21 5 19 6 18 7 16 8 15 9 14 10 13 11 5 12
REMARK SMILES IDX 6 13 7 14 8 15 12 16 10 17 9 18 11 20 20 22 17 24
REMARK H PARENT 9 19 11 21 20 23 17 25
REMARK Flexibility Score: inf
ROOT
ATOM      1  C   UNL     1     -10.315   7.089  12.403  1.00  0.00     0.138 A 
ATOM      2  C   UNL     1     -11.136   8.225  12.463  1.00  0.00     0.100 A 
ATOM      3  C   UNL     1     -11.439   8.793  13.702  1.00  0.00     0.197 A 
ATOM      4  O   UNL     1     -12.125   9.847  13.720  1.00  0.00    -0.289 OA
ATOM      5  C   UNL     1     -10.941   8.202  14.887  1.00  0.00     0.107 A 
ATOM      6  C   UNL     1     -11.217   8.670  16.207  1.00  0.00     0.134 A 
ATOM      7  C   UNL     1     -10.574   8.074  17.299  1.00  0.00     0.093 A 
ATOM      8  C   UNL     1      -9.713   6.987  17.123  1.00  0.00     0.123 A 
ATOM      9  C   UNL     1      -9.479   6.489  15.844  1.00  0.00     0.094 A 
ATOM     10  C   UNL     1     -10.078   7.084  14.731  1.00  0.00     0.146 A 
ATOM     11  O   UNL     1      -9.817   6.587  13.527  1.00  0.00    -0.456 OA
ENDROOT
BRANCH   1  12
ATOM     12  C   UNL     1      -9.964   6.445  11.113  1.00  0.00     0.021 A 
ATOM     13  C   UNL     1     -10.973   5.840  10.344  1.00  0.00     0.016 A 
ATOM     14  C   UNL     1     -10.669   5.234   9.123  1.00  0.00     0.051 A 
ATOM     15  C   UNL     1      -9.357   5.229   8.642  1.00  0.00     0.157 A 
ATOM     16  C   UNL     1      -8.645   6.449  10.618  1.00  0.00     0.062 A 
ATOM     17  C   UNL     1      -8.339   5.842   9.391  1.00  0.00     0.158 A 
BRANCH  15  18
ATOM     18  O   UNL     1      -9.086   4.614   7.421  1.00  0.00    -0.504 OA
ATOM     19  H   UNL     1      -9.816   4.206   6.849  1.00  0.00     0.293 HD
ENDBRANCH  15  18
BRANCH  17  20
ATOM     20  O   UNL     1      -7.031   5.850   8.912  1.00  0.00    -0.504 OA
ATOM     21  H   UNL     1      -6.767   6.391   8.095  1.00  0.00     0.293 HD
ENDBRANCH  17  20
ENDBRANCH   1  12
BRANCH   6  22
ATOM     22  O   UNL     1     -12.125   9.692  16.498  1.00  0.00    -0.507 OA
ATOM     23  H   UNL     1     -12.710  10.155  15.819  1.00  0.00     0.293 HD
ENDBRANCH   6  22
BRANCH   8  24
ATOM     24  O   UNL     1      -9.090   6.391  18.218  1.00  0.00    -0.508 OA
ATOM     25  H   UNL     1      -8.107   6.144  18.199  1.00  0.00     0.293 HD
ENDBRANCH   8  24
TORSDOF 5
ENDMDL
MODEL 8
REMARK VINA RESULT:    -5.314      4.809      8.799
REMARK INTER + INTRA:          -6.516
REMARK INTER:                  -6.224
REMARK INTRA:                  -0.292
REMARK UNBOUND:                -0.270
REMARK SMILES O=c1cc(-c2ccc(O)c(O)c2)oc2cc(O)cc(O)c12
REMARK SMILES IDX 4 1 3 2 2 3 1 4 21 5 19 6 18 7 16 8 15 9 14 10 13 11 5 12
REMARK SMILES IDX 6 13 7 14 8 15 12 16 10 17 9 18 11 20 20 22 17 24
REMARK H PARENT 9 19 11 21 20 23 17 25
REMARK Flexibility Score: inf
ROOT
ATOM      1  C   UNL     1      -9.737   7.402  11.476  1.00  0.00     0.138 A 
ATOM      2  C   UNL     1     -10.926   7.228  10.754  1.00  0.00     0.100 A 
ATOM      3  C   UNL     1     -11.071   7.836   9.506  1.00  0.00     0.197 A 
ATOM      4  O   UNL     1     -12.123   7.611   8.854  1.00  0.00    -0.289 OA
ATOM      5  C   UNL     1     -10.031   8.647   8.993  1.00  0.00     0.107 A 
ATOM      6  C   UNL     1     -10.083   9.348   7.751  1.00  0.00     0.134 A 
ATOM      7  C   UNL     1      -8.947  10.026   7.293  1.00  0.00     0.093 A 
ATOM      8  C   UNL     1      -7.781  10.078   8.061  1.00  0.00     0.123 A 
ATOM      9  C   UNL     1      -7.737   9.442   9.298  1.00  0.00     0.094 A 
ATOM     10  C   UNL     1      -8.843   8.729   9.768  1.00  0.00     0.146 A 
ATOM     11  O   UNL     1      -8.754   8.124  10.947  1.00  0.00    -0.456 OA
ENDROOT
BRANCH   1  12
ATOM     12  C   UNL     1      -9.531   6.780  12.808  1.00  0.00     0.021 A 
ATOM     13  C   UNL     1     -10.556   6.845  13.768  1.00  0.00     0.016 A 
ATOM     14  C   UNL     1     -10.391   6.260  15.025  1.00  0.00     0.051 A 
ATOM     15  C   UNL     1      -9.206   5.593  15.345  1.00  0.00     0.157 A 
ATOM     16  C   UNL     1      -8.343   6.095  13.130  1.00  0.00     0.062 A 
ATOM     17  C   UNL     1      -8.177   5.506  14.392  1.00  0.00     0.158 A 
BRANCH  15  18
ATOM     18  O   UNL     1      -9.069   5.021  16.609  1.00  0.00    -0.504 OA
ATOM     19  H   UNL     1      -9.131   4.021  16.756  1.00  0.00     0.293 HD
ENDBRANCH  15  18
BRANCH  17  20
ATOM     20  O   UNL     1      -6.997   4.832  14.701  1.00  0.00    -0.504 OA
ATOM     21  H   UNL     1      -7.000   3.861  14.993  1.00  0.00     0.293 HD
ENDBRANCH  17  20
ENDBRANCH   1  12
BRANCH   6  22
ATOM     22  O   UNL     1     -11.225   9.430   6.949  1.00  0.00    -0.507 OA
ATOM     23  H   UNL     1     -12.115   9.797   7.249  1.00  0.00     0.293 HD
ENDBRANCH   6  22
BRANCH   8  24
ATOM     24  O   UNL     1      -6.660  10.768   7.603  1.00  0.00    -0.508 OA
ATOM     25  H   UNL     1      -5.808  10.284   7.343  1.00  0.00     0.293 HD
ENDBRANCH   8  24
TORSDOF 5
ENDMDL
MODEL 9
REMARK VINA RESULT:    -5.245      3.646      7.041
REMARK INTER + INTRA:          -6.435
REMARK INTER:                  -6.145
REMARK INTRA:                  -0.290
REMARK UNBOUND:                -0.270
REMARK SMILES O=c1cc(-c2ccc(O)c(O)c2)oc2cc(O)cc(O)c12
REMARK SMILES IDX 4 1 3 2 2 3 1 4 21 5 19 6 18 7 16 8 15 9 14 10 13 11 5 12
REMARK SMILES IDX 6 13 7 14 8 15 12 16 10 17 9 18 11 20 20 22 17 24
REMARK H PARENT 9 19 11 21 20 23 17 25
REMARK Flexibility Score: inf
ROOT
ATOM      1  C   UNL     1      -6.668  10.089  16.886  1.00  0.00     0.138 A 
ATOM      2  C   UNL     1      -5.662  10.452  17.793  1.00  0.00     0.100 A 
ATOM      3  C   UNL     1      -4.380  10.742  17.323  1.00  0.00     0.197 A 
ATOM      4  O   UNL     1      -3.516  11.125  18.153  1.00  0.00    -0.289 OA
ATOM      5  C   UNL     1      -4.098  10.638  15.940  1.00  0.00     0.107 A 
ATOM      6  C   UNL     1      -2.819  10.870  15.352  1.00  0.00     0.134 A 
ATOM      7  C   UNL     1      -2.686  10.851  13.958  1.00  0.00     0.093 A 
ATOM      8  C   UNL     1      -3.774  10.548  13.135  1.00  0.00     0.123 A 
ATOM      9  C   UNL     1      -5.014  10.267  13.702  1.00  0.00     0.094 A 
ATOM     10  C   UNL     1      -5.187  10.312  15.087  1.00  0.00     0.146 A 
ATOM     11  O   UNL     1      -6.390  10.052  15.587  1.00  0.00    -0.456 OA
ENDROOT
BRANCH   1  12
ATOM     12  C   UNL     1      -8.047   9.769  17.332  1.00  0.00     0.021 A 
ATOM     13  C   UNL     1      -9.119   9.932  16.437  1.00  0.00     0.016 A 
ATOM     14  C   UNL     1     -10.425   9.630  16.830  1.00  0.00     0.051 A 
ATOM     15  C   UNL     1     -10.684   9.152  18.117  1.00  0.00     0.157 A 
ATOM     16  C   UNL     1      -8.312   9.274  18.624  1.00  0.00     0.062 A 
ATOM     17  C   UNL     1      -9.623   8.969  19.019  1.00  0.00     0.158 A 
BRANCH  15  18
ATOM     18  O   UNL     1     -11.999   8.862  18.480  1.00  0.00    -0.504 OA
ATOM     19  H   UNL     1     -12.442   9.291  19.284  1.00  0.00     0.293 HD
ENDBRANCH  15  18
BRANCH  17  20
ATOM     20  O   UNL     1      -9.873   8.481  20.300  1.00  0.00    -0.504 OA
ATOM     21  H   UNL     1      -9.141   8.060  20.860  1.00  0.00     0.293 HD
ENDBRANCH  17  20
ENDBRANCH   1  12
BRANCH   6  22
ATOM     22  O   UNL     1      -1.652  11.098  16.087  1.00  0.00    -0.507 OA
ATOM     23  H   UNL     1      -0.719  11.099  15.702  1.00  0.00     0.293 HD
ENDBRANCH   6  22
BRANCH   8  24
ATOM     24  O   UNL     1      -3.629  10.516  11.749  1.00  0.00    -0.508 OA
ATOM     25  H   UNL     1      -2.913  11.058  11.278  1.00  0.00     0.293 HD
ENDBRANCH   8  24
TORSDOF 5
ENDMDL
