MODEL 1
REMARK VINA RESULT:    -3.964      0.000      0.000
REMARK INTER + INTRA:          -3.964
REMARK INTER:                  -3.964
REMARK INTRA:                   0.000
REMARK UNBOUND:                 0.000
REMARK SMILES CC1=CC(=O)[C@H]2C[C@@H]1C2(C)C
REMARK SMILES IDX 1 1 2 2 3 3 4 4 5 5 6 6 7 7 8 8 9 9 10 10 11 11
REMARK H PARENT
REMARK Flexibility Score: inf
ROOT
ATOM      1  C   UNL     1       9.361 -29.518  13.987  1.00  0.00     0.040 C 
ATOM      2  C   UNL     1       8.667 -29.756  15.291  1.00  0.00    -0.066 C 
ATOM      3  C   UNL     1       9.188 -29.302  16.465  1.00  0.00     0.047 C 
ATOM      4  C   UNL     1       8.415 -29.630  17.706  1.00  0.00     0.159 C 
ATOM      5  O   UNL     1       8.813 -29.301  18.853  1.00  0.00    -0.295 OA
ATOM      6  C   UNL     1       7.111 -30.396  17.481  1.00  0.00     0.067 C 
ATOM      7  C   UNL     1       6.436 -29.656  16.305  1.00  0.00     0.021 C 
ATOM      8  C   UNL     1       7.322 -30.510  15.371  1.00  0.00     0.022 C 
ATOM      9  C   UNL     1       7.391 -31.574  16.504  1.00  0.00    -0.019 C 
ATOM     10  C   UNL     1       6.214 -32.580  16.440  1.00  0.00     0.012 C 
ATOM     11  C   UNL     1       8.710 -32.379  16.677  1.00  0.00     0.012 C 
ENDROOT
TORSDOF 0
ENDMDL
MODEL 2
REMARK VINA RESULT:    -3.872      1.425      1.844
REMARK INTER + INTRA:          -3.872
REMARK INTER:                  -3.872
REMARK INTRA:                   0.000
REMARK UNBOUND:                 0.000
REMARK SMILES CC1=CC(=O)[C@H]2C[C@@H]1C2(C)C
REMARK SMILES IDX 1 1 2 2 3 3 4 4 5 5 6 6 7 7 8 8 9 9 10 10 11 11
REMARK H PARENT
REMARK Flexibility Score: inf
ROOT
ATOM      1  C   UNL     1       6.244 -30.483  13.253  1.00  0.00     0.040 C 
ATOM      2  C   UNL     1       6.974 -30.392  14.556  1.00  0.00    -0.066 C 
ATOM      3  C   UNL     1       8.023 -29.538  14.723  1.00  0.00     0.047 C 
ATOM      4  C   UNL     1       8.691 -29.563  16.065  1.00  0.00     0.159 C 
ATOM      5  O   UNL     1       9.693 -28.850  16.329  1.00  0.00    -0.295 OA
ATOM      6  C   UNL     1       8.071 -30.515  17.088  1.00  0.00     0.067 C 
ATOM      7  C   UNL     1       6.552 -30.260  16.969  1.00  0.00     0.021 C 
ATOM      8  C   UNL     1       6.567 -31.245  15.777  1.00  0.00     0.022 C 
ATOM      9  C   UNL     1       7.836 -31.892  16.403  1.00  0.00    -0.019 C 
ATOM     10  C   UNL     1       7.488 -33.006  17.422  1.00  0.00     0.012 C 
ATOM     11  C   UNL     1       8.933 -32.437  15.444  1.00  0.00     0.012 C 
ENDROOT
TORSDOF 0
ENDMDL
MODEL 3
REMARK VINA RESULT:    -3.847      1.922      2.938
REMARK INTER + INTRA:          -3.847
REMARK INTER:                  -3.847
REMARK INTRA:                   0.000
REMARK UNBOUND:                 0.000
REMARK SMILES CC1=CC(=O)[C@H]2C[C@@H]1C2(C)C
REMARK SMILES IDX 1 1 2 2 3 3 4 4 5 5 6 6 7 7 8 8 9 9 10 10 11 11
REMARK H PARENT
REMARK Flexibility Score: inf
ROOT
ATOM      1  C   UNL     1       8.947 -29.224  18.340  1.00  0.00     0.040 C 
ATOM      2  C   UNL     1       8.053 -30.104  17.524  1.00  0.00    -0.066 C 
ATOM      3  C   UNL     1       7.823 -31.400  17.875  1.00  0.00     0.047 C 
ATOM      4  C   UNL     1       6.934 -32.187  16.959  1.00  0.00     0.159 C 
ATOM      5  O   UNL     1       6.677 -33.404  17.153  1.00  0.00    -0.295 OA
ATOM      6  C   UNL     1       6.364 -31.410  15.773  1.00  0.00     0.067 C 
ATOM      7  C   UNL     1       5.878 -30.080  16.391  1.00  0.00     0.021 C 
ATOM      8  C   UNL     1       7.336 -29.586  16.259  1.00  0.00     0.022 C 
ATOM      9  C   UNL     1       7.519 -30.611  15.103  1.00  0.00    -0.019 C 
ATOM     10  C   UNL     1       7.112 -30.027  13.727  1.00  0.00     0.012 C 
ATOM     11  C   UNL     1       8.902 -31.305  14.947  1.00  0.00     0.012 C 
ENDROOT
TORSDOF 0
ENDMDL
MODEL 4
REMARK VINA RESULT:    -3.797      1.769      2.423
REMARK INTER + INTRA:          -3.797
REMARK INTER:                  -3.797
REMARK INTRA:                   0.000
REMARK UNBOUND:                 0.000
REMARK SMILES CC1=CC(=O)[C@H]2C[C@@H]1C2(C)C
REMARK SMILES IDX 1 1 2 2 3 3 4 4 5 5 6 6 7 7 8 8 9 9 10 10 11 11
REMARK H PARENT
REMARK Flexibility Score: inf
ROOT
ATOM      1  C   UNL     1      11.029 -29.155  13.811  1.00  0.00     0.040 C 
ATOM      2  C   UNL     1       9.656 -29.596  14.210  1.00  0.00    -0.066 C 
ATOM      3  C   UNL     1       9.140 -29.287  15.432  1.00  0.00     0.047 C 
ATOM      4  C   UNL     1       7.766 -29.813  15.724  1.00  0.00     0.159 C 
ATOM      5  O   UNL     1       7.198 -29.629  16.831  1.00  0.00    -0.295 OA
ATOM      6  C   UNL     1       7.107 -30.590  14.584  1.00  0.00     0.067 C 
ATOM      7  C   UNL     1       7.369 -29.722  13.334  1.00  0.00     0.021 C 
ATOM      8  C   UNL     1       8.752 -30.405  13.254  1.00  0.00     0.022 C 
ATOM      9  C   UNL     1       8.137 -31.611  14.021  1.00  0.00    -0.019 C 
ATOM     10  C   UNL     1       7.483 -32.643  13.068  1.00  0.00     0.012 C 
ATOM     11  C   UNL     1       9.039 -32.382  15.027  1.00  0.00     0.012 C 
ENDROOT
TORSDOF 0
ENDMDL
MODEL 5
REMARK VINA RESULT:    -3.707      1.664      3.183
REMARK INTER + INTRA:          -3.707
REMARK INTER:                  -3.707
REMARK INTRA:                   0.000
REMARK UNBOUND:                 0.000
REMARK SMILES CC1=CC(=O)[C@H]2C[C@@H]1C2(C)C
REMARK SMILES IDX 1 1 2 2 3 3 4 4 5 5 6 6 7 7 8 8 9 9 10 10 11 11
REMARK H PARENT
REMARK Flexibility Score: inf
ROOT
ATOM      1  C   UNL     1       7.530 -33.462  17.555  1.00  0.00     0.040 C 
ATOM      2  C   UNL     1       7.494 -32.096  16.944  1.00  0.00    -0.066 C 
ATOM      3  C   UNL     1       8.472 -31.674  16.095  1.00  0.00     0.047 C 
ATOM      4  C   UNL     1       8.339 -30.275  15.574  1.00  0.00     0.159 C 
ATOM      5  O   UNL     1       9.198 -29.756  14.815  1.00  0.00    -0.295 OA
ATOM      6  C   UNL     1       7.089 -29.522  16.031  1.00  0.00     0.067 C 
ATOM      7  C   UNL     1       5.945 -30.543  15.848  1.00  0.00     0.021 C 
ATOM      8  C   UNL     1       6.343 -31.108  17.230  1.00  0.00     0.022 C 
ATOM      9  C   UNL     1       6.933 -29.709  17.568  1.00  0.00    -0.019 C 
ATOM     10  C   UNL     1       5.876 -28.753  18.174  1.00  0.00     0.012 C 
ATOM     11  C   UNL     1       8.211 -29.644  18.453  1.00  0.00     0.012 C 
ENDROOT
TORSDOF 0
ENDMDL
MODEL 6
REMARK VINA RESULT:    -3.630      2.214      3.530
REMARK INTER + INTRA:          -3.630
REMARK INTER:                  -3.630
REMARK INTRA:                   0.000
REMARK UNBOUND:                 0.000
REMARK SMILES CC1=CC(=O)[C@H]2C[C@@H]1C2(C)C
REMARK SMILES IDX 1 1 2 2 3 3 4 4 5 5 6 6 7 7 8 8 9 9 10 10 11 11
REMARK H PARENT
REMARK Flexibility Score: inf
ROOT
ATOM      1  C   UNL     1       6.630 -29.917  16.950  1.00  0.00     0.040 C 
ATOM      2  C   UNL     1       7.641 -30.231  15.892  1.00  0.00    -0.066 C 
ATOM      3  C   UNL     1       8.718 -29.425  15.680  1.00  0.00     0.047 C 
ATOM      4  C   UNL     1       9.642 -29.831  14.570  1.00  0.00     0.159 C 
ATOM      5  O   UNL     1      10.649 -29.148  14.251  1.00  0.00    -0.295 OA
ATOM      6  C   UNL     1       9.272 -31.130  13.853  1.00  0.00     0.067 C 
ATOM      7  C   UNL     1       8.937 -32.111  14.998  1.00  0.00     0.021 C 
ATOM      8  C   UNL     1       7.523 -31.488  15.003  1.00  0.00     0.022 C 
ATOM      9  C   UNL     1       7.754 -31.094  13.516  1.00  0.00    -0.019 C 
ATOM     10  C   UNL     1       7.341 -32.221  12.536  1.00  0.00     0.012 C 
ATOM     11  C   UNL     1       7.142 -29.758  13.005  1.00  0.00     0.012 C 
ENDROOT
TORSDOF 0
ENDMDL
MODEL 7
REMARK VINA RESULT:    -3.582      2.935      4.448
REMARK INTER + INTRA:          -3.582
REMARK INTER:                  -3.582
REMARK INTRA:                   0.000
REMARK UNBOUND:                 0.000
REMARK SMILES CC1=CC(=O)[C@H]2C[C@@H]1C2(C)C
REMARK SMILES IDX 1 1 2 2 3 3 4 4 5 5 6 6 7 7 8 8 9 9 10 10 11 11
REMARK H PARENT
REMARK Flexibility Score: inf
ROOT
ATOM      1  C   UNL     1       9.241 -29.122  16.302  1.00  0.00     0.040 C 
ATOM      2  C   UNL     1       9.066 -29.649  14.913  1.00  0.00    -0.066 C 
ATOM      3  C   UNL     1       7.831 -29.919  14.408  1.00  0.00     0.047 C 
ATOM      4  C   UNL     1       7.790 -30.473  13.015  1.00  0.00     0.159 C 
ATOM      5  O   UNL     1       6.713 -30.798  12.452  1.00  0.00    -0.295 OA
ATOM      6  C   UNL     1       9.148 -30.615  12.327  1.00  0.00     0.067 C 
ATOM      7  C   UNL     1       9.864 -29.279  12.623  1.00  0.00     0.021 C 
ATOM      8  C   UNL     1      10.271 -29.896  13.980  1.00  0.00     0.022 C 
ATOM      9  C   UNL     1      10.135 -31.297  13.317  1.00  0.00    -0.019 C 
ATOM     10  C   UNL     1      11.444 -31.753  12.625  1.00  0.00     0.012 C 
ATOM     11  C   UNL     1       9.611 -32.475  14.188  1.00  0.00     0.012 C 
ENDROOT
TORSDOF 0
ENDMDL
MODEL 8
REMARK VINA RESULT:    -3.569      1.782      3.014
REMARK INTER + INTRA:          -3.569
REMARK INTER:                  -3.569
REMARK INTRA:                   0.000
REMARK UNBOUND:                 0.000
REMARK SMILES CC1=CC(=O)[C@H]2C[C@@H]1C2(C)C
REMARK SMILES IDX 1 1 2 2 3 3 4 4 5 5 6 6 7 7 8 8 9 9 10 10 11 11
REMARK H PARENT
REMARK Flexibility Score: inf
ROOT
ATOM      1  C   UNL     1       8.683 -29.360  18.578  1.00  0.00     0.040 C 
ATOM      2  C   UNL     1       8.517 -29.983  17.228  1.00  0.00    -0.066 C 
ATOM      3  C   UNL     1       8.839 -29.305  16.091  1.00  0.00     0.047 C 
ATOM      4  C   UNL     1       8.598 -30.025  14.798  1.00  0.00     0.159 C 
ATOM      5  O   UNL     1       8.818 -29.491  13.680  1.00  0.00    -0.295 OA
ATOM      6  C   UNL     1       8.065 -31.452  14.933  1.00  0.00     0.067 C 
ATOM      7  C   UNL     1       8.946 -32.082  16.034  1.00  0.00     0.021 C 
ATOM      8  C   UNL     1       7.991 -31.424  17.055  1.00  0.00     0.022 C 
ATOM      9  C   UNL     1       6.892 -31.447  15.955  1.00  0.00    -0.019 C 
ATOM     10  C   UNL     1       6.095 -32.775  15.944  1.00  0.00     0.012 C 
ATOM     11  C   UNL     1       5.875 -30.270  15.906  1.00  0.00     0.012 C 
ENDROOT
TORSDOF 0
ENDMDL
MODEL 9
REMARK VINA RESULT:    -3.471      2.490      3.457
REMARK INTER + INTRA:          -3.471
REMARK INTER:                  -3.471
REMARK INTRA:                   0.000
REMARK UNBOUND:                 0.000
REMARK SMILES CC1=CC(=O)[C@H]2C[C@@H]1C2(C)C
REMARK SMILES IDX 1 1 2 2 3 3 4 4 5 5 6 6 7 7 8 8 9 9 10 10 11 11
REMARK H PARENT
REMARK Flexibility Score: inf
ROOT
ATOM      1  C   UNL     1      10.291 -32.849  14.124  1.00  0.00     0.040 C 
ATOM      2  C   UNL     1       9.149 -31.900  14.313  1.00  0.00    -0.066 C 
ATOM      3  C   UNL     1       8.639 -31.189  13.270  1.00  0.00     0.047 C 
ATOM      4  C   UNL     1       7.517 -30.249  13.594  1.00  0.00     0.159 C 
ATOM      5  O   UNL     1       6.988 -29.509  12.724  1.00  0.00    -0.295 OA
ATOM      6  C   UNL     1       7.063 -30.250  15.054  1.00  0.00     0.067 C 
ATOM      7  C   UNL     1       6.965 -31.748  15.418  1.00  0.00     0.021 C 
ATOM      8  C   UNL     1       8.485 -31.693  15.691  1.00  0.00     0.022 C 
ATOM      9  C   UNL     1       8.322 -30.170  15.964  1.00  0.00    -0.019 C 
ATOM     10  C   UNL     1       7.964 -29.870  17.441  1.00  0.00     0.012 C 
ATOM     11  C   UNL     1       9.479 -29.219  15.541  1.00  0.00     0.012 C 
ENDROOT
TORSDOF 0
ENDMDL
