MODEL 1
REMARK VINA RESULT:    -5.117      0.000      0.000
REMARK INTER + INTRA:          -6.443
REMARK INTER:                  -6.163
REMARK INTRA:                  -0.280
REMARK UNBOUND:                -0.280
REMARK SMILES O=c1c(O)c(-c2ccc(O)c(O)c2)oc2cc(O)cc(O)c12
REMARK SMILES IDX 5 1 3 2 2 3 1 4 22 5 20 6 19 7 17 8 16 9 15 10 14 11 6 12
REMARK SMILES IDX 7 13 8 14 9 15 13 16 11 17 10 18 12 20 4 22 21 24 18 26
REMARK H PARENT 10 19 12 21 4 23 21 25 18 27
REMARK Flexibility Score: inf
ROOT
ATOM      1  C   UNL     1      -7.433  29.229  37.288  1.00  0.00     0.180 A 
ATOM      2  C   UNL     1      -6.513  28.977  38.320  1.00  0.00     0.208 A 
ATOM      3  C   UNL     1      -6.276  27.649  38.713  1.00  0.00     0.238 A 
ATOM      4  O   UNL     1      -5.397  27.426  39.585  1.00  0.00    -0.285 OA
ATOM      5  C   UNL     1      -7.001  26.595  38.106  1.00  0.00     0.111 A 
ATOM      6  C   UNL     1      -6.875  25.216  38.456  1.00  0.00     0.134 A 
ATOM      7  C   UNL     1      -7.566  24.250  37.715  1.00  0.00     0.093 A 
ATOM      8  C   UNL     1      -8.429  24.617  36.679  1.00  0.00     0.123 A 
ATOM      9  C   UNL     1      -8.601  25.962  36.366  1.00  0.00     0.094 A 
ATOM     10  C   UNL     1      -7.896  26.948  37.061  1.00  0.00     0.146 A 
ATOM     11  O   UNL     1      -8.074  28.217  36.715  1.00  0.00    -0.452 OA
ENDROOT
BRANCH   1  12
ATOM     12  C   UNL     1      -7.724  30.600  36.810  1.00  0.00     0.025 A 
ATOM     13  C   UNL     1      -8.585  31.421  37.555  1.00  0.00     0.016 A 
ATOM     14  C   UNL     1      -8.892  32.710  37.114  1.00  0.00     0.051 A 
ATOM     15  C   UNL     1      -8.358  33.193  35.915  1.00  0.00     0.157 A 
ATOM     16  C   UNL     1      -7.206  31.079  35.594  1.00  0.00     0.062 A 
ATOM     17  C   UNL     1      -7.514  32.372  35.148  1.00  0.00     0.158 A 
BRANCH  15  18
ATOM     18  O   UNL     1      -8.681  34.484  35.501  1.00  0.00    -0.504 OA
ATOM     19  H   UNL     1      -9.426  34.668  34.840  1.00  0.00     0.293 HD
ENDBRANCH  15  18
BRANCH  17  20
ATOM     20  O   UNL     1      -6.990  32.841  33.944  1.00  0.00    -0.504 OA
ATOM     21  H   UNL     1      -7.572  32.969  33.126  1.00  0.00     0.293 HD
ENDBRANCH  17  20
ENDBRANCH   1  12
BRANCH   2  22
ATOM     22  O   UNL     1      -5.863  30.037  38.959  1.00  0.00    -0.502 OA
ATOM     23  H   UNL     1      -5.099  29.896  39.608  1.00  0.00     0.293 HD
ENDBRANCH   2  22
BRANCH   6  24
ATOM     24  O   UNL     1      -6.111  24.747  39.529  1.00  0.00    -0.507 OA
ATOM     25  H   UNL     1      -5.976  25.237  40.400  1.00  0.00     0.293 HD
ENDBRANCH   6  24
BRANCH   8  26
ATOM     26  O   UNL     1      -9.125  23.649  35.958  1.00  0.00    -0.508 OA
ATOM     27  H   UNL     1     -10.034  23.839  35.555  1.00  0.00     0.293 HD
ENDBRANCH   8  26
TORSDOF 6
ENDMDL
MODEL 2
REMARK VINA RESULT:    -4.918      2.638      8.323
REMARK INTER + INTRA:          -6.204
REMARK INTER:                  -5.995
REMARK INTRA:                  -0.208
REMARK UNBOUND:                -0.280
REMARK SMILES O=c1c(O)c(-c2ccc(O)c(O)c2)oc2cc(O)cc(O)c12
REMARK SMILES IDX 5 1 3 2 2 3 1 4 22 5 20 6 19 7 17 8 16 9 15 10 14 11 6 12
REMARK SMILES IDX 7 13 8 14 9 15 13 16 11 17 10 18 12 20 4 22 21 24 18 26
REMARK H PARENT 10 19 12 21 4 23 21 25 18 27
REMARK Flexibility Score: inf
ROOT
ATOM      1  C   UNL     1      -8.286  33.149  36.639  1.00  0.00     0.180 A 
ATOM      2  C   UNL     1      -8.564  34.158  37.576  1.00  0.00     0.208 A 
ATOM      3  C   UNL     1      -8.802  35.465  37.120  1.00  0.00     0.238 A 
ATOM      4  O   UNL     1      -9.124  36.347  37.957  1.00  0.00    -0.285 OA
ATOM      5  C   UNL     1      -8.704  35.758  35.738  1.00  0.00     0.111 A 
ATOM      6  C   UNL     1      -8.881  37.056  35.168  1.00  0.00     0.134 A 
ATOM      7  C   UNL     1      -8.865  37.206  33.776  1.00  0.00     0.093 A 
ATOM      8  C   UNL     1      -8.615  36.118  32.936  1.00  0.00     0.123 A 
ATOM      9  C   UNL     1      -8.387  34.859  33.484  1.00  0.00     0.094 A 
ATOM     10  C   UNL     1      -8.435  34.669  34.867  1.00  0.00     0.146 A 
ATOM     11  O   UNL     1      -8.233  33.447  35.346  1.00  0.00    -0.452 OA
ENDROOT
BRANCH   1  12
ATOM     12  C   UNL     1      -8.039  31.746  37.042  1.00  0.00     0.025 A 
ATOM     13  C   UNL     1      -9.007  30.768  36.763  1.00  0.00     0.016 A 
ATOM     14  C   UNL     1      -8.805  29.442  37.153  1.00  0.00     0.051 A 
ATOM     15  C   UNL     1      -7.644  29.075  37.841  1.00  0.00     0.157 A 
ATOM     16  C   UNL     1      -6.882  31.379  37.753  1.00  0.00     0.062 A 
ATOM     17  C   UNL     1      -6.679  30.049  38.147  1.00  0.00     0.158 A 
BRANCH  15  18
ATOM     18  O   UNL     1      -7.470  27.743  38.215  1.00  0.00    -0.504 OA
ATOM     19  H   UNL     1      -7.543  26.983  37.549  1.00  0.00     0.293 HD
ENDBRANCH  15  18
BRANCH  17  20
ATOM     20  O   UNL     1      -5.526  29.694  38.846  1.00  0.00    -0.504 OA
ATOM     21  H   UNL     1      -4.611  30.020  38.561  1.00  0.00     0.293 HD
ENDBRANCH  17  20
ENDBRANCH   1  12
BRANCH   2  22
ATOM     22  O   UNL     1      -8.581  33.865  38.943  1.00  0.00    -0.502 OA
ATOM     23  H   UNL     1      -7.764  33.970  39.532  1.00  0.00     0.293 HD
ENDBRANCH   2  22
BRANCH   6  24
ATOM     24  O   UNL     1      -9.048  38.224  35.917  1.00  0.00    -0.507 OA
ATOM     25  H   UNL     1      -9.848  38.430  36.495  1.00  0.00     0.293 HD
ENDBRANCH   6  24
BRANCH   8  26
ATOM     26  O   UNL     1      -8.585  36.280  31.552  1.00  0.00    -0.508 OA
ATOM     27  H   UNL     1      -9.436  36.310  31.003  1.00  0.00     0.293 HD
ENDBRANCH   8  26
TORSDOF 6
ENDMDL
MODEL 3
REMARK VINA RESULT:    -4.302     19.223     20.312
REMARK INTER + INTRA:          -5.462
REMARK INTER:                  -5.176
REMARK INTRA:                  -0.286
REMARK UNBOUND:                -0.280
REMARK SMILES O=c1c(O)c(-c2ccc(O)c(O)c2)oc2cc(O)cc(O)c12
REMARK SMILES IDX 5 1 3 2 2 3 1 4 22 5 20 6 19 7 17 8 16 9 15 10 14 11 6 12
REMARK SMILES IDX 7 13 8 14 9 15 13 16 11 17 10 18 12 20 4 22 21 24 18 26
REMARK H PARENT 10 19 12 21 4 23 21 25 18 27
REMARK Flexibility Score: inf
ROOT
ATOM      1  C   UNL     1       7.800  20.861  26.558  1.00  0.00     0.180 A 
ATOM      2  C   UNL     1       9.199  20.732  26.534  1.00  0.00     0.208 A 
ATOM      3  C   UNL     1       9.879  20.449  27.730  1.00  0.00     0.238 A 
ATOM      4  O   UNL     1      11.122  20.262  27.688  1.00  0.00    -0.285 OA
ATOM      5  C   UNL     1       9.157  20.351  28.945  1.00  0.00     0.111 A 
ATOM      6  C   UNL     1       9.746  20.112  30.224  1.00  0.00     0.134 A 
ATOM      7  C   UNL     1       8.922  19.930  31.340  1.00  0.00     0.093 A 
ATOM      8  C   UNL     1       7.533  20.043  31.238  1.00  0.00     0.123 A 
ATOM      9  C   UNL     1       6.952  20.331  30.006  1.00  0.00     0.094 A 
ATOM     10  C   UNL     1       7.744  20.479  28.865  1.00  0.00     0.146 A 
ATOM     11  O   UNL     1       7.147  20.732  27.707  1.00  0.00    -0.452 OA
ENDROOT
BRANCH   1  12
ATOM     12  C   UNL     1       7.014  21.145  25.336  1.00  0.00     0.025 A 
ATOM     13  C   UNL     1       6.746  20.105  24.432  1.00  0.00     0.016 A 
ATOM     14  C   UNL     1       6.024  20.353  23.262  1.00  0.00     0.051 A 
ATOM     15  C   UNL     1       5.574  21.644  22.969  1.00  0.00     0.157 A 
ATOM     16  C   UNL     1       6.579  22.447  25.029  1.00  0.00     0.062 A 
ATOM     17  C   UNL     1       5.856  22.698  23.855  1.00  0.00     0.158 A 
BRANCH  15  18
ATOM     18  O   UNL     1       4.855  21.861  21.795  1.00  0.00    -0.504 OA
ATOM     19  H   UNL     1       5.133  22.557  21.113  1.00  0.00     0.293 HD
ENDBRANCH  15  18
BRANCH  17  20
ATOM     20  O   UNL     1       5.424  23.991  23.562  1.00  0.00    -0.504 OA
ATOM     21  H   UNL     1       4.595  24.160  23.006  1.00  0.00     0.293 HD
ENDBRANCH  17  20
ENDBRANCH   1  12
BRANCH   2  22
ATOM     22  O   UNL     1       9.902  20.908  25.338  1.00  0.00    -0.502 OA
ATOM     23  H   UNL     1       9.925  21.793  24.845  1.00  0.00     0.293 HD
ENDBRANCH   2  22
BRANCH   6  24
ATOM     24  O   UNL     1      11.125  20.069  30.455  1.00  0.00    -0.507 OA
ATOM     25  H   UNL     1      11.576  20.344  31.313  1.00  0.00     0.293 HD
ENDBRANCH   6  24
BRANCH   8  26
ATOM     26  O   UNL     1       6.722  19.876  32.359  1.00  0.00    -0.508 OA
ATOM     27  H   UNL     1       5.810  19.441  32.293  1.00  0.00     0.293 HD
ENDBRANCH   8  26
TORSDOF 6
ENDMDL
MODEL 4
REMARK VINA RESULT:    -4.225     19.542     20.941
REMARK INTER + INTRA:          -5.370
REMARK INTER:                  -5.424
REMARK INTRA:                   0.055
REMARK UNBOUND:                -0.280
REMARK SMILES O=c1c(O)c(-c2ccc(O)c(O)c2)oc2cc(O)cc(O)c12
REMARK SMILES IDX 5 1 3 2 2 3 1 4 22 5 20 6 19 7 17 8 16 9 15 10 14 11 6 12
REMARK SMILES IDX 7 13 8 14 9 15 13 16 11 17 10 18 12 20 4 22 21 24 18 26
REMARK H PARENT 10 19 12 21 4 23 21 25 18 27
REMARK Flexibility Score: inf
ROOT
ATOM      1  C   UNL     1       8.415  21.190  27.310  1.00  0.00     0.180 A 
ATOM      2  C   UNL     1       9.520  21.864  26.762  1.00  0.00     0.208 A 
ATOM      3  C   UNL     1       9.536  22.139  25.385  1.00  0.00     0.238 A 
ATOM      4  O   UNL     1      10.492  22.807  24.914  1.00  0.00    -0.285 OA
ATOM      5  C   UNL     1       8.473  21.690  24.564  1.00  0.00     0.111 A 
ATOM      6  C   UNL     1       8.405  21.874  23.149  1.00  0.00     0.134 A 
ATOM      7  C   UNL     1       7.254  21.480  22.456  1.00  0.00     0.093 A 
ATOM      8  C   UNL     1       6.195  20.850  23.115  1.00  0.00     0.123 A 
ATOM      9  C   UNL     1       6.275  20.617  24.486  1.00  0.00     0.094 A 
ATOM     10  C   UNL     1       7.393  21.033  25.212  1.00  0.00     0.146 A 
ATOM     11  O   UNL     1       7.418  20.810  26.520  1.00  0.00    -0.452 OA
ENDROOT
BRANCH   1  12
ATOM     12  C   UNL     1       8.320  20.877  28.754  1.00  0.00     0.025 A 
ATOM     13  C   UNL     1       9.401  20.253  29.396  1.00  0.00     0.016 A 
ATOM     14  C   UNL     1       9.327  19.929  30.753  1.00  0.00     0.051 A 
ATOM     15  C   UNL     1       8.168  20.208  31.484  1.00  0.00     0.157 A 
ATOM     16  C   UNL     1       7.148  21.137  29.486  1.00  0.00     0.062 A 
ATOM     17  C   UNL     1       7.071  20.811  30.848  1.00  0.00     0.158 A 
BRANCH  15  18
ATOM     18  O   UNL     1       8.125  19.875  32.837  1.00  0.00    -0.504 OA
ATOM     19  H   UNL     1       8.964  19.798  33.400  1.00  0.00     0.293 HD
ENDBRANCH  15  18
BRANCH  17  20
ATOM     20  O   UNL     1       5.907  21.078  31.567  1.00  0.00    -0.504 OA
ATOM     21  H   UNL     1       5.298  20.335  31.887  1.00  0.00     0.293 HD
ENDBRANCH  17  20
ENDBRANCH   1  12
BRANCH   2  22
ATOM     22  O   UNL     1      10.595  22.232  27.576  1.00  0.00    -0.502 OA
ATOM     23  H   UNL     1      11.247  21.555  27.956  1.00  0.00     0.293 HD
ENDBRANCH   2  22
BRANCH   6  24
ATOM     24  O   UNL     1       9.442  22.410  22.378  1.00  0.00    -0.507 OA
ATOM     25  H   UNL     1       9.921  23.274  22.577  1.00  0.00     0.293 HD
ENDBRANCH   6  24
BRANCH   8  26
ATOM     26  O   UNL     1       5.061  20.447  22.414  1.00  0.00    -0.508 OA
ATOM     27  H   UNL     1       4.997  20.544  21.408  1.00  0.00     0.293 HD
ENDBRANCH   8  26
TORSDOF 6
ENDMDL
MODEL 5
REMARK VINA RESULT:    -4.218      2.066      2.942
REMARK INTER + INTRA:          -5.361
REMARK INTER:                  -5.242
REMARK INTRA:                  -0.119
REMARK UNBOUND:                -0.280
REMARK SMILES O=c1c(O)c(-c2ccc(O)c(O)c2)oc2cc(O)cc(O)c12
REMARK SMILES IDX 5 1 3 2 2 3 1 4 22 5 20 6 19 7 17 8 16 9 15 10 14 11 6 12
REMARK SMILES IDX 7 13 8 14 9 15 13 16 11 17 10 18 12 20 4 22 21 24 18 26
REMARK H PARENT 10 19 12 21 4 23 21 25 18 27
REMARK Flexibility Score: inf
ROOT
ATOM      1  C   UNL     1      -6.806  26.972  38.283  1.00  0.00     0.180 A 
ATOM      2  C   UNL     1      -6.355  26.660  39.577  1.00  0.00     0.208 A 
ATOM      3  C   UNL     1      -5.855  25.373  39.833  1.00  0.00     0.238 A 
ATOM      4  O   UNL     1      -5.385  25.124  40.973  1.00  0.00    -0.285 OA
ATOM      5  C   UNL     1      -5.864  24.396  38.808  1.00  0.00     0.111 A 
ATOM      6  C   UNL     1      -5.424  23.047  38.966  1.00  0.00     0.134 A 
ATOM      7  C   UNL     1      -5.380  22.200  37.853  1.00  0.00     0.093 A 
ATOM      8  C   UNL     1      -5.821  22.633  36.599  1.00  0.00     0.123 A 
ATOM      9  C   UNL     1      -6.303  23.929  36.446  1.00  0.00     0.094 A 
ATOM     10  C   UNL     1      -6.323  24.811  37.529  1.00  0.00     0.146 A 
ATOM     11  O   UNL     1      -6.772  26.045  37.333  1.00  0.00    -0.452 OA
ENDROOT
BRANCH   1  12
ATOM     12  C   UNL     1      -7.332  28.311  37.934  1.00  0.00     0.025 A 
ATOM     13  C   UNL     1      -8.615  28.423  37.375  1.00  0.00     0.016 A 
ATOM     14  C   UNL     1      -9.125  29.674  37.018  1.00  0.00     0.051 A 
ATOM     15  C   UNL     1      -8.356  30.828  37.197  1.00  0.00     0.157 A 
ATOM     16  C   UNL     1      -6.552  29.471  38.093  1.00  0.00     0.062 A 
ATOM     17  C   UNL     1      -7.061  30.727  37.733  1.00  0.00     0.158 A 
BRANCH  15  18
ATOM     18  O   UNL     1      -8.892  32.062  36.833  1.00  0.00    -0.504 OA
ATOM     19  H   UNL     1      -9.303  32.223  35.920  1.00  0.00     0.293 HD
ENDBRANCH  15  18
BRANCH  17  20
ATOM     20  O   UNL     1      -6.283  31.871  37.900  1.00  0.00    -0.504 OA
ATOM     21  H   UNL     1      -6.698  32.794  37.945  1.00  0.00     0.293 HD
ENDBRANCH  17  20
ENDBRANCH   1  12
BRANCH   2  22
ATOM     22  O   UNL     1      -6.425  27.615  40.596  1.00  0.00    -0.502 OA
ATOM     23  H   UNL     1      -5.600  27.997  41.042  1.00  0.00     0.293 HD
ENDBRANCH   2  22
BRANCH   6  24
ATOM     24  O   UNL     1      -5.047  22.486  40.190  1.00  0.00    -0.507 OA
ATOM     25  H   UNL     1      -4.291  21.831  40.317  1.00  0.00     0.293 HD
ENDBRANCH   6  24
BRANCH   8  26
ATOM     26  O   UNL     1      -5.788  21.776  35.500  1.00  0.00    -0.508 OA
ATOM     27  H   UNL     1      -4.959  21.681  34.927  1.00  0.00     0.293 HD
ENDBRANCH   8  26
TORSDOF 6
ENDMDL
MODEL 6
REMARK VINA RESULT:    -4.215      2.262      7.285
REMARK INTER + INTRA:          -5.357
REMARK INTER:                  -5.247
REMARK INTRA:                  -0.110
REMARK UNBOUND:                -0.280
REMARK SMILES O=c1c(O)c(-c2ccc(O)c(O)c2)oc2cc(O)cc(O)c12
REMARK SMILES IDX 5 1 3 2 2 3 1 4 22 5 20 6 19 7 17 8 16 9 15 10 14 11 6 12
REMARK SMILES IDX 7 13 8 14 9 15 13 16 11 17 10 18 12 20 4 22 21 24 18 26
REMARK H PARENT 10 19 12 21 4 23 21 25 18 27
REMARK Flexibility Score: inf
ROOT
ATOM      1  C   UNL     1      -6.907  24.957  37.398  1.00  0.00     0.180 A 
ATOM      2  C   UNL     1      -6.310  25.096  38.663  1.00  0.00     0.208 A 
ATOM      3  C   UNL     1      -6.222  26.374  39.239  1.00  0.00     0.238 A 
ATOM      4  O   UNL     1      -5.754  26.481  40.401  1.00  0.00    -0.285 OA
ATOM      5  C   UNL     1      -6.682  27.504  38.520  1.00  0.00     0.111 A 
ATOM      6  C   UNL     1      -6.602  28.852  38.986  1.00  0.00     0.134 A 
ATOM      7  C   UNL     1      -7.186  29.878  38.234  1.00  0.00     0.093 A 
ATOM      8  C   UNL     1      -7.790  29.616  37.002  1.00  0.00     0.123 A 
ATOM      9  C   UNL     1      -7.824  28.313  36.513  1.00  0.00     0.094 A 
ATOM     10  C   UNL     1      -7.285  27.261  37.257  1.00  0.00     0.146 A 
ATOM     11  O   UNL     1      -7.359  26.032  36.762  1.00  0.00    -0.452 OA
ENDROOT
BRANCH   1  12
ATOM     12  C   UNL     1      -7.049  23.641  36.734  1.00  0.00     0.025 A 
ATOM     13  C   UNL     1      -8.332  23.146  36.454  1.00  0.00     0.016 A 
ATOM     14  C   UNL     1      -8.491  21.897  35.847  1.00  0.00     0.051 A 
ATOM     15  C   UNL     1      -7.374  21.120  35.526  1.00  0.00     0.157 A 
ATOM     16  C   UNL     1      -5.928  22.848  36.431  1.00  0.00     0.062 A 
ATOM     17  C   UNL     1      -6.086  21.594  35.823  1.00  0.00     0.158 A 
BRANCH  15  18
ATOM     18  O   UNL     1      -7.564  19.879  34.919  1.00  0.00    -0.504 OA
ATOM     19  H   UNL     1      -7.366  19.724  33.937  1.00  0.00     0.293 HD
ENDBRANCH  15  18
BRANCH  17  20
ATOM     20  O   UNL     1      -4.968  20.818  35.520  1.00  0.00    -0.504 OA
ATOM     21  H   UNL     1      -4.577  20.792  34.586  1.00  0.00     0.293 HD
ENDBRANCH  17  20
ENDBRANCH   1  12
BRANCH   2  22
ATOM     22  O   UNL     1      -5.793  23.978  39.323  1.00  0.00    -0.502 OA
ATOM     23  H   UNL     1      -4.799  23.787  39.374  1.00  0.00     0.293 HD
ENDBRANCH   2  22
BRANCH   6  24
ATOM     24  O   UNL     1      -5.944  29.237  40.159  1.00  0.00    -0.507 OA
ATOM     25  H   UNL     1      -5.089  29.769  40.193  1.00  0.00     0.293 HD
ENDBRANCH   6  24
BRANCH   8  26
ATOM     26  O   UNL     1      -8.354  30.647  36.253  1.00  0.00    -0.508 OA
ATOM     27  H   UNL     1      -9.326  30.625  35.969  1.00  0.00     0.293 HD
ENDBRANCH   8  26
TORSDOF 6
ENDMDL
MODEL 7
REMARK VINA RESULT:    -4.185      2.344      4.364
REMARK INTER + INTRA:          -5.321
REMARK INTER:                  -5.014
REMARK INTRA:                  -0.306
REMARK UNBOUND:                -0.280
REMARK SMILES O=c1c(O)c(-c2ccc(O)c(O)c2)oc2cc(O)cc(O)c12
REMARK SMILES IDX 5 1 3 2 2 3 1 4 22 5 20 6 19 7 17 8 16 9 15 10 14 11 6 12
REMARK SMILES IDX 7 13 8 14 9 15 13 16 11 17 10 18 12 20 4 22 21 24 18 26
REMARK H PARENT 10 19 12 21 4 23 21 25 18 27
REMARK Flexibility Score: inf
ROOT
ATOM      1  C   UNL     1      -7.904  25.861  37.091  1.00  0.00     0.180 A 
ATOM      2  C   UNL     1      -7.507  25.355  35.841  1.00  0.00     0.208 A 
ATOM      3  C   UNL     1      -7.500  23.965  35.640  1.00  0.00     0.238 A 
ATOM      4  O   UNL     1      -7.216  23.522  34.497  1.00  0.00    -0.285 OA
ATOM      5  C   UNL     1      -7.838  23.096  36.706  1.00  0.00     0.111 A 
ATOM      6  C   UNL     1      -7.823  21.670  36.629  1.00  0.00     0.134 A 
ATOM      7  C   UNL     1      -8.279  20.916  37.716  1.00  0.00     0.093 A 
ATOM      8  C   UNL     1      -8.689  21.532  38.901  1.00  0.00     0.123 A 
ATOM      9  C   UNL     1      -8.655  22.920  39.006  1.00  0.00     0.094 A 
ATOM     10  C   UNL     1      -8.242  23.703  37.925  1.00  0.00     0.146 A 
ATOM     11  O   UNL     1      -8.246  25.023  38.062  1.00  0.00    -0.452 OA
ENDROOT
BRANCH   1  12
ATOM     12  C   UNL     1      -7.949  27.314  37.373  1.00  0.00     0.025 A 
ATOM     13  C   UNL     1      -9.064  28.061  36.963  1.00  0.00     0.016 A 
ATOM     14  C   UNL     1      -9.121  29.437  37.200  1.00  0.00     0.051 A 
ATOM     15  C   UNL     1      -8.059  30.089  37.834  1.00  0.00     0.157 A 
ATOM     16  C   UNL     1      -6.873  27.976  37.992  1.00  0.00     0.062 A 
ATOM     17  C   UNL     1      -6.927  29.356  38.228  1.00  0.00     0.158 A 
BRANCH  15  18
ATOM     18  O   UNL     1      -8.145  31.462  38.059  1.00  0.00    -0.504 OA
ATOM     19  H   UNL     1      -7.321  32.046  38.147  1.00  0.00     0.293 HD
ENDBRANCH  15  18
BRANCH  17  20
ATOM     20  O   UNL     1      -5.858  30.002  38.848  1.00  0.00    -0.504 OA
ATOM     21  H   UNL     1      -5.821  30.123  39.853  1.00  0.00     0.293 HD
ENDBRANCH  17  20
ENDBRANCH   1  12
BRANCH   2  22
ATOM     22  O   UNL     1      -7.103  26.226  34.825  1.00  0.00    -0.502 OA
ATOM     23  H   UNL     1      -7.611  26.318  33.953  1.00  0.00     0.293 HD
ENDBRANCH   2  22
BRANCH   6  24
ATOM     24  O   UNL     1      -7.350  20.951  35.527  1.00  0.00    -0.507 OA
ATOM     25  H   UNL     1      -7.699  21.042  34.585  1.00  0.00     0.293 HD
ENDBRANCH   6  24
BRANCH   8  26
ATOM     26  O   UNL     1      -9.125  20.771  39.984  1.00  0.00    -0.508 OA
ATOM     27  H   UNL     1      -8.515  20.107  40.445  1.00  0.00     0.293 HD
ENDBRANCH   8  26
TORSDOF 6
ENDMDL
MODEL 8
REMARK VINA RESULT:    -4.169      1.903      7.716
REMARK INTER + INTRA:          -5.302
REMARK INTER:                  -5.251
REMARK INTRA:                  -0.051
REMARK UNBOUND:                -0.280
REMARK SMILES O=c1c(O)c(-c2ccc(O)c(O)c2)oc2cc(O)cc(O)c12
REMARK SMILES IDX 5 1 3 2 2 3 1 4 22 5 20 6 19 7 17 8 16 9 15 10 14 11 6 12
REMARK SMILES IDX 7 13 8 14 9 15 13 16 11 17 10 18 12 20 4 22 21 24 18 26
REMARK H PARENT 10 19 12 21 4 23 21 25 18 27
REMARK Flexibility Score: inf
ROOT
ATOM      1  C   UNL     1      -7.800  31.229  36.796  1.00  0.00     0.180 A 
ATOM      2  C   UNL     1      -7.628  31.624  35.458  1.00  0.00     0.208 A 
ATOM      3  C   UNL     1      -7.797  32.976  35.118  1.00  0.00     0.238 A 
ATOM      4  O   UNL     1      -7.569  33.334  33.934  1.00  0.00    -0.285 OA
ATOM      5  C   UNL     1      -8.191  33.908  36.110  1.00  0.00     0.111 A 
ATOM      6  C   UNL     1      -8.435  35.294  35.871  1.00  0.00     0.134 A 
ATOM      7  C   UNL     1      -8.717  36.141  36.949  1.00  0.00     0.093 A 
ATOM      8  C   UNL     1      -8.827  35.642  38.249  1.00  0.00     0.123 A 
ATOM      9  C   UNL     1      -8.645  34.282  38.485  1.00  0.00     0.094 A 
ATOM     10  C   UNL     1      -8.324  33.417  37.436  1.00  0.00     0.146 A 
ATOM     11  O   UNL     1      -8.138  32.132  37.710  1.00  0.00    -0.452 OA
ENDROOT
BRANCH   1  12
ATOM     12  C   UNL     1      -7.625  29.825  37.232  1.00  0.00     0.025 A 
ATOM     13  C   UNL     1      -6.687  29.527  38.233  1.00  0.00     0.016 A 
ATOM     14  C   UNL     1      -6.488  28.208  38.647  1.00  0.00     0.051 A 
ATOM     15  C   UNL     1      -7.210  27.166  38.056  1.00  0.00     0.157 A 
ATOM     16  C   UNL     1      -8.334  28.774  36.625  1.00  0.00     0.062 A 
ATOM     17  C   UNL     1      -8.135  27.449  37.037  1.00  0.00     0.158 A 
BRANCH  15  18
ATOM     18  O   UNL     1      -6.992  25.859  38.491  1.00  0.00    -0.504 OA
ATOM     19  H   UNL     1      -7.059  25.065  37.865  1.00  0.00     0.293 HD
ENDBRANCH  15  18
BRANCH  17  20
ATOM     20  O   UNL     1      -8.847  26.413  36.434  1.00  0.00    -0.504 OA
ATOM     21  H   UNL     1      -8.945  25.508  36.876  1.00  0.00     0.293 HD
ENDBRANCH  17  20
ENDBRANCH   1  12
BRANCH   2  22
ATOM     22  O   UNL     1      -7.314  30.676  34.480  1.00  0.00    -0.502 OA
ATOM     23  H   UNL     1      -6.660  29.920  34.644  1.00  0.00     0.293 HD
ENDBRANCH   2  22
BRANCH   6  24
ATOM     24  O   UNL     1      -8.439  35.881  34.601  1.00  0.00    -0.507 OA
ATOM     25  H   UNL     1      -7.757  35.702  33.880  1.00  0.00     0.293 HD
ENDBRANCH   6  24
BRANCH   8  26
ATOM     26  O   UNL     1      -9.124  36.491  39.313  1.00  0.00    -0.508 OA
ATOM     27  H   UNL     1      -9.498  36.137  40.185  1.00  0.00     0.293 HD
ENDBRANCH   8  26
TORSDOF 6
ENDMDL
MODEL 9
REMARK VINA RESULT:    -4.118      1.518      3.174
REMARK INTER + INTRA:          -5.241
REMARK INTER:                  -4.954
REMARK INTRA:                  -0.287
REMARK UNBOUND:                -0.280
REMARK SMILES O=c1c(O)c(-c2ccc(O)c(O)c2)oc2cc(O)cc(O)c12
REMARK SMILES IDX 5 1 3 2 2 3 1 4 22 5 20 6 19 7 17 8 16 9 15 10 14 11 6 12
REMARK SMILES IDX 7 13 8 14 9 15 13 16 11 17 10 18 12 20 4 22 21 24 18 26
REMARK H PARENT 10 19 12 21 4 23 21 25 18 27
REMARK Flexibility Score: inf
ROOT
ATOM      1  C   UNL     1      -7.546  27.809  37.172  1.00  0.00     0.180 A 
ATOM      2  C   UNL     1      -8.127  26.832  36.346  1.00  0.00     0.208 A 
ATOM      3  C   UNL     1      -7.791  25.483  36.545  1.00  0.00     0.238 A 
ATOM      4  O   UNL     1      -8.371  24.608  35.852  1.00  0.00    -0.285 OA
ATOM      5  C   UNL     1      -6.836  25.132  37.530  1.00  0.00     0.111 A 
ATOM      6  C   UNL     1      -6.386  23.802  37.789  1.00  0.00     0.134 A 
ATOM      7  C   UNL     1      -5.517  23.563  38.860  1.00  0.00     0.093 A 
ATOM      8  C   UNL     1      -5.030  24.614  39.642  1.00  0.00     0.123 A 
ATOM      9  C   UNL     1      -5.420  25.921  39.363  1.00  0.00     0.094 A 
ATOM     10  C   UNL     1      -6.317  26.188  38.326  1.00  0.00     0.146 A 
ATOM     11  O   UNL     1      -6.678  27.447  38.109  1.00  0.00    -0.452 OA
ENDROOT
BRANCH   1  12
ATOM     12  C   UNL     1      -7.862  29.249  37.032  1.00  0.00     0.025 A 
ATOM     13  C   UNL     1      -8.794  29.837  37.900  1.00  0.00     0.016 A 
ATOM     14  C   UNL     1      -9.124  31.188  37.774  1.00  0.00     0.051 A 
ATOM     15  C   UNL     1      -8.542  31.967  36.770  1.00  0.00     0.157 A 
ATOM     16  C   UNL     1      -7.294  30.029  36.008  1.00  0.00     0.062 A 
ATOM     17  C   UNL     1      -7.625  31.385  35.879  1.00  0.00     0.158 A 
BRANCH  15  18
ATOM     18  O   UNL     1      -8.890  33.314  36.670  1.00  0.00    -0.504 OA
ATOM     19  H   UNL     1      -9.289  33.827  37.448  1.00  0.00     0.293 HD
ENDBRANCH  15  18
BRANCH  17  20
ATOM     20  O   UNL     1      -7.052  32.152  34.865  1.00  0.00    -0.504 OA
ATOM     21  H   UNL     1      -7.269  31.990  33.890  1.00  0.00     0.293 HD
ENDBRANCH  17  20
ENDBRANCH   1  12
BRANCH   2  22
ATOM     22  O   UNL     1      -9.010  27.205  35.328  1.00  0.00    -0.502 OA
ATOM     23  H   UNL     1      -8.830  27.005  34.351  1.00  0.00     0.293 HD
ENDBRANCH   2  22
BRANCH   6  24
ATOM     24  O   UNL     1      -6.739  22.692  37.015  1.00  0.00    -0.507 OA
ATOM     25  H   UNL     1      -7.046  22.730  36.056  1.00  0.00     0.293 HD
ENDBRANCH   6  24
BRANCH   8  26
ATOM     26  O   UNL     1      -4.152  24.368  40.696  1.00  0.00    -0.508 OA
ATOM     27  H   UNL     1      -3.567  23.542  40.716  1.00  0.00     0.293 HD
ENDBRANCH   8  26
TORSDOF 6
ENDMDL
