MODEL 1
REMARK VINA RESULT:    -3.527      0.000      0.000
REMARK INTER + INTRA:          -3.527
REMARK INTER:                  -3.527
REMARK INTRA:                   0.000
REMARK UNBOUND:                 0.000
REMARK SMILES CC(C)=C1CC[C@@H](C)CC1=O
REMARK SMILES IDX 8 1 7 2 6 3 5 4 4 5 2 6 1 7 3 8 10 9 11 10 9 11
REMARK H PARENT
REMARK Flexibility Score: inf
ROOT
ATOM      1  C   UNL     1      61.175  12.039  -2.238  1.00  0.00     0.008 C 
ATOM      2  C   UNL     1      61.743  13.292  -1.562  1.00  0.00    -0.006 C 
ATOM      3  C   UNL     1      62.744  13.999  -2.489  1.00  0.00     0.008 C 
ATOM      4  C   UNL     1      63.248  15.310  -1.872  1.00  0.00     0.039 C 
ATOM      5  C   UNL     1      63.789  15.121  -0.460  1.00  0.00    -0.006 C 
ATOM      6  C   UNL     1      64.808  15.895   0.018  1.00  0.00    -0.070 C 
ATOM      7  C   UNL     1      65.391  15.678   1.395  1.00  0.00     0.039 C 
ATOM      8  C   UNL     1      65.427  16.985  -0.826  1.00  0.00     0.039 C 
ATOM      9  C   UNL     1      63.068  14.129   0.391  1.00  0.00     0.159 C 
ATOM     10  O   UNL     1      62.979  14.280   1.639  1.00  0.00    -0.295 OA
ATOM     11  C   UNL     1      62.424  12.926  -0.236  1.00  0.00     0.084 C 
ENDROOT
TORSDOF 0
ENDMDL
MODEL 2
REMARK VINA RESULT:    -3.339     13.306     14.128
REMARK INTER + INTRA:          -3.339
REMARK INTER:                  -3.339
REMARK INTRA:                   0.000
REMARK UNBOUND:                 0.000
REMARK SMILES CC(C)=C1CC[C@@H](C)CC1=O
REMARK SMILES IDX 8 1 7 2 6 3 5 4 4 5 2 6 1 7 3 8 10 9 11 10 9 11
REMARK H PARENT
REMARK Flexibility Score: inf
ROOT
ATOM      1  C   UNL     1      52.494   6.795   3.383  1.00  0.00     0.008 C 
ATOM      2  C   UNL     1      53.353   6.002   4.374  1.00  0.00    -0.006 C 
ATOM      3  C   UNL     1      54.585   6.819   4.795  1.00  0.00     0.008 C 
ATOM      4  C   UNL     1      55.404   6.083   5.865  1.00  0.00     0.039 C 
ATOM      5  C   UNL     1      55.757   4.659   5.453  1.00  0.00    -0.006 C 
ATOM      6  C   UNL     1      56.918   4.070   5.864  1.00  0.00    -0.070 C 
ATOM      7  C   UNL     1      57.306   2.680   5.415  1.00  0.00     0.039 C 
ATOM      8  C   UNL     1      57.893   4.799   6.761  1.00  0.00     0.039 C 
ATOM      9  C   UNL     1      54.713   3.922   4.680  1.00  0.00     0.159 C 
ATOM     10  O   UNL     1      54.578   2.674   4.789  1.00  0.00    -0.295 OA
ATOM     11  C   UNL     1      53.794   4.667   3.757  1.00  0.00     0.084 C 
ENDROOT
TORSDOF 0
ENDMDL
MODEL 3
REMARK VINA RESULT:    -3.327     13.070     14.889
REMARK INTER + INTRA:          -3.327
REMARK INTER:                  -3.327
REMARK INTRA:                   0.000
REMARK UNBOUND:                 0.000
REMARK SMILES CC(C)=C1CC[C@@H](C)CC1=O
REMARK SMILES IDX 8 1 7 2 6 3 5 4 4 5 2 6 1 7 3 8 10 9 11 10 9 11
REMARK H PARENT
REMARK Flexibility Score: inf
ROOT
ATOM      1  C   UNL     1      54.965   7.371   5.325  1.00  0.00     0.008 C 
ATOM      2  C   UNL     1      55.183   5.887   5.641  1.00  0.00    -0.006 C 
ATOM      3  C   UNL     1      56.679   5.538   5.589  1.00  0.00     0.008 C 
ATOM      4  C   UNL     1      56.926   4.080   6.001  1.00  0.00     0.039 C 
ATOM      5  C   UNL     1      56.067   3.097   5.217  1.00  0.00    -0.006 C 
ATOM      6  C   UNL     1      56.514   1.840   4.927  1.00  0.00    -0.070 C 
ATOM      7  C   UNL     1      55.695   0.876   4.100  1.00  0.00     0.039 C 
ATOM      8  C   UNL     1      57.872   1.364   5.390  1.00  0.00     0.039 C 
ATOM      9  C   UNL     1      54.682   3.551   4.891  1.00  0.00     0.159 C 
ATOM     10  O   UNL     1      53.727   2.733   4.816  1.00  0.00    -0.295 OA
ATOM     11  C   UNL     1      54.404   5.006   4.654  1.00  0.00     0.084 C 
ENDROOT
TORSDOF 0
ENDMDL
MODEL 4
REMARK VINA RESULT:    -3.268     13.156     13.655
REMARK INTER + INTRA:          -3.268
REMARK INTER:                  -3.268
REMARK INTRA:                   0.000
REMARK UNBOUND:                 0.000
REMARK SMILES CC(C)=C1CC[C@@H](C)CC1=O
REMARK SMILES IDX 8 1 7 2 6 3 5 4 4 5 2 6 1 7 3 8 10 9 11 10 9 11
REMARK H PARENT
REMARK Flexibility Score: inf
ROOT
ATOM      1  C   UNL     1      54.882   4.627   3.945  1.00  0.00     0.008 C 
ATOM      2  C   UNL     1      55.949   5.109   4.934  1.00  0.00    -0.006 C 
ATOM      3  C   UNL     1      56.627   3.915   5.623  1.00  0.00     0.008 C 
ATOM      4  C   UNL     1      57.767   4.374   6.542  1.00  0.00     0.039 C 
ATOM      5  C   UNL     1      57.326   5.446   7.529  1.00  0.00    -0.006 C 
ATOM      6  C   UNL     1      57.887   5.541   8.771  1.00  0.00    -0.070 C 
ATOM      7  C   UNL     1      57.417   6.564   9.780  1.00  0.00     0.039 C 
ATOM      8  C   UNL     1      58.983   4.597   9.210  1.00  0.00     0.039 C 
ATOM      9  C   UNL     1      56.339   6.444   7.017  1.00  0.00     0.159 C 
ATOM     10  O   UNL     1      56.339   7.635   7.429  1.00  0.00    -0.295 OA
ATOM     11  C   UNL     1      55.326   6.038   5.987  1.00  0.00     0.084 C 
ENDROOT
TORSDOF 0
ENDMDL
MODEL 5
REMARK VINA RESULT:    -3.252      2.113      3.144
REMARK INTER + INTRA:          -3.252
REMARK INTER:                  -3.252
REMARK INTRA:                   0.000
REMARK UNBOUND:                 0.000
REMARK SMILES CC(C)=C1CC[C@@H](C)CC1=O
REMARK SMILES IDX 8 1 7 2 6 3 5 4 4 5 2 6 1 7 3 8 10 9 11 10 9 11
REMARK H PARENT
REMARK Flexibility Score: inf
ROOT
ATOM      1  C   UNL     1      63.448  15.403  -3.530  1.00  0.00     0.008 C 
ATOM      2  C   UNL     1      63.349  15.236  -2.009  1.00  0.00    -0.006 C 
ATOM      3  C   UNL     1      62.007  15.777  -1.492  1.00  0.00     0.008 C 
ATOM      4  C   UNL     1      61.846  15.526   0.013  1.00  0.00     0.039 C 
ATOM      5  C   UNL     1      63.033  16.036   0.820  1.00  0.00    -0.006 C 
ATOM      6  C   UNL     1      62.876  16.505   2.093  1.00  0.00    -0.070 C 
ATOM      7  C   UNL     1      64.037  17.066   2.882  1.00  0.00     0.039 C 
ATOM      8  C   UNL     1      61.521  16.520   2.761  1.00  0.00     0.039 C 
ATOM      9  C   UNL     1      64.375  15.883   0.182  1.00  0.00     0.159 C 
ATOM     10  O   UNL     1      65.409  15.683   0.873  1.00  0.00    -0.295 OA
ATOM     11  C   UNL     1      64.510  15.958  -1.311  1.00  0.00     0.084 C 
ENDROOT
TORSDOF 0
ENDMDL
MODEL 6
REMARK VINA RESULT:    -3.219      1.582      2.978
REMARK INTER + INTRA:          -3.219
REMARK INTER:                  -3.219
REMARK INTRA:                   0.000
REMARK UNBOUND:                 0.000
REMARK SMILES CC(C)=C1CC[C@@H](C)CC1=O
REMARK SMILES IDX 8 1 7 2 6 3 5 4 4 5 2 6 1 7 3 8 10 9 11 10 9 11
REMARK H PARENT
REMARK Flexibility Score: inf
ROOT
ATOM      1  C   UNL     1      63.496  15.492  -3.764  1.00  0.00     0.008 C 
ATOM      2  C   UNL     1      63.081  15.268  -2.305  1.00  0.00    -0.006 C 
ATOM      3  C   UNL     1      64.118  15.877  -1.349  1.00  0.00     0.008 C 
ATOM      4  C   UNL     1      63.669  15.753   0.113  1.00  0.00     0.039 C 
ATOM      5  C   UNL     1      63.292  14.326   0.489  1.00  0.00    -0.006 C 
ATOM      6  C   UNL     1      63.485  13.852   1.755  1.00  0.00    -0.070 C 
ATOM      7  C   UNL     1      63.168  12.421   2.125  1.00  0.00     0.039 C 
ATOM      8  C   UNL     1      64.063  14.730   2.842  1.00  0.00     0.039 C 
ATOM      9  C   UNL     1      62.601  13.529  -0.568  1.00  0.00     0.159 C 
ATOM     10  O   UNL     1      61.745  12.653  -0.274  1.00  0.00    -0.295 OA
ATOM     11  C   UNL     1      62.916  13.769  -2.016  1.00  0.00     0.084 C 
ENDROOT
TORSDOF 0
ENDMDL
MODEL 7
REMARK VINA RESULT:    -3.219     12.936     14.581
REMARK INTER + INTRA:          -3.219
REMARK INTER:                  -3.219
REMARK INTRA:                   0.000
REMARK UNBOUND:                 0.000
REMARK SMILES CC(C)=C1CC[C@@H](C)CC1=O
REMARK SMILES IDX 8 1 7 2 6 3 5 4 4 5 2 6 1 7 3 8 10 9 11 10 9 11
REMARK H PARENT
REMARK Flexibility Score: inf
ROOT
ATOM      1  C   UNL     1      56.734   6.551   6.086  1.00  0.00     0.008 C 
ATOM      2  C   UNL     1      57.179   5.598   7.201  1.00  0.00    -0.006 C 
ATOM      3  C   UNL     1      57.158   6.311   8.562  1.00  0.00     0.008 C 
ATOM      4  C   UNL     1      57.501   5.346   9.704  1.00  0.00     0.039 C 
ATOM      5  C   UNL     1      58.801   4.590   9.459  1.00  0.00    -0.006 C 
ATOM      6  C   UNL     1      59.608   4.214  10.494  1.00  0.00    -0.070 C 
ATOM      7  C   UNL     1      60.928   3.515  10.260  1.00  0.00     0.039 C 
ATOM      8  C   UNL     1      59.235   4.514  11.928  1.00  0.00     0.039 C 
ATOM      9  C   UNL     1      59.072   4.193   8.045  1.00  0.00     0.159 C 
ATOM     10  O   UNL     1      59.702   3.137   7.772  1.00  0.00    -0.295 OA
ATOM     11  C   UNL     1      58.586   5.054   6.916  1.00  0.00     0.084 C 
ENDROOT
TORSDOF 0
ENDMDL
MODEL 8
REMARK VINA RESULT:    -3.131     12.749     14.416
REMARK INTER + INTRA:          -3.131
REMARK INTER:                  -3.131
REMARK INTRA:                   0.000
REMARK UNBOUND:                 0.000
REMARK SMILES CC(C)=C1CC[C@@H](C)CC1=O
REMARK SMILES IDX 8 1 7 2 6 3 5 4 4 5 2 6 1 7 3 8 10 9 11 10 9 11
REMARK H PARENT
REMARK Flexibility Score: inf
ROOT
ATOM      1  C   UNL     1      56.370   7.879   7.327  1.00  0.00     0.008 C 
ATOM      2  C   UNL     1      56.339   6.732   6.311  1.00  0.00    -0.006 C 
ATOM      3  C   UNL     1      54.890   6.344   5.977  1.00  0.00     0.008 C 
ATOM      4  C   UNL     1      54.837   5.267   4.885  1.00  0.00     0.039 C 
ATOM      5  C   UNL     1      55.706   4.060   5.214  1.00  0.00    -0.006 C 
ATOM      6  C   UNL     1      55.363   2.805   4.798  1.00  0.00    -0.070 C 
ATOM      7  C   UNL     1      56.186   1.592   5.166  1.00  0.00     0.039 C 
ATOM      8  C   UNL     1      54.116   2.565   3.977  1.00  0.00     0.039 C 
ATOM      9  C   UNL     1      56.996   4.349   5.909  1.00  0.00     0.159 C 
ATOM     10  O   UNL     1      58.017   3.636   5.716  1.00  0.00    -0.295 OA
ATOM     11  C   UNL     1      57.097   5.512   6.853  1.00  0.00     0.084 C 
ENDROOT
TORSDOF 0
ENDMDL
MODEL 9
REMARK VINA RESULT:    -3.105      1.468      3.350
REMARK INTER + INTRA:          -3.105
REMARK INTER:                  -3.105
REMARK INTRA:                   0.000
REMARK UNBOUND:                 0.000
REMARK SMILES CC(C)=C1CC[C@@H](C)CC1=O
REMARK SMILES IDX 8 1 7 2 6 3 5 4 4 5 2 6 1 7 3 8 10 9 11 10 9 11
REMARK H PARENT
REMARK Flexibility Score: inf
ROOT
ATOM      1  C   UNL     1      63.416  15.441  -3.740  1.00  0.00     0.008 C 
ATOM      2  C   UNL     1      63.517  14.683  -2.411  1.00  0.00    -0.006 C 
ATOM      3  C   UNL     1      62.313  13.746  -2.230  1.00  0.00     0.008 C 
ATOM      4  C   UNL     1      62.447  12.904  -0.955  1.00  0.00     0.039 C 
ATOM      5  C   UNL     1      62.719  13.754   0.280  1.00  0.00    -0.006 C 
ATOM      6  C   UNL     1      62.262  13.381   1.512  1.00  0.00    -0.070 C 
ATOM      7  C   UNL     1      62.475  14.244   2.734  1.00  0.00     0.039 C 
ATOM      8  C   UNL     1      61.483  12.100   1.704  1.00  0.00     0.039 C 
ATOM      9  C   UNL     1      63.603  14.941   0.078  1.00  0.00     0.159 C 
ATOM     10  O   UNL     1      64.368  15.350   0.992  1.00  0.00    -0.295 OA
ATOM     11  C   UNL     1      63.598  15.667  -1.235  1.00  0.00     0.084 C 
ENDROOT
TORSDOF 0
ENDMDL
