MODEL 1
REMARK VINA RESULT:    -5.887      0.000      0.000
REMARK INTER + INTRA:          -6.693
REMARK INTER:                  -6.575
REMARK INTRA:                  -0.118
REMARK UNBOUND:                -0.118
REMARK SMILES COc1cc2ccc(=O)oc2cc1OC
REMARK SMILES IDX 3 1 13 2 12 3 11 4 5 5 4 6 6 7 7 8 8 9 9 10 10 11 2 12 1 13
REMARK SMILES IDX 14 14 15 15
REMARK H PARENT
REMARK Flexibility Score: inf
ROOT
ATOM      1  C   UNL     1     -11.119  -8.869  37.807  1.00  0.00     0.161 A 
ATOM      2  C   UNL     1     -11.040  -8.552  39.173  1.00  0.00     0.164 A 
ATOM      3  C   UNL     1     -11.938  -7.619  39.727  1.00  0.00     0.098 A 
ATOM      4  C   UNL     1     -12.906  -7.008  38.928  1.00  0.00     0.142 A 
ATOM      5  C   UNL     1     -12.987  -7.325  37.557  1.00  0.00     0.022 A 
ATOM      6  C   UNL     1     -12.096  -8.252  37.000  1.00  0.00     0.062 A 
ATOM      7  C   UNL     1     -13.967  -6.696  36.783  1.00  0.00     0.019 A 
ATOM      8  C   UNL     1     -14.830  -5.780  37.383  1.00  0.00     0.094 A 
ATOM      9  C   UNL     1     -14.691  -5.514  38.749  1.00  0.00     0.336 A 
ATOM     10  O   UNL     1     -15.460  -4.690  39.311  1.00  0.00    -0.246 OA
ATOM     11  O   UNL     1     -13.749  -6.127  39.462  1.00  0.00    -0.423 OA
ENDROOT
BRANCH   1  12
ATOM     12  O   UNL     1     -10.209  -9.803  37.286  1.00  0.00    -0.493 OA
ATOM     13  C   UNL     1      -9.227  -9.512  36.298  1.00  0.00     0.278 C 
ENDBRANCH   1  12
BRANCH   2  14
ATOM     14  O   UNL     1     -10.054  -9.186  39.946  1.00  0.00    -0.493 OA
ATOM     15  C   UNL     1     -10.128  -9.369  41.357  1.00  0.00     0.278 C 
ENDBRANCH   2  14
TORSDOF 2
ENDMDL
MODEL 2
REMARK VINA RESULT:    -5.627      1.251      2.810
REMARK INTER + INTRA:          -6.402
REMARK INTER:                  -6.266
REMARK INTRA:                  -0.136
REMARK UNBOUND:                -0.118
REMARK SMILES COc1cc2ccc(=O)oc2cc1OC
REMARK SMILES IDX 3 1 13 2 12 3 11 4 5 5 4 6 6 7 7 8 8 9 9 10 10 11 2 12 1 13
REMARK SMILES IDX 14 14 15 15
REMARK H PARENT
REMARK Flexibility Score: inf
ROOT
ATOM      1  C   UNL     1     -10.596  -8.743  39.596  1.00  0.00     0.161 A 
ATOM      2  C   UNL     1     -10.616  -9.118  38.242  1.00  0.00     0.164 A 
ATOM      3  C   UNL     1     -11.569  -8.549  37.374  1.00  0.00     0.098 A 
ATOM      4  C   UNL     1     -12.491  -7.616  37.849  1.00  0.00     0.142 A 
ATOM      5  C   UNL     1     -12.471  -7.238  39.207  1.00  0.00     0.022 A 
ATOM      6  C   UNL     1     -11.527  -7.801  40.076  1.00  0.00     0.062 A 
ATOM      7  C   UNL     1     -13.409  -6.301  39.654  1.00  0.00     0.019 A 
ATOM      8  C   UNL     1     -14.329  -5.770  38.751  1.00  0.00     0.094 A 
ATOM      9  C   UNL     1     -14.290  -6.191  37.418  1.00  0.00     0.336 A 
ATOM     10  O   UNL     1     -15.112  -5.724  36.586  1.00  0.00    -0.246 OA
ATOM     11  O   UNL     1     -13.387  -7.085  37.020  1.00  0.00    -0.423 OA
ENDROOT
BRANCH   1  12
ATOM     12  O   UNL     1      -9.633  -9.329  40.434  1.00  0.00    -0.493 OA
ATOM     13  C   UNL     1      -9.890 -10.404  41.332  1.00  0.00     0.278 C 
ENDBRANCH   1  12
BRANCH   2  14
ATOM     14  O   UNL     1      -9.674 -10.060  37.799  1.00  0.00    -0.493 OA
ATOM     15  C   UNL     1      -8.474  -9.735  37.104  1.00  0.00     0.278 C 
ENDBRANCH   2  14
TORSDOF 2
ENDMDL
MODEL 3
REMARK VINA RESULT:    -5.577      7.801      9.051
REMARK INTER + INTRA:          -6.347
REMARK INTER:                  -6.180
REMARK INTRA:                  -0.166
REMARK UNBOUND:                -0.118
REMARK SMILES COc1cc2ccc(=O)oc2cc1OC
REMARK SMILES IDX 3 1 13 2 12 3 11 4 5 5 4 6 6 7 7 8 8 9 9 10 10 11 2 12 1 13
REMARK SMILES IDX 14 14 15 15
REMARK H PARENT
REMARK Flexibility Score: inf
ROOT
ATOM      1  C   UNL     1     -16.258 -10.150  46.999  1.00  0.00     0.161 A 
ATOM      2  C   UNL     1     -16.249  -8.854  47.541  1.00  0.00     0.164 A 
ATOM      3  C   UNL     1     -16.639  -7.760  46.745  1.00  0.00     0.098 A 
ATOM      4  C   UNL     1     -17.036  -7.955  45.420  1.00  0.00     0.142 A 
ATOM      5  C   UNL     1     -17.046  -9.255  44.875  1.00  0.00     0.022 A 
ATOM      6  C   UNL     1     -16.657 -10.347  45.662  1.00  0.00     0.062 A 
ATOM      7  C   UNL     1     -17.447  -9.418  43.545  1.00  0.00     0.019 A 
ATOM      8  C   UNL     1     -17.824  -8.300  42.802  1.00  0.00     0.094 A 
ATOM      9  C   UNL     1     -17.789  -7.040  43.409  1.00  0.00     0.336 A 
ATOM     10  O   UNL     1     -18.125  -6.018  42.756  1.00  0.00    -0.246 OA
ATOM     11  O   UNL     1     -17.402  -6.914  44.676  1.00  0.00    -0.423 OA
ENDROOT
BRANCH   1  12
ATOM     12  O   UNL     1     -15.863 -11.218  47.821  1.00  0.00    -0.493 OA
ATOM     13  C   UNL     1     -14.583 -11.839  47.780  1.00  0.00     0.278 C 
ENDBRANCH   1  12
BRANCH   2  14
ATOM     14  O   UNL     1     -15.844  -8.696  48.877  1.00  0.00    -0.493 OA
ATOM     15  C   UNL     1     -14.566  -8.215  49.281  1.00  0.00     0.278 C 
ENDBRANCH   2  14
TORSDOF 2
ENDMDL
MODEL 4
REMARK VINA RESULT:    -5.520      4.472      6.456
REMARK INTER + INTRA:          -6.284
REMARK INTER:                  -6.126
REMARK INTRA:                  -0.158
REMARK UNBOUND:                -0.118
REMARK SMILES COc1cc2ccc(=O)oc2cc1OC
REMARK SMILES IDX 3 1 13 2 12 3 11 4 5 5 4 6 6 7 7 8 8 9 9 10 10 11 2 12 1 13
REMARK SMILES IDX 14 14 15 15
REMARK H PARENT
REMARK Flexibility Score: inf
ROOT
ATOM      1  C   UNL     1     -17.165  -6.933  43.244  1.00  0.00     0.161 A 
ATOM      2  C   UNL     1     -15.852  -6.458  43.407  1.00  0.00     0.164 A 
ATOM      3  C   UNL     1     -15.116  -6.039  42.281  1.00  0.00     0.098 A 
ATOM      4  C   UNL     1     -15.682  -6.092  41.006  1.00  0.00     0.142 A 
ATOM      5  C   UNL     1     -16.999  -6.567  40.842  1.00  0.00     0.022 A 
ATOM      6  C   UNL     1     -17.736  -6.986  41.957  1.00  0.00     0.062 A 
ATOM      7  C   UNL     1     -17.538  -6.608  39.551  1.00  0.00     0.019 A 
ATOM      8  C   UNL     1     -16.764  -6.181  38.472  1.00  0.00     0.094 A 
ATOM      9  C   UNL     1     -15.465  -5.722  38.711  1.00  0.00     0.336 A 
ATOM     10  O   UNL     1     -14.750  -5.332  37.751  1.00  0.00    -0.246 OA
ATOM     11  O   UNL     1     -14.977  -5.694  39.949  1.00  0.00    -0.423 OA
ENDROOT
BRANCH   1  12
ATOM     12  O   UNL     1     -17.871  -7.342  44.387  1.00  0.00    -0.493 OA
ATOM     13  C   UNL     1     -18.002  -8.693  44.815  1.00  0.00     0.278 C 
ENDBRANCH   1  12
BRANCH   2  14
ATOM     14  O   UNL     1     -15.316  -6.420  44.704  1.00  0.00    -0.493 OA
ATOM     15  C   UNL     1     -14.455  -7.414  45.251  1.00  0.00     0.278 C 
ENDBRANCH   2  14
TORSDOF 2
ENDMDL
MODEL 5
REMARK VINA RESULT:    -5.453      1.469      5.041
REMARK INTER + INTRA:          -6.209
REMARK INTER:                  -6.052
REMARK INTRA:                  -0.157
REMARK UNBOUND:                -0.118
REMARK SMILES COc1cc2ccc(=O)oc2cc1OC
REMARK SMILES IDX 3 1 13 2 12 3 11 4 5 5 4 6 6 7 7 8 8 9 9 10 10 11 2 12 1 13
REMARK SMILES IDX 14 14 15 15
REMARK H PARENT
REMARK Flexibility Score: inf
ROOT
ATOM      1  C   UNL     1     -14.149  -6.059  38.913  1.00  0.00     0.161 A 
ATOM      2  C   UNL     1     -13.517  -6.073  40.167  1.00  0.00     0.164 A 
ATOM      3  C   UNL     1     -12.384  -6.885  40.371  1.00  0.00     0.098 A 
ATOM      4  C   UNL     1     -11.886  -7.676  39.334  1.00  0.00     0.142 A 
ATOM      5  C   UNL     1     -12.519  -7.664  38.075  1.00  0.00     0.022 A 
ATOM      6  C   UNL     1     -13.647  -6.859  37.867  1.00  0.00     0.062 A 
ATOM      7  C   UNL     1     -11.997  -8.468  37.056  1.00  0.00     0.019 A 
ATOM      8  C   UNL     1     -10.873  -9.253  37.312  1.00  0.00     0.094 A 
ATOM      9  C   UNL     1     -10.297  -9.215  38.586  1.00  0.00     0.336 A 
ATOM     10  O   UNL     1      -9.282  -9.915  38.838  1.00  0.00    -0.246 OA
ATOM     11  O   UNL     1     -10.815  -8.441  39.537  1.00  0.00    -0.423 OA
ENDROOT
BRANCH   1  12
ATOM     12  O   UNL     1     -15.276  -5.238  38.745  1.00  0.00    -0.493 OA
ATOM     13  C   UNL     1     -16.623  -5.677  38.881  1.00  0.00     0.278 C 
ENDBRANCH   1  12
BRANCH   2  14
ATOM     14  O   UNL     1     -14.045  -5.264  41.187  1.00  0.00    -0.493 OA
ATOM     15  C   UNL     1     -14.819  -5.748  42.280  1.00  0.00     0.278 C 
ENDBRANCH   2  14
TORSDOF 2
ENDMDL
MODEL 6
REMARK VINA RESULT:    -5.442      1.535      5.541
REMARK INTER + INTRA:          -6.197
REMARK INTER:                  -6.047
REMARK INTRA:                  -0.150
REMARK UNBOUND:                -0.118
REMARK SMILES COc1cc2ccc(=O)oc2cc1OC
REMARK SMILES IDX 3 1 13 2 12 3 11 4 5 5 4 6 6 7 7 8 8 9 9 10 10 11 2 12 1 13
REMARK SMILES IDX 14 14 15 15
REMARK H PARENT
REMARK Flexibility Score: inf
ROOT
ATOM      1  C   UNL     1     -13.710  -6.141  40.046  1.00  0.00     0.161 A 
ATOM      2  C   UNL     1     -14.259  -6.140  38.753  1.00  0.00     0.164 A 
ATOM      3  C   UNL     1     -13.626  -6.862  37.723  1.00  0.00     0.098 A 
ATOM      4  C   UNL     1     -12.456  -7.580  37.979  1.00  0.00     0.142 A 
ATOM      5  C   UNL     1     -11.903  -7.582  39.276  1.00  0.00     0.022 A 
ATOM      6  C   UNL     1     -12.528  -6.865  40.304  1.00  0.00     0.062 A 
ATOM      7  C   UNL     1     -10.730  -8.310  39.500  1.00  0.00     0.019 A 
ATOM      8  C   UNL     1     -10.144  -9.008  38.444  1.00  0.00     0.094 A 
ATOM      9  C   UNL     1     -10.749  -8.959  37.183  1.00  0.00     0.336 A 
ATOM     10  O   UNL     1     -10.236  -9.582  36.217  1.00  0.00    -0.246 OA
ATOM     11  O   UNL     1     -11.865  -8.258  36.998  1.00  0.00    -0.423 OA
ENDROOT
BRANCH   1  12
ATOM     12  O   UNL     1     -14.367  -5.411  41.049  1.00  0.00    -0.493 OA
ATOM     13  C   UNL     1     -15.131  -5.990  42.102  1.00  0.00     0.278 C 
ENDBRANCH   1  12
BRANCH   2  14
ATOM     14  O   UNL     1     -15.437  -5.407  38.533  1.00  0.00    -0.493 OA
ATOM     15  C   UNL     1     -16.751  -5.952  38.602  1.00  0.00     0.278 C 
ENDBRANCH   2  14
TORSDOF 2
ENDMDL
MODEL 7
REMARK VINA RESULT:    -5.436      1.252      1.513
REMARK INTER + INTRA:          -6.190
REMARK INTER:                  -6.071
REMARK INTRA:                  -0.119
REMARK UNBOUND:                -0.118
REMARK SMILES COc1cc2ccc(=O)oc2cc1OC
REMARK SMILES IDX 3 1 13 2 12 3 11 4 5 5 4 6 6 7 7 8 8 9 9 10 10 11 2 12 1 13
REMARK SMILES IDX 14 14 15 15
REMARK H PARENT
REMARK Flexibility Score: inf
ROOT
ATOM      1  C   UNL     1     -10.085  -9.521  38.988  1.00  0.00     0.161 A 
ATOM      2  C   UNL     1     -10.349  -8.948  40.243  1.00  0.00     0.164 A 
ATOM      3  C   UNL     1     -11.383  -8.000  40.376  1.00  0.00     0.098 A 
ATOM      4  C   UNL     1     -12.148  -7.628  39.269  1.00  0.00     0.142 A 
ATOM      5  C   UNL     1     -11.884  -8.203  38.009  1.00  0.00     0.022 A 
ATOM      6  C   UNL     1     -10.857  -9.145  37.870  1.00  0.00     0.062 A 
ATOM      7  C   UNL     1     -12.668  -7.809  36.918  1.00  0.00     0.019 A 
ATOM      8  C   UNL     1     -13.679  -6.868  37.106  1.00  0.00     0.094 A 
ATOM      9  C   UNL     1     -13.882  -6.340  38.385  1.00  0.00     0.336 A 
ATOM     10  O   UNL     1     -14.789  -5.488  38.577  1.00  0.00    -0.246 OA
ATOM     11  O   UNL     1     -13.122  -6.732  39.405  1.00  0.00    -0.423 OA
ENDROOT
BRANCH   1  12
ATOM     12  O   UNL     1      -9.048 -10.463  38.891  1.00  0.00    -0.493 OA
ATOM     13  C   UNL     1      -8.092 -10.507  37.837  1.00  0.00     0.278 C 
ENDBRANCH   1  12
BRANCH   2  14
ATOM     14  O   UNL     1      -9.560  -9.346  41.334  1.00  0.00    -0.493 OA
ATOM     15  C   UNL     1      -9.943 -10.327  42.293  1.00  0.00     0.278 C 
ENDBRANCH   2  14
TORSDOF 2
ENDMDL
MODEL 8
REMARK VINA RESULT:    -5.313      6.800      8.303
REMARK INTER + INTRA:          -6.052
REMARK INTER:                  -5.932
REMARK INTRA:                  -0.120
REMARK UNBOUND:                -0.118
REMARK SMILES COc1cc2ccc(=O)oc2cc1OC
REMARK SMILES IDX 3 1 13 2 12 3 11 4 5 5 4 6 6 7 7 8 8 9 9 10 10 11 2 12 1 13
REMARK SMILES IDX 14 14 15 15
REMARK H PARENT
REMARK Flexibility Score: inf
ROOT
ATOM      1  C   UNL     1     -16.920  -8.632  46.041  1.00  0.00     0.161 A 
ATOM      2  C   UNL     1     -16.482  -7.298  46.067  1.00  0.00     0.164 A 
ATOM      3  C   UNL     1     -16.574  -6.509  44.903  1.00  0.00     0.098 A 
ATOM      4  C   UNL     1     -17.098  -7.044  43.725  1.00  0.00     0.142 A 
ATOM      5  C   UNL     1     -17.538  -8.383  43.697  1.00  0.00     0.022 A 
ATOM      6  C   UNL     1     -17.449  -9.173  44.851  1.00  0.00     0.062 A 
ATOM      7  C   UNL     1     -18.057  -8.891  42.502  1.00  0.00     0.019 A 
ATOM      8  C   UNL     1     -18.125  -8.066  41.380  1.00  0.00     0.094 A 
ATOM      9  C   UNL     1     -17.669  -6.747  41.481  1.00  0.00     0.336 A 
ATOM     10  O   UNL     1     -17.721  -5.985  40.480  1.00  0.00    -0.246 OA
ATOM     11  O   UNL     1     -17.179  -6.290  42.631  1.00  0.00    -0.423 OA
ENDROOT
BRANCH   1  12
ATOM     12  O   UNL     1     -16.815  -9.390  47.218  1.00  0.00    -0.493 OA
ATOM     13  C   UNL     1     -15.898 -10.463  47.410  1.00  0.00     0.278 C 
ENDBRANCH   1  12
BRANCH   2  14
ATOM     14  O   UNL     1     -15.961  -6.793  47.269  1.00  0.00    -0.493 OA
ATOM     15  C   UNL     1     -15.031  -5.718  47.357  1.00  0.00     0.278 C 
ENDBRANCH   2  14
TORSDOF 2
ENDMDL
MODEL 9
REMARK VINA RESULT:    -5.224      1.786      2.794
REMARK INTER + INTRA:          -5.953
REMARK INTER:                  -5.794
REMARK INTRA:                  -0.159
REMARK UNBOUND:                -0.118
REMARK SMILES COc1cc2ccc(=O)oc2cc1OC
REMARK SMILES IDX 3 1 13 2 12 3 11 4 5 5 4 6 6 7 7 8 8 9 9 10 10 11 2 12 1 13
REMARK SMILES IDX 14 14 15 15
REMARK H PARENT
REMARK Flexibility Score: inf
ROOT
ATOM      1  C   UNL     1     -10.670  -8.504  40.703  1.00  0.00     0.161 A 
ATOM      2  C   UNL     1     -11.398  -7.588  41.480  1.00  0.00     0.164 A 
ATOM      3  C   UNL     1     -12.414  -6.816  40.883  1.00  0.00     0.098 A 
ATOM      4  C   UNL     1     -12.702  -6.956  39.524  1.00  0.00     0.142 A 
ATOM      5  C   UNL     1     -11.973  -7.876  38.743  1.00  0.00     0.022 A 
ATOM      6  C   UNL     1     -10.961  -8.645  39.331  1.00  0.00     0.062 A 
ATOM      7  C   UNL     1     -12.285  -7.993  37.384  1.00  0.00     0.019 A 
ATOM      8  C   UNL     1     -13.300  -7.204  36.844  1.00  0.00     0.094 A 
ATOM      9  C   UNL     1     -13.982  -6.313  37.680  1.00  0.00     0.336 A 
ATOM     10  O   UNL     1     -14.901  -5.592  37.213  1.00  0.00    -0.246 OA
ATOM     11  O   UNL     1     -13.664  -6.222  38.969  1.00  0.00    -0.423 OA
ENDROOT
BRANCH   1  12
ATOM     12  O   UNL     1      -9.665  -9.257  41.331  1.00  0.00    -0.493 OA
ATOM     13  C   UNL     1      -9.798 -10.622  41.714  1.00  0.00     0.278 C 
ENDBRANCH   1  12
BRANCH   2  14
ATOM     14  O   UNL     1     -11.081  -7.473  42.844  1.00  0.00    -0.493 OA
ATOM     15  C   UNL     1     -11.928  -7.898  43.908  1.00  0.00     0.278 C 
ENDBRANCH   2  14
TORSDOF 2
ENDMDL
