MODEL 1
REMARK VINA RESULT:    -2.480      0.000      0.000
REMARK INTER + INTRA:          -2.480
REMARK INTER:                  -2.480
REMARK INTRA:                   0.000
REMARK UNBOUND:                 0.000
REMARK SMILES CC(=O)[O-]
REMARK SMILES IDX 1 1 2 2 3 3 4 4
REMARK H PARENT
REMARK Flexibility Score: inf
ROOT
ATOM      1  C   UNL     1      -0.827   3.657  -5.529  1.00  0.00     0.063 C 
ATOM      2  C   UNL     1       0.405   2.817  -5.533  1.00  0.00     0.038 C 
ATOM      3  O   UNL     1       1.176   2.822  -4.538  1.00  0.00    -0.550 OA
ATOM      4  O   UNL     1       0.676   1.985  -6.611  1.00  0.00    -0.550 OA
ENDROOT
TORSDOF 0
ENDMDL
MODEL 2
REMARK VINA RESULT:    -2.287      1.430      1.770
REMARK INTER + INTRA:          -2.287
REMARK INTER:                  -2.287
REMARK INTRA:                   0.000
REMARK UNBOUND:                 0.000
REMARK SMILES CC(=O)[O-]
REMARK SMILES IDX 1 1 2 2 3 3 4 4
REMARK H PARENT
REMARK Flexibility Score: inf
ROOT
ATOM      1  C   UNL     1       0.611   1.917  -6.483  1.00  0.00     0.063 C 
ATOM      2  C   UNL     1       0.355   2.858  -5.355  1.00  0.00     0.038 C 
ATOM      3  O   UNL     1       1.152   2.908  -4.382  1.00  0.00    -0.550 OA
ATOM      4  O   UNL     1      -0.732   3.719  -5.400  1.00  0.00    -0.550 OA
ENDROOT
TORSDOF 0
ENDMDL
MODEL 3
REMARK VINA RESULT:    -2.249      1.466      2.141
REMARK INTER + INTRA:          -2.249
REMARK INTER:                  -2.249
REMARK INTRA:                   0.000
REMARK UNBOUND:                 0.000
REMARK SMILES CC(=O)[O-]
REMARK SMILES IDX 1 1 2 2 3 3 4 4
REMARK H PARENT
REMARK Flexibility Score: inf
ROOT
ATOM      1  C   UNL     1       1.045   2.813  -4.587  1.00  0.00     0.063 C 
ATOM      2  C   UNL     1       0.057   2.872  -5.703  1.00  0.00     0.038 C 
ATOM      3  O   UNL     1       0.241   2.189  -6.744  1.00  0.00    -0.550 OA
ATOM      4  O   UNL     1      -1.094   3.635  -5.573  1.00  0.00    -0.550 OA
ENDROOT
TORSDOF 0
ENDMDL
MODEL 4
REMARK VINA RESULT:    -1.654      2.028      2.550
REMARK INTER + INTRA:          -1.654
REMARK INTER:                  -1.654
REMARK INTRA:                   0.000
REMARK UNBOUND:                 0.000
REMARK SMILES CC(=O)[O-]
REMARK SMILES IDX 1 1 2 2 3 3 4 4
REMARK H PARENT
REMARK Flexibility Score: inf
ROOT
ATOM      1  C   UNL     1       0.743   2.825  -5.408  1.00  0.00     0.063 C 
ATOM      2  C   UNL     1      -0.354   3.833  -5.463  1.00  0.00     0.038 C 
ATOM      3  O   UNL     1      -1.552   3.457  -5.550  1.00  0.00    -0.550 OA
ATOM      4  O   UNL     1      -0.062   5.186  -5.362  1.00  0.00    -0.550 OA
ENDROOT
TORSDOF 0
ENDMDL
MODEL 5
REMARK VINA RESULT:    -1.573     13.658     14.011
REMARK INTER + INTRA:          -1.573
REMARK INTER:                  -1.573
REMARK INTRA:                   0.000
REMARK UNBOUND:                 0.000
REMARK SMILES CC(=O)[O-]
REMARK SMILES IDX 1 1 2 2 3 3 4 4
REMARK H PARENT
REMARK Flexibility Score: inf
ROOT
ATOM      1  C   UNL     1      -0.734  -4.986   4.750  1.00  0.00     0.063 C 
ATOM      2  C   UNL     1      -0.519  -6.456   4.883  1.00  0.00     0.038 C 
ATOM      3  O   UNL     1      -1.492  -7.216   5.125  1.00  0.00    -0.550 OA
ATOM      4  O   UNL     1       0.745  -6.995   4.686  1.00  0.00    -0.550 OA
ENDROOT
TORSDOF 0
ENDMDL
MODEL 6
REMARK VINA RESULT:    -1.544     18.551     18.911
REMARK INTER + INTRA:          -1.544
REMARK INTER:                  -1.544
REMARK INTRA:                   0.000
REMARK UNBOUND:                 0.000
REMARK SMILES CC(=O)[O-]
REMARK SMILES IDX 1 1 2 2 3 3 4 4
REMARK H PARENT
REMARK Flexibility Score: inf
ROOT
ATOM      1  C   UNL     1      12.228  -9.975 -13.440  1.00  0.00     0.063 C 
ATOM      2  C   UNL     1      12.667  -9.873 -12.018  1.00  0.00     0.038 C 
ATOM      3  O   UNL     1      12.672 -10.896 -11.285  1.00  0.00    -0.550 OA
ATOM      4  O   UNL     1      13.124  -8.663 -11.516  1.00  0.00    -0.550 OA
ENDROOT
TORSDOF 0
ENDMDL
MODEL 7
REMARK VINA RESULT:    -1.535     13.982     14.444
REMARK INTER + INTRA:          -1.535
REMARK INTER:                  -1.535
REMARK INTRA:                   0.000
REMARK UNBOUND:                 0.000
REMARK SMILES CC(=O)[O-]
REMARK SMILES IDX 1 1 2 2 3 3 4 4
REMARK H PARENT
REMARK Flexibility Score: inf
ROOT
ATOM      1  C   UNL     1      10.353   0.858 -15.125  1.00  0.00     0.063 C 
ATOM      2  C   UNL     1      11.618   1.028 -14.353  1.00  0.00     0.038 C 
ATOM      3  O   UNL     1      11.600   1.595 -13.230  1.00  0.00    -0.550 OA
ATOM      4  O   UNL     1      12.808   0.512 -14.846  1.00  0.00    -0.550 OA
ENDROOT
TORSDOF 0
ENDMDL
MODEL 8
REMARK VINA RESULT:    -1.500     18.633     18.964
REMARK INTER + INTRA:          -1.500
REMARK INTER:                  -1.500
REMARK INTRA:                   0.000
REMARK UNBOUND:                 0.000
REMARK SMILES CC(=O)[O-]
REMARK SMILES IDX 1 1 2 2 3 3 4 4
REMARK H PARENT
REMARK Flexibility Score: inf
ROOT
ATOM      1  C   UNL     1      12.627 -11.114 -11.391  1.00  0.00     0.063 C 
ATOM      2  C   UNL     1      12.671  -9.847 -12.176  1.00  0.00     0.038 C 
ATOM      3  O   UNL     1      13.125  -8.796 -11.653  1.00  0.00    -0.550 OA
ATOM      4  O   UNL     1      12.263  -9.836 -13.503  1.00  0.00    -0.550 OA
ENDROOT
TORSDOF 0
ENDMDL
MODEL 9
REMARK VINA RESULT:    -1.482     13.830     14.267
REMARK INTER + INTRA:          -1.482
REMARK INTER:                  -1.482
REMARK INTRA:                   0.000
REMARK UNBOUND:                 0.000
REMARK SMILES CC(=O)[O-]
REMARK SMILES IDX 1 1 2 2 3 3 4 4
REMARK H PARENT
REMARK Flexibility Score: inf
ROOT
ATOM      1  C   UNL     1       0.740  -7.375   5.122  1.00  0.00     0.063 C 
ATOM      2  C   UNL     1      -0.498  -6.572   4.908  1.00  0.00     0.038 C 
ATOM      3  O   UNL     1      -1.619  -7.142   4.860  1.00  0.00    -0.550 OA
ATOM      4  O   UNL     1      -0.422  -5.189   4.816  1.00  0.00    -0.550 OA
ENDROOT
TORSDOF 0
ENDMDL
