MODEL 1
REMARK VINA RESULT:    -6.662      0.000      0.000
REMARK INTER + INTRA:          -8.010
REMARK INTER:                  -7.636
REMARK INTRA:                  -0.374
REMARK UNBOUND:                -0.374
REMARK SMILES C=C(C)[C@@H]1CC[C@]2(C(=O)[O-])CC[C@]3(C)[C@H](CC[C@@H]4[C@@]5(C)CC[C@@H](O)C(C)(C)[C@H]5CC[C@]43C)[C@@H]12
REMARK SMILES IDX 7 1 6 2 33 3 11 4 5 5 15 6 4 7 12 8 16 9 13 10 17 11 31 12
REMARK SMILES IDX 14 13 18 14 30 15 32 16 19 17 29 18 21 19 20 20 28 21 22 22
REMARK SMILES IDX 25 23 23 24 26 25 27 26 8 27 9 28 10 29 2 30 3 31 1 32 24 33
REMARK H PARENT 24 34
REMARK Flexibility Score: inf
ROOT
ATOM      1  C   UNL     1      26.667  -2.007 -26.358  1.00  0.00     0.014 C 
ATOM      2  C   UNL     1      25.759  -0.789 -26.174  1.00  0.00     0.014 C 
ATOM      3  C   UNL     1      28.006  -1.476 -25.813  1.00  0.00     0.012 C 
ATOM      4  C   UNL     1      26.276  -3.240 -25.513  1.00  0.00     0.014 C 
ATOM      5  C   UNL     1      26.644   0.415 -26.538  1.00  0.00     0.009 C 
ATOM      6  C   UNL     1      29.143  -2.499 -26.068  1.00  0.00     0.000 C 
ATOM      7  C   UNL     1      28.114  -0.038 -26.357  1.00  0.00     0.018 C 
ATOM      8  C   UNL     1      27.349  -4.355 -25.644  1.00  0.00     0.008 C 
ATOM      9  C   UNL     1      30.538  -1.974 -25.685  1.00  0.00     0.005 C 
ATOM     10  C   UNL     1      28.837  -3.884 -25.360  1.00  0.00    -0.024 C 
ATOM     11  C   UNL     1      31.659  -2.990 -25.993  1.00  0.00     0.005 C 
ATOM     12  C   UNL     1      29.927  -4.943 -25.915  1.00  0.00    -0.024 C 
ATOM     13  C   UNL     1      28.903  -3.717 -23.789  1.00  0.00     0.012 C 
ATOM     14  C   UNL     1      31.377  -4.448 -25.492  1.00  0.00     0.002 C 
ATOM     15  C   UNL     1      29.667  -6.363 -25.324  1.00  0.00     0.008 C 
ATOM     16  C   UNL     1      29.815  -5.065 -27.487  1.00  0.00     0.012 C 
ATOM     17  C   UNL     1      32.569  -5.485 -25.721  1.00  0.00    -0.026 C 
ATOM     18  C   UNL     1      30.807  -7.381 -25.522  1.00  0.00     0.005 C 
ATOM     19  C   UNL     1      33.913  -4.963 -25.119  1.00  0.00     0.010 C 
ATOM     20  C   UNL     1      32.878  -5.681 -27.238  1.00  0.00     0.012 C 
ATOM     21  C   UNL     1      32.220  -6.898 -25.082  1.00  0.00     0.003 C 
ATOM     22  C   UNL     1      33.969  -5.010 -23.599  1.00  0.00     0.033 C 
ATOM     23  C   UNL     1      32.554  -7.143 -23.533  1.00  0.00    -0.006 C 
ATOM     24  C   UNL     1      33.906  -6.462 -23.139  1.00  0.00     0.120 C 
ATOM     25  C   UNL     1      32.743  -8.669 -23.290  1.00  0.00     0.014 C 
ATOM     26  C   UNL     1      31.429  -6.685 -22.566  1.00  0.00     0.014 C 
ENDROOT
BRANCH   1  27
ATOM     27  C   UNL     1      26.662  -2.372 -27.849  1.00  0.00     0.048 C 
ATOM     28  O   UNL     1      25.603  -2.786 -28.393  1.00  0.00    -0.550 OA
ATOM     29  O   UNL     1      27.773  -2.154 -28.656  1.00  0.00    -0.550 OA
ENDBRANCH   1  27
BRANCH   7  30
ATOM     30  C   UNL     1      28.885   0.907 -25.436  1.00  0.00    -0.077 C 
ATOM     31  C   UNL     1      29.928   1.856 -25.975  1.00  0.00     0.039 C 
ATOM     32  C   UNL     1      28.671   0.880 -24.111  1.00  0.00     0.008 C 
ENDBRANCH   7  30
BRANCH  24  33
ATOM     33  O   UNL     1      34.125  -6.498 -21.749  1.00  0.00    -0.393 OA
ATOM     34  H   UNL     1      33.894  -7.409 -21.432  1.00  0.00     0.210 HD
ENDBRANCH  24  33
TORSDOF 3
ENDMDL
MODEL 2
REMARK VINA RESULT:    -6.588      2.560      7.110
REMARK INTER + INTRA:          -7.925
REMARK INTER:                  -7.569
REMARK INTRA:                  -0.356
REMARK UNBOUND:                -0.374
REMARK SMILES C=C(C)[C@@H]1CC[C@]2(C(=O)[O-])CC[C@]3(C)[C@H](CC[C@@H]4[C@@]5(C)CC[C@@H](O)C(C)(C)[C@H]5CC[C@]43C)[C@@H]12
REMARK SMILES IDX 7 1 6 2 33 3 11 4 5 5 15 6 4 7 12 8 16 9 13 10 17 11 31 12
REMARK SMILES IDX 14 13 18 14 30 15 32 16 19 17 29 18 21 19 20 20 28 21 22 22
REMARK SMILES IDX 25 23 23 24 26 25 27 26 8 27 9 28 10 29 2 30 3 31 1 32 24 33
REMARK H PARENT 24 34
REMARK Flexibility Score: inf
ROOT
ATOM      1  C   UNL     1      29.858  -6.052 -25.860  1.00  0.00     0.014 C 
ATOM      2  C   UNL     1      30.245  -7.531 -25.918  1.00  0.00     0.014 C 
ATOM      3  C   UNL     1      31.214  -5.392 -25.549  1.00  0.00     0.012 C 
ATOM      4  C   UNL     1      29.348  -5.462 -27.194  1.00  0.00     0.014 C 
ATOM      5  C   UNL     1      31.270  -7.710 -24.786  1.00  0.00     0.009 C 
ATOM      6  C   UNL     1      31.033  -3.879 -25.262  1.00  0.00     0.000 C 
ATOM      7  C   UNL     1      31.872  -6.312 -24.501  1.00  0.00     0.018 C 
ATOM      8  C   UNL     1      29.145  -3.927 -27.071  1.00  0.00     0.008 C 
ATOM      9  C   UNL     1      32.325  -3.184 -24.796  1.00  0.00     0.005 C 
ATOM     10  C   UNL     1      30.396  -3.132 -26.507  1.00  0.00    -0.024 C 
ATOM     11  C   UNL     1      32.110  -1.691 -24.470  1.00  0.00     0.005 C 
ATOM     12  C   UNL     1      29.998  -1.646 -26.006  1.00  0.00    -0.024 C 
ATOM     13  C   UNL     1      31.423  -3.110 -27.710  1.00  0.00     0.012 C 
ATOM     14  C   UNL     1      31.323  -0.889 -25.561  1.00  0.00     0.002 C 
ATOM     15  C   UNL     1      29.298  -0.849 -27.149  1.00  0.00     0.008 C 
ATOM     16  C   UNL     1      28.976  -1.734 -24.804  1.00  0.00     0.012 C 
ATOM     17  C   UNL     1      31.177   0.676 -25.279  1.00  0.00    -0.026 C 
ATOM     18  C   UNL     1      29.154   0.667 -26.905  1.00  0.00     0.005 C 
ATOM     19  C   UNL     1      32.563   1.348 -25.016  1.00  0.00     0.010 C 
ATOM     20  C   UNL     1      30.363   0.952 -23.976  1.00  0.00     0.012 C 
ATOM     21  C   UNL     1      30.461   1.406 -26.495  1.00  0.00     0.003 C 
ATOM     22  C   UNL     1      33.421   1.505 -26.263  1.00  0.00     0.033 C 
ATOM     23  C   UNL     1      31.358   1.903 -27.728  1.00  0.00    -0.006 C 
ATOM     24  C   UNL     1      32.731   2.462 -27.228  1.00  0.00     0.120 C 
ATOM     25  C   UNL     1      30.634   3.084 -28.439  1.00  0.00     0.014 C 
ATOM     26  C   UNL     1      31.591   0.819 -28.814  1.00  0.00     0.014 C 
ENDROOT
BRANCH   1  27
ATOM     27  C   UNL     1      28.784  -5.892 -24.774  1.00  0.00     0.048 C 
ATOM     28  O   UNL     1      27.735  -6.588 -24.818  1.00  0.00    -0.550 OA
ATOM     29  O   UNL     1      28.983  -5.071 -23.669  1.00  0.00    -0.550 OA
ENDBRANCH   1  27
BRANCH   7  30
ATOM     30  C   UNL     1      33.398  -6.330 -24.575  1.00  0.00    -0.077 C 
ATOM     31  C   UNL     1      34.125  -6.270 -25.896  1.00  0.00     0.039 C 
ATOM     32  C   UNL     1      34.125  -6.442 -23.452  1.00  0.00     0.008 C 
ENDBRANCH   7  30
BRANCH  24  33
ATOM     33  O   UNL     1      33.609   2.725 -28.297  1.00  0.00    -0.393 OA
ATOM     34  H   UNL     1      33.224   2.308 -29.111  1.00  0.00     0.210 HD
ENDBRANCH  24  33
TORSDOF 3
ENDMDL
MODEL 3
REMARK VINA RESULT:    -6.077      1.966      7.367
REMARK INTER + INTRA:          -7.339
REMARK INTER:                  -7.066
REMARK INTRA:                  -0.273
REMARK UNBOUND:                -0.374
REMARK SMILES C=C(C)[C@@H]1CC[C@]2(C(=O)[O-])CC[C@]3(C)[C@H](CC[C@@H]4[C@@]5(C)CC[C@@H](O)C(C)(C)[C@H]5CC[C@]43C)[C@@H]12
REMARK SMILES IDX 7 1 6 2 33 3 11 4 5 5 15 6 4 7 12 8 16 9 13 10 17 11 31 12
REMARK SMILES IDX 14 13 18 14 30 15 32 16 19 17 29 18 21 19 20 20 28 21 22 22
REMARK SMILES IDX 25 23 23 24 26 25 27 26 8 27 9 28 10 29 2 30 3 31 1 32 24 33
REMARK H PARENT 24 34
REMARK Flexibility Score: inf
ROOT
ATOM      1  C   UNL     1      32.751  -6.764 -25.004  1.00  0.00     0.014 C 
ATOM      2  C   UNL     1      34.047  -7.269 -24.367  1.00  0.00     0.014 C 
ATOM      3  C   UNL     1      32.348  -5.642 -24.029  1.00  0.00     0.012 C 
ATOM      4  C   UNL     1      32.921  -6.127 -26.402  1.00  0.00     0.014 C 
ATOM      5  C   UNL     1      33.777  -7.234 -22.853  1.00  0.00     0.009 C 
ATOM      6  C   UNL     1      30.941  -5.093 -24.381  1.00  0.00     0.000 C 
ATOM      7  C   UNL     1      32.634  -6.214 -22.626  1.00  0.00     0.018 C 
ATOM      8  C   UNL     1      31.585  -5.499 -26.883  1.00  0.00     0.008 C 
ATOM      9  C   UNL     1      30.407  -4.073 -23.358  1.00  0.00     0.005 C 
ATOM     10  C   UNL     1      30.908  -4.502 -25.852  1.00  0.00    -0.024 C 
ATOM     11  C   UNL     1      28.987  -3.577 -23.703  1.00  0.00     0.005 C 
ATOM     12  C   UNL     1      29.354  -4.222 -26.207  1.00  0.00    -0.024 C 
ATOM     13  C   UNL     1      31.792  -3.193 -25.931  1.00  0.00     0.012 C 
ATOM     14  C   UNL     1      28.791  -3.135 -25.193  1.00  0.00     0.002 C 
ATOM     15  C   UNL     1      29.209  -3.697 -27.669  1.00  0.00     0.008 C 
ATOM     16  C   UNL     1      28.523  -5.562 -26.107  1.00  0.00     0.012 C 
ATOM     17  C   UNL     1      27.353  -2.532 -25.536  1.00  0.00    -0.026 C 
ATOM     18  C   UNL     1      27.833  -3.099 -28.024  1.00  0.00     0.005 C 
ATOM     19  C   UNL     1      26.973  -1.359 -24.575  1.00  0.00     0.010 C 
ATOM     20  C   UNL     1      26.221  -3.585 -25.324  1.00  0.00     0.012 C 
ATOM     21  C   UNL     1      27.299  -2.018 -27.039  1.00  0.00     0.003 C 
ATOM     22  C   UNL     1      27.738  -0.070 -24.840  1.00  0.00     0.033 C 
ATOM     23  C   UNL     1      27.794  -0.526 -27.359  1.00  0.00    -0.006 C 
ATOM     24  C   UNL     1      27.368   0.459 -26.221  1.00  0.00     0.120 C 
ATOM     25  C   UNL     1      27.095  -0.027 -28.658  1.00  0.00     0.014 C 
ATOM     26  C   UNL     1      29.321  -0.412 -27.615  1.00  0.00     0.014 C 
ENDROOT
BRANCH   1  27
ATOM     27  C   UNL     1      31.777  -7.948 -25.084  1.00  0.00     0.048 C 
ATOM     28  O   UNL     1      32.180  -9.068 -25.498  1.00  0.00    -0.550 OA
ATOM     29  O   UNL     1      30.474  -7.853 -24.608  1.00  0.00    -0.550 OA
ENDBRANCH   1  27
BRANCH   7  30
ATOM     30  C   UNL     1      33.024  -5.151 -21.600  1.00  0.00    -0.077 C 
ATOM     31  C   UNL     1      33.794  -3.916 -21.999  1.00  0.00     0.039 C 
ATOM     32  C   UNL     1      32.718  -5.321 -20.305  1.00  0.00     0.008 C 
ENDBRANCH   7  30
BRANCH  24  33
ATOM     33  O   UNL     1      27.953   1.728 -26.381  1.00  0.00    -0.393 OA
ATOM     34  H   UNL     1      28.924   1.594 -26.538  1.00  0.00     0.210 HD
ENDBRANCH  24  33
TORSDOF 3
ENDMDL
MODEL 4
REMARK VINA RESULT:    -6.021      2.479      4.472
REMARK INTER + INTRA:          -7.274
REMARK INTER:                  -6.909
REMARK INTRA:                  -0.365
REMARK UNBOUND:                -0.374
REMARK SMILES C=C(C)[C@@H]1CC[C@]2(C(=O)[O-])CC[C@]3(C)[C@H](CC[C@@H]4[C@@]5(C)CC[C@@H](O)C(C)(C)[C@H]5CC[C@]43C)[C@@H]12
REMARK SMILES IDX 7 1 6 2 33 3 11 4 5 5 15 6 4 7 12 8 16 9 13 10 17 11 31 12
REMARK SMILES IDX 14 13 18 14 30 15 32 16 19 17 29 18 21 19 20 20 28 21 22 22
REMARK SMILES IDX 25 23 23 24 26 25 27 26 8 27 9 28 10 29 2 30 3 31 1 32 24 33
REMARK H PARENT 24 34
REMARK Flexibility Score: inf
ROOT
ATOM      1  C   UNL     1      30.920   0.386 -28.071  1.00  0.00     0.014 C 
ATOM      2  C   UNL     1      30.612   1.221 -29.315  1.00  0.00     0.014 C 
ATOM      3  C   UNL     1      30.098  -0.887 -28.345  1.00  0.00     0.012 C 
ATOM      4  C   UNL     1      32.400  -0.037 -27.925  1.00  0.00     0.014 C 
ATOM      5  C   UNL     1      29.121   0.968 -29.594  1.00  0.00     0.009 C 
ATOM      6  C   UNL     1      30.115  -1.825 -27.110  1.00  0.00     0.000 C 
ATOM      7  C   UNL     1      28.762  -0.380 -28.921  1.00  0.00     0.018 C 
ATOM      8  C   UNL     1      32.573  -1.014 -26.731  1.00  0.00     0.008 C 
ATOM      9  C   UNL     1      29.192  -3.047 -27.254  1.00  0.00     0.005 C 
ATOM     10  C   UNL     1      31.595  -2.263 -26.744  1.00  0.00    -0.024 C 
ATOM     11  C   UNL     1      29.188  -3.940 -25.995  1.00  0.00     0.005 C 
ATOM     12  C   UNL     1      31.521  -2.993 -25.302  1.00  0.00    -0.024 C 
ATOM     13  C   UNL     1      32.176  -3.207 -27.870  1.00  0.00     0.012 C 
ATOM     14  C   UNL     1      30.608  -4.288 -25.435  1.00  0.00     0.002 C 
ATOM     15  C   UNL     1      32.946  -3.405 -24.819  1.00  0.00     0.008 C 
ATOM     16  C   UNL     1      30.930  -2.003 -24.220  1.00  0.00     0.012 C 
ATOM     17  C   UNL     1      30.619  -5.287 -24.190  1.00  0.00    -0.026 C 
ATOM     18  C   UNL     1      32.984  -4.378 -23.624  1.00  0.00     0.005 C 
ATOM     19  C   UNL     1      29.827  -6.599 -24.494  1.00  0.00     0.010 C 
ATOM     20  C   UNL     1      29.887  -4.674 -22.954  1.00  0.00     0.012 C 
ATOM     21  C   UNL     1      32.108  -5.655 -23.772  1.00  0.00     0.003 C 
ATOM     22  C   UNL     1      30.543  -7.547 -25.446  1.00  0.00     0.033 C 
ATOM     23  C   UNL     1      32.833  -6.876 -24.518  1.00  0.00    -0.006 C 
ATOM     24  C   UNL     1      31.826  -8.042 -24.790  1.00  0.00     0.120 C 
ATOM     25  C   UNL     1      33.937  -7.456 -23.585  1.00  0.00     0.014 C 
ATOM     26  C   UNL     1      33.546  -6.473 -25.837  1.00  0.00     0.014 C 
ENDROOT
BRANCH   1  27
ATOM     27  C   UNL     1      30.486   1.198 -26.843  1.00  0.00     0.048 C 
ATOM     28  O   UNL     1      31.010   2.321 -26.612  1.00  0.00    -0.550 OA
ATOM     29  O   UNL     1      29.441   0.780 -26.026  1.00  0.00    -0.550 OA
ENDBRANCH   1  27
BRANCH   7  30
ATOM     30  C   UNL     1      28.116  -1.349 -29.911  1.00  0.00    -0.077 C 
ATOM     31  C   UNL     1      28.948  -2.202 -30.837  1.00  0.00     0.039 C 
ATOM     32  C   UNL     1      26.779  -1.427 -30.001  1.00  0.00     0.008 C 
ENDBRANCH   7  30
BRANCH  24  33
ATOM     33  O   UNL     1      32.388  -9.038 -25.609  1.00  0.00    -0.393 OA
ATOM     34  H   UNL     1      33.034  -8.596 -26.219  1.00  0.00     0.210 HD
ENDBRANCH  24  33
TORSDOF 3
ENDMDL
MODEL 5
REMARK VINA RESULT:    -5.945      2.503      7.151
REMARK INTER + INTRA:          -7.188
REMARK INTER:                  -7.016
REMARK INTRA:                  -0.171
REMARK UNBOUND:                -0.374
REMARK SMILES C=C(C)[C@@H]1CC[C@]2(C(=O)[O-])CC[C@]3(C)[C@H](CC[C@@H]4[C@@]5(C)CC[C@@H](O)C(C)(C)[C@H]5CC[C@]43C)[C@@H]12
REMARK SMILES IDX 7 1 6 2 33 3 11 4 5 5 15 6 4 7 12 8 16 9 13 10 17 11 31 12
REMARK SMILES IDX 14 13 18 14 30 15 32 16 19 17 29 18 21 19 20 20 28 21 22 22
REMARK SMILES IDX 25 23 23 24 26 25 27 26 8 27 9 28 10 29 2 30 3 31 1 32 24 33
REMARK H PARENT 24 34
REMARK Flexibility Score: inf
ROOT
ATOM      1  C   UNL     1      30.867  -6.469 -25.133  1.00  0.00     0.014 C 
ATOM      2  C   UNL     1      31.655  -7.657 -24.577  1.00  0.00     0.014 C 
ATOM      3  C   UNL     1      31.576  -5.284 -24.451  1.00  0.00     0.012 C 
ATOM      4  C   UNL     1      30.987  -6.268 -26.660  1.00  0.00     0.014 C 
ATOM      5  C   UNL     1      31.925  -7.292 -23.108  1.00  0.00     0.009 C 
ATOM      6  C   UNL     1      30.819  -3.960 -24.731  1.00  0.00     0.000 C 
ATOM      7  C   UNL     1      31.824  -5.751 -23.003  1.00  0.00     0.018 C 
ATOM      8  C   UNL     1      30.293  -4.949 -27.095  1.00  0.00     0.008 C 
ATOM      9  C   UNL     1      31.384  -2.755 -23.958  1.00  0.00     0.005 C 
ATOM     10  C   UNL     1      30.744  -3.661 -26.286  1.00  0.00    -0.024 C 
ATOM     11  C   UNL     1      30.586  -1.459 -24.214  1.00  0.00     0.005 C 
ATOM     12  C   UNL     1      29.710  -2.431 -26.475  1.00  0.00    -0.024 C 
ATOM     13  C   UNL     1      32.186  -3.330 -26.845  1.00  0.00     0.012 C 
ATOM     14  C   UNL     1      30.294  -1.157 -25.723  1.00  0.00     0.002 C 
ATOM     15  C   UNL     1      29.515  -2.102 -27.987  1.00  0.00     0.008 C 
ATOM     16  C   UNL     1      28.292  -2.819 -25.896  1.00  0.00     0.012 C 
ATOM     17  C   UNL     1      29.552   0.227 -26.006  1.00  0.00    -0.026 C 
ATOM     18  C   UNL     1      28.810  -0.764 -28.288  1.00  0.00     0.005 C 
ATOM     19  C   UNL     1      30.307   1.432 -25.355  1.00  0.00     0.010 C 
ATOM     20  C   UNL     1      28.134   0.265 -25.353  1.00  0.00     0.012 C 
ATOM     21  C   UNL     1      29.404   0.482 -27.568  1.00  0.00     0.003 C 
ATOM     22  C   UNL     1      31.597   1.811 -26.068  1.00  0.00     0.033 C 
ATOM     23  C   UNL     1      30.614   1.187 -28.349  1.00  0.00    -0.006 C 
ATOM     24  C   UNL     1      31.268   2.305 -27.471  1.00  0.00     0.120 C 
ATOM     25  C   UNL     1      30.056   1.894 -29.619  1.00  0.00     0.014 C 
ATOM     26  C   UNL     1      31.703   0.198 -28.845  1.00  0.00     0.014 C 
ENDROOT
BRANCH   1  27
ATOM     27  C   UNL     1      29.394  -6.665 -24.746  1.00  0.00     0.048 C 
ATOM     28  O   UNL     1      28.865  -7.805 -24.836  1.00  0.00    -0.550 OA
ATOM     29  O   UNL     1      28.644  -5.634 -24.190  1.00  0.00    -0.550 OA
ENDBRANCH   1  27
BRANCH   7  30
ATOM     30  C   UNL     1      33.078  -5.146 -22.372  1.00  0.00    -0.077 C 
ATOM     31  C   UNL     1      33.162  -4.872 -20.891  1.00  0.00     0.039 C 
ATOM     32  C   UNL     1      34.123  -4.808 -23.144  1.00  0.00     0.008 C 
ENDBRANCH   7  30
BRANCH  24  33
ATOM     33  O   UNL     1      32.448   2.804 -28.054  1.00  0.00    -0.393 OA
ATOM     34  H   UNL     1      32.577   2.336 -28.920  1.00  0.00     0.210 HD
ENDBRANCH  24  33
TORSDOF 3
ENDMDL
MODEL 6
REMARK VINA RESULT:    -5.931      2.658      4.545
REMARK INTER + INTRA:          -7.172
REMARK INTER:                  -6.811
REMARK INTRA:                  -0.361
REMARK UNBOUND:                -0.374
REMARK SMILES C=C(C)[C@@H]1CC[C@]2(C(=O)[O-])CC[C@]3(C)[C@H](CC[C@@H]4[C@@]5(C)CC[C@@H](O)C(C)(C)[C@H]5CC[C@]43C)[C@@H]12
REMARK SMILES IDX 7 1 6 2 33 3 11 4 5 5 15 6 4 7 12 8 16 9 13 10 17 11 31 12
REMARK SMILES IDX 14 13 18 14 30 15 32 16 19 17 29 18 21 19 20 20 28 21 22 22
REMARK SMILES IDX 25 23 23 24 26 25 27 26 8 27 9 28 10 29 2 30 3 31 1 32 24 33
REMARK H PARENT 24 34
REMARK Flexibility Score: inf
ROOT
ATOM      1  C   UNL     1      30.948   1.478 -26.462  1.00  0.00     0.014 C 
ATOM      2  C   UNL     1      30.275   2.640 -27.195  1.00  0.00     0.014 C 
ATOM      3  C   UNL     1      29.773   0.496 -26.300  1.00  0.00     0.012 C 
ATOM      4  C   UNL     1      32.051   0.755 -27.268  1.00  0.00     0.014 C 
ATOM      5  C   UNL     1      28.885   2.756 -26.547  1.00  0.00     0.009 C 
ATOM      6  C   UNL     1      30.183  -0.705 -25.408  1.00  0.00     0.000 C 
ATOM      7  C   UNL     1      28.569   1.379 -25.914  1.00  0.00     0.018 C 
ATOM      8  C   UNL     1      32.549  -0.504 -26.506  1.00  0.00     0.008 C 
ATOM      9  C   UNL     1      29.015  -1.651 -25.078  1.00  0.00     0.005 C 
ATOM     10  C   UNL     1      31.403  -1.496 -26.040  1.00  0.00    -0.024 C 
ATOM     11  C   UNL     1      29.436  -2.811 -24.151  1.00  0.00     0.005 C 
ATOM     12  C   UNL     1      31.919  -2.535 -24.912  1.00  0.00    -0.024 C 
ATOM     13  C   UNL     1      30.948  -2.224 -27.368  1.00  0.00     0.012 C 
ATOM     14  C   UNL     1      30.744  -3.555 -24.585  1.00  0.00     0.002 C 
ATOM     15  C   UNL     1      33.169  -3.321 -25.417  1.00  0.00     0.008 C 
ATOM     16  C   UNL     1      32.355  -1.751 -23.611  1.00  0.00     0.012 C 
ATOM     17  C   UNL     1      31.137  -4.815 -23.688  1.00  0.00    -0.026 C 
ATOM     18  C   UNL     1      33.563  -4.549 -24.573  1.00  0.00     0.005 C 
ATOM     19  C   UNL     1      29.956  -5.833 -23.571  1.00  0.00     0.010 C 
ATOM     20  C   UNL     1      31.434  -4.401 -22.212  1.00  0.00     0.012 C 
ATOM     21  C   UNL     1      32.412  -5.556 -24.279  1.00  0.00     0.003 C 
ATOM     22  C   UNL     1      29.701  -6.632 -24.840  1.00  0.00     0.033 C 
ATOM     23  C   UNL     1      32.196  -6.669 -25.414  1.00  0.00    -0.006 C 
ATOM     24  C   UNL     1      30.911  -7.513 -25.129  1.00  0.00     0.120 C 
ATOM     25  C   UNL     1      33.393  -7.664 -25.383  1.00  0.00     0.014 C 
ATOM     26  C   UNL     1      32.146  -6.095 -26.855  1.00  0.00     0.014 C 
ENDROOT
BRANCH   1  27
ATOM     27  C   UNL     1      31.533   2.027 -25.153  1.00  0.00     0.048 C 
ATOM     28  O   UNL     1      32.348   2.987 -25.180  1.00  0.00    -0.550 OA
ATOM     29  O   UNL     1      31.103   1.565 -23.913  1.00  0.00    -0.550 OA
ENDBRANCH   1  27
BRANCH   7  30
ATOM     30  C   UNL     1      27.228   0.831 -26.401  1.00  0.00    -0.077 C 
ATOM     31  C   UNL     1      27.088   0.176 -27.753  1.00  0.00     0.039 C 
ATOM     32  C   UNL     1      26.131   0.961 -25.638  1.00  0.00     0.008 C 
ENDBRANCH   7  30
BRANCH  24  33
ATOM     33  O   UNL     1      30.594  -8.363 -26.206  1.00  0.00    -0.393 OA
ATOM     34  H   UNL     1      30.133  -9.160 -25.834  1.00  0.00     0.210 HD
ENDBRANCH  24  33
TORSDOF 3
ENDMDL
MODEL 7
REMARK VINA RESULT:    -5.900      1.608      2.076
REMARK INTER + INTRA:          -7.136
REMARK INTER:                  -6.768
REMARK INTRA:                  -0.369
REMARK UNBOUND:                -0.374
REMARK SMILES C=C(C)[C@@H]1CC[C@]2(C(=O)[O-])CC[C@]3(C)[C@H](CC[C@@H]4[C@@]5(C)CC[C@@H](O)C(C)(C)[C@H]5CC[C@]43C)[C@@H]12
REMARK SMILES IDX 7 1 6 2 33 3 11 4 5 5 15 6 4 7 12 8 16 9 13 10 17 11 31 12
REMARK SMILES IDX 14 13 18 14 30 15 32 16 19 17 29 18 21 19 20 20 28 21 22 22
REMARK SMILES IDX 25 23 23 24 26 25 27 26 8 27 9 28 10 29 2 30 3 31 1 32 24 33
REMARK H PARENT 24 34
REMARK Flexibility Score: inf
ROOT
ATOM      1  C   UNL     1      26.604  -2.887 -27.760  1.00  0.00     0.014 C 
ATOM      2  C   UNL     1      25.202  -2.288 -27.881  1.00  0.00     0.014 C 
ATOM      3  C   UNL     1      26.982  -2.496 -26.320  1.00  0.00     0.012 C 
ATOM      4  C   UNL     1      26.660  -4.429 -27.853  1.00  0.00     0.014 C 
ATOM      5  C   UNL     1      25.289  -0.942 -27.142  1.00  0.00     0.009 C 
ATOM      6  C   UNL     1      28.463  -2.850 -26.027  1.00  0.00     0.000 C 
ATOM      7  C   UNL     1      26.480  -1.047 -26.158  1.00  0.00     0.018 C 
ATOM      8  C   UNL     1      28.094  -4.943 -27.552  1.00  0.00     0.008 C 
ATOM      9  C   UNL     1      28.955  -2.350 -24.657  1.00  0.00     0.005 C 
ATOM     10  C   UNL     1      28.725  -4.404 -26.200  1.00  0.00    -0.024 C 
ATOM     11  C   UNL     1      30.444  -2.672 -24.409  1.00  0.00     0.005 C 
ATOM     12  C   UNL     1      30.328  -4.615 -26.149  1.00  0.00    -0.024 C 
ATOM     13  C   UNL     1      27.973  -5.210 -25.066  1.00  0.00     0.012 C 
ATOM     14  C   UNL     1      30.857  -4.150 -24.724  1.00  0.00     0.002 C 
ATOM     15  C   UNL     1      30.694  -6.115 -26.378  1.00  0.00     0.008 C 
ATOM     16  C   UNL     1      31.022  -3.785 -27.301  1.00  0.00     0.012 C 
ATOM     17  C   UNL     1      32.372  -4.518 -24.382  1.00  0.00    -0.026 C 
ATOM     18  C   UNL     1      32.149  -6.499 -26.044  1.00  0.00     0.005 C 
ATOM     19  C   UNL     1      32.733  -4.165 -22.902  1.00  0.00     0.010 C 
ATOM     20  C   UNL     1      33.375  -3.677 -25.232  1.00  0.00     0.012 C 
ATOM     21  C   UNL     1      32.651  -6.061 -24.638  1.00  0.00     0.003 C 
ATOM     22  C   UNL     1      32.119  -5.106 -21.875  1.00  0.00     0.033 C 
ATOM     23  C   UNL     1      32.329  -7.105 -23.463  1.00  0.00    -0.006 C 
ATOM     24  C   UNL     1      32.698  -6.503 -22.066  1.00  0.00     0.120 C 
ATOM     25  C   UNL     1      33.221  -8.368 -23.647  1.00  0.00     0.014 C 
ATOM     26  C   UNL     1      30.860  -7.607 -23.453  1.00  0.00     0.014 C 
ENDROOT
BRANCH   1  27
ATOM     27  C   UNL     1      27.475  -2.266 -28.861  1.00  0.00     0.048 C 
ATOM     28  O   UNL     1      27.148  -2.394 -30.071  1.00  0.00    -0.550 OA
ATOM     29  O   UNL     1      28.569  -1.462 -28.557  1.00  0.00    -0.550 OA
ENDBRANCH   1  27
BRANCH   7  30
ATOM     30  C   UNL     1      26.061  -0.701 -24.729  1.00  0.00    -0.077 C 
ATOM     31  C   UNL     1      26.470   0.599 -24.081  1.00  0.00     0.039 C 
ATOM     32  C   UNL     1      25.348  -1.578 -24.006  1.00  0.00     0.008 C 
ENDBRANCH   7  30
BRANCH  24  33
ATOM     33  O   UNL     1      32.248  -7.318 -21.011  1.00  0.00    -0.393 OA
ATOM     34  H   UNL     1      31.617  -7.983 -21.392  1.00  0.00     0.210 HD
ENDBRANCH  24  33
TORSDOF 3
ENDMDL
MODEL 8
REMARK VINA RESULT:    -5.890      2.461      4.445
REMARK INTER + INTRA:          -7.125
REMARK INTER:                  -6.753
REMARK INTRA:                  -0.372
REMARK UNBOUND:                -0.374
REMARK SMILES C=C(C)[C@@H]1CC[C@]2(C(=O)[O-])CC[C@]3(C)[C@H](CC[C@@H]4[C@@]5(C)CC[C@@H](O)C(C)(C)[C@H]5CC[C@]43C)[C@@H]12
REMARK SMILES IDX 7 1 6 2 33 3 11 4 5 5 15 6 4 7 12 8 16 9 13 10 17 11 31 12
REMARK SMILES IDX 14 13 18 14 30 15 32 16 19 17 29 18 21 19 20 20 28 21 22 22
REMARK SMILES IDX 25 23 23 24 26 25 27 26 8 27 9 28 10 29 2 30 3 31 1 32 24 33
REMARK H PARENT 24 34
REMARK Flexibility Score: inf
ROOT
ATOM      1  C   UNL     1      29.716  -1.347 -29.240  1.00  0.00     0.014 C 
ATOM      2  C   UNL     1      29.990  -0.624 -30.560  1.00  0.00     0.014 C 
ATOM      3  C   UNL     1      30.365  -2.718 -29.500  1.00  0.00     0.012 C 
ATOM      4  C   UNL     1      30.412  -0.729 -28.006  1.00  0.00     0.014 C 
ATOM      5  C   UNL     1      29.787  -1.699 -31.641  1.00  0.00     0.009 C 
ATOM      6  C   UNL     1      30.051  -3.701 -28.343  1.00  0.00     0.000 C 
ATOM      7  C   UNL     1      29.978  -3.071 -30.950  1.00  0.00     0.018 C 
ATOM      8  C   UNL     1      30.208  -1.627 -26.756  1.00  0.00     0.008 C 
ATOM      9  C   UNL     1      30.540  -5.136 -28.605  1.00  0.00     0.005 C 
ATOM     10  C   UNL     1      30.599  -3.151 -26.960  1.00  0.00    -0.024 C 
ATOM     11  C   UNL     1      30.173  -6.106 -27.462  1.00  0.00     0.005 C 
ATOM     12  C   UNL     1      29.979  -4.098 -25.803  1.00  0.00    -0.024 C 
ATOM     13  C   UNL     1      32.180  -3.156 -26.963  1.00  0.00     0.012 C 
ATOM     14  C   UNL     1      30.508  -5.581 -26.025  1.00  0.00     0.002 C 
ATOM     15  C   UNL     1      30.409  -3.595 -24.391  1.00  0.00     0.008 C 
ATOM     16  C   UNL     1      28.401  -4.055 -25.853  1.00  0.00     0.012 C 
ATOM     17  C   UNL     1      30.221  -6.614 -24.842  1.00  0.00    -0.026 C 
ATOM     18  C   UNL     1      30.152  -4.579 -23.232  1.00  0.00     0.005 C 
ATOM     19  C   UNL     1      30.926  -7.987 -25.088  1.00  0.00     0.010 C 
ATOM     20  C   UNL     1      28.704  -6.973 -24.747  1.00  0.00     0.012 C 
ATOM     21  C   UNL     1      30.694  -6.022 -23.446  1.00  0.00     0.003 C 
ATOM     22  C   UNL     1      32.434  -7.952 -24.887  1.00  0.00     0.033 C 
ATOM     23  C   UNL     1      32.222  -6.230 -23.003  1.00  0.00    -0.006 C 
ATOM     24  C   UNL     1      32.737  -7.646 -23.425  1.00  0.00     0.120 C 
ATOM     25  C   UNL     1      32.313  -6.173 -21.450  1.00  0.00     0.014 C 
ATOM     26  C   UNL     1      33.186  -5.135 -23.535  1.00  0.00     0.014 C 
ENDROOT
BRANCH   1  27
ATOM     27  C   UNL     1      28.196  -1.368 -29.026  1.00  0.00     0.048 C 
ATOM     28  O   UNL     1      27.564  -0.287 -28.883  1.00  0.00    -0.550 OA
ATOM     29  O   UNL     1      27.468  -2.551 -29.093  1.00  0.00    -0.550 OA
ENDBRANCH   1  27
BRANCH   7  30
ATOM     30  C   UNL     1      31.021  -3.924 -31.671  1.00  0.00    -0.077 C 
ATOM     31  C   UNL     1      30.626  -5.125 -32.495  1.00  0.00     0.039 C 
ATOM     32  C   UNL     1      32.327  -3.638 -31.548  1.00  0.00     0.008 C 
ENDBRANCH   7  30
BRANCH  24  33
ATOM     33  O   UNL     1      34.123  -7.780 -23.221  1.00  0.00    -0.393 OA
ATOM     34  H   UNL     1      34.475  -6.892 -22.951  1.00  0.00     0.210 HD
ENDBRANCH  24  33
TORSDOF 3
ENDMDL
MODEL 9
REMARK VINA RESULT:    -5.760      1.498      2.308
REMARK INTER + INTRA:          -6.976
REMARK INTER:                  -6.607
REMARK INTRA:                  -0.369
REMARK UNBOUND:                -0.374
REMARK SMILES C=C(C)[C@@H]1CC[C@]2(C(=O)[O-])CC[C@]3(C)[C@H](CC[C@@H]4[C@@]5(C)CC[C@@H](O)C(C)(C)[C@H]5CC[C@]43C)[C@@H]12
REMARK SMILES IDX 7 1 6 2 33 3 11 4 5 5 15 6 4 7 12 8 16 9 13 10 17 11 31 12
REMARK SMILES IDX 14 13 18 14 30 15 32 16 19 17 29 18 21 19 20 20 28 21 22 22
REMARK SMILES IDX 25 23 23 24 26 25 27 26 8 27 9 28 10 29 2 30 3 31 1 32 24 33
REMARK H PARENT 24 34
REMARK Flexibility Score: inf
ROOT
ATOM      1  C   UNL     1      27.443   0.507 -25.573  1.00  0.00     0.014 C 
ATOM      2  C   UNL     1      27.278   2.021 -25.425  1.00  0.00     0.014 C 
ATOM      3  C   UNL     1      28.939   0.394 -25.920  1.00  0.00     0.012 C 
ATOM      4  C   UNL     1      27.203  -0.301 -24.277  1.00  0.00     0.014 C 
ATOM      5  C   UNL     1      28.150   2.619 -26.542  1.00  0.00     0.009 C 
ATOM      6  C   UNL     1      29.304  -1.065 -26.298  1.00  0.00     0.000 C 
ATOM      7  C   UNL     1      29.205   1.546 -26.909  1.00  0.00     0.018 C 
ATOM      8  C   UNL     1      27.557  -1.797 -24.493  1.00  0.00     0.008 C 
ATOM      9  C   UNL     1      30.749  -1.226 -26.802  1.00  0.00     0.005 C 
ATOM     10  C   UNL     1      28.999  -2.059 -25.101  1.00  0.00    -0.024 C 
ATOM     11  C   UNL     1      31.074  -2.676 -27.218  1.00  0.00     0.005 C 
ATOM     12  C   UNL     1      29.147  -3.559 -25.692  1.00  0.00    -0.024 C 
ATOM     13  C   UNL     1      29.989  -1.783 -23.900  1.00  0.00     0.012 C 
ATOM     14  C   UNL     1      30.646  -3.767 -26.178  1.00  0.00     0.002 C 
ATOM     15  C   UNL     1      28.799  -4.618 -24.600  1.00  0.00     0.008 C 
ATOM     16  C   UNL     1      28.137  -3.774 -26.888  1.00  0.00     0.012 C 
ATOM     17  C   UNL     1      31.062  -5.261 -26.554  1.00  0.00    -0.026 C 
ATOM     18  C   UNL     1      29.200  -6.068 -24.935  1.00  0.00     0.005 C 
ATOM     19  C   UNL     1      32.591  -5.379 -26.854  1.00  0.00     0.010 C 
ATOM     20  C   UNL     1      30.375  -5.736 -27.873  1.00  0.00     0.012 C 
ATOM     21  C   UNL     1      30.676  -6.268 -25.386  1.00  0.00     0.003 C 
ATOM     22  C   UNL     1      33.472  -5.290 -25.616  1.00  0.00     0.033 C 
ATOM     23  C   UNL     1      31.716  -6.481 -24.183  1.00  0.00    -0.006 C 
ATOM     24  C   UNL     1      33.188  -6.484 -24.712  1.00  0.00     0.120 C 
ATOM     25  C   UNL     1      31.475  -7.881 -23.546  1.00  0.00     0.014 C 
ATOM     26  C   UNL     1      31.568  -5.449 -23.033  1.00  0.00     0.014 C 
ENDROOT
BRANCH   1  27
ATOM     27  C   UNL     1      26.476   0.037 -26.669  1.00  0.00     0.048 C 
ATOM     28  O   UNL     1      25.236   0.215 -26.533  1.00  0.00    -0.550 OA
ATOM     29  O   UNL     1      26.937  -0.488 -27.871  1.00  0.00    -0.550 OA
ENDBRANCH   1  27
BRANCH   7  30
ATOM     30  C   UNL     1      30.626   2.104 -26.831  1.00  0.00    -0.077 C 
ATOM     31  C   UNL     1      31.365   2.198 -25.519  1.00  0.00     0.039 C 
ATOM     32  C   UNL     1      31.231   2.561 -27.938  1.00  0.00     0.008 C 
ENDBRANCH   7  30
BRANCH  24  33
ATOM     33  O   UNL     1      34.122  -6.476 -23.660  1.00  0.00    -0.393 OA
ATOM     34  H   UNL     1      34.216  -5.538 -23.348  1.00  0.00     0.210 HD
ENDBRANCH  24  33
TORSDOF 3
ENDMDL
