MODEL 1
REMARK VINA RESULT:    -6.303      0.000      0.000
REMARK INTER + INTRA:         -11.687
REMARK INTER:                  -9.988
REMARK INTRA:                  -1.699
REMARK UNBOUND:                -1.699
REMARK SMILES C[C@@H]1O[C@H](O[C@H]2CC[C@]3(C)[C@@H](CC[C@]4(C)[C@@H]3C=C[C@@]35OC[C@]6(CCC(C)(C)C[C@H]63)[C@@H](O)C[C@]45C)[C@]2(C)CO)[C@H](O)[C@@H](O[C@@H]2O[C@H](CO)[C@@H](O)[C@H](O)[C@@H]2O)[C@H]1O
REMARK SMILES IDX 1 1 2 2 54 3 41 4 39 5 4 6 3 7 55 8 42 10 43 11 52 12 44 13
REMARK SMILES IDX 50 14 45 15 48 16 53 17 51 19 46 21 47 22 49 24 5 26 6 27
REMARK SMILES IDX 7 28 35 29 8 30 11 31 36 32 9 33 12 34 10 35 16 36 13 37
REMARK SMILES IDX 14 38 17 39 15 40 33 41 18 42 19 43 32 44 34 45 29 46 20 47
REMARK SMILES IDX 30 48 22 49 28 50 21 51 23 52 25 53 24 54 26 55 27 56 37 57
REMARK SMILES IDX 38 58 31 60 40 62
REMARK H PARENT 55 9 53 18 51 20 47 23 49 25 38 59 31 61 40 63
REMARK Flexibility Score: inf
ROOT
ATOM      1  C   UNL     1      10.238  17.782  73.146  1.00  0.00     0.041 C 
ATOM      2  C   UNL     1      10.753  18.415  71.849  1.00  0.00     0.150 C 
ATOM      3  C   UNL     1      10.934  17.324  70.740  1.00  0.00     0.175 C 
ATOM      4  C   UNL     1      10.612  17.912  69.350  1.00  0.00     0.186 C 
ATOM      5  C   UNL     1      11.137  19.361  69.309  1.00  0.00     0.202 C 
ATOM      6  C   UNL     1      10.385  20.224  70.380  1.00  0.00     0.282 C 
ATOM      7  O   UNL     1       9.838  19.413  71.427  1.00  0.00    -0.344 OA
ENDROOT
BRANCH   3   8
ATOM      8  O   UNL     1      12.252  16.829  70.749  1.00  0.00    -0.388 OA
ATOM      9  H   UNL     1      12.435  16.454  69.844  1.00  0.00     0.211 HD
ENDBRANCH   3   8
BRANCH   4  10
ATOM     10  O   UNL     1      11.231  17.125  68.342  1.00  0.00    -0.341 OA
BRANCH  10  11
ATOM     11  C   UNL     1      10.300  16.248  67.727  1.00  0.00     0.282 C 
ATOM     12  C   UNL     1      10.862  14.809  67.786  1.00  0.00     0.202 C 
ATOM     13  O   UNL     1       9.059  16.324  68.417  1.00  0.00    -0.341 OA
ATOM     14  C   UNL     1       9.832  13.816  67.207  1.00  0.00     0.179 C 
ATOM     15  C   UNL     1       8.072  15.537  67.765  1.00  0.00     0.178 C 
ATOM     16  C   UNL     1       8.453  14.034  67.859  1.00  0.00     0.177 C 
BRANCH  12  17
ATOM     17  O   UNL     1      11.253  14.443  69.090  1.00  0.00    -0.385 OA
ATOM     18  H   UNL     1      11.243  15.252  69.660  1.00  0.00     0.211 HD
ENDBRANCH  12  17
BRANCH  14  19
ATOM     19  O   UNL     1      10.254  12.486  67.410  1.00  0.00    -0.387 OA
ATOM     20  H   UNL     1       9.611  11.909  66.926  1.00  0.00     0.211 HD
ENDBRANCH  14  19
BRANCH  15  21
ATOM     21  C   UNL     1       6.687  15.807  68.412  1.00  0.00     0.191 C 
BRANCH  21  22
ATOM     22  O   UNL     1       5.655  15.183  67.686  1.00  0.00    -0.394 OA
ATOM     23  H   UNL     1       5.429  15.761  66.909  1.00  0.00     0.210 HD
ENDBRANCH  21  22
ENDBRANCH  15  21
BRANCH  16  24
ATOM     24  O   UNL     1       7.487  13.248  67.214  1.00  0.00    -0.387 OA
ATOM     25  H   UNL     1       7.040  12.701  67.910  1.00  0.00     0.211 HD
ENDBRANCH  16  24
ENDBRANCH  10  11
ENDBRANCH   4  10
BRANCH   6  26
ATOM     26  O   UNL     1       9.295  20.980  69.842  1.00  0.00    -0.346 OA
BRANCH  26  27
ATOM     27  C   UNL     1       9.401  22.395  69.987  1.00  0.00     0.130 C 
ATOM     28  C   UNL     1       8.839  23.010  68.679  1.00  0.00     0.033 C 
ATOM     29  C   UNL     1       8.673  22.906  71.318  1.00  0.00     0.020 C 
ATOM     30  C   UNL     1       7.399  23.502  68.791  1.00  0.00     0.010 C 
ATOM     31  C   UNL     1       8.073  24.385  71.125  1.00  0.00     0.006 C 
ATOM     32  C   UNL     1       7.582  21.873  71.750  1.00  0.00     0.017 C 
ATOM     33  C   UNL     1       7.257  24.690  69.778  1.00  0.00    -0.022 C 
ATOM     34  C   UNL     1       7.489  25.050  72.416  1.00  0.00     0.005 C 
ATOM     35  C   UNL     1       7.971  25.918  69.082  1.00  0.00     0.012 C 
ATOM     36  C   UNL     1       5.707  25.115  69.957  1.00  0.00     0.024 C 
ATOM     37  C   UNL     1       6.335  26.054  72.197  1.00  0.00     0.008 C 
ATOM     38  C   UNL     1       5.171  25.439  71.390  1.00  0.00    -0.017 C 
ATOM     39  C   UNL     1       4.579  24.352  69.231  1.00  0.00    -0.024 C 
ATOM     40  C   UNL     1       4.768  24.072  72.064  1.00  0.00     0.013 C 
ATOM     41  C   UNL     1       3.850  26.415  71.277  1.00  0.00     0.009 C 
ATOM     42  C   UNL     1       3.312  24.845  69.314  1.00  0.00     0.005 C 
ATOM     43  C   UNL     1       3.145  26.266  69.833  1.00  0.00     0.096 C 
ATOM     44  C   UNL     1       4.144  27.953  71.420  1.00  0.00     0.043 C 
ATOM     45  C   UNL     1       2.893  26.074  72.484  1.00  0.00     0.015 C 
ATOM     46  C   UNL     1       1.719  26.875  69.894  1.00  0.00     0.037 C 
ATOM     47  O   UNL     1       3.827  27.062  68.850  1.00  0.00    -0.369 OA
ATOM     48  C   UNL     1       2.916  28.871  71.019  1.00  0.00     0.124 C 
ATOM     49  C   UNL     1       2.115  28.354  69.758  1.00  0.00     0.026 C 
ATOM     50  C   UNL     1       0.760  26.389  68.774  1.00  0.00     0.014 C 
ATOM     51  C   UNL     1       3.115  28.253  68.625  1.00  0.00     0.171 C 
ATOM     52  C   UNL     1       0.937  29.302  69.417  1.00  0.00     0.013 C 
ATOM     53  C   UNL     1      -0.478  27.306  68.595  1.00  0.00    -0.035 C 
ATOM     54  C   UNL     1      -0.014  28.761  68.330  1.00  0.00     0.007 C 
ATOM     55  C   UNL     1      -1.288  26.810  67.372  1.00  0.00     0.011 C 
ATOM     56  C   UNL     1      -1.410  27.250  69.833  1.00  0.00     0.011 C 
BRANCH  29  57
ATOM     57  C   UNL     1       9.724  22.978  72.481  1.00  0.00     0.165 C 
BRANCH  57  58
ATOM     58  O   UNL     1       9.731  21.822  73.268  1.00  0.00    -0.396 OA
ATOM     59  H   UNL     1      10.441  21.222  72.900  1.00  0.00     0.210 HD
ENDBRANCH  57  58
ENDBRANCH  29  57
BRANCH  48  60
ATOM     60  O   UNL     1       2.048  29.062  72.110  1.00  0.00    -0.392 OA
ATOM     61  H   UNL     1       1.146  29.243  71.726  1.00  0.00     0.210 HD
ENDBRANCH  48  60
ENDBRANCH  26  27
ENDBRANCH   6  26
BRANCH   5  62
ATOM     62  O   UNL     1      11.038  19.902  68.018  1.00  0.00    -0.385 OA
ATOM     63  H   UNL     1      11.296  20.857  68.078  1.00  0.00     0.211 HD
ENDBRANCH   5  62
TORSDOF 14
ENDMDL
MODEL 2
REMARK VINA RESULT:    -6.262      6.831     11.348
REMARK INTER + INTRA:         -11.621
REMARK INTER:                  -9.577
REMARK INTRA:                  -2.044
REMARK UNBOUND:                -1.699
REMARK SMILES C[C@@H]1O[C@H](O[C@H]2CC[C@]3(C)[C@@H](CC[C@]4(C)[C@@H]3C=C[C@@]35OC[C@]6(CCC(C)(C)C[C@H]63)[C@@H](O)C[C@]45C)[C@]2(C)CO)[C@H](O)[C@@H](O[C@@H]2O[C@H](CO)[C@@H](O)[C@H](O)[C@@H]2O)[C@H]1O
REMARK SMILES IDX 1 1 2 2 54 3 41 4 39 5 4 6 3 7 55 8 42 10 43 11 52 12 44 13
REMARK SMILES IDX 50 14 45 15 48 16 53 17 51 19 46 21 47 22 49 24 5 26 6 27
REMARK SMILES IDX 7 28 35 29 8 30 11 31 36 32 9 33 12 34 10 35 16 36 13 37
REMARK SMILES IDX 14 38 17 39 15 40 33 41 18 42 19 43 32 44 34 45 29 46 20 47
REMARK SMILES IDX 30 48 22 49 28 50 21 51 23 52 25 53 24 54 26 55 27 56 37 57
REMARK SMILES IDX 38 58 31 60 40 62
REMARK H PARENT 55 9 53 18 51 20 47 23 49 25 38 59 31 61 40 63
REMARK Flexibility Score: inf
ROOT
ATOM      1  C   UNL     1      17.125  21.994  78.195  1.00  0.00     0.041 C 
ATOM      2  C   UNL     1      15.757  21.855  78.869  1.00  0.00     0.150 C 
ATOM      3  C   UNL     1      15.634  22.851  80.072  1.00  0.00     0.175 C 
ATOM      4  C   UNL     1      14.181  23.354  80.208  1.00  0.00     0.186 C 
ATOM      5  C   UNL     1      13.236  22.180  79.886  1.00  0.00     0.202 C 
ATOM      6  C   UNL     1      13.448  21.724  78.402  1.00  0.00     0.282 C 
ATOM      7  O   UNL     1      14.741  22.098  77.911  1.00  0.00    -0.344 OA
ENDROOT
BRANCH   3   8
ATOM      8  O   UNL     1      16.030  22.227  81.270  1.00  0.00    -0.388 OA
ATOM      9  H   UNL     1      15.214  22.111  81.829  1.00  0.00     0.211 HD
ENDBRANCH   3   8
BRANCH   4  10
ATOM     10  O   UNL     1      13.960  23.830  81.528  1.00  0.00    -0.341 OA
BRANCH  10  11
ATOM     11  C   UNL     1      13.684  25.222  81.535  1.00  0.00     0.282 C 
ATOM     12  C   UNL     1      12.423  25.473  82.394  1.00  0.00     0.202 C 
ATOM     13  O   UNL     1      14.799  25.919  82.078  1.00  0.00    -0.341 OA
ATOM     14  C   UNL     1      12.147  26.988  82.497  1.00  0.00     0.179 C 
ATOM     15  C   UNL     1      14.600  27.323  82.004  1.00  0.00     0.178 C 
ATOM     16  C   UNL     1      13.423  27.735  82.931  1.00  0.00     0.177 C 
BRANCH  12  17
ATOM     17  O   UNL     1      12.520  24.879  83.668  1.00  0.00    -0.385 OA
ATOM     18  H   UNL     1      13.056  24.050  83.590  1.00  0.00     0.211 HD
ENDBRANCH  12  17
BRANCH  14  19
ATOM     19  O   UNL     1      11.107  27.243  83.414  1.00  0.00    -0.387 OA
ATOM     20  H   UNL     1      10.556  26.421  83.451  1.00  0.00     0.211 HD
ENDBRANCH  14  19
BRANCH  15  21
ATOM     21  C   UNL     1      15.911  28.052  82.404  1.00  0.00     0.191 C 
BRANCH  21  22
ATOM     22  O   UNL     1      15.925  28.357  83.778  1.00  0.00    -0.394 OA
ATOM     23  H   UNL     1      16.495  29.160  83.911  1.00  0.00     0.210 HD
ENDBRANCH  21  22
ENDBRANCH  15  21
BRANCH  16  24
ATOM     24  O   UNL     1      13.215  29.121  82.862  1.00  0.00    -0.387 OA
ATOM     25  H   UNL     1      12.377  29.317  83.353  1.00  0.00     0.211 HD
ENDBRANCH  16  24
ENDBRANCH  10  11
ENDBRANCH   4  10
BRANCH   6  26
ATOM     26  O   UNL     1      12.493  22.279  77.490  1.00  0.00    -0.346 OA
BRANCH  26  27
ATOM     27  C   UNL     1      12.968  22.494  76.162  1.00  0.00     0.130 C 
ATOM     28  C   UNL     1      12.290  21.416  75.278  1.00  0.00     0.033 C 
ATOM     29  C   UNL     1      12.708  23.998  75.680  1.00  0.00     0.020 C 
ATOM     30  C   UNL     1      11.075  21.921  74.503  1.00  0.00     0.010 C 
ATOM     31  C   UNL     1      12.455  24.068  74.094  1.00  0.00     0.006 C 
ATOM     32  C   UNL     1      11.527  24.614  76.499  1.00  0.00     0.017 C 
ATOM     33  C   UNL     1      11.454  22.995  73.450  1.00  0.00    -0.022 C 
ATOM     34  C   UNL     1      12.359  25.508  73.489  1.00  0.00     0.005 C 
ATOM     35  C   UNL     1      12.265  22.232  72.327  1.00  0.00     0.012 C 
ATOM     36  C   UNL     1      10.134  23.587  72.725  1.00  0.00     0.024 C 
ATOM     37  C   UNL     1      11.462  25.659  72.239  1.00  0.00     0.008 C 
ATOM     38  C   UNL     1      10.033  25.127  72.479  1.00  0.00    -0.017 C 
ATOM     39  C   UNL     1       8.721  23.115  73.125  1.00  0.00    -0.024 C 
ATOM     40  C   UNL     1       9.475  25.781  73.801  1.00  0.00     0.013 C 
ATOM     41  C   UNL     1       8.997  25.420  71.233  1.00  0.00     0.009 C 
ATOM     42  C   UNL     1       7.664  23.547  72.384  1.00  0.00     0.005 C 
ATOM     43  C   UNL     1       7.967  24.192  71.039  1.00  0.00     0.096 C 
ATOM     44  C   UNL     1       9.678  25.595  69.827  1.00  0.00     0.043 C 
ATOM     45  C   UNL     1       8.285  26.801  71.510  1.00  0.00     0.015 C 
ATOM     46  C   UNL     1       6.784  24.653  70.148  1.00  0.00     0.037 C 
ATOM     47  O   UNL     1       8.580  23.130  70.291  1.00  0.00    -0.369 OA
ATOM     48  C   UNL     1       8.651  25.581  68.621  1.00  0.00     0.124 C 
ATOM     49  C   UNL     1       7.483  24.528  68.786  1.00  0.00     0.026 C 
ATOM     50  C   UNL     1       5.506  23.778  70.267  1.00  0.00     0.014 C 
ATOM     51  C   UNL     1       8.144  23.176  68.955  1.00  0.00     0.171 C 
ATOM     52  C   UNL     1       6.523  24.562  67.568  1.00  0.00     0.013 C 
ATOM     53  C   UNL     1       4.519  23.981  69.088  1.00  0.00    -0.035 C 
ATOM     54  C   UNL     1       5.248  23.713  67.747  1.00  0.00     0.007 C 
ATOM     55  C   UNL     1       3.357  22.968  69.235  1.00  0.00     0.011 C 
ATOM     56  C   UNL     1       3.908  25.406  69.099  1.00  0.00     0.011 C 
BRANCH  29  57
ATOM     57  C   UNL     1      13.981  24.863  75.988  1.00  0.00     0.165 C 
BRANCH  57  58
ATOM     58  O   UNL     1      14.229  24.981  77.359  1.00  0.00    -0.396 OA
ATOM     59  H   UNL     1      14.617  25.890  77.509  1.00  0.00     0.210 HD
ENDBRANCH  57  58
ENDBRANCH  29  57
BRANCH  48  60
ATOM     60  O   UNL     1       8.126  26.866  68.387  1.00  0.00    -0.392 OA
ATOM     61  H   UNL     1       8.599  27.225  67.587  1.00  0.00     0.210 HD
ENDBRANCH  48  60
ENDBRANCH  26  27
ENDBRANCH   6  26
BRANCH   5  62
ATOM     62  O   UNL     1      11.900  22.514  80.159  1.00  0.00    -0.385 OA
ATOM     63  H   UNL     1      11.910  23.296  80.767  1.00  0.00     0.211 HD
ENDBRANCH   5  62
TORSDOF 14
ENDMDL
MODEL 3
REMARK VINA RESULT:    -6.180      5.650     10.118
REMARK INTER + INTRA:         -11.492
REMARK INTER:                  -9.988
REMARK INTRA:                  -1.504
REMARK UNBOUND:                -1.699
REMARK SMILES C[C@@H]1O[C@H](O[C@H]2CC[C@]3(C)[C@@H](CC[C@]4(C)[C@@H]3C=C[C@@]35OC[C@]6(CCC(C)(C)C[C@H]63)[C@@H](O)C[C@]45C)[C@]2(C)CO)[C@H](O)[C@@H](O[C@@H]2O[C@H](CO)[C@@H](O)[C@H](O)[C@@H]2O)[C@H]1O
REMARK SMILES IDX 1 1 2 2 54 3 41 4 39 5 4 6 3 7 55 8 42 10 43 11 52 12 44 13
REMARK SMILES IDX 50 14 45 15 48 16 53 17 51 19 46 21 47 22 49 24 5 26 6 27
REMARK SMILES IDX 7 28 35 29 8 30 11 31 36 32 9 33 12 34 10 35 16 36 13 37
REMARK SMILES IDX 14 38 17 39 15 40 33 41 18 42 19 43 32 44 34 45 29 46 20 47
REMARK SMILES IDX 30 48 22 49 28 50 21 51 23 52 25 53 24 54 26 55 27 56 37 57
REMARK SMILES IDX 38 58 31 60 40 62
REMARK H PARENT 55 9 53 18 51 20 47 23 49 25 38 59 31 61 40 63
REMARK Flexibility Score: inf
ROOT
ATOM      1  C   UNL     1      14.167  19.877  78.958  1.00  0.00     0.041 C 
ATOM      2  C   UNL     1      13.159  20.869  78.370  1.00  0.00     0.150 C 
ATOM      3  C   UNL     1      13.134  22.189  79.213  1.00  0.00     0.175 C 
ATOM      4  C   UNL     1      12.869  23.406  78.299  1.00  0.00     0.186 C 
ATOM      5  C   UNL     1      11.851  22.983  77.223  1.00  0.00     0.202 C 
ATOM      6  C   UNL     1      12.462  21.843  76.338  1.00  0.00     0.282 C 
ATOM      7  O   UNL     1      13.506  21.140  77.023  1.00  0.00    -0.344 OA
ENDROOT
BRANCH   3   8
ATOM      8  O   UNL     1      12.139  22.120  80.206  1.00  0.00    -0.388 OA
ATOM      9  H   UNL     1      11.478  21.433  79.918  1.00  0.00     0.211 HD
ENDBRANCH   3   8
BRANCH   4  10
ATOM     10  O   UNL     1      12.364  24.485  79.073  1.00  0.00    -0.341 OA
BRANCH  10  11
ATOM     11  C   UNL     1      13.389  25.091  79.845  1.00  0.00     0.282 C 
ATOM     12  C   UNL     1      13.434  26.599  79.511  1.00  0.00     0.202 C 
ATOM     13  O   UNL     1      13.112  24.897  81.227  1.00  0.00    -0.341 OA
ATOM     14  C   UNL     1      14.479  27.306  80.401  1.00  0.00     0.179 C 
ATOM     15  C   UNL     1      14.171  25.400  82.028  1.00  0.00     0.178 C 
ATOM     16  C   UNL     1      14.251  26.945  81.882  1.00  0.00     0.177 C 
BRANCH  12  17
ATOM     17  O   UNL     1      12.167  27.208  79.622  1.00  0.00    -0.385 OA
ATOM     18  H   UNL     1      12.263  28.039  80.152  1.00  0.00     0.211 HD
ENDBRANCH  12  17
BRANCH  14  19
ATOM     19  O   UNL     1      14.411  28.704  80.233  1.00  0.00    -0.387 OA
ATOM     20  H   UNL     1      14.287  28.866  79.265  1.00  0.00     0.211 HD
ENDBRANCH  14  19
BRANCH  15  21
ATOM     21  C   UNL     1      13.941  24.987  83.506  1.00  0.00     0.191 C 
BRANCH  21  22
ATOM     22  O   UNL     1      12.603  24.612  83.728  1.00  0.00    -0.394 OA
ATOM     23  H   UNL     1      12.228  25.203  84.434  1.00  0.00     0.210 HD
ENDBRANCH  21  22
ENDBRANCH  15  21
BRANCH  16  24
ATOM     24  O   UNL     1      15.298  27.452  82.667  1.00  0.00    -0.387 OA
ATOM     25  H   UNL     1      15.558  26.740  83.306  1.00  0.00     0.211 HD
ENDBRANCH  16  24
ENDBRANCH  10  11
ENDBRANCH   4  10
BRANCH   6  26
ATOM     26  O   UNL     1      13.030  22.314  75.111  1.00  0.00    -0.346 OA
BRANCH  26  27
ATOM     27  C   UNL     1      12.545  21.679  73.929  1.00  0.00     0.130 C 
ATOM     28  C   UNL     1      11.147  21.110  74.282  1.00  0.00     0.033 C 
ATOM     29  C   UNL     1      12.550  22.680  72.679  1.00  0.00     0.020 C 
ATOM     30  C   UNL     1       9.984  21.983  73.817  1.00  0.00     0.010 C 
ATOM     31  C   UNL     1      11.356  22.343  71.657  1.00  0.00     0.006 C 
ATOM     32  C   UNL     1      12.499  24.156  73.189  1.00  0.00     0.017 C 
ATOM     33  C   UNL     1       9.900  22.076  72.271  1.00  0.00    -0.022 C 
ATOM     34  C   UNL     1      11.370  23.150  70.315  1.00  0.00     0.005 C 
ATOM     35  C   UNL     1       9.453  20.642  71.775  1.00  0.00     0.012 C 
ATOM     36  C   UNL     1       8.728  23.093  71.814  1.00  0.00     0.024 C 
ATOM     37  C   UNL     1       9.990  23.411  69.669  1.00  0.00     0.008 C 
ATOM     38  C   UNL     1       9.008  24.094  70.645  1.00  0.00    -0.017 C 
ATOM     39  C   UNL     1       7.883  23.859  72.852  1.00  0.00    -0.024 C 
ATOM     40  C   UNL     1       9.721  25.356  71.265  1.00  0.00     0.013 C 
ATOM     41  C   UNL     1       7.584  24.544  69.951  1.00  0.00     0.009 C 
ATOM     42  C   UNL     1       6.825  24.591  72.407  1.00  0.00     0.005 C 
ATOM     43  C   UNL     1       6.355  24.349  70.979  1.00  0.00     0.096 C 
ATOM     44  C   UNL     1       7.174  23.718  68.678  1.00  0.00     0.043 C 
ATOM     45  C   UNL     1       7.746  26.026  69.436  1.00  0.00     0.015 C 
ATOM     46  C   UNL     1       5.122  25.132  70.456  1.00  0.00     0.037 C 
ATOM     47  O   UNL     1       5.922  22.979  70.999  1.00  0.00    -0.369 OA
ATOM     48  C   UNL     1       5.681  23.974  68.214  1.00  0.00     0.124 C 
ATOM     49  C   UNL     1       4.653  24.111  69.408  1.00  0.00     0.026 C 
ATOM     50  C   UNL     1       4.049  25.443  71.534  1.00  0.00     0.014 C 
ATOM     51  C   UNL     1       4.763  22.836  70.218  1.00  0.00     0.171 C 
ATOM     52  C   UNL     1       3.214  24.349  68.882  1.00  0.00     0.013 C 
ATOM     53  C   UNL     1       2.673  25.825  70.930  1.00  0.00    -0.035 C 
ATOM     54  C   UNL     1       2.191  24.697  69.982  1.00  0.00     0.007 C 
ATOM     55  C   UNL     1       1.650  25.979  72.082  1.00  0.00     0.011 C 
ATOM     56  C   UNL     1       2.740  27.177  70.174  1.00  0.00     0.011 C 
BRANCH  29  57
ATOM     57  C   UNL     1      13.898  22.511  71.893  1.00  0.00     0.165 C 
BRANCH  57  58
ATOM     58  O   UNL     1      14.964  22.161  72.728  1.00  0.00    -0.396 OA
ATOM     59  H   UNL     1      15.311  23.007  73.131  1.00  0.00     0.210 HD
ENDBRANCH  57  58
ENDBRANCH  29  57
BRANCH  48  60
ATOM     60  O   UNL     1       5.599  25.092  67.362  1.00  0.00    -0.392 OA
ATOM     61  H   UNL     1       6.439  25.102  66.826  1.00  0.00     0.210 HD
ENDBRANCH  48  60
ENDBRANCH  26  27
ENDBRANCH   6  26
BRANCH   5  62
ATOM     62  O   UNL     1      11.428  24.084  76.463  1.00  0.00    -0.385 OA
ATOM     63  H   UNL     1      12.172  24.324  75.853  1.00  0.00     0.211 HD
ENDBRANCH   5  62
TORSDOF 14
ENDMDL
MODEL 4
REMARK VINA RESULT:    -6.007      4.189     12.668
REMARK INTER + INTRA:         -11.217
REMARK INTER:                  -9.802
REMARK INTRA:                  -1.416
REMARK UNBOUND:                -1.699
REMARK SMILES C[C@@H]1O[C@H](O[C@H]2CC[C@]3(C)[C@@H](CC[C@]4(C)[C@@H]3C=C[C@@]35OC[C@]6(CCC(C)(C)C[C@H]63)[C@@H](O)C[C@]45C)[C@]2(C)CO)[C@H](O)[C@@H](O[C@@H]2O[C@H](CO)[C@@H](O)[C@H](O)[C@@H]2O)[C@H]1O
REMARK SMILES IDX 1 1 2 2 54 3 41 4 39 5 4 6 3 7 55 8 42 10 43 11 52 12 44 13
REMARK SMILES IDX 50 14 45 15 48 16 53 17 51 19 46 21 47 22 49 24 5 26 6 27
REMARK SMILES IDX 7 28 35 29 8 30 11 31 36 32 9 33 12 34 10 35 16 36 13 37
REMARK SMILES IDX 14 38 17 39 15 40 33 41 18 42 19 43 32 44 34 45 29 46 20 47
REMARK SMILES IDX 30 48 22 49 28 50 21 51 23 52 25 53 24 54 26 55 27 56 37 57
REMARK SMILES IDX 38 58 31 60 40 62
REMARK H PARENT 55 9 53 18 51 20 47 23 49 25 38 59 31 61 40 63
REMARK Flexibility Score: inf
ROOT
ATOM      1  C   UNL     1       5.417  29.033  70.163  1.00  0.00     0.041 C 
ATOM      2  C   UNL     1       5.085  28.034  71.276  1.00  0.00     0.150 C 
ATOM      3  C   UNL     1       3.557  27.691  71.266  1.00  0.00     0.175 C 
ATOM      4  C   UNL     1       3.332  26.223  71.688  1.00  0.00     0.186 C 
ATOM      5  C   UNL     1       4.344  25.884  72.800  1.00  0.00     0.202 C 
ATOM      6  C   UNL     1       5.803  26.004  72.241  1.00  0.00     0.282 C 
ATOM      7  O   UNL     1       5.863  26.863  71.095  1.00  0.00    -0.344 OA
ENDROOT
BRANCH   3   8
ATOM      8  O   UNL     1       2.855  28.544  72.139  1.00  0.00    -0.388 OA
ATOM      9  H   UNL     1       2.462  29.276  71.589  1.00  0.00     0.211 HD
ENDBRANCH   3   8
BRANCH   4  10
ATOM     10  O   UNL     1       2.000  26.055  72.152  1.00  0.00    -0.341 OA
BRANCH  10  11
ATOM     11  C   UNL     1       1.073  26.070  71.078  1.00  0.00     0.282 C 
ATOM     12  C   UNL     1       0.065  24.916  71.277  1.00  0.00     0.202 C 
ATOM     13  O   UNL     1       0.397  27.321  71.059  1.00  0.00    -0.341 OA
ATOM     14  C   UNL     1      -1.013  24.959  70.173  1.00  0.00     0.179 C 
ATOM     15  C   UNL     1      -0.464  27.411  69.932  1.00  0.00     0.178 C 
ATOM     16  C   UNL     1      -1.613  26.375  70.067  1.00  0.00     0.177 C 
BRANCH  12  17
ATOM     17  O   UNL     1      -0.514  24.931  72.563  1.00  0.00    -0.385 OA
ATOM     18  H   UNL     1       0.197  24.766  73.230  1.00  0.00     0.211 HD
ENDBRANCH  12  17
BRANCH  14  19
ATOM     19  O   UNL     1      -2.034  24.024  70.437  1.00  0.00    -0.387 OA
ATOM     20  H   UNL     1      -2.065  23.911  71.421  1.00  0.00     0.211 HD
ENDBRANCH  14  19
BRANCH  15  21
ATOM     21  C   UNL     1      -1.020  28.856  69.823  1.00  0.00     0.191 C 
BRANCH  21  22
ATOM     22  O   UNL     1      -1.587  29.089  68.556  1.00  0.00    -0.394 OA
ATOM     23  H   UNL     1      -1.316  29.998  68.257  1.00  0.00     0.210 HD
ENDBRANCH  21  22
ENDBRANCH  15  21
BRANCH  16  24
ATOM     24  O   UNL     1      -2.467  26.452  68.957  1.00  0.00    -0.387 OA
ATOM     25  H   UNL     1      -3.122  27.174  69.139  1.00  0.00     0.211 HD
ENDBRANCH  16  24
ENDBRANCH  10  11
ENDBRANCH   4  10
BRANCH   6  26
ATOM     26  O   UNL     1       6.366  24.752  71.836  1.00  0.00    -0.346 OA
BRANCH  26  27
ATOM     27  C   UNL     1       7.703  24.812  71.344  1.00  0.00     0.130 C 
ATOM     28  C   UNL     1       8.576  25.331  72.516  1.00  0.00     0.033 C 
ATOM     29  C   UNL     1       8.176  23.403  70.748  1.00  0.00     0.020 C 
ATOM     30  C   UNL     1       9.322  24.234  73.271  1.00  0.00     0.010 C 
ATOM     31  C   UNL     1       9.755  23.184  70.949  1.00  0.00     0.006 C 
ATOM     32  C   UNL     1       7.329  22.254  71.385  1.00  0.00     0.017 C 
ATOM     33  C   UNL     1      10.380  23.526  72.385  1.00  0.00    -0.022 C 
ATOM     34  C   UNL     1      10.354  21.917  70.252  1.00  0.00     0.005 C 
ATOM     35  C   UNL     1      11.523  24.592  72.142  1.00  0.00     0.012 C 
ATOM     36  C   UNL     1      11.074  22.298  73.178  1.00  0.00     0.024 C 
ATOM     37  C   UNL     1      11.584  21.282  70.941  1.00  0.00     0.008 C 
ATOM     38  C   UNL     1      11.314  20.949  72.425  1.00  0.00    -0.017 C 
ATOM     39  C   UNL     1      10.644  21.927  74.612  1.00  0.00    -0.024 C 
ATOM     40  C   UNL     1       9.978  20.117  72.511  1.00  0.00     0.013 C 
ATOM     41  C   UNL     1      12.535  20.120  73.153  1.00  0.00     0.009 C 
ATOM     42  C   UNL     1      11.360  20.976  75.273  1.00  0.00     0.005 C 
ATOM     43  C   UNL     1      12.710  20.583  74.690  1.00  0.00     0.096 C 
ATOM     44  C   UNL     1      13.955  20.326  72.511  1.00  0.00     0.043 C 
ATOM     45  C   UNL     1      12.238  18.579  72.989  1.00  0.00     0.015 C 
ATOM     46  C   UNL     1      13.573  19.537  75.444  1.00  0.00     0.037 C 
ATOM     47  O   UNL     1      13.474  21.796  74.771  1.00  0.00    -0.369 OA
ATOM     48  C   UNL     1      15.139  19.758  73.400  1.00  0.00     0.124 C 
ATOM     49  C   UNL     1      14.950  20.004  74.950  1.00  0.00     0.026 C 
ATOM     50  C   UNL     1      13.428  19.574  76.989  1.00  0.00     0.014 C 
ATOM     51  C   UNL     1      14.800  21.500  75.133  1.00  0.00     0.171 C 
ATOM     52  C   UNL     1      16.146  19.433  75.756  1.00  0.00     0.013 C 
ATOM     53  C   UNL     1      14.584  18.847  77.725  1.00  0.00    -0.035 C 
ATOM     54  C   UNL     1      15.942  19.450  77.284  1.00  0.00     0.007 C 
ATOM     55  C   UNL     1      14.414  19.062  79.249  1.00  0.00     0.011 C 
ATOM     56  C   UNL     1      14.556  17.320  77.457  1.00  0.00     0.011 C 
BRANCH  29  57
ATOM     57  C   UNL     1       7.894  23.380  69.204  1.00  0.00     0.165 C 
BRANCH  57  58
ATOM     58  O   UNL     1       6.527  23.391  68.910  1.00  0.00    -0.396 OA
ATOM     59  H   UNL     1       6.427  23.058  67.972  1.00  0.00     0.210 HD
ENDBRANCH  57  58
ENDBRANCH  29  57
BRANCH  48  60
ATOM     60  O   UNL     1      15.357  18.392  73.141  1.00  0.00    -0.392 OA
ATOM     61  H   UNL     1      15.643  18.326  72.188  1.00  0.00     0.210 HD
ENDBRANCH  48  60
ENDBRANCH  26  27
ENDBRANCH   6  26
BRANCH   5  62
ATOM     62  O   UNL     1       4.085  24.622  73.356  1.00  0.00    -0.385 OA
ATOM     63  H   UNL     1       3.376  24.199  72.808  1.00  0.00     0.211 HD
ENDBRANCH   5  62
TORSDOF 14
ENDMDL
MODEL 5
REMARK VINA RESULT:    -5.980      6.886     11.012
REMARK INTER + INTRA:         -11.176
REMARK INTER:                  -9.057
REMARK INTRA:                  -2.118
REMARK UNBOUND:                -1.699
REMARK SMILES C[C@@H]1O[C@H](O[C@H]2CC[C@]3(C)[C@@H](CC[C@]4(C)[C@@H]3C=C[C@@]35OC[C@]6(CCC(C)(C)C[C@H]63)[C@@H](O)C[C@]45C)[C@]2(C)CO)[C@H](O)[C@@H](O[C@@H]2O[C@H](CO)[C@@H](O)[C@H](O)[C@@H]2O)[C@H]1O
REMARK SMILES IDX 1 1 2 2 54 3 41 4 39 5 4 6 3 7 55 8 42 10 43 11 52 12 44 13
REMARK SMILES IDX 50 14 45 15 48 16 53 17 51 19 46 21 47 22 49 24 5 26 6 27
REMARK SMILES IDX 7 28 35 29 8 30 11 31 36 32 9 33 12 34 10 35 16 36 13 37
REMARK SMILES IDX 14 38 17 39 15 40 33 41 18 42 19 43 32 44 34 45 29 46 20 47
REMARK SMILES IDX 30 48 22 49 28 50 21 51 23 52 25 53 24 54 26 55 27 56 37 57
REMARK SMILES IDX 38 58 31 60 40 62
REMARK H PARENT 55 9 53 18 51 20 47 23 49 25 38 59 31 61 40 63
REMARK Flexibility Score: inf
ROOT
ATOM      1  C   UNL     1      10.408  21.222  68.830  1.00  0.00     0.041 C 
ATOM      2  C   UNL     1      10.011  20.048  69.731  1.00  0.00     0.150 C 
ATOM      3  C   UNL     1      10.650  18.717  69.209  1.00  0.00     0.175 C 
ATOM      4  C   UNL     1      11.007  17.791  70.392  1.00  0.00     0.186 C 
ATOM      5  C   UNL     1       9.899  17.924  71.455  1.00  0.00     0.202 C 
ATOM      6  C   UNL     1       9.860  19.396  71.993  1.00  0.00     0.282 C 
ATOM      7  O   UNL     1      10.431  20.319  71.057  1.00  0.00    -0.344 OA
ENDROOT
BRANCH   3   8
ATOM      8  O   UNL     1       9.762  18.052  68.342  1.00  0.00    -0.388 OA
ATOM      9  H   UNL     1      10.229  17.240  68.002  1.00  0.00     0.211 HD
ENDBRANCH   3   8
BRANCH   4  10
ATOM     10  O   UNL     1      11.108  16.449  69.937  1.00  0.00    -0.341 OA
BRANCH  10  11
ATOM     11  C   UNL     1      12.457  16.091  69.678  1.00  0.00     0.282 C 
ATOM     12  C   UNL     1      13.272  16.258  70.980  1.00  0.00     0.202 C 
ATOM     13  O   UNL     1      12.506  14.742  69.231  1.00  0.00    -0.341 OA
ATOM     14  C   UNL     1      14.726  15.790  70.756  1.00  0.00     0.179 C 
ATOM     15  C   UNL     1      13.830  14.383  68.862  1.00  0.00     0.178 C 
ATOM     16  C   UNL     1      14.744  14.387  70.118  1.00  0.00     0.177 C 
BRANCH  12  17
ATOM     17  O   UNL     1      12.679  15.589  72.070  1.00  0.00    -0.385 OA
ATOM     18  H   UNL     1      12.583  14.631  71.837  1.00  0.00     0.211 HD
ENDBRANCH  12  17
BRANCH  14  19
ATOM     19  O   UNL     1      15.436  15.772  71.974  1.00  0.00    -0.387 OA
ATOM     20  H   UNL     1      15.200  16.607  72.451  1.00  0.00     0.211 HD
ENDBRANCH  14  19
BRANCH  15  21
ATOM     21  C   UNL     1      13.815  12.987  68.184  1.00  0.00     0.191 C 
BRANCH  21  22
ATOM     22  O   UNL     1      14.058  11.963  69.119  1.00  0.00    -0.394 OA
ATOM     23  H   UNL     1      15.016  12.005  69.383  1.00  0.00     0.210 HD
ENDBRANCH  21  22
ENDBRANCH  15  21
BRANCH  16  24
ATOM     24  O   UNL     1      16.055  14.038  69.764  1.00  0.00    -0.387 OA
ATOM     25  H   UNL     1      16.106  13.048  69.762  1.00  0.00     0.211 HD
ENDBRANCH  16  24
ENDBRANCH  10  11
ENDBRANCH   4  10
BRANCH   6  26
ATOM     26  O   UNL     1      10.571  19.575  73.223  1.00  0.00    -0.346 OA
BRANCH  26  27
ATOM     27  C   UNL     1      11.698  20.448  73.156  1.00  0.00     0.130 C 
ATOM     28  C   UNL     1      11.177  21.861  73.526  1.00  0.00     0.033 C 
ATOM     29  C   UNL     1      12.900  19.929  74.078  1.00  0.00     0.020 C 
ATOM     30  C   UNL     1      11.447  22.264  74.974  1.00  0.00     0.010 C 
ATOM     31  C   UNL     1      13.761  21.154  74.661  1.00  0.00     0.006 C 
ATOM     32  C   UNL     1      12.334  19.008  75.208  1.00  0.00     0.017 C 
ATOM     33  C   UNL     1      12.963  22.403  75.273  1.00  0.00    -0.022 C 
ATOM     34  C   UNL     1      15.061  20.757  75.436  1.00  0.00     0.005 C 
ATOM     35  C   UNL     1      13.444  23.684  74.480  1.00  0.00     0.012 C 
ATOM     36  C   UNL     1      13.219  22.722  76.838  1.00  0.00     0.024 C 
ATOM     37  C   UNL     1      15.503  21.724  76.558  1.00  0.00     0.008 C 
ATOM     38  C   UNL     1      14.377  21.982  77.583  1.00  0.00    -0.017 C 
ATOM     39  C   UNL     1      12.047  22.817  77.838  1.00  0.00    -0.024 C 
ATOM     40  C   UNL     1      13.815  20.590  78.064  1.00  0.00     0.013 C 
ATOM     41  C   UNL     1      14.853  22.871  78.884  1.00  0.00     0.009 C 
ATOM     42  C   UNL     1      12.317  23.224  79.109  1.00  0.00     0.005 C 
ATOM     43  C   UNL     1      13.674  23.862  79.368  1.00  0.00     0.096 C 
ATOM     44  C   UNL     1      16.087  23.811  78.633  1.00  0.00     0.043 C 
ATOM     45  C   UNL     1      15.332  21.868  80.005  1.00  0.00     0.015 C 
ATOM     46  C   UNL     1      13.996  24.381  80.794  1.00  0.00     0.037 C 
ATOM     47  O   UNL     1      13.646  25.049  78.558  1.00  0.00    -0.369 OA
ATOM     48  C   UNL     1      16.334  24.855  79.800  1.00  0.00     0.124 C 
ATOM     49  C   UNL     1      15.006  25.469  80.401  1.00  0.00     0.026 C 
ATOM     50  C   UNL     1      12.770  24.931  81.572  1.00  0.00     0.014 C 
ATOM     51  C   UNL     1      14.266  26.107  79.244  1.00  0.00     0.171 C 
ATOM     52  C   UNL     1      15.322  26.487  81.528  1.00  0.00     0.013 C 
ATOM     53  C   UNL     1      13.167  25.818  82.782  1.00  0.00    -0.035 C 
ATOM     54  C   UNL     1      14.080  26.974  82.301  1.00  0.00     0.007 C 
ATOM     55  C   UNL     1      11.880  26.421  83.398  1.00  0.00     0.011 C 
ATOM     56  C   UNL     1      13.875  24.989  83.885  1.00  0.00     0.011 C 
BRANCH  29  57
ATOM     57  C   UNL     1      13.868  19.050  73.211  1.00  0.00     0.165 C 
BRANCH  57  58
ATOM     58  O   UNL     1      14.094  17.789  73.772  1.00  0.00    -0.396 OA
ATOM     59  H   UNL     1      13.198  17.397  73.981  1.00  0.00     0.210 HD
ENDBRANCH  57  58
ENDBRANCH  29  57
BRANCH  48  60
ATOM     60  O   UNL     1      17.125  24.297  80.821  1.00  0.00    -0.392 OA
ATOM     61  H   UNL     1      18.070  24.531  80.608  1.00  0.00     0.210 HD
ENDBRANCH  48  60
ENDBRANCH  26  27
ENDBRANCH   6  26
BRANCH   5  62
ATOM     62  O   UNL     1      10.064  16.982  72.482  1.00  0.00    -0.385 OA
ATOM     63  H   UNL     1      10.304  17.482  73.304  1.00  0.00     0.211 HD
ENDBRANCH   5  62
TORSDOF 14
ENDMDL
MODEL 6
REMARK VINA RESULT:    -5.972      4.052     12.628
REMARK INTER + INTRA:         -11.162
REMARK INTER:                  -9.527
REMARK INTRA:                  -1.635
REMARK UNBOUND:                -1.699
REMARK SMILES C[C@@H]1O[C@H](O[C@H]2CC[C@]3(C)[C@@H](CC[C@]4(C)[C@@H]3C=C[C@@]35OC[C@]6(CCC(C)(C)C[C@H]63)[C@@H](O)C[C@]45C)[C@]2(C)CO)[C@H](O)[C@@H](O[C@@H]2O[C@H](CO)[C@@H](O)[C@H](O)[C@@H]2O)[C@H]1O
REMARK SMILES IDX 1 1 2 2 54 3 41 4 39 5 4 6 3 7 55 8 42 10 43 11 52 12 44 13
REMARK SMILES IDX 50 14 45 15 48 16 53 17 51 19 46 21 47 22 49 24 5 26 6 27
REMARK SMILES IDX 7 28 35 29 8 30 11 31 36 32 9 33 12 34 10 35 16 36 13 37
REMARK SMILES IDX 14 38 17 39 15 40 33 41 18 42 19 43 32 44 34 45 29 46 20 47
REMARK SMILES IDX 30 48 22 49 28 50 21 51 23 52 25 53 24 54 26 55 27 56 37 57
REMARK SMILES IDX 38 58 31 60 40 62
REMARK H PARENT 55 9 53 18 51 20 47 23 49 25 38 59 31 61 40 63
REMARK Flexibility Score: inf
ROOT
ATOM      1  C   UNL     1       6.955  28.496  71.855  1.00  0.00     0.041 C 
ATOM      2  C   UNL     1       6.523  27.172  72.494  1.00  0.00     0.150 C 
ATOM      3  C   UNL     1       4.966  27.019  72.437  1.00  0.00     0.175 C 
ATOM      4  C   UNL     1       4.578  25.536  72.249  1.00  0.00     0.186 C 
ATOM      5  C   UNL     1       5.557  24.677  73.073  1.00  0.00     0.202 C 
ATOM      6  C   UNL     1       7.013  24.865  72.524  1.00  0.00     0.282 C 
ATOM      7  O   UNL     1       7.159  26.102  71.815  1.00  0.00    -0.344 OA
ENDROOT
BRANCH   3   8
ATOM      8  O   UNL     1       4.379  27.513  73.617  1.00  0.00    -0.388 OA
ATOM      9  H   UNL     1       4.495  28.503  73.615  1.00  0.00     0.211 HD
ENDBRANCH   3   8
BRANCH   4  10
ATOM     10  O   UNL     1       3.242  25.331  72.685  1.00  0.00    -0.341 OA
BRANCH  10  11
ATOM     11  C   UNL     1       2.353  25.211  71.585  1.00  0.00     0.282 C 
ATOM     12  C   UNL     1       1.207  26.234  71.759  1.00  0.00     0.202 C 
ATOM     13  O   UNL     1       3.063  25.463  70.378  1.00  0.00    -0.341 OA
ATOM     14  C   UNL     1       0.271  26.192  70.534  1.00  0.00     0.179 C 
ATOM     15  C   UNL     1       2.228  25.249  69.249  1.00  0.00     0.178 C 
ATOM     16  C   UNL     1       1.088  26.304  69.232  1.00  0.00     0.177 C 
BRANCH  12  17
ATOM     17  O   UNL     1       1.689  27.538  71.995  1.00  0.00    -0.385 OA
ATOM     18  H   UNL     1       1.713  27.692  72.973  1.00  0.00     0.211 HD
ENDBRANCH  12  17
BRANCH  14  19
ATOM     19  O   UNL     1      -0.677  27.234  70.595  1.00  0.00    -0.387 OA
ATOM     20  H   UNL     1      -0.482  27.745  71.421  1.00  0.00     0.211 HD
ENDBRANCH  14  19
BRANCH  15  21
ATOM     21  C   UNL     1       3.082  25.324  67.955  1.00  0.00     0.191 C 
BRANCH  21  22
ATOM     22  O   UNL     1       2.575  24.467  66.960  1.00  0.00    -0.394 OA
ATOM     23  H   UNL     1       2.067  23.739  67.407  1.00  0.00     0.210 HD
ENDBRANCH  21  22
ENDBRANCH  15  21
BRANCH  16  24
ATOM     24  O   UNL     1       0.255  26.098  68.122  1.00  0.00    -0.387 OA
ATOM     25  H   UNL     1      -0.619  26.520  68.328  1.00  0.00     0.211 HD
ENDBRANCH  16  24
ENDBRANCH  10  11
ENDBRANCH   4  10
BRANCH   6  26
ATOM     26  O   UNL     1       7.422  23.832  71.621  1.00  0.00    -0.346 OA
BRANCH  26  27
ATOM     27  C   UNL     1       8.812  23.814  71.301  1.00  0.00     0.130 C 
ATOM     28  C   UNL     1       9.557  24.307  72.568  1.00  0.00     0.033 C 
ATOM     29  C   UNL     1       9.278  22.372  70.784  1.00  0.00     0.020 C 
ATOM     30  C   UNL     1      10.143  23.185  73.422  1.00  0.00     0.010 C 
ATOM     31  C   UNL     1      10.806  22.074  71.184  1.00  0.00     0.006 C 
ATOM     32  C   UNL     1       8.298  21.280  71.321  1.00  0.00     0.017 C 
ATOM     33  C   UNL     1      11.264  22.407  72.684  1.00  0.00    -0.022 C 
ATOM     34  C   UNL     1      11.418  20.765  70.582  1.00  0.00     0.005 C 
ATOM     35  C   UNL     1      12.484  23.408  72.576  1.00  0.00     0.012 C 
ATOM     36  C   UNL     1      11.785  21.159  73.571  1.00  0.00     0.024 C 
ATOM     37  C   UNL     1      12.515  20.079  71.427  1.00  0.00     0.008 C 
ATOM     38  C   UNL     1      12.044  19.786  72.868  1.00  0.00    -0.017 C 
ATOM     39  C   UNL     1      11.159  20.836  74.943  1.00  0.00    -0.024 C 
ATOM     40  C   UNL     1      10.665  19.026  72.795  1.00  0.00     0.013 C 
ATOM     41  C   UNL     1      13.118  18.907  73.754  1.00  0.00     0.009 C 
ATOM     42  C   UNL     1      11.734  19.860  75.700  1.00  0.00     0.005 C 
ATOM     43  C   UNL     1      13.123  19.387  75.295  1.00  0.00     0.096 C 
ATOM     44  C   UNL     1      14.616  19.027  73.294  1.00  0.00     0.043 C 
ATOM     45  C   UNL     1      12.761  17.381  73.570  1.00  0.00     0.015 C 
ATOM     46  C   UNL     1      13.827  18.310  76.163  1.00  0.00     0.037 C 
ATOM     47  O   UNL     1      13.937  20.560  75.459  1.00  0.00    -0.369 OA
ATOM     48  C   UNL     1      15.647  18.414  74.330  1.00  0.00     0.124 C 
ATOM     49  C   UNL     1      15.279  18.696  75.842  1.00  0.00     0.026 C 
ATOM     50  C   UNL     1      13.492  18.381  77.678  1.00  0.00     0.014 C 
ATOM     51  C   UNL     1      15.188  20.201  75.988  1.00  0.00     0.171 C 
ATOM     52  C   UNL     1      16.332  18.077  76.798  1.00  0.00     0.013 C 
ATOM     53  C   UNL     1      14.506  17.608  78.561  1.00  0.00    -0.035 C 
ATOM     54  C   UNL     1      15.939  18.132  78.288  1.00  0.00     0.007 C 
ATOM     55  C   UNL     1      14.158  17.858  80.049  1.00  0.00     0.011 C 
ATOM     56  C   UNL     1      14.429  16.080  78.308  1.00  0.00     0.011 C 
BRANCH  29  57
ATOM     57  C   UNL     1       9.192  22.336  69.217  1.00  0.00     0.165 C 
BRANCH  57  58
ATOM     58  O   UNL     1       8.024  22.935  68.732  1.00  0.00    -0.396 OA
ATOM     59  H   UNL     1       7.259  22.362  69.024  1.00  0.00     0.210 HD
ENDBRANCH  57  58
ENDBRANCH  29  57
BRANCH  48  60
ATOM     60  O   UNL     1      15.821  17.034  74.115  1.00  0.00    -0.392 OA
ATOM     61  H   UNL     1      15.488  16.575  74.935  1.00  0.00     0.210 HD
ENDBRANCH  48  60
ENDBRANCH  26  27
ENDBRANCH   6  26
BRANCH   5  62
ATOM     62  O   UNL     1       5.161  23.331  73.092  1.00  0.00    -0.385 OA
ATOM     63  H   UNL     1       5.969  22.789  73.279  1.00  0.00     0.211 HD
ENDBRANCH   5  62
TORSDOF 14
ENDMDL
MODEL 7
REMARK VINA RESULT:    -5.970      5.934     11.956
REMARK INTER + INTRA:         -11.158
REMARK INTER:                  -8.994
REMARK INTRA:                  -2.165
REMARK UNBOUND:                -1.699
REMARK SMILES C[C@@H]1O[C@H](O[C@H]2CC[C@]3(C)[C@@H](CC[C@]4(C)[C@@H]3C=C[C@@]35OC[C@]6(CCC(C)(C)C[C@H]63)[C@@H](O)C[C@]45C)[C@]2(C)CO)[C@H](O)[C@@H](O[C@@H]2O[C@H](CO)[C@@H](O)[C@H](O)[C@@H]2O)[C@H]1O
REMARK SMILES IDX 1 1 2 2 54 3 41 4 39 5 4 6 3 7 55 8 42 10 43 11 52 12 44 13
REMARK SMILES IDX 50 14 45 15 48 16 53 17 51 19 46 21 47 22 49 24 5 26 6 27
REMARK SMILES IDX 7 28 35 29 8 30 11 31 36 32 9 33 12 34 10 35 16 36 13 37
REMARK SMILES IDX 14 38 17 39 15 40 33 41 18 42 19 43 32 44 34 45 29 46 20 47
REMARK SMILES IDX 30 48 22 49 28 50 21 51 23 52 25 53 24 54 26 55 27 56 37 57
REMARK SMILES IDX 38 58 31 60 40 62
REMARK H PARENT 55 9 53 18 51 20 47 23 49 25 38 59 31 61 40 63
REMARK Flexibility Score: inf
ROOT
ATOM      1  C   UNL     1       8.960  22.260  67.198  1.00  0.00     0.041 C 
ATOM      2  C   UNL     1       8.994  23.512  68.080  1.00  0.00     0.150 C 
ATOM      3  C   UNL     1       7.561  24.130  68.210  1.00  0.00     0.175 C 
ATOM      4  C   UNL     1       7.370  24.755  69.609  1.00  0.00     0.186 C 
ATOM      5  C   UNL     1       8.698  25.418  70.023  1.00  0.00     0.202 C 
ATOM      6  C   UNL     1       9.818  24.327  70.135  1.00  0.00     0.282 C 
ATOM      7  O   UNL     1       9.509  23.166  69.355  1.00  0.00    -0.344 OA
ENDROOT
BRANCH   3   8
ATOM      8  O   UNL     1       7.359  25.113  67.223  1.00  0.00    -0.388 OA
ATOM      9  H   UNL     1       8.122  25.057  66.585  1.00  0.00     0.211 HD
ENDBRANCH   3   8
BRANCH   4  10
ATOM     10  O   UNL     1       6.322  25.714  69.566  1.00  0.00    -0.341 OA
BRANCH  10  11
ATOM     11  C   UNL     1       5.122  25.193  70.117  1.00  0.00     0.282 C 
ATOM     12  C   UNL     1       5.260  25.154  71.655  1.00  0.00     0.202 C 
ATOM     13  O   UNL     1       4.033  26.025  69.737  1.00  0.00    -0.341 OA
ATOM     14  C   UNL     1       3.937  24.676  72.292  1.00  0.00     0.179 C 
ATOM     15  C   UNL     1       2.801  25.475  70.184  1.00  0.00     0.178 C 
ATOM     16  C   UNL     1       2.752  25.490  71.737  1.00  0.00     0.177 C 
BRANCH  12  17
ATOM     17  O   UNL     1       5.668  26.394  72.186  1.00  0.00    -0.385 OA
ATOM     18  H   UNL     1       6.396  26.234  72.837  1.00  0.00     0.211 HD
ENDBRANCH  12  17
BRANCH  14  19
ATOM     19  O   UNL     1       3.987  24.799  73.695  1.00  0.00    -0.387 OA
ATOM     20  H   UNL     1       3.186  25.317  73.962  1.00  0.00     0.211 HD
ENDBRANCH  14  19
BRANCH  15  21
ATOM     21  C   UNL     1       1.625  26.285  69.577  1.00  0.00     0.191 C 
BRANCH  21  22
ATOM     22  O   UNL     1       0.434  25.535  69.581  1.00  0.00    -0.394 OA
ATOM     23  H   UNL     1       0.331  25.120  70.478  1.00  0.00     0.210 HD
ENDBRANCH  21  22
ENDBRANCH  15  21
BRANCH  16  24
ATOM     24  O   UNL     1       1.541  24.945  72.188  1.00  0.00    -0.387 OA
ATOM     25  H   UNL     1       1.730  24.476  73.041  1.00  0.00     0.211 HD
ENDBRANCH  16  24
ENDBRANCH  10  11
ENDBRANCH   4  10
BRANCH   6  26
ATOM     26  O   UNL     1      10.039  23.869  71.473  1.00  0.00    -0.346 OA
BRANCH  26  27
ATOM     27  C   UNL     1      11.404  23.660  71.831  1.00  0.00     0.130 C 
ATOM     28  C   UNL     1      11.927  25.019  72.364  1.00  0.00     0.033 C 
ATOM     29  C   UNL     1      11.563  22.445  72.862  1.00  0.00     0.020 C 
ATOM     30  C   UNL     1      11.953  25.122  73.887  1.00  0.00     0.010 C 
ATOM     31  C   UNL     1      12.804  22.681  73.856  1.00  0.00     0.006 C 
ATOM     32  C   UNL     1      10.218  22.230  73.629  1.00  0.00     0.017 C 
ATOM     33  C   UNL     1      12.959  24.129  74.527  1.00  0.00    -0.022 C 
ATOM     34  C   UNL     1      13.156  21.478  74.793  1.00  0.00     0.005 C 
ATOM     35  C   UNL     1      14.397  24.660  74.137  1.00  0.00     0.012 C 
ATOM     36  C   UNL     1      12.883  24.185  76.141  1.00  0.00     0.024 C 
ATOM     37  C   UNL     1      13.782  21.843  76.158  1.00  0.00     0.008 C 
ATOM     38  C   UNL     1      12.914  22.847  76.948  1.00  0.00    -0.017 C 
ATOM     39  C   UNL     1      11.880  25.108  76.864  1.00  0.00    -0.024 C 
ATOM     40  C   UNL     1      11.439  22.293  77.000  1.00  0.00     0.013 C 
ATOM     41  C   UNL     1      13.455  23.135  78.476  1.00  0.00     0.009 C 
ATOM     42  C   UNL     1      11.961  25.212  78.219  1.00  0.00     0.005 C 
ATOM     43  C   UNL     1      13.219  24.678  78.889  1.00  0.00     0.096 C 
ATOM     44  C   UNL     1      14.992  22.894  78.695  1.00  0.00     0.043 C 
ATOM     45  C   UNL     1      12.744  22.109  79.442  1.00  0.00     0.015 C 
ATOM     46  C   UNL     1      13.366  24.823  80.427  1.00  0.00     0.037 C 
ATOM     47  O   UNL     1      14.261  25.511  78.355  1.00  0.00    -0.369 OA
ATOM     48  C   UNL     1      15.530  23.454  80.077  1.00  0.00     0.124 C 
ATOM     49  C   UNL     1      14.900  24.844  80.492  1.00  0.00     0.026 C 
ATOM     50  C   UNL     1      12.707  26.098  81.020  1.00  0.00     0.014 C 
ATOM     51  C   UNL     1      15.197  25.806  79.360  1.00  0.00     0.171 C 
ATOM     52  C   UNL     1      15.477  25.336  81.845  1.00  0.00     0.013 C 
ATOM     53  C   UNL     1      13.222  26.441  82.443  1.00  0.00    -0.035 C 
ATOM     54  C   UNL     1      14.765  26.578  82.418  1.00  0.00     0.007 C 
ATOM     55  C   UNL     1      12.608  27.794  82.879  1.00  0.00     0.011 C 
ATOM     56  C   UNL     1      12.788  25.370  83.477  1.00  0.00     0.011 C 
BRANCH  29  57
ATOM     57  C   UNL     1      11.852  21.128  72.060  1.00  0.00     0.165 C 
BRANCH  57  58
ATOM     58  O   UNL     1      11.035  20.998  70.932  1.00  0.00    -0.396 OA
ATOM     59  H   UNL     1      10.389  20.259  71.121  1.00  0.00     0.210 HD
ENDBRANCH  57  58
ENDBRANCH  29  57
BRANCH  48  60
ATOM     60  O   UNL     1      15.362  22.510  81.107  1.00  0.00    -0.392 OA
ATOM     61  H   UNL     1      16.124  22.637  81.736  1.00  0.00     0.210 HD
ENDBRANCH  48  60
ENDBRANCH  26  27
ENDBRANCH   6  26
BRANCH   5  62
ATOM     62  O   UNL     1       8.550  26.158  71.206  1.00  0.00    -0.385 OA
ATOM     63  H   UNL     1       7.581  26.190  71.414  1.00  0.00     0.211 HD
ENDBRANCH   5  62
TORSDOF 14
ENDMDL
MODEL 8
REMARK VINA RESULT:    -5.734      4.117      7.067
REMARK INTER + INTRA:         -10.786
REMARK INTER:                  -8.653
REMARK INTRA:                  -2.133
REMARK UNBOUND:                -1.699
REMARK SMILES C[C@@H]1O[C@H](O[C@H]2CC[C@]3(C)[C@@H](CC[C@]4(C)[C@@H]3C=C[C@@]35OC[C@]6(CCC(C)(C)C[C@H]63)[C@@H](O)C[C@]45C)[C@]2(C)CO)[C@H](O)[C@@H](O[C@@H]2O[C@H](CO)[C@@H](O)[C@H](O)[C@@H]2O)[C@H]1O
REMARK SMILES IDX 1 1 2 2 54 3 41 4 39 5 4 6 3 7 55 8 42 10 43 11 52 12 44 13
REMARK SMILES IDX 50 14 45 15 48 16 53 17 51 19 46 21 47 22 49 24 5 26 6 27
REMARK SMILES IDX 7 28 35 29 8 30 11 31 36 32 9 33 12 34 10 35 16 36 13 37
REMARK SMILES IDX 14 38 17 39 15 40 33 41 18 42 19 43 32 44 34 45 29 46 20 47
REMARK SMILES IDX 30 48 22 49 28 50 21 51 23 52 25 53 24 54 26 55 27 56 37 57
REMARK SMILES IDX 38 58 31 60 40 62
REMARK H PARENT 55 9 53 18 51 20 47 23 49 25 38 59 31 61 40 63
REMARK Flexibility Score: inf
ROOT
ATOM      1  C   UNL     1      15.794  19.109  72.526  1.00  0.00     0.041 C 
ATOM      2  C   UNL     1      14.451  18.632  73.087  1.00  0.00     0.150 C 
ATOM      3  C   UNL     1      14.582  18.298  74.611  1.00  0.00     0.175 C 
ATOM      4  C   UNL     1      13.272  18.643  75.352  1.00  0.00     0.186 C 
ATOM      5  C   UNL     1      12.091  18.284  74.430  1.00  0.00     0.202 C 
ATOM      6  C   UNL     1      12.152  19.159  73.131  1.00  0.00     0.282 C 
ATOM      7  O   UNL     1      13.477  19.641  72.877  1.00  0.00    -0.344 OA
ENDROOT
BRANCH   3   8
ATOM      8  O   UNL     1      14.878  16.933  74.791  1.00  0.00    -0.388 OA
ATOM      9  H   UNL     1      14.151  16.410  74.355  1.00  0.00     0.211 HD
ENDBRANCH   3   8
BRANCH   4  10
ATOM     10  O   UNL     1      13.201  17.911  76.567  1.00  0.00    -0.341 OA
BRANCH  10  11
ATOM     11  C   UNL     1      13.520  18.728  77.683  1.00  0.00     0.282 C 
ATOM     12  C   UNL     1      14.637  18.040  78.499  1.00  0.00     0.202 C 
ATOM     13  O   UNL     1      13.955  20.002  77.222  1.00  0.00    -0.341 OA
ATOM     14  C   UNL     1      15.071  18.947  79.670  1.00  0.00     0.179 C 
ATOM     15  C   UNL     1      14.182  20.881  78.313  1.00  0.00     0.178 C 
ATOM     16  C   UNL     1      15.379  20.368  79.160  1.00  0.00     0.177 C 
BRANCH  12  17
ATOM     17  O   UNL     1      15.737  17.676  77.695  1.00  0.00    -0.385 OA
ATOM     18  H   UNL     1      16.443  18.363  77.798  1.00  0.00     0.211 HD
ENDBRANCH  12  17
BRANCH  14  19
ATOM     19  O   UNL     1      16.203  18.415  80.319  1.00  0.00    -0.387 OA
ATOM     20  H   UNL     1      16.477  19.079  81.000  1.00  0.00     0.211 HD
ENDBRANCH  14  19
BRANCH  15  21
ATOM     21  C   UNL     1      14.448  22.313  77.775  1.00  0.00     0.191 C 
BRANCH  21  22
ATOM     22  O   UNL     1      14.064  23.289  78.714  1.00  0.00    -0.394 OA
ATOM     23  H   UNL     1      14.368  24.176  78.381  1.00  0.00     0.210 HD
ENDBRANCH  21  22
ENDBRANCH  15  21
BRANCH  16  24
ATOM     24  O   UNL     1      15.610  21.228  80.244  1.00  0.00    -0.387 OA
ATOM     25  H   UNL     1      15.811  22.124  79.871  1.00  0.00     0.211 HD
ENDBRANCH  16  24
ENDBRANCH  10  11
ENDBRANCH   4  10
BRANCH   6  26
ATOM     26  O   UNL     1      11.305  20.312  73.178  1.00  0.00    -0.346 OA
BRANCH  26  27
ATOM     27  C   UNL     1      11.162  21.017  71.945  1.00  0.00     0.130 C 
ATOM     28  C   UNL     1       9.897  20.442  71.258  1.00  0.00     0.033 C 
ATOM     29  C   UNL     1      11.122  22.601  72.175  1.00  0.00     0.020 C 
ATOM     30  C   UNL     1       8.647  21.299  71.438  1.00  0.00     0.010 C 
ATOM     31  C   UNL     1      10.206  23.328  71.073  1.00  0.00     0.006 C 
ATOM     32  C   UNL     1      10.654  22.908  73.634  1.00  0.00     0.017 C 
ATOM     33  C   UNL     1       8.776  22.681  70.745  1.00  0.00    -0.022 C 
ATOM     34  C   UNL     1      10.233  24.893  71.099  1.00  0.00     0.005 C 
ATOM     35  C   UNL     1       8.753  22.390  69.191  1.00  0.00     0.012 C 
ATOM     36  C   UNL     1       7.483  23.605  71.047  1.00  0.00     0.024 C 
ATOM     37  C   UNL     1       8.943  25.600  70.624  1.00  0.00     0.008 C 
ATOM     38  C   UNL     1       7.694  25.115  71.392  1.00  0.00    -0.017 C 
ATOM     39  C   UNL     1       6.337  23.106  71.953  1.00  0.00    -0.024 C 
ATOM     40  C   UNL     1       7.995  25.209  72.937  1.00  0.00     0.013 C 
ATOM     41  C   UNL     1       6.326  25.959  71.038  1.00  0.00     0.009 C 
ATOM     42  C   UNL     1       5.217  23.874  72.054  1.00  0.00     0.005 C 
ATOM     43  C   UNL     1       5.035  24.989  71.034  1.00  0.00     0.096 C 
ATOM     44  C   UNL     1       6.313  26.645  69.624  1.00  0.00     0.043 C 
ATOM     45  C   UNL     1       6.214  27.151  72.066  1.00  0.00     0.015 C 
ATOM     46  C   UNL     1       3.747  25.851  71.092  1.00  0.00     0.037 C 
ATOM     47  O   UNL     1       4.934  24.285  69.785  1.00  0.00    -0.369 OA
ATOM     48  C   UNL     1       4.888  27.194  69.201  1.00  0.00     0.124 C 
ATOM     49  C   UNL     1       3.690  26.246  69.608  1.00  0.00     0.026 C 
ATOM     50  C   UNL     1       2.482  25.092  71.576  1.00  0.00     0.014 C 
ATOM     51  C   UNL     1       3.970  24.901  68.970  1.00  0.00     0.171 C 
ATOM     52  C   UNL     1       2.330  26.838  69.155  1.00  0.00     0.013 C 
ATOM     53  C   UNL     1       1.161  25.824  71.222  1.00  0.00    -0.035 C 
ATOM     54  C   UNL     1       1.102  26.078  69.694  1.00  0.00     0.007 C 
ATOM     55  C   UNL     1      -0.030  24.920  71.624  1.00  0.00     0.011 C 
ATOM     56  C   UNL     1       1.026  27.158  71.999  1.00  0.00     0.011 C 
BRANCH  29  57
ATOM     57  C   UNL     1      12.574  23.177  72.027  1.00  0.00     0.165 C 
BRANCH  57  58
ATOM     58  O   UNL     1      13.516  22.450  72.763  1.00  0.00    -0.396 OA
ATOM     59  H   UNL     1      13.512  22.822  73.691  1.00  0.00     0.210 HD
ENDBRANCH  57  58
ENDBRANCH  29  57
BRANCH  48  60
ATOM     60  O   UNL     1       4.678  28.494  69.696  1.00  0.00    -0.392 OA
ATOM     61  H   UNL     1       3.801  28.479  70.171  1.00  0.00     0.210 HD
ENDBRANCH  48  60
ENDBRANCH  26  27
ENDBRANCH   6  26
BRANCH   5  62
ATOM     62  O   UNL     1      10.865  18.407  75.102  1.00  0.00    -0.385 OA
ATOM     63  H   UNL     1      11.013  18.120  76.039  1.00  0.00     0.211 HD
ENDBRANCH   5  62
TORSDOF 14
ENDMDL
MODEL 9
REMARK VINA RESULT:    -5.661      2.655      4.809
REMARK INTER + INTRA:         -10.669
REMARK INTER:                  -8.276
REMARK INTRA:                  -2.393
REMARK UNBOUND:                -1.699
REMARK SMILES C[C@@H]1O[C@H](O[C@H]2CC[C@]3(C)[C@@H](CC[C@]4(C)[C@@H]3C=C[C@@]35OC[C@]6(CCC(C)(C)C[C@H]63)[C@@H](O)C[C@]45C)[C@]2(C)CO)[C@H](O)[C@@H](O[C@@H]2O[C@H](CO)[C@@H](O)[C@H](O)[C@@H]2O)[C@H]1O
REMARK SMILES IDX 1 1 2 2 54 3 41 4 39 5 4 6 3 7 55 8 42 10 43 11 52 12 44 13
REMARK SMILES IDX 50 14 45 15 48 16 53 17 51 19 46 21 47 22 49 24 5 26 6 27
REMARK SMILES IDX 7 28 35 29 8 30 11 31 36 32 9 33 12 34 10 35 16 36 13 37
REMARK SMILES IDX 14 38 17 39 15 40 33 41 18 42 19 43 32 44 34 45 29 46 20 47
REMARK SMILES IDX 30 48 22 49 28 50 21 51 23 52 25 53 24 54 26 55 27 56 37 57
REMARK SMILES IDX 38 58 31 60 40 62
REMARK H PARENT 55 9 53 18 51 20 47 23 49 25 38 59 31 61 40 63
REMARK Flexibility Score: inf
ROOT
ATOM      1  C   UNL     1      13.891  21.941  69.476  1.00  0.00     0.041 C 
ATOM      2  C   UNL     1      12.838  20.838  69.617  1.00  0.00     0.150 C 
ATOM      3  C   UNL     1      13.094  19.999  70.914  1.00  0.00     0.175 C 
ATOM      4  C   UNL     1      11.755  19.532  71.526  1.00  0.00     0.186 C 
ATOM      5  C   UNL     1      10.800  19.172  70.372  1.00  0.00     0.202 C 
ATOM      6  C   UNL     1      10.513  20.448  69.508  1.00  0.00     0.282 C 
ATOM      7  O   UNL     1      11.549  21.428  69.648  1.00  0.00    -0.344 OA
ENDROOT
BRANCH   3   8
ATOM      8  O   UNL     1      13.895  18.878  70.624  1.00  0.00    -0.388 OA
ATOM      9  H   UNL     1      13.384  18.067  70.899  1.00  0.00     0.211 HD
ENDBRANCH   3   8
BRANCH   4  10
ATOM     10  O   UNL     1      11.977  18.407  72.364  1.00  0.00    -0.341 OA
BRANCH  10  11
ATOM     11  C   UNL     1      12.044  18.785  73.730  1.00  0.00     0.282 C 
ATOM     12  C   UNL     1      13.247  18.068  74.385  1.00  0.00     0.202 C 
ATOM     13  O   UNL     1      12.199  20.196  73.819  1.00  0.00    -0.341 OA
ATOM     14  C   UNL     1      13.402  18.528  75.850  1.00  0.00     0.179 C 
ATOM     15  C   UNL     1      12.164  20.621  75.174  1.00  0.00     0.178 C 
ATOM     16  C   UNL     1      13.402  20.067  75.930  1.00  0.00     0.177 C 
BRANCH  12  17
ATOM     17  O   UNL     1      14.439  18.257  73.657  1.00  0.00    -0.385 OA
ATOM     18  H   UNL     1      14.757  17.374  73.340  1.00  0.00     0.211 HD
ENDBRANCH  12  17
BRANCH  14  19
ATOM     19  O   UNL     1      14.592  18.019  76.409  1.00  0.00    -0.387 OA
ATOM     20  H   UNL     1      14.435  17.939  77.383  1.00  0.00     0.211 HD
ENDBRANCH  14  19
BRANCH  15  21
ATOM     21  C   UNL     1      12.121  22.172  75.226  1.00  0.00     0.191 C 
BRANCH  21  22
ATOM     22  O   UNL     1      11.500  22.625  76.406  1.00  0.00    -0.394 OA
ATOM     23  H   UNL     1      12.199  22.721  77.107  1.00  0.00     0.210 HD
ENDBRANCH  21  22
ENDBRANCH  15  21
BRANCH  16  24
ATOM     24  O   UNL     1      13.375  20.478  77.271  1.00  0.00    -0.387 OA
ATOM     25  H   UNL     1      12.470  20.840  77.450  1.00  0.00     0.211 HD
ENDBRANCH  16  24
ENDBRANCH  10  11
ENDBRANCH   4  10
BRANCH   6  26
ATOM     26  O   UNL     1       9.287  21.104  69.846  1.00  0.00    -0.346 OA
BRANCH  26  27
ATOM     27  C   UNL     1       9.371  22.521  69.989  1.00  0.00     0.130 C 
ATOM     28  C   UNL     1       8.796  23.126  68.682  1.00  0.00     0.033 C 
ATOM     29  C   UNL     1       8.638  23.023  71.322  1.00  0.00     0.020 C 
ATOM     30  C   UNL     1       7.348  23.595  68.797  1.00  0.00     0.010 C 
ATOM     31  C   UNL     1       8.014  24.491  71.128  1.00  0.00     0.006 C 
ATOM     32  C   UNL     1       7.566  21.972  71.757  1.00  0.00     0.017 C 
ATOM     33  C   UNL     1       7.190  24.781  69.784  1.00  0.00    -0.022 C 
ATOM     34  C   UNL     1       7.423  25.149  72.420  1.00  0.00     0.005 C 
ATOM     35  C   UNL     1       7.882  26.020  69.084  1.00  0.00     0.012 C 
ATOM     36  C   UNL     1       5.634  25.182  69.967  1.00  0.00     0.024 C 
ATOM     37  C   UNL     1       6.252  26.134  72.204  1.00  0.00     0.008 C 
ATOM     38  C   UNL     1       5.097  25.499  71.400  1.00  0.00    -0.017 C 
ATOM     39  C   UNL     1       4.516  24.400  69.245  1.00  0.00    -0.024 C 
ATOM     40  C   UNL     1       4.717  24.126  72.077  1.00  0.00     0.013 C 
ATOM     41  C   UNL     1       3.760  26.454  71.290  1.00  0.00     0.009 C 
ATOM     42  C   UNL     1       3.242  24.872  69.330  1.00  0.00     0.005 C 
ATOM     43  C   UNL     1       3.053  26.291  69.848  1.00  0.00     0.096 C 
ATOM     44  C   UNL     1       4.030  27.996  71.431  1.00  0.00     0.043 C 
ATOM     45  C   UNL     1       2.811  26.098  72.500  1.00  0.00     0.015 C 
ATOM     46  C   UNL     1       1.618  26.878  69.913  1.00  0.00     0.037 C 
ATOM     47  O   UNL     1       3.720  27.097  68.863  1.00  0.00    -0.369 OA
ATOM     48  C   UNL     1       2.786  28.894  71.032  1.00  0.00     0.124 C 
ATOM     49  C   UNL     1       1.990  28.362  69.773  1.00  0.00     0.026 C 
ATOM     50  C   UNL     1       0.664  26.375  68.796  1.00  0.00     0.014 C 
ATOM     51  C   UNL     1       2.988  28.276  68.638  1.00  0.00     0.171 C 
ATOM     52  C   UNL     1       0.795  29.291  69.435  1.00  0.00     0.013 C 
ATOM     53  C   UNL     1      -0.590  27.271  68.619  1.00  0.00    -0.035 C 
ATOM     54  C   UNL     1      -0.149  28.733  68.351  1.00  0.00     0.007 C 
ATOM     55  C   UNL     1      -1.395  26.762  67.398  1.00  0.00     0.011 C 
ATOM     56  C   UNL     1      -1.517  27.202  69.859  1.00  0.00     0.011 C 
BRANCH  29  57
ATOM     57  C   UNL     1       9.691  23.113  72.482  1.00  0.00     0.165 C 
BRANCH  57  58
ATOM     58  O   UNL     1      10.966  22.702  72.080  1.00  0.00    -0.396 OA
ATOM     59  H   UNL     1      10.947  21.704  72.020  1.00  0.00     0.210 HD
ENDBRANCH  57  58
ENDBRANCH  29  57
BRANCH  48  60
ATOM     60  O   UNL     1       1.918  29.072  72.125  1.00  0.00    -0.392 OA
ATOM     61  H   UNL     1       2.489  29.320  72.903  1.00  0.00     0.210 HD
ENDBRANCH  48  60
ENDBRANCH  26  27
ENDBRANCH   6  26
BRANCH   5  62
ATOM     62  O   UNL     1       9.625  18.574  70.851  1.00  0.00    -0.385 OA
ATOM     63  H   UNL     1       9.842  17.631  71.068  1.00  0.00     0.211 HD
ENDBRANCH   5  62
TORSDOF 14
ENDMDL
