MODEL 1
REMARK VINA RESULT:    -5.116      0.000      0.000
REMARK INTER + INTRA:          -5.616
REMARK INTER:                  -5.565
REMARK INTRA:                  -0.051
REMARK UNBOUND:                -0.051
REMARK SMILES CCc1cccc(O)c1
REMARK SMILES IDX 3 1 9 2 7 3 6 4 5 5 4 6 2 7 1 8 8 9
REMARK H PARENT 8 10
REMARK Flexibility Score: inf
ROOT
ATOM      1  C   UNL     1      10.712   0.633  34.979  1.00  0.00    -0.045 A 
ATOM      2  C   UNL     1      10.513   1.387  36.147  1.00  0.00     0.049 A 
ATOM      3  C   UNL     1       9.221   1.560  36.666  1.00  0.00     0.115 A 
ATOM      4  C   UNL     1       8.129   0.971  36.021  1.00  0.00     0.046 A 
ATOM      5  C   UNL     1       8.323   0.209  34.866  1.00  0.00     0.004 A 
ATOM      6  C   UNL     1       9.610   0.035  34.348  1.00  0.00     0.004 A 
ENDROOT
BRANCH   1   7
ATOM      7  C   UNL     1      12.102   0.419  34.441  1.00  0.00     0.032 C 
ATOM      8  C   UNL     1      13.135   1.119  35.318  1.00  0.00     0.009 C 
ENDBRANCH   1   7
BRANCH   3   9
ATOM      9  O   UNL     1       9.014   2.311  37.821  1.00  0.00    -0.508 OA
ATOM     10  H   UNL     1       8.533   1.925  38.624  1.00  0.00     0.293 HD
ENDBRANCH   3   9
TORSDOF 2
ENDMDL
MODEL 2
REMARK VINA RESULT:    -4.891     17.728     18.143
REMARK INTER + INTRA:          -5.371
REMARK INTER:                  -5.317
REMARK INTRA:                  -0.055
REMARK UNBOUND:                -0.051
REMARK SMILES CCc1cccc(O)c1
REMARK SMILES IDX 3 1 9 2 7 3 6 4 5 5 4 6 2 7 1 8 8 9
REMARK H PARENT 8 10
REMARK Flexibility Score: inf
ROOT
ATOM      1  C   UNL     1      12.107 -11.175  49.043  1.00  0.00    -0.045 A 
ATOM      2  C   UNL     1      11.943 -10.723  47.723  1.00  0.00     0.049 A 
ATOM      3  C   UNL     1      12.756 -11.226  46.697  1.00  0.00     0.115 A 
ATOM      4  C   UNL     1      13.728 -12.188  46.989  1.00  0.00     0.046 A 
ATOM      5  C   UNL     1      13.886 -12.652  48.298  1.00  0.00     0.004 A 
ATOM      6  C   UNL     1      13.076 -12.152  49.322  1.00  0.00     0.004 A 
ENDROOT
BRANCH   1   7
ATOM      7  C   UNL     1      11.212 -10.660  50.139  1.00  0.00     0.032 C 
ATOM      8  C   UNL     1      11.972  -9.704  51.053  1.00  0.00     0.009 C 
ENDBRANCH   1   7
BRANCH   3   9
ATOM      9  O   UNL     1      12.604 -10.778  45.387  1.00  0.00    -0.508 OA
ATOM     10  H   UNL     1      12.977  -9.885  45.087  1.00  0.00     0.293 HD
ENDBRANCH   3   9
TORSDOF 2
ENDMDL
MODEL 3
REMARK VINA RESULT:    -4.859      1.741      3.540
REMARK INTER + INTRA:          -5.337
REMARK INTER:                  -5.264
REMARK INTRA:                  -0.073
REMARK UNBOUND:                -0.051
REMARK SMILES CCc1cccc(O)c1
REMARK SMILES IDX 3 1 9 2 7 3 6 4 5 5 4 6 2 7 1 8 8 9
REMARK H PARENT 8 10
REMARK Flexibility Score: inf
ROOT
ATOM      1  C   UNL     1       9.476   0.776  35.528  1.00  0.00    -0.045 A 
ATOM      2  C   UNL     1      10.638   1.335  36.086  1.00  0.00     0.049 A 
ATOM      3  C   UNL     1      11.887   1.111  35.491  1.00  0.00     0.115 A 
ATOM      4  C   UNL     1      11.975   0.335  34.331  1.00  0.00     0.046 A 
ATOM      5  C   UNL     1      10.821  -0.212  33.763  1.00  0.00     0.004 A 
ATOM      6  C   UNL     1       9.574   0.011  34.355  1.00  0.00     0.004 A 
ENDROOT
BRANCH   1   7
ATOM      7  C   UNL     1       8.130   1.044  36.149  1.00  0.00     0.032 C 
ATOM      8  C   UNL     1       7.123  -0.023  35.736  1.00  0.00     0.009 C 
ENDBRANCH   1   7
BRANCH   3   9
ATOM      9  O   UNL     1      13.045   1.656  36.042  1.00  0.00    -0.508 OA
ATOM     10  H   UNL     1      13.173   1.721  37.045  1.00  0.00     0.293 HD
ENDBRANCH   3   9
TORSDOF 2
ENDMDL
MODEL 4
REMARK VINA RESULT:    -4.733      6.793      8.455
REMARK INTER + INTRA:          -5.200
REMARK INTER:                  -5.128
REMARK INTRA:                  -0.071
REMARK UNBOUND:                -0.051
REMARK SMILES CCc1cccc(O)c1
REMARK SMILES IDX 3 1 9 2 7 3 6 4 5 5 4 6 2 7 1 8 8 9
REMARK H PARENT 8 10
REMARK Flexibility Score: inf
ROOT
ATOM      1  C   UNL     1       3.118  -0.956  38.442  1.00  0.00    -0.045 A 
ATOM      2  C   UNL     1       2.634  -0.775  39.748  1.00  0.00     0.049 A 
ATOM      3  C   UNL     1       2.430  -1.880  40.587  1.00  0.00     0.115 A 
ATOM      4  C   UNL     1       2.720  -3.167  40.123  1.00  0.00     0.046 A 
ATOM      5  C   UNL     1       3.215  -3.352  38.830  1.00  0.00     0.004 A 
ATOM      6  C   UNL     1       3.420  -2.251  37.992  1.00  0.00     0.004 A 
ENDROOT
BRANCH   1   7
ATOM      7  C   UNL     1       3.369   0.233  37.553  1.00  0.00     0.032 C 
ATOM      8  C   UNL     1       4.661   0.055  36.763  1.00  0.00     0.009 C 
ENDBRANCH   1   7
BRANCH   3   9
ATOM      9  O   UNL     1       1.943  -1.710  41.881  1.00  0.00    -0.508 OA
ATOM     10  H   UNL     1       1.485  -0.852  42.165  1.00  0.00     0.293 HD
ENDBRANCH   3   9
TORSDOF 2
ENDMDL
MODEL 5
REMARK VINA RESULT:    -4.721     17.518     17.900
REMARK INTER + INTRA:          -5.187
REMARK INTER:                  -5.139
REMARK INTRA:                  -0.047
REMARK UNBOUND:                -0.051
REMARK SMILES CCc1cccc(O)c1
REMARK SMILES IDX 3 1 9 2 7 3 6 4 5 5 4 6 2 7 1 8 8 9
REMARK H PARENT 8 10
REMARK Flexibility Score: inf
ROOT
ATOM      1  C   UNL     1      11.427 -10.934  47.508  1.00  0.00    -0.045 A 
ATOM      2  C   UNL     1      11.961 -10.863  48.806  1.00  0.00     0.049 A 
ATOM      3  C   UNL     1      13.124 -11.574  49.132  1.00  0.00     0.115 A 
ATOM      4  C   UNL     1      13.761 -12.350  48.158  1.00  0.00     0.046 A 
ATOM      5  C   UNL     1      13.242 -12.414  46.862  1.00  0.00     0.004 A 
ATOM      6  C   UNL     1      12.083 -11.705  46.535  1.00  0.00     0.004 A 
ENDROOT
BRANCH   1   7
ATOM      7  C   UNL     1      10.197 -10.144  47.149  1.00  0.00     0.032 C 
ATOM      8  C   UNL     1       8.935 -10.874  47.598  1.00  0.00     0.009 C 
ENDBRANCH   1   7
BRANCH   3   9
ATOM      9  O   UNL     1      13.656 -11.515  50.419  1.00  0.00    -0.508 OA
ATOM     10  H   UNL     1      13.386 -12.180  51.134  1.00  0.00     0.293 HD
ENDBRANCH   3   9
TORSDOF 2
ENDMDL
MODEL 6
REMARK VINA RESULT:    -4.718      2.305      3.977
REMARK INTER + INTRA:          -5.183
REMARK INTER:                  -5.123
REMARK INTRA:                  -0.059
REMARK UNBOUND:                -0.051
REMARK SMILES CCc1cccc(O)c1
REMARK SMILES IDX 3 1 9 2 7 3 6 4 5 5 4 6 2 7 1 8 8 9
REMARK H PARENT 8 10
REMARK Flexibility Score: inf
ROOT
ATOM      1  C   UNL     1       9.651   0.671  34.494  1.00  0.00    -0.045 A 
ATOM      2  C   UNL     1      10.794  -0.041  34.095  1.00  0.00     0.049 A 
ATOM      3  C   UNL     1      12.069   0.384  34.497  1.00  0.00     0.115 A 
ATOM      4  C   UNL     1      12.200   1.516  35.307  1.00  0.00     0.046 A 
ATOM      5  C   UNL     1      11.065   2.221  35.718  1.00  0.00     0.004 A 
ATOM      6  C   UNL     1       9.794   1.798  35.319  1.00  0.00     0.004 A 
ENDROOT
BRANCH   1   7
ATOM      7  C   UNL     1       8.281   0.196  34.089  1.00  0.00     0.032 C 
ATOM      8  C   UNL     1       7.548  -0.415  35.279  1.00  0.00     0.009 C 
ENDBRANCH   1   7
BRANCH   3   9
ATOM      9  O   UNL     1      13.208  -0.313  34.100  1.00  0.00    -0.508 OA
ATOM     10  H   UNL     1      14.044   0.171  33.795  1.00  0.00     0.293 HD
ENDBRANCH   3   9
TORSDOF 2
ENDMDL
MODEL 7
REMARK VINA RESULT:    -4.672      6.055      7.055
REMARK INTER + INTRA:          -5.133
REMARK INTER:                  -5.082
REMARK INTRA:                  -0.051
REMARK UNBOUND:                -0.051
REMARK SMILES CCc1cccc(O)c1
REMARK SMILES IDX 3 1 9 2 7 3 6 4 5 5 4 6 2 7 1 8 8 9
REMARK H PARENT 8 10
REMARK Flexibility Score: inf
ROOT
ATOM      1  C   UNL     1       4.133  -2.577  37.332  1.00  0.00    -0.045 A 
ATOM      2  C   UNL     1       4.845  -1.531  36.720  1.00  0.00     0.049 A 
ATOM      3  C   UNL     1       4.499  -0.196  36.974  1.00  0.00     0.115 A 
ATOM      4  C   UNL     1       3.446   0.095  37.847  1.00  0.00     0.046 A 
ATOM      5  C   UNL     1       2.743  -0.941  38.469  1.00  0.00     0.004 A 
ATOM      6  C   UNL     1       3.087  -2.272  38.218  1.00  0.00     0.004 A 
ENDROOT
BRANCH   1   7
ATOM      7  C   UNL     1       4.526  -4.009  37.085  1.00  0.00     0.032 C 
ATOM      8  C   UNL     1       5.546  -4.103  35.956  1.00  0.00     0.009 C 
ENDBRANCH   1   7
BRANCH   3   9
ATOM      9  O   UNL     1       5.196   0.846  36.366  1.00  0.00    -0.508 OA
ATOM     10  H   UNL     1       6.056   0.681  35.858  1.00  0.00     0.293 HD
ENDBRANCH   3   9
TORSDOF 2
ENDMDL
MODEL 8
REMARK VINA RESULT:    -4.656      1.943      2.497
REMARK INTER + INTRA:          -5.116
REMARK INTER:                  -5.069
REMARK INTRA:                  -0.047
REMARK UNBOUND:                -0.051
REMARK SMILES CCc1cccc(O)c1
REMARK SMILES IDX 3 1 9 2 7 3 6 4 5 5 4 6 2 7 1 8 8 9
REMARK H PARENT 8 10
REMARK Flexibility Score: inf
ROOT
ATOM      1  C   UNL     1      10.705   1.001  34.742  1.00  0.00    -0.045 A 
ATOM      2  C   UNL     1       9.982  -0.023  34.108  1.00  0.00     0.049 A 
ATOM      3  C   UNL     1       8.710  -0.385  34.576  1.00  0.00     0.115 A 
ATOM      4  C   UNL     1       8.157   0.284  35.672  1.00  0.00     0.046 A 
ATOM      5  C   UNL     1       8.866   1.313  36.298  1.00  0.00     0.004 A 
ATOM      6  C   UNL     1      10.134   1.675  35.832  1.00  0.00     0.004 A 
ENDROOT
BRANCH   1   7
ATOM      7  C   UNL     1      12.056   1.412  34.220  1.00  0.00     0.032 C 
ATOM      8  C   UNL     1      13.128   0.417  34.652  1.00  0.00     0.009 C 
ENDBRANCH   1   7
BRANCH   3   9
ATOM      9  O   UNL     1       7.989  -1.404  33.957  1.00  0.00    -0.508 OA
ATOM     10  H   UNL     1       8.041  -2.362  34.284  1.00  0.00     0.293 HD
ENDBRANCH   3   9
TORSDOF 2
ENDMDL
MODEL 9
REMARK VINA RESULT:    -4.632      3.942      6.193
REMARK INTER + INTRA:          -5.090
REMARK INTER:                  -5.015
REMARK INTRA:                  -0.075
REMARK UNBOUND:                -0.051
REMARK SMILES CCc1cccc(O)c1
REMARK SMILES IDX 3 1 9 2 7 3 6 4 5 5 4 6 2 7 1 8 8 9
REMARK H PARENT 8 10
REMARK Flexibility Score: inf
ROOT
ATOM      1  C   UNL     1       4.698  -0.487  36.892  1.00  0.00    -0.045 A 
ATOM      2  C   UNL     1       5.659   0.394  36.368  1.00  0.00     0.049 A 
ATOM      3  C   UNL     1       6.816  -0.105  35.753  1.00  0.00     0.115 A 
ATOM      4  C   UNL     1       7.009  -1.487  35.654  1.00  0.00     0.046 A 
ATOM      5  C   UNL     1       6.051  -2.368  36.162  1.00  0.00     0.004 A 
ATOM      6  C   UNL     1       4.896  -1.872  36.774  1.00  0.00     0.004 A 
ENDROOT
BRANCH   1   7
ATOM      7  C   UNL     1       3.440   0.049  37.522  1.00  0.00     0.032 C 
ATOM      8  C   UNL     1       2.715  -1.046  38.297  1.00  0.00     0.009 C 
ENDBRANCH   1   7
BRANCH   3   9
ATOM      9  O   UNL     1       7.777   0.762  35.237  1.00  0.00    -0.508 OA
ATOM     10  H   UNL     1       8.675   0.885  35.689  1.00  0.00     0.293 HD
ENDBRANCH   3   9
TORSDOF 2
ENDMDL
