MODEL 1
REMARK VINA RESULT:    -5.812      0.000      0.000
REMARK INTER + INTRA:          -7.426
REMARK INTER:                  -7.001
REMARK INTRA:                  -0.425
REMARK UNBOUND:                -0.425
REMARK SMILES O=c1c(O)c(-c2ccc(O)cc2O)oc2cc(O)cc(O)c12
REMARK SMILES IDX 5 1 3 2 2 3 1 4 22 5 20 6 19 7 17 8 16 9 15 10 14 11 6 12
REMARK SMILES IDX 8 13 7 14 9 15 11 16 12 17 10 18 13 20 4 22 21 24 18 26
REMARK H PARENT 10 19 13 21 4 23 21 25 18 27
REMARK Flexibility Score: inf
ROOT
ATOM      1  C   UNL     1       0.246 -18.327  -7.707  1.00  0.00     0.184 A 
ATOM      2  C   UNL     1       1.447 -18.945  -7.325  1.00  0.00     0.208 A 
ATOM      3  C   UNL     1       1.713 -20.249  -7.771  1.00  0.00     0.238 A 
ATOM      4  O   UNL     1       2.823 -20.769  -7.487  1.00  0.00    -0.285 OA
ATOM      5  C   UNL     1       0.749 -20.939  -8.548  1.00  0.00     0.111 A 
ATOM      6  C   UNL     1       0.893 -22.280  -9.018  1.00  0.00     0.134 A 
ATOM      7  C   UNL     1      -0.080 -22.821  -9.867  1.00  0.00     0.093 A 
ATOM      8  C   UNL     1      -1.221 -22.097 -10.211  1.00  0.00     0.123 A 
ATOM      9  C   UNL     1      -1.398 -20.807  -9.714  1.00  0.00     0.094 A 
ATOM     10  C   UNL     1      -0.428 -20.224  -8.895  1.00  0.00     0.146 A 
ATOM     11  O   UNL     1      -0.626 -18.985  -8.461  1.00  0.00    -0.451 OA
ENDROOT
BRANCH   1  12
ATOM     12  C   UNL     1      -0.093 -16.954  -7.279  1.00  0.00     0.063 A 
ATOM     13  C   UNL     1      -0.988 -15.472  -5.573  1.00  0.00     0.047 A 
ATOM     14  C   UNL     1      -0.651 -16.757  -6.007  1.00  0.00     0.020 A 
ATOM     15  C   UNL     1      -0.783 -14.370  -6.412  1.00  0.00     0.119 A 
ATOM     16  C   UNL     1      -0.249 -14.560  -7.689  1.00  0.00     0.093 A 
ATOM     17  C   UNL     1       0.087 -15.847  -8.135  1.00  0.00     0.130 A 
BRANCH  15  18
ATOM     18  O   UNL     1      -1.111 -13.084  -5.988  1.00  0.00    -0.508 OA
ATOM     19  H   UNL     1      -0.958 -12.787  -5.031  1.00  0.00     0.293 HD
ENDBRANCH  15  18
BRANCH  17  20
ATOM     20  O   UNL     1       0.574 -16.028  -9.429  1.00  0.00    -0.507 OA
ATOM     21  H   UNL     1       1.453 -15.623  -9.728  1.00  0.00     0.293 HD
ENDBRANCH  17  20
ENDBRANCH   1  12
BRANCH   2  22
ATOM     22  O   UNL     1       2.349 -18.269  -6.500  1.00  0.00    -0.502 OA
ATOM     23  H   UNL     1       2.150 -18.069  -5.527  1.00  0.00     0.293 HD
ENDBRANCH   2  22
BRANCH   6  24
ATOM     24  O   UNL     1       1.949 -23.125  -8.664  1.00  0.00    -0.507 OA
ATOM     25  H   UNL     1       2.574 -23.573  -9.317  1.00  0.00     0.293 HD
ENDBRANCH   6  24
BRANCH   8  26
ATOM     26  O   UNL     1      -2.176 -22.675 -11.044  1.00  0.00    -0.508 OA
ATOM     27  H   UNL     1      -2.245 -22.428 -12.024  1.00  0.00     0.293 HD
ENDBRANCH   8  26
TORSDOF 6
ENDMDL
MODEL 2
REMARK VINA RESULT:    -5.592      3.688      5.799
REMARK INTER + INTRA:          -7.162
REMARK INTER:                  -6.751
REMARK INTRA:                  -0.411
REMARK UNBOUND:                -0.425
REMARK SMILES O=c1c(O)c(-c2ccc(O)cc2O)oc2cc(O)cc(O)c12
REMARK SMILES IDX 5 1 3 2 2 3 1 4 22 5 20 6 19 7 17 8 16 9 15 10 14 11 6 12
REMARK SMILES IDX 8 13 7 14 9 15 11 16 12 17 10 18 13 20 4 22 21 24 18 26
REMARK H PARENT 10 19 13 21 4 23 21 25 18 27
REMARK Flexibility Score: inf
ROOT
ATOM      1  C   UNL     1      -0.630 -14.617  -5.141  1.00  0.00     0.184 A 
ATOM      2  C   UNL     1      -0.588 -14.836  -6.527  1.00  0.00     0.208 A 
ATOM      3  C   UNL     1       0.211 -15.875  -7.028  1.00  0.00     0.238 A 
ATOM      4  O   UNL     1       0.187 -16.112  -8.263  1.00  0.00    -0.285 OA
ATOM      5  C   UNL     1       1.001 -16.647  -6.141  1.00  0.00     0.111 A 
ATOM      6  C   UNL     1       1.883 -17.697  -6.541  1.00  0.00     0.134 A 
ATOM      7  C   UNL     1       2.534 -18.461  -5.565  1.00  0.00     0.093 A 
ATOM      8  C   UNL     1       2.387 -18.175  -4.209  1.00  0.00     0.123 A 
ATOM      9  C   UNL     1       1.572 -17.117  -3.808  1.00  0.00     0.094 A 
ATOM     10  C   UNL     1       0.878 -16.360  -4.755  1.00  0.00     0.146 A 
ATOM     11  O   UNL     1       0.096 -15.375  -4.329  1.00  0.00    -0.451 OA
ENDROOT
BRANCH   1  12
ATOM     12  C   UNL     1      -1.457 -13.546  -4.548  1.00  0.00     0.063 A 
ATOM     13  C   UNL     1      -3.658 -12.729  -3.918  1.00  0.00     0.047 A 
ATOM     14  C   UNL     1      -2.847 -13.725  -4.468  1.00  0.00     0.020 A 
ATOM     15  C   UNL     1      -3.091 -11.536  -3.454  1.00  0.00     0.119 A 
ATOM     16  C   UNL     1      -1.710 -11.340  -3.551  1.00  0.00     0.093 A 
ATOM     17  C   UNL     1      -0.889 -12.332  -4.107  1.00  0.00     0.130 A 
BRANCH  15  18
ATOM     18  O   UNL     1      -3.890 -10.538  -2.899  1.00  0.00    -0.508 OA
ATOM     19  H   UNL     1      -4.449  -9.924  -3.480  1.00  0.00     0.293 HD
ENDBRANCH  15  18
BRANCH  17  20
ATOM     20  O   UNL     1       0.480 -12.104  -4.242  1.00  0.00    -0.507 OA
ATOM     21  H   UNL     1       0.841 -11.382  -4.855  1.00  0.00     0.293 HD
ENDBRANCH  17  20
ENDBRANCH   1  12
BRANCH   2  22
ATOM     22  O   UNL     1      -1.322 -14.015  -7.387  1.00  0.00    -0.502 OA
ATOM     23  H   UNL     1      -2.317 -13.862  -7.275  1.00  0.00     0.293 HD
ENDBRANCH   2  22
BRANCH   6  24
ATOM     24  O   UNL     1       2.172 -18.011  -7.872  1.00  0.00    -0.507 OA
ATOM     25  H   UNL     1       1.958 -18.891  -8.319  1.00  0.00     0.293 HD
ENDBRANCH   6  24
BRANCH   8  26
ATOM     26  O   UNL     1       3.064 -18.946  -3.267  1.00  0.00    -0.508 OA
ATOM     27  H   UNL     1       2.758 -19.882  -3.028  1.00  0.00     0.293 HD
ENDBRANCH   8  26
TORSDOF 6
ENDMDL
MODEL 3
REMARK VINA RESULT:    -5.539      3.529      4.614
REMARK INTER + INTRA:          -7.097
REMARK INTER:                  -6.668
REMARK INTRA:                  -0.428
REMARK UNBOUND:                -0.425
REMARK SMILES O=c1c(O)c(-c2ccc(O)cc2O)oc2cc(O)cc(O)c12
REMARK SMILES IDX 5 1 3 2 2 3 1 4 22 5 20 6 19 7 17 8 16 9 15 10 14 11 6 12
REMARK SMILES IDX 8 13 7 14 9 15 11 16 12 17 10 18 13 20 4 22 21 24 18 26
REMARK H PARENT 10 19 13 21 4 23 21 25 18 27
REMARK Flexibility Score: inf
ROOT
ATOM      1  C   UNL     1       1.608 -17.184  -5.755  1.00  0.00     0.184 A 
ATOM      2  C   UNL     1       2.882 -16.651  -5.503  1.00  0.00     0.208 A 
ATOM      3  C   UNL     1       3.876 -17.488  -4.972  1.00  0.00     0.238 A 
ATOM      4  O   UNL     1       5.035 -17.024  -4.818  1.00  0.00    -0.285 OA
ATOM      5  C   UNL     1       3.567 -18.832  -4.649  1.00  0.00     0.111 A 
ATOM      6  C   UNL     1       4.484 -19.759  -4.066  1.00  0.00     0.134 A 
ATOM      7  C   UNL     1       4.097 -21.093  -3.888  1.00  0.00     0.093 A 
ATOM      8  C   UNL     1       2.810 -21.520  -4.211  1.00  0.00     0.123 A 
ATOM      9  C   UNL     1       1.889 -20.611  -4.730  1.00  0.00     0.094 A 
ATOM     10  C   UNL     1       2.255 -19.282  -4.955  1.00  0.00     0.146 A 
ATOM     11  O   UNL     1       1.354 -18.455  -5.472  1.00  0.00    -0.451 OA
ENDROOT
BRANCH   1  12
ATOM     12  C   UNL     1       0.519 -16.360  -6.319  1.00  0.00     0.063 A 
ATOM     13  C   UNL     1      -1.261 -14.743  -5.963  1.00  0.00     0.047 A 
ATOM     14  C   UNL     1      -0.221 -15.531  -5.462  1.00  0.00     0.020 A 
ATOM     15  C   UNL     1      -1.584 -14.786  -7.324  1.00  0.00     0.119 A 
ATOM     16  C   UNL     1      -0.867 -15.627  -8.181  1.00  0.00     0.093 A 
ATOM     17  C   UNL     1       0.175 -16.425  -7.686  1.00  0.00     0.130 A 
BRANCH  15  18
ATOM     18  O   UNL     1      -2.616 -14.002  -7.835  1.00  0.00    -0.508 OA
ATOM     19  H   UNL     1      -2.446 -13.066  -8.184  1.00  0.00     0.293 HD
ENDBRANCH  15  18
BRANCH  17  20
ATOM     20  O   UNL     1       0.849 -17.295  -8.543  1.00  0.00    -0.507 OA
ATOM     21  H   UNL     1       1.071 -18.245  -8.269  1.00  0.00     0.293 HD
ENDBRANCH  17  20
ENDBRANCH   1  12
BRANCH   2  22
ATOM     22  O   UNL     1       3.140 -15.303  -5.764  1.00  0.00    -0.502 OA
ATOM     23  H   UNL     1       3.008 -14.893  -6.681  1.00  0.00     0.293 HD
ENDBRANCH   2  22
BRANCH   6  24
ATOM     24  O   UNL     1       5.766 -19.419  -3.624  1.00  0.00    -0.507 OA
ATOM     25  H   UNL     1       6.168 -18.495  -3.671  1.00  0.00     0.293 HD
ENDBRANCH   6  24
BRANCH   8  26
ATOM     26  O   UNL     1       2.455 -22.851  -4.003  1.00  0.00    -0.508 OA
ATOM     27  H   UNL     1       2.537 -23.542  -4.739  1.00  0.00     0.293 HD
ENDBRANCH   8  26
TORSDOF 6
ENDMDL
MODEL 4
REMARK VINA RESULT:    -5.379      1.164      2.825
REMARK INTER + INTRA:          -6.905
REMARK INTER:                  -6.496
REMARK INTRA:                  -0.409
REMARK UNBOUND:                -0.425
REMARK SMILES O=c1c(O)c(-c2ccc(O)cc2O)oc2cc(O)cc(O)c12
REMARK SMILES IDX 5 1 3 2 2 3 1 4 22 5 20 6 19 7 17 8 16 9 15 10 14 11 6 12
REMARK SMILES IDX 8 13 7 14 9 15 11 16 12 17 10 18 13 20 4 22 21 24 18 26
REMARK H PARENT 10 19 13 21 4 23 21 25 18 27
REMARK Flexibility Score: inf
ROOT
ATOM      1  C   UNL     1      -0.536 -18.438  -8.033  1.00  0.00     0.184 A 
ATOM      2  C   UNL     1      -1.671 -18.823  -8.763  1.00  0.00     0.208 A 
ATOM      3  C   UNL     1      -1.707 -20.102  -9.340  1.00  0.00     0.238 A 
ATOM      4  O   UNL     1      -2.756 -20.468  -9.930  1.00  0.00    -0.285 OA
ATOM      5  C   UNL     1      -0.584 -20.959  -9.225  1.00  0.00     0.111 A 
ATOM      6  C   UNL     1      -0.492 -22.260  -9.807  1.00  0.00     0.134 A 
ATOM      7  C   UNL     1       0.626 -23.058  -9.538  1.00  0.00     0.093 A 
ATOM      8  C   UNL     1       1.683 -22.582  -8.763  1.00  0.00     0.123 A 
ATOM      9  C   UNL     1       1.628 -21.293  -8.235  1.00  0.00     0.094 A 
ATOM     10  C   UNL     1       0.510 -20.485  -8.453  1.00  0.00     0.146 A 
ATOM     11  O   UNL     1       0.489 -19.271  -7.915  1.00  0.00    -0.451 OA
ENDROOT
BRANCH   1  12
ATOM     12  C   UNL     1      -0.437 -17.109  -7.394  1.00  0.00     0.063 A 
ATOM     13  C   UNL     1      -0.857 -15.698  -5.460  1.00  0.00     0.047 A 
ATOM     14  C   UNL     1      -0.930 -16.942  -6.091  1.00  0.00     0.020 A 
ATOM     15  C   UNL     1      -0.302 -14.601  -6.130  1.00  0.00     0.119 A 
ATOM     16  C   UNL     1       0.171 -14.752  -7.437  1.00  0.00     0.093 A 
ATOM     17  C   UNL     1       0.096 -15.997  -8.080  1.00  0.00     0.130 A 
BRANCH  15  18
ATOM     18  O   UNL     1      -0.220 -13.357  -5.509  1.00  0.00    -0.508 OA
ATOM     19  H   UNL     1       0.567 -13.110  -4.920  1.00  0.00     0.293 HD
ENDBRANCH  15  18
BRANCH  17  20
ATOM     20  O   UNL     1       0.526 -16.122  -9.401  1.00  0.00    -0.507 OA
ATOM     21  H   UNL     1      -0.102 -15.972 -10.181  1.00  0.00     0.293 HD
ENDBRANCH  17  20
ENDBRANCH   1  12
BRANCH   2  22
ATOM     22  O   UNL     1      -2.736 -17.932  -8.921  1.00  0.00    -0.502 OA
ATOM     23  H   UNL     1      -2.820 -17.323  -9.726  1.00  0.00     0.293 HD
ENDBRANCH   2  22
BRANCH   6  24
ATOM     24  O   UNL     1      -1.450 -22.802 -10.669  1.00  0.00    -0.507 OA
ATOM     25  H   UNL     1      -1.677 -22.440 -11.583  1.00  0.00     0.293 HD
ENDBRANCH   6  24
BRANCH   8  26
ATOM     26  O   UNL     1       2.787 -23.399  -8.531  1.00  0.00    -0.508 OA
ATOM     27  H   UNL     1       3.481 -23.166  -7.831  1.00  0.00     0.293 HD
ENDBRANCH   8  26
TORSDOF 6
ENDMDL
MODEL 5
REMARK VINA RESULT:    -5.366      1.808      7.071
REMARK INTER + INTRA:          -6.889
REMARK INTER:                  -6.892
REMARK INTRA:                   0.003
REMARK UNBOUND:                -0.425
REMARK SMILES O=c1c(O)c(-c2ccc(O)cc2O)oc2cc(O)cc(O)c12
REMARK SMILES IDX 5 1 3 2 2 3 1 4 22 5 20 6 19 7 17 8 16 9 15 10 14 11 6 12
REMARK SMILES IDX 8 13 7 14 9 15 11 16 12 17 10 18 13 20 4 22 21 24 18 26
REMARK H PARENT 10 19 13 21 4 23 21 25 18 27
REMARK Flexibility Score: inf
ROOT
ATOM      1  C   UNL     1      -0.907 -18.321  -7.965  1.00  0.00     0.184 A 
ATOM      2  C   UNL     1      -1.706 -17.332  -8.560  1.00  0.00     0.208 A 
ATOM      3  C   UNL     1      -1.890 -16.112  -7.891  1.00  0.00     0.238 A 
ATOM      4  O   UNL     1      -2.545 -15.204  -8.463  1.00  0.00    -0.285 OA
ATOM      5  C   UNL     1      -1.317 -15.918  -6.610  1.00  0.00     0.111 A 
ATOM      6  C   UNL     1      -1.473 -14.738  -5.820  1.00  0.00     0.134 A 
ATOM      7  C   UNL     1      -0.773 -14.618  -4.614  1.00  0.00     0.093 A 
ATOM      8  C   UNL     1       0.026 -15.655  -4.136  1.00  0.00     0.123 A 
ATOM      9  C   UNL     1       0.143 -16.834  -4.873  1.00  0.00     0.094 A 
ATOM     10  C   UNL     1      -0.512 -16.971  -6.098  1.00  0.00     0.146 A 
ATOM     11  O   UNL     1      -0.357 -18.102  -6.778  1.00  0.00    -0.451 OA
ENDROOT
BRANCH   1  12
ATOM     12  C   UNL     1      -0.667 -19.624  -8.618  1.00  0.00     0.063 A 
ATOM     13  C   UNL     1      -1.535 -21.488  -9.916  1.00  0.00     0.047 A 
ATOM     14  C   UNL     1      -1.726 -20.253  -9.292  1.00  0.00     0.020 A 
ATOM     15  C   UNL     1      -0.285 -22.117  -9.862  1.00  0.00     0.119 A 
ATOM     16  C   UNL     1       0.769 -21.509  -9.174  1.00  0.00     0.093 A 
ATOM     17  C   UNL     1       0.583 -20.272  -8.540  1.00  0.00     0.130 A 
BRANCH  15  18
ATOM     18  O   UNL     1      -0.082 -23.347 -10.484  1.00  0.00    -0.508 OA
ATOM     19  H   UNL     1       0.123 -24.183  -9.949  1.00  0.00     0.293 HD
ENDBRANCH  15  18
BRANCH  17  20
ATOM     20  O   UNL     1       1.630 -19.700  -7.815  1.00  0.00    -0.507 OA
ATOM     21  H   UNL     1       2.445 -19.313  -8.275  1.00  0.00     0.293 HD
ENDBRANCH  17  20
ENDBRANCH   1  12
BRANCH   2  22
ATOM     22  O   UNL     1      -2.318 -17.576  -9.792  1.00  0.00    -0.502 OA
ATOM     23  H   UNL     1      -1.866 -17.367 -10.674  1.00  0.00     0.293 HD
ENDBRANCH   2  22
BRANCH   6  24
ATOM     24  O   UNL     1      -2.316 -13.675  -6.159  1.00  0.00    -0.507 OA
ATOM     25  H   UNL     1      -3.244 -13.533  -5.790  1.00  0.00     0.293 HD
ENDBRANCH   6  24
BRANCH   8  26
ATOM     26  O   UNL     1       0.694 -15.506  -2.923  1.00  0.00    -0.508 OA
ATOM     27  H   UNL     1       1.136 -14.632  -2.665  1.00  0.00     0.293 HD
ENDBRANCH   8  26
TORSDOF 6
ENDMDL
MODEL 6
REMARK VINA RESULT:    -5.218      1.661      6.564
REMARK INTER + INTRA:          -6.711
REMARK INTER:                  -6.372
REMARK INTRA:                  -0.339
REMARK UNBOUND:                -0.425
REMARK SMILES O=c1c(O)c(-c2ccc(O)cc2O)oc2cc(O)cc(O)c12
REMARK SMILES IDX 5 1 3 2 2 3 1 4 22 5 20 6 19 7 17 8 16 9 15 10 14 11 6 12
REMARK SMILES IDX 8 13 7 14 9 15 11 16 12 17 10 18 13 20 4 22 21 24 18 26
REMARK H PARENT 10 19 13 21 4 23 21 25 18 27
REMARK Flexibility Score: inf
ROOT
ATOM      1  C   UNL     1      -1.024 -19.564  -8.813  1.00  0.00     0.184 A 
ATOM      2  C   UNL     1       0.252 -19.606  -8.229  1.00  0.00     0.208 A 
ATOM      3  C   UNL     1       0.767 -18.443  -7.635  1.00  0.00     0.238 A 
ATOM      4  O   UNL     1       1.878 -18.507  -7.050  1.00  0.00    -0.285 OA
ATOM      5  C   UNL     1       0.022 -17.239  -7.682  1.00  0.00     0.111 A 
ATOM      6  C   UNL     1       0.464 -15.989  -7.151  1.00  0.00     0.134 A 
ATOM      7  C   UNL     1      -0.404 -14.890  -7.161  1.00  0.00     0.093 A 
ATOM      8  C   UNL     1      -1.670 -14.975  -7.738  1.00  0.00     0.123 A 
ATOM      9  C   UNL     1      -2.091 -16.176  -8.308  1.00  0.00     0.094 A 
ATOM     10  C   UNL     1      -1.265 -17.302  -8.280  1.00  0.00     0.146 A 
ATOM     11  O   UNL     1      -1.714 -18.431  -8.815  1.00  0.00    -0.451 OA
ENDROOT
BRANCH   1  12
ATOM     12  C   UNL     1      -1.627 -20.754  -9.448  1.00  0.00     0.063 A 
ATOM     13  C   UNL     1      -1.538 -22.450 -11.187  1.00  0.00     0.047 A 
ATOM     14  C   UNL     1      -0.991 -21.328 -10.559  1.00  0.00     0.020 A 
ATOM     15  C   UNL     1      -2.736 -23.004 -10.719  1.00  0.00     0.119 A 
ATOM     16  C   UNL     1      -3.389 -22.424  -9.627  1.00  0.00     0.093 A 
ATOM     17  C   UNL     1      -2.849 -21.294  -8.995  1.00  0.00     0.130 A 
BRANCH  15  18
ATOM     18  O   UNL     1      -3.288 -24.125 -11.335  1.00  0.00    -0.508 OA
ATOM     19  H   UNL     1      -4.225 -24.109 -11.722  1.00  0.00     0.293 HD
ENDBRANCH  15  18
BRANCH  17  20
ATOM     20  O   UNL     1      -3.536 -20.697  -7.938  1.00  0.00    -0.507 OA
ATOM     21  H   UNL     1      -4.542 -20.578  -7.957  1.00  0.00     0.293 HD
ENDBRANCH  17  20
ENDBRANCH   1  12
BRANCH   2  22
ATOM     22  O   UNL     1       0.996 -20.788  -8.260  1.00  0.00    -0.502 OA
ATOM     23  H   UNL     1       0.712 -21.622  -7.760  1.00  0.00     0.293 HD
ENDBRANCH   2  22
BRANCH   6  24
ATOM     24  O   UNL     1       1.742 -15.767  -6.631  1.00  0.00    -0.507 OA
ATOM     25  H   UNL     1       2.438 -15.163  -7.042  1.00  0.00     0.293 HD
ENDBRANCH   6  24
BRANCH   8  26
ATOM     26  O   UNL     1      -2.499 -13.855  -7.745  1.00  0.00    -0.508 OA
ATOM     27  H   UNL     1      -2.233 -12.996  -7.280  1.00  0.00     0.293 HD
ENDBRANCH   8  26
TORSDOF 6
ENDMDL
MODEL 7
REMARK VINA RESULT:    -5.201      1.965      3.160
REMARK INTER + INTRA:          -6.690
REMARK INTER:                  -6.300
REMARK INTRA:                  -0.389
REMARK UNBOUND:                -0.425
REMARK SMILES O=c1c(O)c(-c2ccc(O)cc2O)oc2cc(O)cc(O)c12
REMARK SMILES IDX 5 1 3 2 2 3 1 4 22 5 20 6 19 7 17 8 16 9 15 10 14 11 6 12
REMARK SMILES IDX 8 13 7 14 9 15 11 16 12 17 10 18 13 20 4 22 21 24 18 26
REMARK H PARENT 10 19 13 21 4 23 21 25 18 27
REMARK Flexibility Score: inf
ROOT
ATOM      1  C   UNL     1       0.193 -16.860  -5.785  1.00  0.00     0.184 A 
ATOM      2  C   UNL     1       1.392 -17.088  -5.093  1.00  0.00     0.208 A 
ATOM      3  C   UNL     1       2.172 -18.204  -5.433  1.00  0.00     0.238 A 
ATOM      4  O   UNL     1       3.281 -18.362  -4.860  1.00  0.00    -0.285 OA
ATOM      5  C   UNL     1       1.715 -19.108  -6.423  1.00  0.00     0.111 A 
ATOM      6  C   UNL     1       2.402 -20.297  -6.818  1.00  0.00     0.134 A 
ATOM      7  C   UNL     1       1.907 -21.058  -7.883  1.00  0.00     0.093 A 
ATOM      8  C   UNL     1       0.719 -20.714  -8.526  1.00  0.00     0.123 A 
ATOM      9  C   UNL     1       0.011 -19.585  -8.112  1.00  0.00     0.094 A 
ATOM     10  C   UNL     1       0.497 -18.783  -7.078  1.00  0.00     0.146 A 
ATOM     11  O   UNL     1      -0.197 -17.706  -6.731  1.00  0.00    -0.451 OA
ENDROOT
BRANCH   1  12
ATOM     12  C   UNL     1      -0.672 -15.701  -5.482  1.00  0.00     0.063 A 
ATOM     13  C   UNL     1      -1.001 -13.293  -5.511  1.00  0.00     0.047 A 
ATOM     14  C   UNL     1      -0.212 -14.411  -5.790  1.00  0.00     0.020 A 
ATOM     15  C   UNL     1      -2.255 -13.449  -4.908  1.00  0.00     0.119 A 
ATOM     16  C   UNL     1      -2.712 -14.729  -4.578  1.00  0.00     0.093 A 
ATOM     17  C   UNL     1      -1.923 -15.856  -4.849  1.00  0.00     0.130 A 
BRANCH  15  18
ATOM     18  O   UNL     1      -3.053 -12.341  -4.630  1.00  0.00    -0.508 OA
ATOM     19  H   UNL     1      -2.795 -11.669  -3.917  1.00  0.00     0.293 HD
ENDBRANCH  15  18
BRANCH  17  20
ATOM     20  O   UNL     1      -2.369 -17.122  -4.470  1.00  0.00    -0.507 OA
ATOM     21  H   UNL     1      -1.798 -17.949  -4.604  1.00  0.00     0.293 HD
ENDBRANCH  17  20
ENDBRANCH   1  12
BRANCH   2  22
ATOM     22  O   UNL     1       1.785 -16.220  -4.071  1.00  0.00    -0.502 OA
ATOM     23  H   UNL     1       2.738 -15.893  -3.973  1.00  0.00     0.293 HD
ENDBRANCH   2  22
BRANCH   6  24
ATOM     24  O   UNL     1       3.551 -20.783  -6.187  1.00  0.00    -0.507 OA
ATOM     25  H   UNL     1       4.421 -20.994  -6.653  1.00  0.00     0.293 HD
ENDBRANCH   6  24
BRANCH   8  26
ATOM     26  O   UNL     1       0.247 -21.505  -9.570  1.00  0.00    -0.508 OA
ATOM     27  H   UNL     1      -0.744 -21.662  -9.711  1.00  0.00     0.293 HD
ENDBRANCH   8  26
TORSDOF 6
ENDMDL
MODEL 8
REMARK VINA RESULT:    -5.153      2.299      4.527
REMARK INTER + INTRA:          -6.632
REMARK INTER:                  -6.398
REMARK INTRA:                  -0.234
REMARK UNBOUND:                -0.425
REMARK SMILES O=c1c(O)c(-c2ccc(O)cc2O)oc2cc(O)cc(O)c12
REMARK SMILES IDX 5 1 3 2 2 3 1 4 22 5 20 6 19 7 17 8 16 9 15 10 14 11 6 12
REMARK SMILES IDX 8 13 7 14 9 15 11 16 12 17 10 18 13 20 4 22 21 24 18 26
REMARK H PARENT 10 19 13 21 4 23 21 25 18 27
REMARK Flexibility Score: inf
ROOT
ATOM      1  C   UNL     1      -1.407 -15.696  -6.407  1.00  0.00     0.184 A 
ATOM      2  C   UNL     1      -2.275 -15.903  -7.491  1.00  0.00     0.208 A 
ATOM      3  C   UNL     1      -2.175 -17.094  -8.226  1.00  0.00     0.238 A 
ATOM      4  O   UNL     1      -3.004 -17.304  -9.148  1.00  0.00    -0.285 OA
ATOM      5  C   UNL     1      -1.171 -18.040  -7.901  1.00  0.00     0.111 A 
ATOM      6  C   UNL     1      -0.948 -19.262  -8.605  1.00  0.00     0.134 A 
ATOM      7  C   UNL     1       0.006 -20.169  -8.128  1.00  0.00     0.093 A 
ATOM      8  C   UNL     1       0.789 -19.873  -7.014  1.00  0.00     0.123 A 
ATOM      9  C   UNL     1       0.618 -18.658  -6.351  1.00  0.00     0.094 A 
ATOM     10  C   UNL     1      -0.352 -17.748  -6.778  1.00  0.00     0.146 A 
ATOM     11  O   UNL     1      -0.496 -16.612  -6.105  1.00  0.00    -0.451 OA
ENDROOT
BRANCH   1  12
ATOM     12  C   UNL     1      -1.465 -14.468  -5.587  1.00  0.00     0.063 A 
ATOM     13  C   UNL     1      -0.347 -12.484  -4.738  1.00  0.00     0.047 A 
ATOM     14  C   UNL     1      -0.328 -13.649  -5.509  1.00  0.00     0.020 A 
ATOM     15  C   UNL     1      -1.499 -12.130  -4.025  1.00  0.00     0.119 A 
ATOM     16  C   UNL     1      -2.628 -12.953  -4.080  1.00  0.00     0.093 A 
ATOM     17  C   UNL     1      -2.616 -14.127  -4.846  1.00  0.00     0.130 A 
BRANCH  15  18
ATOM     18  O   UNL     1      -1.530 -10.969  -3.257  1.00  0.00    -0.508 OA
ATOM     19  H   UNL     1      -1.004 -10.144  -3.523  1.00  0.00     0.293 HD
ENDBRANCH  15  18
BRANCH  17  20
ATOM     20  O   UNL     1      -3.732 -14.963  -4.852  1.00  0.00    -0.507 OA
ATOM     21  H   UNL     1      -3.645 -15.966  -4.969  1.00  0.00     0.293 HD
ENDBRANCH  17  20
ENDBRANCH   1  12
BRANCH   2  22
ATOM     22  O   UNL     1      -3.210 -14.922  -7.834  1.00  0.00    -0.502 OA
ATOM     23  H   UNL     1      -3.215 -14.471  -8.740  1.00  0.00     0.293 HD
ENDBRANCH   2  22
BRANCH   6  24
ATOM     24  O   UNL     1      -1.612 -19.620  -9.782  1.00  0.00    -0.507 OA
ATOM     25  H   UNL     1      -1.366 -19.298 -10.707  1.00  0.00     0.293 HD
ENDBRANCH   6  24
BRANCH   8  26
ATOM     26  O   UNL     1       1.741 -20.792  -6.579  1.00  0.00    -0.508 OA
ATOM     27  H   UNL     1       1.473 -21.672  -6.154  1.00  0.00     0.293 HD
ENDBRANCH   8  26
TORSDOF 6
ENDMDL
MODEL 9
REMARK VINA RESULT:    -5.068      1.894      6.964
REMARK INTER + INTRA:          -6.531
REMARK INTER:                  -6.124
REMARK INTRA:                  -0.406
REMARK UNBOUND:                -0.425
REMARK SMILES O=c1c(O)c(-c2ccc(O)cc2O)oc2cc(O)cc(O)c12
REMARK SMILES IDX 5 1 3 2 2 3 1 4 22 5 20 6 19 7 17 8 16 9 15 10 14 11 6 12
REMARK SMILES IDX 8 13 7 14 9 15 11 16 12 17 10 18 13 20 4 22 21 24 18 26
REMARK H PARENT 10 19 13 21 4 23 21 25 18 27
REMARK Flexibility Score: inf
ROOT
ATOM      1  C   UNL     1      -1.050 -17.738  -7.659  1.00  0.00     0.184 A 
ATOM      2  C   UNL     1      -0.368 -16.595  -8.105  1.00  0.00     0.208 A 
ATOM      3  C   UNL     1      -0.543 -15.386  -7.415  1.00  0.00     0.238 A 
ATOM      4  O   UNL     1       0.128 -14.384  -7.775  1.00  0.00    -0.285 OA
ATOM      5  C   UNL     1      -1.440 -15.323  -6.320  1.00  0.00     0.111 A 
ATOM      6  C   UNL     1      -1.729 -14.140  -5.574  1.00  0.00     0.134 A 
ATOM      7  C   UNL     1      -2.553 -14.221  -4.445  1.00  0.00     0.093 A 
ATOM      8  C   UNL     1      -3.149 -15.424  -4.071  1.00  0.00     0.123 A 
ATOM      9  C   UNL     1      -2.918 -16.575  -4.825  1.00  0.00     0.094 A 
ATOM     10  C   UNL     1      -2.071 -16.536  -5.935  1.00  0.00     0.146 A 
ATOM     11  O   UNL     1      -1.861 -17.659  -6.612  1.00  0.00    -0.451 OA
ENDROOT
BRANCH   1  12
ATOM     12  C   UNL     1      -0.905 -19.044  -8.336  1.00  0.00     0.063 A 
ATOM     13  C   UNL     1       0.468 -20.990  -8.821  1.00  0.00     0.047 A 
ATOM     14  C   UNL     1       0.296 -19.756  -8.190  1.00  0.00     0.020 A 
ATOM     15  C   UNL     1      -0.554 -21.522  -9.617  1.00  0.00     0.119 A 
ATOM     16  C   UNL     1      -1.744 -20.809  -9.787  1.00  0.00     0.093 A 
ATOM     17  C   UNL     1      -1.923 -19.566  -9.161  1.00  0.00     0.130 A 
BRANCH  15  18
ATOM     18  O   UNL     1      -0.395 -22.754 -10.248  1.00  0.00    -0.508 OA
ATOM     19  H   UNL     1      -0.787 -22.934 -11.165  1.00  0.00     0.293 HD
ENDBRANCH  15  18
BRANCH  17  20
ATOM     20  O   UNL     1      -3.096 -18.843  -9.378  1.00  0.00    -0.507 OA
ATOM     21  H   UNL     1      -3.474 -18.220  -8.674  1.00  0.00     0.293 HD
ENDBRANCH  17  20
ENDBRANCH   1  12
BRANCH   2  22
ATOM     22  O   UNL     1       0.456 -16.668  -9.231  1.00  0.00    -0.502 OA
ATOM     23  H   UNL     1       1.434 -16.405  -9.207  1.00  0.00     0.293 HD
ENDBRANCH   2  22
BRANCH   6  24
ATOM     24  O   UNL     1      -1.257 -12.868  -5.909  1.00  0.00    -0.507 OA
ATOM     25  H   UNL     1      -0.397 -12.461  -5.571  1.00  0.00     0.293 HD
ENDBRANCH   6  24
BRANCH   8  26
ATOM     26  O   UNL     1      -3.978 -15.463  -2.952  1.00  0.00    -0.508 OA
ATOM     27  H   UNL     1      -4.987 -15.481  -3.040  1.00  0.00     0.293 HD
ENDBRANCH   8  26
TORSDOF 6
ENDMDL
