MODEL 1
REMARK VINA RESULT:     7.583      0.000      0.000
REMARK INTER + INTRA:           9.558
REMARK INTER:                   9.578
REMARK INTRA:                  -0.020
REMARK UNBOUND:                -0.020
REMARK SMILES Oc1cc(O)cc(CCc2ccccc2O)c1
REMARK SMILES IDX 9 1 10 2 12 3 13 4 11 5 14 6 15 7 16 8 8 10 7 11 6 12 17 13
REMARK SMILES IDX 4 14 2 15 3 16 5 17 1 19
REMARK H PARENT 16 9 5 18 1 20
REMARK Flexibility Score: inf
ROOT
ATOM      1  C   UNL     1      11.367   8.694  -7.544  1.00  0.00     0.044 C 
ENDROOT
BRANCH   1   2
ATOM      2  C   UNL     1       9.943   8.397  -7.093  1.00  0.00    -0.006 A 
ATOM      3  C   UNL     1       7.560   8.929  -7.007  1.00  0.00     0.001 A 
ATOM      4  C   UNL     1       7.325   7.797  -6.230  1.00  0.00     0.004 A 
ATOM      5  C   UNL     1       8.853   9.230  -7.438  1.00  0.00     0.007 A 
ATOM      6  C   UNL     1       8.384   6.961  -5.880  1.00  0.00     0.046 A 
ATOM      7  C   UNL     1       9.688   7.247  -6.302  1.00  0.00     0.118 A 
BRANCH   7   8
ATOM      8  O   UNL     1      10.704   6.369  -5.915  1.00  0.00    -0.508 OA
ATOM      9  H   UNL     1      11.254   6.488  -5.074  1.00  0.00     0.293 HD
ENDBRANCH   7   8
ENDBRANCH   1   2
BRANCH   1  10
ATOM     10  C   UNL     1      12.128   7.522  -8.182  1.00  0.00     0.040 C 
BRANCH  10  11
ATOM     11  C   UNL     1      12.849   7.976  -9.423  1.00  0.00    -0.040 A 
ATOM     12  C   UNL     1      13.689   7.090 -10.118  1.00  0.00     0.050 A 
ATOM     13  C   UNL     1      12.733   9.304  -9.864  1.00  0.00     0.050 A 
ATOM     14  C   UNL     1      14.386   7.519 -11.252  1.00  0.00     0.119 A 
ATOM     15  C   UNL     1      13.432   9.736 -11.001  1.00  0.00     0.119 A 
ATOM     16  C   UNL     1      14.254   8.842 -11.694  1.00  0.00     0.092 A 
BRANCH  14  17
ATOM     17  O   UNL     1      15.209   6.623 -11.933  1.00  0.00    -0.508 OA
ATOM     18  H   UNL     1      15.291   5.655 -11.644  1.00  0.00     0.293 HD
ENDBRANCH  14  17
BRANCH  15  19
ATOM     19  O   UNL     1      13.315  11.051 -11.446  1.00  0.00    -0.508 OA
ATOM     20  H   UNL     1      13.910  11.416 -12.180  1.00  0.00     0.293 HD
ENDBRANCH  15  19
ENDBRANCH  10  11
ENDBRANCH   1  10
TORSDOF 6
ENDMDL
MODEL 2
REMARK VINA RESULT:     8.149     11.203     14.121
REMARK INTER + INTRA:          10.273
REMARK INTER:                  10.793
REMARK INTRA:                  -0.520
REMARK UNBOUND:                -0.020
REMARK SMILES Oc1cc(O)cc(CCc2ccccc2O)c1
REMARK SMILES IDX 9 1 10 2 12 3 13 4 11 5 14 6 15 7 16 8 8 10 7 11 6 12 17 13
REMARK SMILES IDX 4 14 2 15 3 16 5 17 1 19
REMARK H PARENT 16 9 5 18 1 20
REMARK Flexibility Score: inf
ROOT
ATOM      1  C   UNL     1       0.097   4.987 -10.594  1.00  0.00     0.044 C 
ENDROOT
BRANCH   1   2
ATOM      2  C   UNL     1      -0.183   5.812  -9.345  1.00  0.00    -0.006 A 
ATOM      3  C   UNL     1      -1.667   7.156  -7.945  1.00  0.00     0.001 A 
ATOM      4  C   UNL     1      -0.646   7.331  -7.013  1.00  0.00     0.004 A 
ATOM      5  C   UNL     1      -1.444   6.404  -9.100  1.00  0.00     0.007 A 
ATOM      6  C   UNL     1       0.604   6.755  -7.235  1.00  0.00     0.046 A 
ATOM      7  C   UNL     1       0.847   5.999  -8.388  1.00  0.00     0.118 A 
BRANCH   7   8
ATOM      8  O   UNL     1       2.122   5.450  -8.549  1.00  0.00    -0.508 OA
ATOM      9  H   UNL     1       2.948   6.003  -8.738  1.00  0.00     0.293 HD
ENDBRANCH   7   8
ENDBRANCH   1   2
BRANCH   1  10
ATOM     10  C   UNL     1      -0.024   5.733 -11.933  1.00  0.00     0.040 C 
BRANCH  10  11
ATOM     11  C   UNL     1      -1.446   5.706 -12.424  1.00  0.00    -0.040 A 
ATOM     12  C   UNL     1      -2.131   6.906 -12.676  1.00  0.00     0.050 A 
ATOM     13  C   UNL     1      -2.119   4.483 -12.580  1.00  0.00     0.050 A 
ATOM     14  C   UNL     1      -3.464   6.884 -13.101  1.00  0.00     0.119 A 
ATOM     15  C   UNL     1      -3.455   4.459 -13.005  1.00  0.00     0.119 A 
ATOM     16  C   UNL     1      -4.123   5.658 -13.267  1.00  0.00     0.092 A 
BRANCH  14  17
ATOM     17  O   UNL     1      -4.125   8.085 -13.353  1.00  0.00    -0.508 OA
ATOM     18  H   UNL     1      -3.616   8.935 -13.566  1.00  0.00     0.293 HD
ENDBRANCH  14  17
BRANCH  15  19
ATOM     19  O   UNL     1      -4.125   3.248 -13.168  1.00  0.00    -0.508 OA
ATOM     20  H   UNL     1      -4.248   2.829 -14.082  1.00  0.00     0.293 HD
ENDBRANCH  15  19
ENDBRANCH  10  11
ENDBRANCH   1  10
TORSDOF 6
ENDMDL
MODEL 3
REMARK VINA RESULT:     8.699     11.735     13.389
REMARK INTER + INTRA:          10.968
REMARK INTER:                  10.876
REMARK INTRA:                   0.092
REMARK UNBOUND:                -0.020
REMARK SMILES Oc1cc(O)cc(CCc2ccccc2O)c1
REMARK SMILES IDX 9 1 10 2 12 3 13 4 11 5 14 6 15 7 16 8 8 10 7 11 6 12 17 13
REMARK SMILES IDX 4 14 2 15 3 16 5 17 1 19
REMARK H PARENT 16 9 5 18 1 20
REMARK Flexibility Score: inf
ROOT
ATOM      1  C   UNL     1       0.443   5.275 -10.095  1.00  0.00     0.044 C 
ENDROOT
BRANCH   1   2
ATOM      2  C   UNL     1       0.045   6.098  -8.877  1.00  0.00    -0.006 A 
ATOM      3  C   UNL     1       0.585   7.261  -6.798  1.00  0.00     0.001 A 
ATOM      4  C   UNL     1      -0.751   7.623  -6.641  1.00  0.00     0.004 A 
ATOM      5  C   UNL     1       0.985   6.507  -7.903  1.00  0.00     0.007 A 
ATOM      6  C   UNL     1      -1.694   7.231  -7.590  1.00  0.00     0.046 A 
ATOM      7  C   UNL     1      -1.312   6.474  -8.704  1.00  0.00     0.118 A 
BRANCH   7   8
ATOM      8  O   UNL     1      -2.307   6.114  -9.617  1.00  0.00    -0.508 OA
ATOM      9  H   UNL     1      -2.358   6.477 -10.560  1.00  0.00     0.293 HD
ENDBRANCH   7   8
ENDBRANCH   1   2
BRANCH   1  10
ATOM     10  C   UNL     1       0.663   6.063 -11.396  1.00  0.00     0.040 C 
BRANCH  10  11
ATOM     11  C   UNL     1      -0.320   5.624 -12.449  1.00  0.00    -0.040 A 
ATOM     12  C   UNL     1      -1.576   5.118 -12.079  1.00  0.00     0.050 A 
ATOM     13  C   UNL     1       0.034   5.662 -13.808  1.00  0.00     0.050 A 
ATOM     14  C   UNL     1      -2.477   4.678 -13.054  1.00  0.00     0.119 A 
ATOM     15  C   UNL     1      -0.867   5.221 -14.787  1.00  0.00     0.119 A 
ATOM     16  C   UNL     1      -2.122   4.733 -14.408  1.00  0.00     0.092 A 
BRANCH  14  17
ATOM     17  O   UNL     1      -3.723   4.185 -12.667  1.00  0.00    -0.508 OA
ATOM     18  H   UNL     1      -4.533   4.261 -13.271  1.00  0.00     0.293 HD
ENDBRANCH  14  17
BRANCH  15  19
ATOM     19  O   UNL     1      -0.524   5.263 -16.136  1.00  0.00    -0.508 OA
ATOM     20  H   UNL     1       0.440   5.343 -16.436  1.00  0.00     0.293 HD
ENDBRANCH  15  19
ENDBRANCH  10  11
ENDBRANCH   1  10
TORSDOF 6
ENDMDL
MODEL 4
REMARK VINA RESULT:     8.716     11.730     13.337
REMARK INTER + INTRA:          10.989
REMARK INTER:                  10.953
REMARK INTRA:                   0.036
REMARK UNBOUND:                -0.020
REMARK SMILES Oc1cc(O)cc(CCc2ccccc2O)c1
REMARK SMILES IDX 9 1 10 2 12 3 13 4 11 5 14 6 15 7 16 8 8 10 7 11 6 12 17 13
REMARK SMILES IDX 4 14 2 15 3 16 5 17 1 19
REMARK H PARENT 16 9 5 18 1 20
REMARK Flexibility Score: inf
ROOT
ATOM      1  C   UNL     1       0.434   5.356  -9.961  1.00  0.00     0.044 C 
ENDROOT
BRANCH   1   2
ATOM      2  C   UNL     1       0.005   6.201  -8.769  1.00  0.00    -0.006 A 
ATOM      3  C   UNL     1       0.503   7.449  -6.729  1.00  0.00     0.001 A 
ATOM      4  C   UNL     1      -0.846   7.763  -6.579  1.00  0.00     0.004 A 
ATOM      5  C   UNL     1       0.930   6.677  -7.811  1.00  0.00     0.007 A 
ATOM      6  C   UNL     1      -1.774   7.305  -7.513  1.00  0.00     0.046 A 
ATOM      7  C   UNL     1      -1.365   6.529  -8.604  1.00  0.00     0.118 A 
BRANCH   7   8
ATOM      8  O   UNL     1      -2.347   6.101  -9.502  1.00  0.00    -0.508 OA
ATOM      9  H   UNL     1      -3.287   5.852  -9.223  1.00  0.00     0.293 HD
ENDBRANCH   7   8
ENDBRANCH   1   2
BRANCH   1  10
ATOM     10  C   UNL     1       0.661   6.117 -11.277  1.00  0.00     0.040 C 
BRANCH  10  11
ATOM     11  C   UNL     1      -0.284   5.624 -12.341  1.00  0.00    -0.040 A 
ATOM     12  C   UNL     1       0.078   5.693 -13.696  1.00  0.00     0.050 A 
ATOM     13  C   UNL     1      -1.556   5.146 -11.991  1.00  0.00     0.050 A 
ATOM     14  C   UNL     1      -0.811   5.267 -14.688  1.00  0.00     0.119 A 
ATOM     15  C   UNL     1      -2.450   4.719 -12.984  1.00  0.00     0.119 A 
ATOM     16  C   UNL     1      -2.074   4.777 -14.329  1.00  0.00     0.092 A 
BRANCH  14  17
ATOM     17  O   UNL     1      -0.431   5.336 -16.027  1.00  0.00    -0.508 OA
ATOM     18  H   UNL     1       0.057   4.572 -16.479  1.00  0.00     0.293 HD
ENDBRANCH  14  17
BRANCH  15  19
ATOM     19  O   UNL     1      -3.711   4.237 -12.642  1.00  0.00    -0.508 OA
ATOM     20  H   UNL     1      -4.119   4.416 -11.732  1.00  0.00     0.293 HD
ENDBRANCH  15  19
ENDBRANCH  10  11
ENDBRANCH   1  10
TORSDOF 6
ENDMDL
MODEL 5
REMARK VINA RESULT:     9.777     11.261     13.832
REMARK INTER + INTRA:          12.329
REMARK INTER:                  12.018
REMARK INTRA:                   0.311
REMARK UNBOUND:                -0.020
REMARK SMILES Oc1cc(O)cc(CCc2ccccc2O)c1
REMARK SMILES IDX 9 1 10 2 12 3 13 4 11 5 14 6 15 7 16 8 8 10 7 11 6 12 17 13
REMARK SMILES IDX 4 14 2 15 3 16 5 17 1 19
REMARK H PARENT 16 9 5 18 1 20
REMARK Flexibility Score: inf
ROOT
ATOM      1  C   UNL     1       0.380   6.021 -11.705  1.00  0.00     0.044 C 
ENDROOT
BRANCH   1   2
ATOM      2  C   UNL     1      -0.862   5.521 -12.430  1.00  0.00    -0.006 A 
ATOM      3  C   UNL     1      -3.191   4.781 -12.445  1.00  0.00     0.001 A 
ATOM      4  C   UNL     1      -3.134   4.598 -13.825  1.00  0.00     0.004 A 
ATOM      5  C   UNL     1      -2.070   5.238 -11.750  1.00  0.00     0.007 A 
ATOM      6  C   UNL     1      -1.954   4.871 -14.515  1.00  0.00     0.046 A 
ATOM      7  C   UNL     1      -0.819   5.330 -13.835  1.00  0.00     0.118 A 
BRANCH   7   8
ATOM      8  O   UNL     1       0.331   5.584 -14.587  1.00  0.00    -0.508 OA
ATOM      9  H   UNL     1       1.177   5.979 -14.196  1.00  0.00     0.293 HD
ENDBRANCH   7   8
ENDBRANCH   1   2
BRANCH   1  10
ATOM     10  C   UNL     1       0.776   5.245 -10.438  1.00  0.00     0.040 C 
BRANCH  10  11
ATOM     11  C   UNL     1       0.215   5.916  -9.213  1.00  0.00    -0.040 A 
ATOM     12  C   UNL     1      -1.124   6.340  -9.189  1.00  0.00     0.050 A 
ATOM     13  C   UNL     1       1.040   6.174  -8.107  1.00  0.00     0.050 A 
ATOM     14  C   UNL     1      -1.639   6.993  -8.064  1.00  0.00     0.119 A 
ATOM     15  C   UNL     1       0.526   6.830  -6.979  1.00  0.00     0.119 A 
ATOM     16  C   UNL     1      -0.812   7.235  -6.958  1.00  0.00     0.092 A 
BRANCH  14  17
ATOM     17  O   UNL     1      -2.972   7.401  -8.056  1.00  0.00    -0.508 OA
ATOM     18  H   UNL     1      -3.709   6.793  -7.717  1.00  0.00     0.293 HD
ENDBRANCH  14  17
BRANCH  15  19
ATOM     19  O   UNL     1       1.338   7.083  -5.875  1.00  0.00    -0.508 OA
ATOM     20  H   UNL     1       1.086   6.763  -4.947  1.00  0.00     0.293 HD
ENDBRANCH  15  19
ENDBRANCH  10  11
ENDBRANCH   1  10
TORSDOF 6
ENDMDL
MODEL 6
REMARK VINA RESULT:     9.797     11.301     13.809
REMARK INTER + INTRA:          12.354
REMARK INTER:                  11.909
REMARK INTRA:                   0.444
REMARK UNBOUND:                -0.020
REMARK SMILES Oc1cc(O)cc(CCc2ccccc2O)c1
REMARK SMILES IDX 9 1 10 2 12 3 13 4 11 5 14 6 15 7 16 8 8 10 7 11 6 12 17 13
REMARK SMILES IDX 4 14 2 15 3 16 5 17 1 19
REMARK H PARENT 16 9 5 18 1 20
REMARK Flexibility Score: inf
ROOT
ATOM      1  C   UNL     1       0.388   5.989 -11.737  1.00  0.00     0.044 C 
ENDROOT
BRANCH   1   2
ATOM      2  C   UNL     1      -0.882   5.521 -12.434  1.00  0.00    -0.006 A 
ATOM      3  C   UNL     1      -3.240   4.883 -12.405  1.00  0.00     0.001 A 
ATOM      4  C   UNL     1      -3.205   4.653 -13.779  1.00  0.00     0.004 A 
ATOM      5  C   UNL     1      -2.093   5.314 -11.735  1.00  0.00     0.007 A 
ATOM      6  C   UNL     1      -2.021   4.852 -14.487  1.00  0.00     0.046 A 
ATOM      7  C   UNL     1      -0.861   5.283 -13.833  1.00  0.00     0.118 A 
BRANCH   7   8
ATOM      8  O   UNL     1       0.291   5.462 -14.602  1.00  0.00    -0.508 OA
ATOM      9  H   UNL     1       1.057   4.801 -14.623  1.00  0.00     0.293 HD
ENDBRANCH   7   8
ENDBRANCH   1   2
BRANCH   1  10
ATOM     10  C   UNL     1       0.760   5.241 -10.446  1.00  0.00     0.040 C 
BRANCH  10  11
ATOM     11  C   UNL     1       0.196   5.952  -9.245  1.00  0.00    -0.040 A 
ATOM     12  C   UNL     1       0.999   6.179  -8.115  1.00  0.00     0.050 A 
ATOM     13  C   UNL     1      -1.152   6.343  -9.221  1.00  0.00     0.050 A 
ATOM     14  C   UNL     1       0.468   6.810  -6.985  1.00  0.00     0.119 A 
ATOM     15  C   UNL     1      -1.687   6.975  -8.089  1.00  0.00     0.119 A 
ATOM     16  C   UNL     1      -0.875   7.209  -6.975  1.00  0.00     0.092 A 
BRANCH  14  17
ATOM     17  O   UNL     1       1.283   7.032  -5.875  1.00  0.00    -0.508 OA
ATOM     18  H   UNL     1       0.899   7.082  -4.939  1.00  0.00     0.293 HD
ENDBRANCH  14  17
BRANCH  15  19
ATOM     19  O   UNL     1      -3.022   7.371  -8.063  1.00  0.00    -0.508 OA
ATOM     20  H   UNL     1      -3.764   6.721  -7.832  1.00  0.00     0.293 HD
ENDBRANCH  15  19
ENDBRANCH  10  11
ENDBRANCH   1  10
TORSDOF 6
ENDMDL
