MODEL 1
REMARK VINA RESULT:    21.894      0.000      0.000
REMARK INTER + INTRA:          40.515
REMARK INTER:                  34.693
REMARK INTRA:                   5.822
REMARK UNBOUND:                 5.822
REMARK SMILES C[C@H]1O[C@H](O[C@@H]2CC[C@@]3(C)[C@H](CC[C@]4(C)[C@@H]3C=C[C@@]35OC[C@]6(CCC(C)(C)C[C@H]63)[C@@H](O)C[C@@]45C)[C@@]2(C)CO)[C@@H](O)[C@@H](O[C@@H]2O[C@@H](CO)[C@@H](O)[C@H](O)[C@H]2O)[C@@H]1O
REMARK SMILES IDX 1 1 2 2 54 3 41 4 39 5 4 6 3 7 55 8 42 10 43 11 52 12 44 13
REMARK SMILES IDX 50 14 45 15 48 16 53 17 51 19 46 21 47 22 49 24 5 26 6 27
REMARK SMILES IDX 7 28 35 29 8 30 11 31 36 32 9 33 12 34 10 35 16 36 13 37
REMARK SMILES IDX 14 38 17 39 15 40 33 41 18 42 19 43 32 44 34 45 29 46 20 47
REMARK SMILES IDX 30 48 22 49 28 50 21 51 23 52 25 53 24 54 26 55 27 56 37 57
REMARK SMILES IDX 38 58 31 60 40 62
REMARK H PARENT 55 9 53 18 51 20 47 23 49 25 38 59 31 61 40 63
REMARK Flexibility Score: inf
ROOT
ATOM      1  C   UNL     1      18.442  52.622  41.535  1.00  0.00     0.041 C 
ATOM      2  C   UNL     1      19.831  53.220  41.767  1.00  0.00     0.150 C 
ATOM      3  C   UNL     1      20.360  53.872  40.462  1.00  0.00     0.175 C 
ATOM      4  C   UNL     1      21.804  54.347  40.689  1.00  0.00     0.186 C 
ATOM      5  C   UNL     1      22.679  53.197  41.257  1.00  0.00     0.202 C 
ATOM      6  C   UNL     1      21.996  52.656  42.532  1.00  0.00     0.282 C 
ATOM      7  O   UNL     1      20.689  52.183  42.225  1.00  0.00    -0.344 OA
ENDROOT
BRANCH   3   8
ATOM      8  O   UNL     1      19.553  54.977  40.141  1.00  0.00    -0.388 OA
ATOM      9  H   UNL     1      18.718  54.905  40.673  1.00  0.00     0.211 HD
ENDBRANCH   3   8
BRANCH   4  10
ATOM     10  O   UNL     1      22.302  55.144  39.613  1.00  0.00    -0.341 OA
BRANCH  10  11
ATOM     11  C   UNL     1      22.402  54.556  38.322  1.00  0.00     0.282 C 
ATOM     12  C   UNL     1      22.418  52.994  38.396  1.00  0.00     0.202 C 
ATOM     13  O   UNL     1      21.321  55.040  37.532  1.00  0.00    -0.341 OA
ATOM     14  C   UNL     1      21.471  52.388  37.338  1.00  0.00     0.179 C 
ATOM     15  C   UNL     1      20.092  54.454  37.930  1.00  0.00     0.178 C 
ATOM     16  C   UNL     1      20.041  52.963  37.486  1.00  0.00     0.177 C 
BRANCH  12  17
ATOM     17  O   UNL     1      23.722  52.515  38.174  1.00  0.00    -0.385 OA
ATOM     18  H   UNL     1      23.718  51.548  38.408  1.00  0.00     0.211 HD
ENDBRANCH  12  17
BRANCH  14  19
ATOM     19  O   UNL     1      21.452  50.983  37.408  1.00  0.00    -0.387 OA
ATOM     20  H   UNL     1      22.335  50.685  37.753  1.00  0.00     0.211 HD
ENDBRANCH  14  19
BRANCH  15  21
ATOM     21  C   UNL     1      18.932  55.288  37.374  1.00  0.00     0.191 C 
BRANCH  21  22
ATOM     22  O   UNL     1      19.050  55.388  35.982  1.00  0.00    -0.394 OA
ATOM     23  H   UNL     1      19.955  55.750  35.802  1.00  0.00     0.210 HD
ENDBRANCH  21  22
ENDBRANCH  15  21
BRANCH  16  24
ATOM     24  O   UNL     1      19.313  52.770  36.296  1.00  0.00    -0.387 OA
ATOM     25  H   UNL     1      19.507  51.852  35.963  1.00  0.00     0.211 HD
ENDBRANCH  16  24
ENDBRANCH  10  11
ENDBRANCH   4  10
BRANCH   6  26
ATOM     26  O   UNL     1      21.934  53.668  43.530  1.00  0.00    -0.346 OA
BRANCH  26  27
ATOM     27  C   UNL     1      22.568  53.299  44.746  1.00  0.00     0.130 C 
ATOM     28  C   UNL     1      21.750  52.173  45.416  1.00  0.00     0.033 C 
ATOM     29  C   UNL     1      22.786  54.575  45.626  1.00  0.00     0.020 C 
ATOM     30  C   UNL     1      21.445  52.353  46.903  1.00  0.00     0.010 C 
ATOM     31  C   UNL     1      23.384  54.124  47.029  1.00  0.00     0.006 C 
ATOM     32  C   UNL     1      21.465  55.396  45.746  1.00  0.00     0.017 C 
ATOM     33  C   UNL     1      22.612  52.932  47.772  1.00  0.00    -0.022 C 
ATOM     34  C   UNL     1      23.676  55.340  47.963  1.00  0.00     0.005 C 
ATOM     35  C   UNL     1      23.592  51.754  48.017  1.00  0.00     0.012 C 
ATOM     36  C   UNL     1      22.004  53.477  49.135  1.00  0.00     0.024 C 
ATOM     37  C   UNL     1      24.073  54.960  49.397  1.00  0.00     0.008 C 
ATOM     38  C   UNL     1      23.015  54.089  50.175  1.00  0.00    -0.017 C 
ATOM     39  C   UNL     1      20.977  52.620  49.833  1.00  0.00    -0.024 C 
ATOM     40  C   UNL     1      23.798  52.947  50.914  1.00  0.00     0.013 C 
ATOM     41  C   UNL     1      22.164  54.937  51.268  1.00  0.00     0.009 C 
ATOM     42  C   UNL     1      20.447  52.981  51.012  1.00  0.00     0.005 C 
ATOM     43  C   UNL     1      21.050  54.011  51.974  1.00  0.00     0.096 C 
ATOM     44  C   UNL     1      23.113  55.640  52.335  1.00  0.00     0.043 C 
ATOM     45  C   UNL     1      21.410  56.124  50.564  1.00  0.00     0.015 C 
ATOM     46  C   UNL     1      21.555  53.311  53.270  1.00  0.00     0.037 C 
ATOM     47  O   UNL     1      20.002  54.846  52.431  1.00  0.00    -0.369 OA
ATOM     48  C   UNL     1      22.916  55.313  53.844  1.00  0.00     0.124 C 
ATOM     49  C   UNL     1      21.615  54.524  54.179  1.00  0.00     0.026 C 
ATOM     50  C   UNL     1      20.576  52.211  53.789  1.00  0.00     0.014 C 
ATOM     51  C   UNL     1      20.370  55.304  53.717  1.00  0.00     0.171 C 
ATOM     52  C   UNL     1      21.580  54.224  55.713  1.00  0.00     0.013 C 
ATOM     53  C   UNL     1      20.765  51.841  55.276  1.00  0.00    -0.035 C 
ATOM     54  C   UNL     1      20.601  53.119  56.125  1.00  0.00     0.007 C 
ATOM     55  C   UNL     1      22.141  51.172  55.514  1.00  0.00     0.011 C 
ATOM     56  C   UNL     1      19.666  50.835  55.680  1.00  0.00     0.011 C 
BRANCH  29  57
ATOM     57  C   UNL     1      23.818  55.462  44.847  1.00  0.00     0.165 C 
BRANCH  57  58
ATOM     58  O   UNL     1      23.848  55.163  43.475  1.00  0.00    -0.396 OA
ATOM     59  H   UNL     1      24.149  55.992  43.012  1.00  0.00     0.210 HD
ENDBRANCH  57  58
ENDBRANCH  29  57
BRANCH  48  60
ATOM     60  O   UNL     1      24.038  54.596  54.302  1.00  0.00    -0.392 OA
ATOM     61  H   UNL     1      24.045  54.667  55.292  1.00  0.00     0.210 HD
ENDBRANCH  48  60
ENDBRANCH  26  27
ENDBRANCH   6  26
BRANCH   5  62
ATOM     62  O   UNL     1      22.779  52.137  40.343  1.00  0.00    -0.385 OA
ATOM     63  H   UNL     1      22.713  51.296  40.868  1.00  0.00     0.211 HD
ENDBRANCH   5  62
TORSDOF 14
ENDMDL
MODEL 2
REMARK VINA RESULT:    22.664      2.023     12.815
REMARK INTER + INTRA:          41.735
REMARK INTER:                  33.232
REMARK INTRA:                   8.503
REMARK UNBOUND:                 5.822
REMARK SMILES C[C@H]1O[C@H](O[C@@H]2CC[C@@]3(C)[C@H](CC[C@]4(C)[C@@H]3C=C[C@@]35OC[C@]6(CCC(C)(C)C[C@H]63)[C@@H](O)C[C@@]45C)[C@@]2(C)CO)[C@@H](O)[C@@H](O[C@@H]2O[C@@H](CO)[C@@H](O)[C@H](O)[C@H]2O)[C@@H]1O
REMARK SMILES IDX 1 1 2 2 54 3 41 4 39 5 4 6 3 7 55 8 42 10 43 11 52 12 44 13
REMARK SMILES IDX 50 14 45 15 48 16 53 17 51 19 46 21 47 22 49 24 5 26 6 27
REMARK SMILES IDX 7 28 35 29 8 30 11 31 36 32 9 33 12 34 10 35 16 36 13 37
REMARK SMILES IDX 14 38 17 39 15 40 33 41 18 42 19 43 32 44 34 45 29 46 20 47
REMARK SMILES IDX 30 48 22 49 28 50 21 51 23 52 25 53 24 54 26 55 27 56 37 57
REMARK SMILES IDX 38 58 31 60 40 62
REMARK H PARENT 55 9 53 18 51 20 47 23 49 25 38 59 31 61 40 63
REMARK Flexibility Score: inf
ROOT
ATOM      1  C   UNL     1      21.463  55.737  50.745  1.00  0.00     0.041 C 
ATOM      2  C   UNL     1      21.496  54.239  50.437  1.00  0.00     0.150 C 
ATOM      3  C   UNL     1      21.518  53.420  51.754  1.00  0.00     0.175 C 
ATOM      4  C   UNL     1      21.683  51.930  51.415  1.00  0.00     0.186 C 
ATOM      5  C   UNL     1      22.901  51.709  50.478  1.00  0.00     0.202 C 
ATOM      6  C   UNL     1      22.725  52.612  49.238  1.00  0.00     0.282 C 
ATOM      7  O   UNL     1      22.640  53.977  49.633  1.00  0.00    -0.344 OA
ENDROOT
BRANCH   3   8
ATOM      8  O   UNL     1      20.302  53.610  52.433  1.00  0.00    -0.388 OA
ATOM      9  H   UNL     1      20.314  54.521  52.824  1.00  0.00     0.211 HD
ENDBRANCH   3   8
BRANCH   4  10
ATOM     10  O   UNL     1      21.505  51.079  52.549  1.00  0.00    -0.341 OA
BRANCH  10  11
ATOM     11  C   UNL     1      22.003  51.514  53.809  1.00  0.00     0.282 C 
ATOM     12  C   UNL     1      22.728  52.895  53.700  1.00  0.00     0.202 C 
ATOM     13  O   UNL     1      20.911  51.556  54.724  1.00  0.00    -0.341 OA
ATOM     14  C   UNL     1      22.286  53.834  54.843  1.00  0.00     0.179 C 
ATOM     15  C   UNL     1      20.056  52.654  54.451  1.00  0.00     0.178 C 
ATOM     16  C   UNL     1      20.745  53.986  54.865  1.00  0.00     0.177 C 
BRANCH  12  17
ATOM     17  O   UNL     1      24.121  52.713  53.768  1.00  0.00    -0.385 OA
ATOM     18  H   UNL     1      24.517  53.598  53.990  1.00  0.00     0.211 HD
ENDBRANCH  12  17
BRANCH  14  19
ATOM     19  O   UNL     1      22.908  55.092  54.745  1.00  0.00    -0.387 OA
ATOM     20  H   UNL     1      22.221  55.748  54.457  1.00  0.00     0.211 HD
ENDBRANCH  14  19
BRANCH  15  21
ATOM     21  C   UNL     1      18.709  52.430  55.148  1.00  0.00     0.191 C 
BRANCH  21  22
ATOM     22  O   UNL     1      18.030  53.649  55.263  1.00  0.00    -0.394 OA
ATOM     23  H   UNL     1      17.170  53.538  54.782  1.00  0.00     0.210 HD
ENDBRANCH  21  22
ENDBRANCH  15  21
BRANCH  16  24
ATOM     24  O   UNL     1      20.320  54.454  56.124  1.00  0.00    -0.387 OA
ATOM     25  H   UNL     1      21.105  54.862  56.581  1.00  0.00     0.211 HD
ENDBRANCH  16  24
ENDBRANCH  10  11
ENDBRANCH   4  10
BRANCH   6  26
ATOM     26  O   UNL     1      21.562  52.234  48.510  1.00  0.00    -0.346 OA
BRANCH  26  27
ATOM     27  C   UNL     1      21.272  53.101  47.423  1.00  0.00     0.130 C 
ATOM     28  C   UNL     1      20.099  52.511  46.610  1.00  0.00     0.033 C 
ATOM     29  C   UNL     1      22.580  53.365  46.606  1.00  0.00     0.020 C 
ATOM     30  C   UNL     1      20.287  52.461  45.094  1.00  0.00     0.010 C 
ATOM     31  C   UNL     1      22.211  54.237  45.329  1.00  0.00     0.006 C 
ATOM     32  C   UNL     1      23.295  52.023  46.259  1.00  0.00     0.017 C 
ATOM     33  C   UNL     1      20.978  53.710  44.451  1.00  0.00    -0.022 C 
ATOM     34  C   UNL     1      23.467  54.588  44.471  1.00  0.00     0.005 C 
ATOM     35  C   UNL     1      19.887  54.813  44.376  1.00  0.00     0.012 C 
ATOM     36  C   UNL     1      21.501  53.310  43.006  1.00  0.00     0.024 C 
ATOM     37  C   UNL     1      23.151  55.262  43.127  1.00  0.00     0.008 C 
ATOM     38  C   UNL     1      22.216  54.434  42.167  1.00  0.00    -0.017 C 
ATOM     39  C   UNL     1      20.581  52.497  42.129  1.00  0.00    -0.024 C 
ATOM     40  C   UNL     1      21.157  55.428  41.570  1.00  0.00     0.013 C 
ATOM     41  C   UNL     1      23.017  53.723  40.946  1.00  0.00     0.009 C 
ATOM     42  C   UNL     1      20.924  52.156  40.878  1.00  0.00     0.005 C 
ATOM     43  C   UNL     1      22.021  52.832  40.046  1.00  0.00     0.096 C 
ATOM     44  C   UNL     1      23.818  54.784  40.071  1.00  0.00     0.043 C 
ATOM     45  C   UNL     1      24.123  52.760  41.515  1.00  0.00     0.015 C 
ATOM     46  C   UNL     1      21.393  53.615  38.856  1.00  0.00     0.037 C 
ATOM     47  O   UNL     1      22.779  51.816  39.417  1.00  0.00    -0.369 OA
ATOM     48  C   UNL     1      23.510  54.884  38.549  1.00  0.00     0.124 C 
ATOM     49  C   UNL     1      22.627  53.733  37.982  1.00  0.00     0.026 C 
ATOM     50  C   UNL     1      20.230  52.838  38.162  1.00  0.00     0.014 C 
ATOM     51  C   UNL     1      23.294  52.366  38.220  1.00  0.00     0.171 C 
ATOM     52  C   UNL     1      22.359  53.995  36.463  1.00  0.00     0.013 C 
ATOM     53  C   UNL     1      19.909  53.317  36.730  1.00  0.00    -0.035 C 
ATOM     54  C   UNL     1      21.189  53.199  35.875  1.00  0.00     0.007 C 
ATOM     55  C   UNL     1      19.359  54.764  36.736  1.00  0.00     0.011 C 
ATOM     56  C   UNL     1      18.827  52.393  36.128  1.00  0.00     0.011 C 
BRANCH  29  57
ATOM     57  C   UNL     1      23.530  54.166  47.564  1.00  0.00     0.165 C 
BRANCH  57  58
ATOM     58  O   UNL     1      23.308  55.551  47.497  1.00  0.00    -0.396 OA
ATOM     59  H   UNL     1      23.740  55.945  48.304  1.00  0.00     0.210 HD
ENDBRANCH  57  58
ENDBRANCH  29  57
BRANCH  48  60
ATOM     60  O   UNL     1      22.895  56.125  38.292  1.00  0.00    -0.392 OA
ATOM     61  H   UNL     1      21.971  55.934  37.986  1.00  0.00     0.210 HD
ENDBRANCH  48  60
ENDBRANCH  26  27
ENDBRANCH   6  26
BRANCH   5  62
ATOM     62  O   UNL     1      24.099  52.078  51.109  1.00  0.00    -0.385 OA
ATOM     63  H   UNL     1      24.617  52.615  50.452  1.00  0.00     0.211 HD
ENDBRANCH   5  62
TORSDOF 14
ENDMDL
