MODEL 1
REMARK VINA RESULT:    -4.606      0.000      0.000
REMARK INTER + INTRA:         -11.649
REMARK INTER:                  -8.914
REMARK INTRA:                  -2.736
REMARK UNBOUND:                -2.736
REMARK SMILES CCCCCCCCCCCCCCCCCC(=O)[O-]
REMARK SMILES IDX 10 1 11 2 12 3 13 4 14 5 15 6 16 7 17 8 18 9 19 10 20 11
REMARK SMILES IDX 9 12 8 13 7 14 6 15 5 16 4 17 3 18 2 19 1 20
REMARK H PARENT
REMARK Flexibility Score: inf
ROOT
ATOM      1  C   UNL     1      63.241  29.644  13.517  1.00  0.00     0.000 C 
ENDROOT
BRANCH   1   2
ATOM      2  C   UNL     1      63.446  30.489  12.246  1.00  0.00     0.000 C 
BRANCH   2   3
ATOM      3  C   UNL     1      62.434  31.631  12.048  1.00  0.00     0.000 C 
BRANCH   3   4
ATOM      4  C   UNL     1      62.086  32.357  13.358  1.00  0.00     0.000 C 
BRANCH   4   5
ATOM      5  C   UNL     1      60.586  32.687  13.479  1.00  0.00     0.000 C 
BRANCH   5   6
ATOM      6  C   UNL     1      59.988  32.538  14.893  1.00  0.00     0.000 C 
BRANCH   6   7
ATOM      7  C   UNL     1      60.989  32.121  15.985  1.00  0.00     0.006 C 
BRANCH   7   8
ATOM      8  C   UNL     1      60.993  33.078  17.185  1.00  0.00     0.053 C 
BRANCH   8   9
ATOM      9  C   UNL     1      62.251  33.887  17.202  1.00  0.00     0.041 C 
ATOM     10  O   UNL     1      62.382  34.836  18.019  1.00  0.00    -0.550 OA
ATOM     11  O   UNL     1      63.298  33.563  16.349  1.00  0.00    -0.550 OA
ENDBRANCH   8   9
ENDBRANCH   7   8
ENDBRANCH   6   7
ENDBRANCH   5   6
ENDBRANCH   4   5
ENDBRANCH   3   4
ENDBRANCH   2   3
ENDBRANCH   1   2
BRANCH   1  12
ATOM     12  C   UNL     1      62.349  28.415  13.285  1.00  0.00     0.000 C 
BRANCH  12  13
ATOM     13  C   UNL     1      60.894  28.710  13.680  1.00  0.00    -0.000 C 
BRANCH  13  14
ATOM     14  C   UNL     1      59.893  28.431  12.545  1.00  0.00    -0.000 C 
BRANCH  14  15
ATOM     15  C   UNL     1      59.346  29.681  11.829  1.00  0.00    -0.000 C 
BRANCH  15  16
ATOM     16  C   UNL     1      59.690  29.713  10.330  1.00  0.00    -0.000 C 
BRANCH  16  17
ATOM     17  C   UNL     1      59.731  28.312   9.694  1.00  0.00    -0.000 C 
BRANCH  17  18
ATOM     18  C   UNL     1      61.090  27.899   9.100  1.00  0.00    -0.000 C 
BRANCH  18  19
ATOM     19  C   UNL     1      62.060  29.079   8.942  1.00  0.00    -0.003 C 
ATOM     20  C   UNL     1      63.495  28.656   9.246  1.00  0.00     0.004 C 
ENDBRANCH  18  19
ENDBRANCH  17  18
ENDBRANCH  16  17
ENDBRANCH  15  16
ENDBRANCH  14  15
ENDBRANCH  13  14
ENDBRANCH  12  13
ENDBRANCH   1  12
TORSDOF 16
ENDMDL
MODEL 2
REMARK VINA RESULT:    -4.603      1.239      2.910
REMARK INTER + INTRA:         -11.643
REMARK INTER:                  -9.691
REMARK INTRA:                  -1.952
REMARK UNBOUND:                -2.736
REMARK SMILES CCCCCCCCCCCCCCCCCC(=O)[O-]
REMARK SMILES IDX 10 1 11 2 12 3 13 4 14 5 15 6 16 7 17 8 18 9 19 10 20 11
REMARK SMILES IDX 9 12 8 13 7 14 6 15 5 16 4 17 3 18 2 19 1 20
REMARK H PARENT
REMARK Flexibility Score: inf
ROOT
ATOM      1  C   UNL     1      63.491  30.156  12.421  1.00  0.00     0.000 C 
ENDROOT
BRANCH   1   2
ATOM      2  C   UNL     1      62.914  31.517  11.989  1.00  0.00     0.000 C 
BRANCH   2   3
ATOM      3  C   UNL     1      62.300  32.357  13.123  1.00  0.00     0.000 C 
BRANCH   3   4
ATOM      4  C   UNL     1      60.763  32.391  13.079  1.00  0.00     0.000 C 
BRANCH   4   5
ATOM      5  C   UNL     1      60.122  32.279  14.475  1.00  0.00     0.000 C 
BRANCH   5   6
ATOM      6  C   UNL     1      60.426  33.446  15.437  1.00  0.00     0.000 C 
BRANCH   6   7
ATOM      7  C   UNL     1      60.869  33.028  16.851  1.00  0.00     0.006 C 
BRANCH   7   8
ATOM      8  C   UNL     1      61.238  34.226  17.736  1.00  0.00     0.053 C 
BRANCH   8   9
ATOM      9  C   UNL     1      61.293  33.815  19.173  1.00  0.00     0.041 C 
ATOM     10  O   UNL     1      62.393  33.803  19.786  1.00  0.00    -0.550 OA
ATOM     11  O   UNL     1      60.124  33.492  19.850  1.00  0.00    -0.550 OA
ENDBRANCH   8   9
ENDBRANCH   7   8
ENDBRANCH   6   7
ENDBRANCH   5   6
ENDBRANCH   4   5
ENDBRANCH   3   4
ENDBRANCH   2   3
ENDBRANCH   1   2
BRANCH   1  12
ATOM     12  C   UNL     1      63.168  29.025  11.433  1.00  0.00     0.000 C 
BRANCH  12  13
ATOM     13  C   UNL     1      63.259  29.521   9.982  1.00  0.00    -0.000 C 
BRANCH  13  14
ATOM     14  C   UNL     1      62.153  28.947   9.078  1.00  0.00    -0.000 C 
BRANCH  14  15
ATOM     15  C   UNL     1      61.005  28.233   9.818  1.00  0.00    -0.000 C 
BRANCH  15  16
ATOM     16  C   UNL     1      59.751  29.111   9.969  1.00  0.00    -0.000 C 
BRANCH  16  17
ATOM     17  C   UNL     1      59.443  29.469  11.434  1.00  0.00    -0.000 C 
BRANCH  17  18
ATOM     18  C   UNL     1      58.928  28.306  12.301  1.00  0.00    -0.000 C 
BRANCH  18  19
ATOM     19  C   UNL     1      60.020  27.684  13.182  1.00  0.00    -0.003 C 
ATOM     20  C   UNL     1      60.705  28.744  14.041  1.00  0.00     0.004 C 
ENDBRANCH  18  19
ENDBRANCH  17  18
ENDBRANCH  16  17
ENDBRANCH  15  16
ENDBRANCH  14  15
ENDBRANCH  13  14
ENDBRANCH  12  13
ENDBRANCH   1  12
TORSDOF 16
ENDMDL
MODEL 3
REMARK VINA RESULT:    -4.481     10.155     13.823
REMARK INTER + INTRA:         -11.408
REMARK INTER:                  -8.886
REMARK INTRA:                  -2.521
REMARK UNBOUND:                -2.736
REMARK SMILES CCCCCCCCCCCCCCCCCC(=O)[O-]
REMARK SMILES IDX 10 1 11 2 12 3 13 4 14 5 15 6 16 7 17 8 18 9 19 10 20 11
REMARK SMILES IDX 9 12 8 13 7 14 6 15 5 16 4 17 3 18 2 19 1 20
REMARK H PARENT
REMARK Flexibility Score: inf
ROOT
ATOM      1  C   UNL     1      61.255  27.669  26.034  1.00  0.00     0.000 C 
ENDROOT
BRANCH   1   2
ATOM      2  C   UNL     1      62.387  26.649  26.253  1.00  0.00     0.000 C 
BRANCH   2   3
ATOM      3  C   UNL     1      63.036  26.103  24.969  1.00  0.00     0.000 C 
BRANCH   3   4
ATOM      4  C   UNL     1      64.568  26.005  25.065  1.00  0.00     0.000 C 
BRANCH   4   5
ATOM      5  C   UNL     1      65.229  25.625  23.727  1.00  0.00     0.000 C 
BRANCH   5   6
ATOM      6  C   UNL     1      64.605  26.274  22.474  1.00  0.00     0.000 C 
BRANCH   6   7
ATOM      7  C   UNL     1      65.610  26.926  21.507  1.00  0.00     0.006 C 
BRANCH   7   8
ATOM      8  C   UNL     1      66.299  25.906  20.591  1.00  0.00     0.053 C 
BRANCH   8   9
ATOM      9  C   UNL     1      65.950  26.171  19.161  1.00  0.00     0.041 C 
ATOM     10  O   UNL     1      65.096  25.454  18.575  1.00  0.00    -0.550 OA
ATOM     11  O   UNL     1      66.530  27.239  18.489  1.00  0.00    -0.550 OA
ENDBRANCH   8   9
ENDBRANCH   7   8
ENDBRANCH   6   7
ENDBRANCH   5   6
ENDBRANCH   4   5
ENDBRANCH   3   4
ENDBRANCH   2   3
ENDBRANCH   1   2
BRANCH   1  12
ATOM     12  C   UNL     1      60.759  28.308  27.339  1.00  0.00     0.000 C 
BRANCH  12  13
ATOM     13  C   UNL     1      61.829  28.215  28.437  1.00  0.00    -0.000 C 
BRANCH  13  14
ATOM     14  C   UNL     1      62.259  29.591  28.978  1.00  0.00    -0.000 C 
BRANCH  14  15
ATOM     15  C   UNL     1      63.036  30.475  27.984  1.00  0.00    -0.000 C 
BRANCH  15  16
ATOM     16  C   UNL     1      64.534  30.128  27.918  1.00  0.00    -0.000 C 
BRANCH  16  17
ATOM     17  C   UNL     1      64.924  29.401  26.618  1.00  0.00    -0.000 C 
BRANCH  17  18
ATOM     18  C   UNL     1      64.169  29.859  25.357  1.00  0.00    -0.000 C 
BRANCH  18  19
ATOM     19  C   UNL     1      64.963  29.624  24.064  1.00  0.00    -0.003 C 
ATOM     20  C   UNL     1      66.397  29.197  24.368  1.00  0.00     0.004 C 
ENDBRANCH  18  19
ENDBRANCH  17  18
ENDBRANCH  16  17
ENDBRANCH  15  16
ENDBRANCH  14  15
ENDBRANCH  13  14
ENDBRANCH  12  13
ENDBRANCH   1  12
TORSDOF 16
ENDMDL
MODEL 4
REMARK VINA RESULT:    -4.467      1.350      2.747
REMARK INTER + INTRA:         -11.382
REMARK INTER:                  -9.216
REMARK INTRA:                  -2.165
REMARK UNBOUND:                -2.736
REMARK SMILES CCCCCCCCCCCCCCCCCC(=O)[O-]
REMARK SMILES IDX 10 1 11 2 12 3 13 4 14 5 15 6 16 7 17 8 18 9 19 10 20 11
REMARK SMILES IDX 9 12 8 13 7 14 6 15 5 16 4 17 3 18 2 19 1 20
REMARK H PARENT
REMARK Flexibility Score: inf
ROOT
ATOM      1  C   UNL     1      61.280  28.694  13.450  1.00  0.00     0.000 C 
ENDROOT
BRANCH   1   2
ATOM      2  C   UNL     1      61.300  29.734  14.585  1.00  0.00     0.000 C 
BRANCH   2   3
ATOM      3  C   UNL     1      60.093  30.689  14.621  1.00  0.00     0.000 C 
BRANCH   3   4
ATOM      4  C   UNL     1      60.229  31.864  13.639  1.00  0.00     0.000 C 
BRANCH   4   5
ATOM      5  C   UNL     1      60.684  33.167  14.324  1.00  0.00     0.000 C 
BRANCH   5   6
ATOM      6  C   UNL     1      62.072  33.111  14.995  1.00  0.00     0.000 C 
BRANCH   6   7
ATOM      7  C   UNL     1      62.148  33.752  16.392  1.00  0.00     0.006 C 
BRANCH   7   8
ATOM      8  C   UNL     1      61.015  33.295  17.319  1.00  0.00     0.053 C 
BRANCH   8   9
ATOM      9  C   UNL     1      61.306  33.688  18.732  1.00  0.00     0.041 C 
ATOM     10  O   UNL     1      60.411  33.595  19.612  1.00  0.00    -0.550 OA
ATOM     11  O   UNL     1      62.580  34.110  19.089  1.00  0.00    -0.550 OA
ENDBRANCH   8   9
ENDBRANCH   7   8
ENDBRANCH   6   7
ENDBRANCH   5   6
ENDBRANCH   4   5
ENDBRANCH   3   4
ENDBRANCH   2   3
ENDBRANCH   1   2
BRANCH   1  12
ATOM     12  C   UNL     1      59.946  27.940  13.350  1.00  0.00     0.000 C 
BRANCH  12  13
ATOM     13  C   UNL     1      59.227  28.267  12.032  1.00  0.00    -0.000 C 
BRANCH  13  14
ATOM     14  C   UNL     1      60.095  29.089  11.061  1.00  0.00    -0.000 C 
BRANCH  14  15
ATOM     15  C   UNL     1      60.647  28.309   9.853  1.00  0.00    -0.000 C 
BRANCH  15  16
ATOM     16  C   UNL     1      61.945  28.914   9.291  1.00  0.00    -0.000 C 
BRANCH  16  17
ATOM     17  C   UNL     1      63.090  28.936  10.319  1.00  0.00    -0.000 C 
BRANCH  17  18
ATOM     18  C   UNL     1      63.797  30.293  10.488  1.00  0.00    -0.000 C 
BRANCH  18  19
ATOM     19  C   UNL     1      63.141  31.183  11.554  1.00  0.00    -0.003 C 
ATOM     20  C   UNL     1      64.100  32.272  12.027  1.00  0.00     0.004 C 
ENDBRANCH  18  19
ENDBRANCH  17  18
ENDBRANCH  16  17
ENDBRANCH  15  16
ENDBRANCH  14  15
ENDBRANCH  13  14
ENDBRANCH  12  13
ENDBRANCH   1  12
TORSDOF 16
ENDMDL
MODEL 5
REMARK VINA RESULT:    -4.457      1.428      4.450
REMARK INTER + INTRA:         -11.362
REMARK INTER:                  -8.597
REMARK INTRA:                  -2.765
REMARK UNBOUND:                -2.736
REMARK SMILES CCCCCCCCCCCCCCCCCC(=O)[O-]
REMARK SMILES IDX 10 1 11 2 12 3 13 4 14 5 15 6 16 7 17 8 18 9 19 10 20 11
REMARK SMILES IDX 9 12 8 13 7 14 6 15 5 16 4 17 3 18 2 19 1 20
REMARK H PARENT
REMARK Flexibility Score: inf
ROOT
ATOM      1  C   UNL     1      60.626  28.177   9.730  1.00  0.00     0.000 C 
ENDROOT
BRANCH   1   2
ATOM      2  C   UNL     1      62.098  28.325  10.156  1.00  0.00     0.000 C 
BRANCH   2   3
ATOM      3  C   UNL     1      62.994  29.083   9.159  1.00  0.00     0.000 C 
BRANCH   3   4
ATOM      4  C   UNL     1      63.584  30.376   9.747  1.00  0.00     0.000 C 
BRANCH   4   5
ATOM      5  C   UNL     1      63.546  30.406  11.286  1.00  0.00     0.000 C 
BRANCH   5   6
ATOM      6  C   UNL     1      62.938  31.680  11.908  1.00  0.00     0.000 C 
BRANCH   6   7
ATOM      7  C   UNL     1      63.955  32.651  12.534  1.00  0.00     0.006 C 
BRANCH   7   8
ATOM      8  C   UNL     1      64.182  32.390  14.029  1.00  0.00     0.053 C 
BRANCH   8   9
ATOM      9  C   UNL     1      64.063  33.664  14.804  1.00  0.00     0.041 C 
ATOM     10  O   UNL     1      63.148  33.802  15.658  1.00  0.00    -0.550 OA
ATOM     11  O   UNL     1      64.991  34.680  14.620  1.00  0.00    -0.550 OA
ENDBRANCH   8   9
ENDBRANCH   7   8
ENDBRANCH   6   7
ENDBRANCH   5   6
ENDBRANCH   4   5
ENDBRANCH   3   4
ENDBRANCH   2   3
ENDBRANCH   1   2
BRANCH   1  12
ATOM     12  C   UNL     1      59.797  29.446   9.975  1.00  0.00     0.000 C 
BRANCH  12  13
ATOM     13  C   UNL     1      59.740  29.784  11.473  1.00  0.00    -0.000 C 
BRANCH  13  14
ATOM     14  C   UNL     1      59.257  28.606  12.338  1.00  0.00    -0.000 C 
BRANCH  14  15
ATOM     15  C   UNL     1      60.273  28.093  13.376  1.00  0.00    -0.000 C 
BRANCH  15  16
ATOM     16  C   UNL     1      61.286  29.168  13.807  1.00  0.00    -0.000 C 
BRANCH  16  17
ATOM     17  C   UNL     1      61.036  29.689  15.233  1.00  0.00    -0.000 C 
BRANCH  17  18
ATOM     18  C   UNL     1      60.905  31.218  15.361  1.00  0.00    -0.000 C 
BRANCH  18  19
ATOM     19  C   UNL     1      59.760  31.795  14.516  1.00  0.00    -0.003 C 
ATOM     20  C   UNL     1      60.216  33.028  13.740  1.00  0.00     0.004 C 
ENDBRANCH  18  19
ENDBRANCH  17  18
ENDBRANCH  16  17
ENDBRANCH  15  16
ENDBRANCH  14  15
ENDBRANCH  13  14
ENDBRANCH  12  13
ENDBRANCH   1  12
TORSDOF 16
ENDMDL
MODEL 6
REMARK VINA RESULT:    -4.449      2.142      3.680
REMARK INTER + INTRA:         -11.346
REMARK INTER:                  -9.215
REMARK INTRA:                  -2.132
REMARK UNBOUND:                -2.736
REMARK SMILES CCCCCCCCCCCCCCCCCC(=O)[O-]
REMARK SMILES IDX 10 1 11 2 12 3 13 4 14 5 15 6 16 7 17 8 18 9 19 10 20 11
REMARK SMILES IDX 9 12 8 13 7 14 6 15 5 16 4 17 3 18 2 19 1 20
REMARK H PARENT
REMARK Flexibility Score: inf
ROOT
ATOM      1  C   UNL     1      63.845  30.631  10.370  1.00  0.00     0.000 C 
ENDROOT
BRANCH   1   2
ATOM      2  C   UNL     1      64.562  31.982  10.194  1.00  0.00     0.000 C 
BRANCH   2   3
ATOM      3  C   UNL     1      64.714  32.816  11.479  1.00  0.00     0.000 C 
BRANCH   3   4
ATOM      4  C   UNL     1      63.684  32.444  12.559  1.00  0.00     0.000 C 
BRANCH   4   5
ATOM      5  C   UNL     1      63.931  33.169  13.895  1.00  0.00     0.000 C 
BRANCH   5   6
ATOM      6  C   UNL     1      62.834  32.977  14.963  1.00  0.00     0.000 C 
BRANCH   6   7
ATOM      7  C   UNL     1      62.082  31.636  14.894  1.00  0.00     0.006 C 
BRANCH   7   8
ATOM      8  C   UNL     1      60.636  31.740  15.397  1.00  0.00     0.053 C 
BRANCH   8   9
ATOM      9  C   UNL     1      59.687  31.811  14.244  1.00  0.00     0.041 C 
ATOM     10  O   UNL     1      58.465  31.556  14.413  1.00  0.00    -0.550 OA
ATOM     11  O   UNL     1      60.140  32.207  12.992  1.00  0.00    -0.550 OA
ENDBRANCH   8   9
ENDBRANCH   7   8
ENDBRANCH   6   7
ENDBRANCH   5   6
ENDBRANCH   4   5
ENDBRANCH   3   4
ENDBRANCH   2   3
ENDBRANCH   1   2
BRANCH   1  12
ATOM     12  C   UNL     1      64.206  29.612   9.279  1.00  0.00     0.000 C 
BRANCH  12  13
ATOM     13  C   UNL     1      63.110  28.544   9.141  1.00  0.00    -0.000 C 
BRANCH  13  14
ATOM     14  C   UNL     1      61.690  29.138   9.114  1.00  0.00    -0.000 C 
BRANCH  14  15
ATOM     15  C   UNL     1      60.547  28.106   9.068  1.00  0.00    -0.000 C 
BRANCH  15  16
ATOM     16  C   UNL     1      59.349  28.498   9.950  1.00  0.00    -0.000 C 
BRANCH  16  17
ATOM     17  C   UNL     1      59.768  29.220  11.243  1.00  0.00    -0.000 C 
BRANCH  17  18
ATOM     18  C   UNL     1      59.382  28.505  12.551  1.00  0.00    -0.000 C 
BRANCH  18  19
ATOM     19  C   UNL     1      60.576  28.283  13.490  1.00  0.00    -0.003 C 
ATOM     20  C   UNL     1      61.894  28.598  12.787  1.00  0.00     0.004 C 
ENDBRANCH  18  19
ENDBRANCH  17  18
ENDBRANCH  16  17
ENDBRANCH  15  16
ENDBRANCH  14  15
ENDBRANCH  13  14
ENDBRANCH  12  13
ENDBRANCH   1  12
TORSDOF 16
ENDMDL
MODEL 7
REMARK VINA RESULT:    -4.441      1.424      4.016
REMARK INTER + INTRA:         -11.331
REMARK INTER:                  -8.737
REMARK INTRA:                  -2.594
REMARK UNBOUND:                -2.736
REMARK SMILES CCCCCCCCCCCCCCCCCC(=O)[O-]
REMARK SMILES IDX 10 1 11 2 12 3 13 4 14 5 15 6 16 7 17 8 18 9 19 10 20 11
REMARK SMILES IDX 9 12 8 13 7 14 6 15 5 16 4 17 3 18 2 19 1 20
REMARK H PARENT
REMARK Flexibility Score: inf
ROOT
ATOM      1  C   UNL     1      59.308  28.826  11.323  1.00  0.00     0.000 C 
ENDROOT
BRANCH   1   2
ATOM      2  C   UNL     1      60.042  28.653  12.665  1.00  0.00     0.000 C 
BRANCH   2   3
ATOM      3  C   UNL     1      60.284  29.954  13.452  1.00  0.00     0.000 C 
BRANCH   3   4
ATOM      4  C   UNL     1      60.052  31.218  12.606  1.00  0.00     0.000 C 
BRANCH   4   5
ATOM      5  C   UNL     1      60.389  32.515  13.364  1.00  0.00     0.000 C 
BRANCH   5   6
ATOM      6  C   UNL     1      59.736  32.658  14.754  1.00  0.00     0.000 C 
BRANCH   6   7
ATOM      7  C   UNL     1      60.455  33.616  15.719  1.00  0.00     0.006 C 
BRANCH   7   8
ATOM      8  C   UNL     1      61.015  32.904  16.957  1.00  0.00     0.053 C 
BRANCH   8   9
ATOM      9  C   UNL     1      61.353  33.897  18.022  1.00  0.00     0.041 C 
ATOM     10  O   UNL     1      62.309  34.701  17.858  1.00  0.00    -0.550 OA
ATOM     11  O   UNL     1      60.583  33.970  19.176  1.00  0.00    -0.550 OA
ENDBRANCH   8   9
ENDBRANCH   7   8
ENDBRANCH   6   7
ENDBRANCH   5   6
ENDBRANCH   4   5
ENDBRANCH   3   4
ENDBRANCH   2   3
ENDBRANCH   1   2
BRANCH   1  12
ATOM     12  C   UNL     1      60.129  28.337  10.121  1.00  0.00     0.000 C 
BRANCH  12  13
ATOM     13  C   UNL     1      61.625  28.280  10.464  1.00  0.00    -0.000 C 
BRANCH  13  14
ATOM     14  C   UNL     1      62.395  29.535  10.013  1.00  0.00    -0.000 C 
BRANCH  14  15
ATOM     15  C   UNL     1      63.541  29.974  10.946  1.00  0.00    -0.000 C 
BRANCH  15  16
ATOM     16  C   UNL     1      63.792  31.491  10.913  1.00  0.00    -0.000 C 
BRANCH  16  17
ATOM     17  C   UNL     1      63.841  32.121  12.317  1.00  0.00    -0.000 C 
BRANCH  17  18
ATOM     18  C   UNL     1      63.769  31.124  13.488  1.00  0.00    -0.000 C 
BRANCH  18  19
ATOM     19  C   UNL     1      63.695  31.812  14.859  1.00  0.00    -0.003 C 
ATOM     20  C   UNL     1      64.057  33.291  14.752  1.00  0.00     0.004 C 
ENDBRANCH  18  19
ENDBRANCH  17  18
ENDBRANCH  16  17
ENDBRANCH  15  16
ENDBRANCH  14  15
ENDBRANCH  13  14
ENDBRANCH  12  13
ENDBRANCH   1  12
TORSDOF 16
ENDMDL
MODEL 8
REMARK VINA RESULT:    -4.398      1.604      3.638
REMARK INTER + INTRA:         -11.247
REMARK INTER:                  -8.687
REMARK INTRA:                  -2.560
REMARK UNBOUND:                -2.736
REMARK SMILES CCCCCCCCCCCCCCCCCC(=O)[O-]
REMARK SMILES IDX 10 1 11 2 12 3 13 4 14 5 15 6 16 7 17 8 18 9 19 10 20 11
REMARK SMILES IDX 9 12 8 13 7 14 6 15 5 16 4 17 3 18 2 19 1 20
REMARK H PARENT
REMARK Flexibility Score: inf
ROOT
ATOM      1  C   UNL     1      63.290  29.859  10.826  1.00  0.00     0.000 C 
ENDROOT
BRANCH   1   2
ATOM      2  C   UNL     1      64.200  30.900  10.147  1.00  0.00     0.000 C 
BRANCH   2   3
ATOM      3  C   UNL     1      64.483  32.164  10.977  1.00  0.00     0.000 C 
BRANCH   3   4
ATOM      4  C   UNL     1      63.538  32.314  12.181  1.00  0.00     0.000 C 
BRANCH   4   5
ATOM      5  C   UNL     1      64.239  32.894  13.424  1.00  0.00     0.000 C 
BRANCH   5   6
ATOM      6  C   UNL     1      64.347  31.936  14.629  1.00  0.00     0.000 C 
BRANCH   6   7
ATOM      7  C   UNL     1      63.799  32.492  15.955  1.00  0.00     0.006 C 
BRANCH   7   8
ATOM      8  C   UNL     1      62.740  33.583  15.751  1.00  0.00     0.053 C 
BRANCH   8   9
ATOM      9  C   UNL     1      62.013  33.849  17.030  1.00  0.00     0.041 C 
ATOM     10  O   UNL     1      60.952  33.225  17.297  1.00  0.00    -0.550 OA
ATOM     11  O   UNL     1      62.531  34.751  17.951  1.00  0.00    -0.550 OA
ENDBRANCH   8   9
ENDBRANCH   7   8
ENDBRANCH   6   7
ENDBRANCH   5   6
ENDBRANCH   4   5
ENDBRANCH   3   4
ENDBRANCH   2   3
ENDBRANCH   1   2
BRANCH   1  12
ATOM     12  C   UNL     1      62.851  28.734   9.878  1.00  0.00     0.000 C 
BRANCH  12  13
ATOM     13  C   UNL     1      61.339  28.482   9.987  1.00  0.00    -0.000 C 
BRANCH  13  14
ATOM     14  C   UNL     1      60.676  29.282  11.123  1.00  0.00    -0.000 C 
BRANCH  14  15
ATOM     15  C   UNL     1      59.813  28.453  12.094  1.00  0.00    -0.000 C 
BRANCH  15  16
ATOM     16  C   UNL     1      60.447  28.312  13.488  1.00  0.00    -0.000 C 
BRANCH  16  17
ATOM     17  C   UNL     1      61.413  29.461  13.827  1.00  0.00    -0.000 C 
BRANCH  17  18
ATOM     18  C   UNL     1      60.920  30.437  14.910  1.00  0.00    -0.000 C 
BRANCH  18  19
ATOM     19  C   UNL     1      59.756  31.321  14.438  1.00  0.00    -0.003 C 
ATOM     20  C   UNL     1      60.225  32.344  13.407  1.00  0.00     0.004 C 
ENDBRANCH  18  19
ENDBRANCH  17  18
ENDBRANCH  16  17
ENDBRANCH  15  16
ENDBRANCH  14  15
ENDBRANCH  13  14
ENDBRANCH  12  13
ENDBRANCH   1  12
TORSDOF 16
ENDMDL
MODEL 9
REMARK VINA RESULT:    -4.378      2.787      6.450
REMARK INTER + INTRA:         -11.208
REMARK INTER:                  -8.708
REMARK INTRA:                  -2.501
REMARK UNBOUND:                -2.736
REMARK SMILES CCCCCCCCCCCCCCCCCC(=O)[O-]
REMARK SMILES IDX 10 1 11 2 12 3 13 4 14 5 15 6 16 7 17 8 18 9 19 10 20 11
REMARK SMILES IDX 9 12 8 13 7 14 6 15 5 16 4 17 3 18 2 19 1 20
REMARK H PARENT
REMARK Flexibility Score: inf
ROOT
ATOM      1  C   UNL     1      63.228  31.985  12.509  1.00  0.00     0.000 C 
ENDROOT
BRANCH   1   2
ATOM      2  C   UNL     1      62.982  30.544  12.991  1.00  0.00     0.000 C 
BRANCH   2   3
ATOM      3  C   UNL     1      63.271  29.446  11.952  1.00  0.00     0.000 C 
BRANCH   3   4
ATOM      4  C   UNL     1      63.057  29.920  10.504  1.00  0.00     0.000 C 
BRANCH   4   5
ATOM      5  C   UNL     1      62.336  28.875   9.633  1.00  0.00     0.000 C 
BRANCH   5   6
ATOM      6  C   UNL     1      61.165  28.139  10.316  1.00  0.00     0.000 C 
BRANCH   6   7
ATOM      7  C   UNL     1      59.838  28.917  10.358  1.00  0.00     0.006 C 
BRANCH   7   8
ATOM      8  C   UNL     1      59.537  29.505  11.743  1.00  0.00     0.053 C 
BRANCH   8   9
ATOM      9  C   UNL     1      59.346  28.410  12.743  1.00  0.00     0.041 C 
ATOM     10  O   UNL     1      60.238  28.174  13.601  1.00  0.00    -0.550 OA
ATOM     11  O   UNL     1      58.164  27.681  12.761  1.00  0.00    -0.550 OA
ENDBRANCH   8   9
ENDBRANCH   7   8
ENDBRANCH   6   7
ENDBRANCH   5   6
ENDBRANCH   4   5
ENDBRANCH   3   4
ENDBRANCH   2   3
ENDBRANCH   1   2
BRANCH   1  12
ATOM     12  C   UNL     1      64.092  32.805  13.478  1.00  0.00     0.000 C 
BRANCH  12  13
ATOM     13  C   UNL     1      64.608  31.929  14.630  1.00  0.00    -0.000 C 
BRANCH  13  14
ATOM     14  C   UNL     1      64.362  32.551  16.016  1.00  0.00    -0.000 C 
BRANCH  14  15
ATOM     15  C   UNL     1      63.578  33.877  16.012  1.00  0.00    -0.000 C 
BRANCH  15  16
ATOM     16  C   UNL     1      62.298  33.820  16.864  1.00  0.00    -0.000 C 
BRANCH  16  17
ATOM     17  C   UNL     1      61.034  33.544  16.031  1.00  0.00    -0.000 C 
BRANCH  17  18
ATOM     18  C   UNL     1      60.644  32.061  15.898  1.00  0.00    -0.000 C 
BRANCH  18  19
ATOM     19  C   UNL     1      59.714  31.789  14.707  1.00  0.00    -0.003 C 
ATOM     20  C   UNL     1      60.026  32.723  13.541  1.00  0.00     0.004 C 
ENDBRANCH  18  19
ENDBRANCH  17  18
ENDBRANCH  16  17
ENDBRANCH  15  16
ENDBRANCH  14  15
ENDBRANCH  13  14
ENDBRANCH  12  13
ENDBRANCH   1  12
TORSDOF 16
ENDMDL
