MODEL 1
REMARK VINA RESULT:    -2.941      0.000      0.000
REMARK INTER + INTRA:          -3.231
REMARK INTER:                  -3.199
REMARK INTRA:                  -0.033
REMARK UNBOUND:                -0.033
REMARK SMILES COc1ccccc1O
REMARK SMILES IDX 3 1 4 2 5 3 6 4 7 5 8 6 2 7 1 8 9 9
REMARK H PARENT 9 10
REMARK Flexibility Score: inf
ROOT
ATOM      1  C   UNL     1      18.444  -1.336  11.372  1.00  0.00     0.160 A 
ATOM      2  C   UNL     1      18.279  -0.963  12.721  1.00  0.00     0.050 A 
ATOM      3  C   UNL     1      19.371  -0.970  13.594  1.00  0.00     0.004 A 
ATOM      4  C   UNL     1      20.634  -1.349  13.134  1.00  0.00     0.004 A 
ATOM      5  C   UNL     1      20.808  -1.722  11.799  1.00  0.00     0.050 A 
ATOM      6  C   UNL     1      19.721  -1.718  10.917  1.00  0.00     0.157 A 
ENDROOT
BRANCH   1   7
ATOM      7  O   UNL     1      17.372  -1.341  10.466  1.00  0.00    -0.493 OA
ATOM      8  C   UNL     1      16.448  -0.270  10.303  1.00  0.00     0.278 C 
ENDBRANCH   1   7
BRANCH   6   9
ATOM      9  O   UNL     1      19.931  -2.095   9.590  1.00  0.00    -0.504 OA
ATOM     10  H   UNL     1      20.373  -2.973   9.344  1.00  0.00     0.293 HD
ENDBRANCH   6   9
TORSDOF 2
ENDMDL
MODEL 2
REMARK VINA RESULT:    -2.852      7.751      8.466
REMARK INTER + INTRA:          -3.134
REMARK INTER:                  -3.096
REMARK INTRA:                  -0.038
REMARK UNBOUND:                -0.033
REMARK SMILES COc1ccccc1O
REMARK SMILES IDX 3 1 4 2 5 3 6 4 7 5 8 6 2 7 1 8 9 9
REMARK H PARENT 9 10
REMARK Flexibility Score: inf
ROOT
ATOM      1  C   UNL     1      12.502   2.680  14.049  1.00  0.00     0.160 A 
ATOM      2  C   UNL     1      11.569   1.624  14.097  1.00  0.00     0.050 A 
ATOM      3  C   UNL     1      11.044   1.093  12.916  1.00  0.00     0.004 A 
ATOM      4  C   UNL     1      11.439   1.606  11.680  1.00  0.00     0.004 A 
ATOM      5  C   UNL     1      12.363   2.652  11.621  1.00  0.00     0.050 A 
ATOM      6  C   UNL     1      12.895   3.192  12.798  1.00  0.00     0.157 A 
ENDROOT
BRANCH   1   7
ATOM      7  O   UNL     1      13.052   3.239  15.214  1.00  0.00    -0.493 OA
ATOM      8  C   UNL     1      13.800   2.512  16.183  1.00  0.00     0.278 C 
ENDBRANCH   1   7
BRANCH   6   9
ATOM      9  O   UNL     1      13.816   4.236  12.702  1.00  0.00    -0.504 OA
ATOM     10  H   UNL     1      14.155   4.575  11.810  1.00  0.00     0.293 HD
ENDBRANCH   6   9
TORSDOF 2
ENDMDL
MODEL 3
REMARK VINA RESULT:    -2.834      2.291      3.482
REMARK INTER + INTRA:          -3.115
REMARK INTER:                  -3.070
REMARK INTRA:                  -0.045
REMARK UNBOUND:                -0.033
REMARK SMILES COc1ccccc1O
REMARK SMILES IDX 3 1 4 2 5 3 6 4 7 5 8 6 2 7 1 8 9 9
REMARK H PARENT 9 10
REMARK Flexibility Score: inf
ROOT
ATOM      1  C   UNL     1      17.496   0.383  12.929  1.00  0.00     0.160 A 
ATOM      2  C   UNL     1      18.692  -0.245  13.330  1.00  0.00     0.050 A 
ATOM      3  C   UNL     1      19.267  -1.241  12.535  1.00  0.00     0.004 A 
ATOM      4  C   UNL     1      18.660  -1.619  11.336  1.00  0.00     0.004 A 
ATOM      5  C   UNL     1      17.474  -1.002  10.929  1.00  0.00     0.050 A 
ATOM      6  C   UNL     1      16.889  -0.004  11.718  1.00  0.00     0.157 A 
ENDROOT
BRANCH   1   7
ATOM      7  O   UNL     1      16.888   1.386  13.700  1.00  0.00    -0.493 OA
ATOM      8  C   UNL     1      16.179   1.153  14.913  1.00  0.00     0.278 C 
ENDBRANCH   1   7
BRANCH   6   9
ATOM      9  O   UNL     1      15.705   0.590  11.281  1.00  0.00    -0.504 OA
ATOM     10  H   UNL     1      14.797   0.181  11.466  1.00  0.00     0.293 HD
ENDBRANCH   6   9
TORSDOF 2
ENDMDL
MODEL 4
REMARK VINA RESULT:    -2.828     15.143     15.345
REMARK INTER + INTRA:          -3.108
REMARK INTER:                  -3.080
REMARK INTRA:                  -0.028
REMARK UNBOUND:                -0.033
REMARK SMILES COc1ccccc1O
REMARK SMILES IDX 3 1 4 2 5 3 6 4 7 5 8 6 2 7 1 8 9 9
REMARK H PARENT 9 10
REMARK Flexibility Score: inf
ROOT
ATOM      1  C   UNL     1      28.009   3.428   0.294  1.00  0.00     0.160 A 
ATOM      2  C   UNL     1      27.684   2.211  -0.339  1.00  0.00     0.050 A 
ATOM      3  C   UNL     1      28.352   1.034   0.010  1.00  0.00     0.004 A 
ATOM      4  C   UNL     1      29.348   1.056   0.988  1.00  0.00     0.004 A 
ATOM      5  C   UNL     1      29.678   2.256   1.621  1.00  0.00     0.050 A 
ATOM      6  C   UNL     1      29.015   3.441   1.279  1.00  0.00     0.157 A 
ENDROOT
BRANCH   1   7
ATOM      7  O   UNL     1      27.360   4.630  -0.029  1.00  0.00    -0.493 OA
ATOM      8  C   UNL     1      26.908   4.978  -1.334  1.00  0.00     0.278 C 
ENDBRANCH   1   7
BRANCH   6   9
ATOM      9  O   UNL     1      29.370   4.622   1.932  1.00  0.00    -0.504 OA
ATOM     10  H   UNL     1      29.488   4.667   2.937  1.00  0.00     0.293 HD
ENDBRANCH   6   9
TORSDOF 2
ENDMDL
MODEL 5
REMARK VINA RESULT:    -2.816      3.007      4.376
REMARK INTER + INTRA:          -3.096
REMARK INTER:                  -3.055
REMARK INTRA:                  -0.041
REMARK UNBOUND:                -0.033
REMARK SMILES COc1ccccc1O
REMARK SMILES IDX 3 1 4 2 5 3 6 4 7 5 8 6 2 7 1 8 9 9
REMARK H PARENT 9 10
REMARK Flexibility Score: inf
ROOT
ATOM      1  C   UNL     1      17.247   0.381  13.422  1.00  0.00     0.160 A 
ATOM      2  C   UNL     1      18.107  -0.519  14.083  1.00  0.00     0.050 A 
ATOM      3  C   UNL     1      18.005  -0.708  15.464  1.00  0.00     0.004 A 
ATOM      4  C   UNL     1      17.050  -0.004  16.199  1.00  0.00     0.004 A 
ATOM      5  C   UNL     1      16.193   0.891  15.555  1.00  0.00     0.050 A 
ATOM      6  C   UNL     1      16.286   1.087  14.171  1.00  0.00     0.157 A 
ENDROOT
BRANCH   1   7
ATOM      7  O   UNL     1      17.319   0.597  12.037  1.00  0.00    -0.493 OA
ATOM      8  C   UNL     1      16.630  -0.180  11.062  1.00  0.00     0.278 C 
ENDBRANCH   1   7
BRANCH   6   9
ATOM      9  O   UNL     1      15.414   1.989  13.560  1.00  0.00    -0.504 OA
ATOM     10  H   UNL     1      15.060   2.807  14.042  1.00  0.00     0.293 HD
ENDBRANCH   6   9
TORSDOF 2
ENDMDL
MODEL 6
REMARK VINA RESULT:    -2.806     14.746     15.206
REMARK INTER + INTRA:          -3.084
REMARK INTER:                  -3.038
REMARK INTRA:                  -0.046
REMARK UNBOUND:                -0.033
REMARK SMILES COc1ccccc1O
REMARK SMILES IDX 3 1 4 2 5 3 6 4 7 5 8 6 2 7 1 8 9 9
REMARK H PARENT 9 10
REMARK Flexibility Score: inf
ROOT
ATOM      1  C   UNL     1      28.308   1.839   0.002  1.00  0.00     0.160 A 
ATOM      2  C   UNL     1      29.294   1.883   1.009  1.00  0.00     0.050 A 
ATOM      3  C   UNL     1      29.537   3.070   1.707  1.00  0.00     0.004 A 
ATOM      4  C   UNL     1      28.804   4.220   1.410  1.00  0.00     0.004 A 
ATOM      5  C   UNL     1      27.825   4.188   0.414  1.00  0.00     0.050 A 
ATOM      6  C   UNL     1      27.574   3.004  -0.291  1.00  0.00     0.157 A 
ENDROOT
BRANCH   1   7
ATOM      7  O   UNL     1      28.036   0.666  -0.720  1.00  0.00    -0.493 OA
ATOM      8  C   UNL     1      27.183  -0.380  -0.267  1.00  0.00     0.278 C 
ENDBRANCH   1   7
BRANCH   6   9
ATOM      9  O   UNL     1      26.589   3.007  -1.279  1.00  0.00    -0.504 OA
ATOM     10  H   UNL     1      25.627   3.255  -1.080  1.00  0.00     0.293 HD
ENDBRANCH   6   9
TORSDOF 2
ENDMDL
MODEL 7
REMARK VINA RESULT:    -2.801      4.983      7.500
REMARK INTER + INTRA:          -3.079
REMARK INTER:                  -3.050
REMARK INTRA:                  -0.029
REMARK UNBOUND:                -0.033
REMARK SMILES COc1ccccc1O
REMARK SMILES IDX 3 1 4 2 5 3 6 4 7 5 8 6 2 7 1 8 9 9
REMARK H PARENT 9 10
REMARK Flexibility Score: inf
ROOT
ATOM      1  C   UNL     1      13.710   1.566  12.883  1.00  0.00     0.160 A 
ATOM      2  C   UNL     1      13.173   0.317  12.508  1.00  0.00     0.050 A 
ATOM      3  C   UNL     1      12.031   0.253  11.705  1.00  0.00     0.004 A 
ATOM      4  C   UNL     1      11.413   1.427  11.270  1.00  0.00     0.004 A 
ATOM      5  C   UNL     1      11.937   2.669  11.636  1.00  0.00     0.050 A 
ATOM      6  C   UNL     1      13.081   2.744  12.440  1.00  0.00     0.157 A 
ENDROOT
BRANCH   1   7
ATOM      7  O   UNL     1      14.856   1.670  13.688  1.00  0.00    -0.493 OA
ATOM      8  C   UNL     1      15.974   0.791  13.618  1.00  0.00     0.278 C 
ENDBRANCH   1   7
BRANCH   6   9
ATOM      9  O   UNL     1      13.577   4.002  12.786  1.00  0.00    -0.504 OA
ATOM     10  H   UNL     1      14.378   4.115  13.395  1.00  0.00     0.293 HD
ENDBRANCH   6   9
TORSDOF 2
ENDMDL
MODEL 8
REMARK VINA RESULT:    -2.753      2.060      3.038
REMARK INTER + INTRA:          -3.027
REMARK INTER:                  -2.981
REMARK INTRA:                  -0.046
REMARK UNBOUND:                -0.033
REMARK SMILES COc1ccccc1O
REMARK SMILES IDX 3 1 4 2 5 3 6 4 7 5 8 6 2 7 1 8 9 9
REMARK H PARENT 9 10
REMARK Flexibility Score: inf
ROOT
ATOM      1  C   UNL     1      16.848  -0.378  11.056  1.00  0.00     0.160 A 
ATOM      2  C   UNL     1      17.693  -1.364  10.507  1.00  0.00     0.050 A 
ATOM      3  C   UNL     1      18.857  -1.749  11.178  1.00  0.00     0.004 A 
ATOM      4  C   UNL     1      19.191  -1.158  12.397  1.00  0.00     0.004 A 
ATOM      5  C   UNL     1      18.362  -0.180  12.950  1.00  0.00     0.050 A 
ATOM      6  C   UNL     1      17.193   0.213  12.286  1.00  0.00     0.157 A 
ENDROOT
BRANCH   1   7
ATOM      7  O   UNL     1      15.671   0.035  10.411  1.00  0.00    -0.493 OA
ATOM      8  C   UNL     1      14.459  -0.711  10.390  1.00  0.00     0.278 C 
ENDBRANCH   1   7
BRANCH   6   9
ATOM      9  O   UNL     1      16.388   1.193  12.867  1.00  0.00    -0.504 OA
ATOM     10  H   UNL     1      15.398   1.267  12.663  1.00  0.00     0.293 HD
ENDBRANCH   6   9
TORSDOF 2
ENDMDL
MODEL 9
REMARK VINA RESULT:    -2.742     13.895     14.676
REMARK INTER + INTRA:          -3.015
REMARK INTER:                  -2.969
REMARK INTRA:                  -0.046
REMARK UNBOUND:                -0.033
REMARK SMILES COc1ccccc1O
REMARK SMILES IDX 3 1 4 2 5 3 6 4 7 5 8 6 2 7 1 8 9 9
REMARK H PARENT 9 10
REMARK Flexibility Score: inf
ROOT
ATOM      1  C   UNL     1      28.307   0.545   0.312  1.00  0.00     0.160 A 
ATOM      2  C   UNL     1      28.592  -0.757   0.771  1.00  0.00     0.050 A 
ATOM      3  C   UNL     1      27.603  -1.745   0.751  1.00  0.00     0.004 A 
ATOM      4  C   UNL     1      26.324  -1.446   0.277  1.00  0.00     0.004 A 
ATOM      5  C   UNL     1      26.031  -0.159  -0.179  1.00  0.00     0.050 A 
ATOM      6  C   UNL     1      27.015   0.837  -0.164  1.00  0.00     0.157 A 
ENDROOT
BRANCH   1   7
ATOM      7  O   UNL     1      29.275   1.562   0.316  1.00  0.00    -0.493 OA
ATOM      8  C   UNL     1      29.609   2.353   1.452  1.00  0.00     0.278 C 
ENDBRANCH   1   7
BRANCH   6   9
ATOM      9  O   UNL     1      26.688   2.112  -0.628  1.00  0.00    -0.504 OA
ATOM     10  H   UNL     1      27.253   2.925  -0.412  1.00  0.00     0.293 HD
ENDBRANCH   6   9
TORSDOF 2
ENDMDL
