MODEL 1
REMARK VINA RESULT:    -3.982      0.000      0.000
REMARK INTER + INTRA:          -7.395
REMARK INTER:                  -6.891
REMARK INTRA:                  -0.504
REMARK UNBOUND:                -0.504
REMARK SMILES CCCCCCCCCCCCCCO
REMARK SMILES IDX 8 1 7 2 6 3 5 4 4 5 3 6 2 7 1 8 9 9 10 10 11 11 12 12 13 13
REMARK SMILES IDX 14 14 15 15
REMARK H PARENT 15 16
REMARK Flexibility Score: inf
ROOT
ATOM      1  C   UNL     1     211.376 201.411 207.844  1.00  0.00     0.000 C 
ENDROOT
BRANCH   1   2
ATOM      2  C   UNL     1     210.207 202.311 208.272  1.00  0.00    -0.000 C 
BRANCH   2   3
ATOM      3  C   UNL     1     209.993 203.498 207.319  1.00  0.00    -0.000 C 
BRANCH   3   4
ATOM      4  C   UNL     1     208.834 204.407 207.756  1.00  0.00    -0.000 C 
BRANCH   4   5
ATOM      5  C   UNL     1     209.170 205.885 207.507  1.00  0.00    -0.000 C 
BRANCH   5   6
ATOM      6  C   UNL     1     210.622 206.229 207.904  1.00  0.00    -0.000 C 
BRANCH   6   7
ATOM      7  C   UNL     1     211.384 207.018 206.826  1.00  0.00    -0.003 C 
ATOM      8  C   UNL     1     210.940 208.475 206.724  1.00  0.00     0.004 C 
ENDBRANCH   6   7
ENDBRANCH   5   6
ENDBRANCH   4   5
ENDBRANCH   3   4
ENDBRANCH   2   3
ENDBRANCH   1   2
BRANCH   1   9
ATOM      9  C   UNL     1     211.533 200.222 208.802  1.00  0.00     0.000 C 
BRANCH   9  10
ATOM     10  C   UNL     1     212.452 199.121 208.245  1.00  0.00     0.000 C 
BRANCH  10  11
ATOM     11  C   UNL     1     212.499 197.826 209.082  1.00  0.00     0.000 C 
BRANCH  11  12
ATOM     12  C   UNL     1     211.614 197.829 210.345  1.00  0.00     0.002 C 
BRANCH  12  13
ATOM     13  C   UNL     1     212.262 197.202 211.594  1.00  0.00     0.028 C 
BRANCH  13  14
ATOM     14  C   UNL     1     212.278 198.129 212.812  1.00  0.00     0.156 C 
BRANCH  14  15
ATOM     15  O   UNL     1     211.375 199.185 212.633  1.00  0.00    -0.396 OA
ATOM     16  H   UNL     1     211.465 199.763 213.435  1.00  0.00     0.210 HD
ENDBRANCH  14  15
ENDBRANCH  13  14
ENDBRANCH  12  13
ENDBRANCH  11  12
ENDBRANCH  10  11
ENDBRANCH   9  10
ENDBRANCH   1   9
TORSDOF 13
ENDMDL
MODEL 2
REMARK VINA RESULT:    -3.928      1.711      3.665
REMARK INTER + INTRA:          -7.303
REMARK INTER:                  -6.238
REMARK INTRA:                  -1.065
REMARK UNBOUND:                -0.504
REMARK SMILES CCCCCCCCCCCCCCO
REMARK SMILES IDX 8 1 7 2 6 3 5 4 4 5 3 6 2 7 1 8 9 9 10 10 11 11 12 12 13 13
REMARK SMILES IDX 14 14 15 15
REMARK H PARENT 15 16
REMARK Flexibility Score: inf
ROOT
ATOM      1  C   UNL     1     210.344 203.066 207.832  1.00  0.00     0.000 C 
ENDROOT
BRANCH   1   2
ATOM      2  C   UNL     1     210.301 204.588 207.633  1.00  0.00    -0.000 C 
BRANCH   2   3
ATOM      3  C   UNL     1     209.222 205.025 206.629  1.00  0.00    -0.000 C 
BRANCH   3   4
ATOM      4  C   UNL     1     208.261 203.886 206.258  1.00  0.00    -0.000 C 
BRANCH   4   5
ATOM      5  C   UNL     1     206.925 204.028 207.004  1.00  0.00    -0.000 C 
BRANCH   5   6
ATOM      6  C   UNL     1     206.520 202.728 207.729  1.00  0.00    -0.000 C 
BRANCH   6   7
ATOM      7  C   UNL     1     207.106 202.605 209.146  1.00  0.00    -0.003 C 
ATOM      8  C   UNL     1     207.529 201.181 209.499  1.00  0.00     0.004 C 
ENDBRANCH   6   7
ENDBRANCH   5   6
ENDBRANCH   4   5
ENDBRANCH   3   4
ENDBRANCH   2   3
ENDBRANCH   1   2
BRANCH   1   9
ATOM      9  C   UNL     1     211.463 202.433 206.992  1.00  0.00     0.000 C 
BRANCH   9  10
ATOM     10  C   UNL     1     211.889 201.048 207.509  1.00  0.00     0.000 C 
BRANCH  10  11
ATOM     11  C   UNL     1     211.154 200.572 208.779  1.00  0.00     0.000 C 
BRANCH  11  12
ATOM     12  C   UNL     1     211.587 199.189 209.308  1.00  0.00     0.002 C 
BRANCH  12  13
ATOM     13  C   UNL     1     210.796 198.684 210.529  1.00  0.00     0.028 C 
BRANCH  13  14
ATOM     14  C   UNL     1     211.664 198.426 211.764  1.00  0.00     0.156 C 
BRANCH  14  15
ATOM     15  O   UNL     1     211.507 199.462 212.694  1.00  0.00    -0.396 OA
ATOM     16  H   UNL     1     211.027 200.188 212.218  1.00  0.00     0.210 HD
ENDBRANCH  14  15
ENDBRANCH  13  14
ENDBRANCH  12  13
ENDBRANCH  11  12
ENDBRANCH  10  11
ENDBRANCH   9  10
ENDBRANCH   1   9
TORSDOF 13
ENDMDL
MODEL 3
REMARK VINA RESULT:    -3.920      2.469      8.184
REMARK INTER + INTRA:          -7.289
REMARK INTER:                  -6.734
REMARK INTRA:                  -0.554
REMARK UNBOUND:                -0.504
REMARK SMILES CCCCCCCCCCCCCCO
REMARK SMILES IDX 8 1 7 2 6 3 5 4 4 5 3 6 2 7 1 8 9 9 10 10 11 11 12 12 13 13
REMARK SMILES IDX 14 14 15 15
REMARK H PARENT 15 16
REMARK Flexibility Score: inf
ROOT
ATOM      1  C   UNL     1     209.856 201.765 208.680  1.00  0.00     0.000 C 
ENDROOT
BRANCH   1   2
ATOM      2  C   UNL     1     210.369 200.487 209.358  1.00  0.00    -0.000 C 
BRANCH   2   3
ATOM      3  C   UNL     1     211.651 199.944 208.708  1.00  0.00    -0.000 C 
BRANCH   3   4
ATOM      4  C   UNL     1     212.052 198.563 209.249  1.00  0.00    -0.000 C 
BRANCH   4   5
ATOM      5  C   UNL     1     211.282 198.232 210.536  1.00  0.00    -0.000 C 
BRANCH   5   6
ATOM      6  C   UNL     1     212.116 197.376 211.513  1.00  0.00    -0.000 C 
BRANCH   6   7
ATOM      7  C   UNL     1     212.294 198.020 212.898  1.00  0.00    -0.003 C 
ATOM      8  C   UNL     1     212.927 197.079 213.920  1.00  0.00     0.004 C 
ENDBRANCH   6   7
ENDBRANCH   5   6
ENDBRANCH   4   5
ENDBRANCH   3   4
ENDBRANCH   2   3
ENDBRANCH   1   2
BRANCH   1   9
ATOM      9  C   UNL     1     208.367 201.988 208.983  1.00  0.00     0.000 C 
BRANCH   9  10
ATOM     10  C   UNL     1     207.825 203.300 208.390  1.00  0.00     0.000 C 
BRANCH  10  11
ATOM     11  C   UNL     1     208.737 203.966 207.339  1.00  0.00     0.000 C 
BRANCH  11  12
ATOM     12  C   UNL     1     208.814 205.505 207.419  1.00  0.00     0.002 C 
BRANCH  12  13
ATOM     13  C   UNL     1     210.144 206.061 207.961  1.00  0.00     0.028 C 
BRANCH  13  14
ATOM     14  C   UNL     1     211.111 206.524 206.868  1.00  0.00     0.156 C 
BRANCH  14  15
ATOM     15  O   UNL     1     212.024 205.506 206.563  1.00  0.00    -0.396 OA
ATOM     16  H   UNL     1     212.886 205.778 206.972  1.00  0.00     0.210 HD
ENDBRANCH  14  15
ENDBRANCH  13  14
ENDBRANCH  12  13
ENDBRANCH  11  12
ENDBRANCH  10  11
ENDBRANCH   9  10
ENDBRANCH   1   9
TORSDOF 13
ENDMDL
MODEL 4
REMARK VINA RESULT:    -3.902     10.935     12.912
REMARK INTER + INTRA:          -7.258
REMARK INTER:                  -5.478
REMARK INTRA:                  -1.780
REMARK UNBOUND:                -0.504
REMARK SMILES CCCCCCCCCCCCCCO
REMARK SMILES IDX 8 1 7 2 6 3 5 4 4 5 3 6 2 7 1 8 9 9 10 10 11 11 12 12 13 13
REMARK SMILES IDX 14 14 15 15
REMARK H PARENT 15 16
REMARK Flexibility Score: inf
ROOT
ATOM      1  C   UNL     1     200.601 203.978 205.229  1.00  0.00     0.000 C 
ENDROOT
BRANCH   1   2
ATOM      2  C   UNL     1     201.350 204.771 206.311  1.00  0.00    -0.000 C 
BRANCH   2   3
ATOM      3  C   UNL     1     201.625 203.938 207.573  1.00  0.00    -0.000 C 
BRANCH   3   4
ATOM      4  C   UNL     1     200.481 204.014 208.595  1.00  0.00    -0.000 C 
BRANCH   4   5
ATOM      5  C   UNL     1     199.937 205.446 208.707  1.00  0.00    -0.000 C 
BRANCH   5   6
ATOM      6  C   UNL     1     198.394 205.485 208.722  1.00  0.00    -0.000 C 
BRANCH   6   7
ATOM      7  C   UNL     1     197.742 204.325 207.952  1.00  0.00    -0.003 C 
ATOM      8  C   UNL     1     197.266 204.723 206.557  1.00  0.00     0.004 C 
ENDBRANCH   6   7
ENDBRANCH   5   6
ENDBRANCH   4   5
ENDBRANCH   3   4
ENDBRANCH   2   3
ENDBRANCH   1   2
BRANCH   1   9
ATOM      9  C   UNL     1     200.741 202.467 205.460  1.00  0.00     0.000 C 
BRANCH   9  10
ATOM     10  C   UNL     1     199.388 201.735 205.469  1.00  0.00     0.000 C 
BRANCH  10  11
ATOM     11  C   UNL     1     198.992 201.114 206.825  1.00  0.00     0.000 C 
BRANCH  11  12
ATOM     12  C   UNL     1     197.524 200.654 206.931  1.00  0.00     0.002 C 
BRANCH  12  13
ATOM     13  C   UNL     1     196.985 199.911 205.695  1.00  0.00     0.028 C 
BRANCH  13  14
ATOM     14  C   UNL     1     197.517 198.482 205.552  1.00  0.00     0.156 C 
BRANCH  14  15
ATOM     15  O   UNL     1     197.510 197.833 206.794  1.00  0.00    -0.396 OA
ATOM     16  H   UNL     1     197.423 198.548 207.477  1.00  0.00     0.210 HD
ENDBRANCH  14  15
ENDBRANCH  13  14
ENDBRANCH  12  13
ENDBRANCH  11  12
ENDBRANCH  10  11
ENDBRANCH   9  10
ENDBRANCH   1   9
TORSDOF 13
ENDMDL
MODEL 5
REMARK VINA RESULT:    -3.882      2.421      3.645
REMARK INTER + INTRA:          -7.223
REMARK INTER:                  -6.434
REMARK INTRA:                  -0.789
REMARK UNBOUND:                -0.504
REMARK SMILES CCCCCCCCCCCCCCO
REMARK SMILES IDX 8 1 7 2 6 3 5 4 4 5 3 6 2 7 1 8 9 9 10 10 11 11 12 12 13 13
REMARK SMILES IDX 14 14 15 15
REMARK H PARENT 15 16
REMARK Flexibility Score: inf
ROOT
ATOM      1  C   UNL     1     212.205 198.384 208.624  1.00  0.00     0.000 C 
ENDROOT
BRANCH   1   2
ATOM      2  C   UNL     1     212.697 199.365 207.550  1.00  0.00    -0.000 C 
BRANCH   2   3
ATOM      3  C   UNL     1     212.440 200.833 207.925  1.00  0.00    -0.000 C 
BRANCH   3   4
ATOM      4  C   UNL     1     211.512 201.546 206.929  1.00  0.00    -0.000 C 
BRANCH   4   5
ATOM      5  C   UNL     1     210.689 202.639 207.630  1.00  0.00    -0.000 C 
BRANCH   5   6
ATOM      6  C   UNL     1     209.652 202.051 208.610  1.00  0.00    -0.000 C 
BRANCH   6   7
ATOM      7  C   UNL     1     208.295 202.776 208.578  1.00  0.00    -0.003 C 
ATOM      8  C   UNL     1     208.357 204.131 207.877  1.00  0.00     0.004 C 
ENDBRANCH   6   7
ENDBRANCH   5   6
ENDBRANCH   4   5
ENDBRANCH   3   4
ENDBRANCH   2   3
ENDBRANCH   1   2
BRANCH   1   9
ATOM      9  C   UNL     1     211.523 199.131 209.779  1.00  0.00     0.000 C 
BRANCH   9  10
ATOM     10  C   UNL     1     211.468 198.306 211.077  1.00  0.00     0.000 C 
BRANCH  10  11
ATOM     11  C   UNL     1     212.222 196.962 211.027  1.00  0.00     0.000 C 
BRANCH  11  12
ATOM     12  C   UNL     1     212.768 196.465 212.381  1.00  0.00     0.002 C 
BRANCH  12  13
ATOM     13  C   UNL     1     212.643 197.472 213.540  1.00  0.00     0.028 C 
BRANCH  13  14
ATOM     14  C   UNL     1     213.489 197.112 214.764  1.00  0.00     0.156 C 
BRANCH  14  15
ATOM     15  O   UNL     1     212.997 195.949 215.371  1.00  0.00    -0.396 OA
ATOM     16  H   UNL     1     213.148 195.215 214.721  1.00  0.00     0.210 HD
ENDBRANCH  14  15
ENDBRANCH  13  14
ENDBRANCH  12  13
ENDBRANCH  11  12
ENDBRANCH  10  11
ENDBRANCH   9  10
ENDBRANCH   1   9
TORSDOF 13
ENDMDL
MODEL 6
REMARK VINA RESULT:    -3.846      2.670      8.584
REMARK INTER + INTRA:          -7.160
REMARK INTER:                  -6.693
REMARK INTRA:                  -0.467
REMARK UNBOUND:                -0.504
REMARK SMILES CCCCCCCCCCCCCCO
REMARK SMILES IDX 8 1 7 2 6 3 5 4 4 5 3 6 2 7 1 8 9 9 10 10 11 11 12 12 13 13
REMARK SMILES IDX 14 14 15 15
REMARK H PARENT 15 16
REMARK Flexibility Score: inf
ROOT
ATOM      1  C   UNL     1     211.505 199.705 208.750  1.00  0.00     0.000 C 
ENDROOT
BRANCH   1   2
ATOM      2  C   UNL     1     211.242 199.423 210.237  1.00  0.00    -0.000 C 
BRANCH   2   3
ATOM      3  C   UNL     1     210.707 198.004 210.486  1.00  0.00    -0.000 C 
BRANCH   3   4
ATOM      4  C   UNL     1     211.715 197.111 211.226  1.00  0.00    -0.000 C 
BRANCH   4   5
ATOM      5  C   UNL     1     212.280 197.828 212.462  1.00  0.00    -0.000 C 
BRANCH   5   6
ATOM      6  C   UNL     1     212.874 196.841 213.489  1.00  0.00    -0.000 C 
BRANCH   6   7
ATOM      7  C   UNL     1     213.227 197.494 214.837  1.00  0.00    -0.003 C 
ATOM      8  C   UNL     1     212.463 196.890 216.013  1.00  0.00     0.004 C 
ENDBRANCH   6   7
ENDBRANCH   5   6
ENDBRANCH   4   5
ENDBRANCH   3   4
ENDBRANCH   2   3
ENDBRANCH   1   2
BRANCH   1   9
ATOM      9  C   UNL     1     211.191 201.168 208.405  1.00  0.00     0.000 C 
BRANCH   9  10
ATOM     10  C   UNL     1     209.814 201.623 208.919  1.00  0.00     0.000 C 
BRANCH  10  11
ATOM     11  C   UNL     1     209.218 202.846 208.191  1.00  0.00     0.000 C 
BRANCH  11  12
ATOM     12  C   UNL     1     210.253 203.847 207.637  1.00  0.00     0.002 C 
BRANCH  12  13
ATOM     13  C   UNL     1     209.697 204.854 206.613  1.00  0.00     0.028 C 
BRANCH  13  14
ATOM     14  C   UNL     1     209.177 206.151 207.241  1.00  0.00     0.156 C 
BRANCH  14  15
ATOM     15  O   UNL     1     210.111 206.657 208.155  1.00  0.00    -0.396 OA
ATOM     16  H   UNL     1     210.418 207.524 207.782  1.00  0.00     0.210 HD
ENDBRANCH  14  15
ENDBRANCH  13  14
ENDBRANCH  12  13
ENDBRANCH  11  12
ENDBRANCH  10  11
ENDBRANCH   9  10
ENDBRANCH   1   9
TORSDOF 13
ENDMDL
MODEL 7
REMARK VINA RESULT:    -3.799     12.623     14.481
REMARK INTER + INTRA:          -7.079
REMARK INTER:                  -6.283
REMARK INTRA:                  -0.795
REMARK UNBOUND:                -0.504
REMARK SMILES CCCCCCCCCCCCCCO
REMARK SMILES IDX 8 1 7 2 6 3 5 4 4 5 3 6 2 7 1 8 9 9 10 10 11 11 12 12 13 13
REMARK SMILES IDX 14 14 15 15
REMARK H PARENT 15 16
REMARK Flexibility Score: inf
ROOT
ATOM      1  C   UNL     1     198.732 202.799 206.417  1.00  0.00     0.000 C 
ENDROOT
BRANCH   1   2
ATOM      2  C   UNL     1     199.595 203.672 207.339  1.00  0.00    -0.000 C 
BRANCH   2   3
ATOM      3  C   UNL     1     198.756 204.557 208.275  1.00  0.00    -0.000 C 
BRANCH   3   4
ATOM      4  C   UNL     1     197.348 204.832 207.726  1.00  0.00    -0.000 C 
BRANCH   4   5
ATOM      5  C   UNL     1     196.824 206.191 208.215  1.00  0.00    -0.000 C 
BRANCH   5   6
ATOM      6  C   UNL     1     197.694 206.781 209.345  1.00  0.00    -0.000 C 
BRANCH   6   7
ATOM      7  C   UNL     1     196.929 207.738 210.275  1.00  0.00    -0.003 C 
ATOM      8  C   UNL     1     196.453 209.006 209.570  1.00  0.00     0.004 C 
ENDBRANCH   6   7
ENDBRANCH   5   6
ENDBRANCH   4   5
ENDBRANCH   3   4
ENDBRANCH   2   3
ENDBRANCH   1   2
BRANCH   1   9
ATOM      9  C   UNL     1     198.514 201.406 207.026  1.00  0.00     0.000 C 
BRANCH   9  10
ATOM     10  C   UNL     1     197.035 201.107 207.324  1.00  0.00     0.000 C 
BRANCH  10  11
ATOM     11  C   UNL     1     196.072 201.337 206.141  1.00  0.00     0.000 C 
BRANCH  11  12
ATOM     12  C   UNL     1     195.112 200.167 205.840  1.00  0.00     0.002 C 
BRANCH  12  13
ATOM     13  C   UNL     1     195.791 198.794 205.684  1.00  0.00     0.028 C 
BRANCH  13  14
ATOM     14  C   UNL     1     197.033 198.818 204.788  1.00  0.00     0.156 C 
BRANCH  14  15
ATOM     15  O   UNL     1     198.048 198.027 205.342  1.00  0.00    -0.396 OA
ATOM     16  H   UNL     1     197.673 197.111 205.416  1.00  0.00     0.210 HD
ENDBRANCH  14  15
ENDBRANCH  13  14
ENDBRANCH  12  13
ENDBRANCH  11  12
ENDBRANCH  10  11
ENDBRANCH   9  10
ENDBRANCH   1   9
TORSDOF 13
ENDMDL
MODEL 8
REMARK VINA RESULT:    -3.796     11.764     13.693
REMARK INTER + INTRA:          -7.074
REMARK INTER:                  -5.193
REMARK INTRA:                  -1.881
REMARK UNBOUND:                -0.504
REMARK SMILES CCCCCCCCCCCCCCO
REMARK SMILES IDX 8 1 7 2 6 3 5 4 4 5 3 6 2 7 1 8 9 9 10 10 11 11 12 12 13 13
REMARK SMILES IDX 14 14 15 15
REMARK H PARENT 15 16
REMARK Flexibility Score: inf
ROOT
ATOM      1  C   UNL     1     197.577 204.335 204.936  1.00  0.00     0.000 C 
ENDROOT
BRANCH   1   2
ATOM      2  C   UNL     1     198.369 203.241 204.205  1.00  0.00    -0.000 C 
BRANCH   2   3
ATOM      3  C   UNL     1     199.886 203.364 204.418  1.00  0.00    -0.000 C 
BRANCH   3   4
ATOM      4  C   UNL     1     200.246 204.201 205.655  1.00  0.00    -0.000 C 
BRANCH   4   5
ATOM      5  C   UNL     1     200.628 203.297 206.837  1.00  0.00    -0.000 C 
BRANCH   5   6
ATOM      6  C   UNL     1     199.563 203.315 207.954  1.00  0.00    -0.000 C 
BRANCH   6   7
ATOM      7  C   UNL     1     199.173 204.731 208.411  1.00  0.00    -0.003 C 
ATOM      8  C   UNL     1     200.266 205.419 209.227  1.00  0.00     0.004 C 
ENDBRANCH   6   7
ENDBRANCH   5   6
ENDBRANCH   4   5
ENDBRANCH   3   4
ENDBRANCH   2   3
ENDBRANCH   1   2
BRANCH   1   9
ATOM      9  C   UNL     1     196.467 203.723 205.803  1.00  0.00     0.000 C 
BRANCH   9  10
ATOM     10  C   UNL     1     196.310 202.207 205.594  1.00  0.00     0.000 C 
BRANCH  10  11
ATOM     11  C   UNL     1     196.597 201.344 206.840  1.00  0.00     0.000 C 
BRANCH  11  12
ATOM     12  C   UNL     1     197.858 200.461 206.750  1.00  0.00     0.002 C 
BRANCH  12  13
ATOM     13  C   UNL     1     198.003 199.668 205.437  1.00  0.00     0.028 C 
BRANCH  13  14
ATOM     14  C   UNL     1     197.310 198.302 205.461  1.00  0.00     0.156 C 
BRANCH  14  15
ATOM     15  O   UNL     1     197.442 197.712 206.725  1.00  0.00    -0.396 OA
ATOM     16  H   UNL     1     196.526 197.670 207.105  1.00  0.00     0.210 HD
ENDBRANCH  14  15
ENDBRANCH  13  14
ENDBRANCH  12  13
ENDBRANCH  11  12
ENDBRANCH  10  11
ENDBRANCH   9  10
ENDBRANCH   1   9
TORSDOF 13
ENDMDL
MODEL 9
REMARK VINA RESULT:    -3.761      2.016      2.674
REMARK INTER + INTRA:          -7.013
REMARK INTER:                  -6.116
REMARK INTRA:                  -0.897
REMARK UNBOUND:                -0.504
REMARK SMILES CCCCCCCCCCCCCCO
REMARK SMILES IDX 8 1 7 2 6 3 5 4 4 5 3 6 2 7 1 8 9 9 10 10 11 11 12 12 13 13
REMARK SMILES IDX 14 14 15 15
REMARK H PARENT 15 16
REMARK Flexibility Score: inf
ROOT
ATOM      1  C   UNL     1     209.440 201.191 209.225  1.00  0.00     0.000 C 
ENDROOT
BRANCH   1   2
ATOM      2  C   UNL     1     207.912 201.286 209.343  1.00  0.00    -0.000 C 
BRANCH   2   3
ATOM      3  C   UNL     1     207.374 202.681 208.987  1.00  0.00    -0.000 C 
BRANCH   3   4
ATOM      4  C   UNL     1     207.912 203.199 207.644  1.00  0.00    -0.000 C 
BRANCH   4   5
ATOM      5  C   UNL     1     208.624 204.549 207.820  1.00  0.00    -0.000 C 
BRANCH   5   6
ATOM      6  C   UNL     1     210.145 204.443 207.581  1.00  0.00    -0.000 C 
BRANCH   6   7
ATOM      7  C   UNL     1     210.516 203.633 206.327  1.00  0.00    -0.003 C 
ATOM      8  C   UNL     1     211.480 202.486 206.620  1.00  0.00     0.004 C 
ENDBRANCH   6   7
ENDBRANCH   5   6
ENDBRANCH   4   5
ENDBRANCH   3   4
ENDBRANCH   2   3
ENDBRANCH   1   2
BRANCH   1   9
ATOM      9  C   UNL     1     209.945 199.826 209.713  1.00  0.00     0.000 C 
BRANCH   9  10
ATOM     10  C   UNL     1     211.454 199.629 209.487  1.00  0.00     0.000 C 
BRANCH  10  11
ATOM     11  C   UNL     1     211.904 198.162 209.331  1.00  0.00     0.000 C 
BRANCH  11  12
ATOM     12  C   UNL     1     211.578 197.246 210.529  1.00  0.00     0.002 C 
BRANCH  12  13
ATOM     13  C   UNL     1     212.163 197.708 211.877  1.00  0.00     0.028 C 
BRANCH  13  14
ATOM     14  C   UNL     1     212.805 196.580 212.690  1.00  0.00     0.156 C 
BRANCH  14  15
ATOM     15  O   UNL     1     212.794 195.386 211.959  1.00  0.00    -0.396 OA
ATOM     16  H   UNL     1     211.843 195.112 211.892  1.00  0.00     0.210 HD
ENDBRANCH  14  15
ENDBRANCH  13  14
ENDBRANCH  12  13
ENDBRANCH  11  12
ENDBRANCH  10  11
ENDBRANCH   9  10
ENDBRANCH   1   9
TORSDOF 13
ENDMDL
