MODEL 1
REMARK VINA RESULT:    -7.599      0.000      0.000
REMARK INTER + INTRA:          -9.020
REMARK INTER:                  -8.932
REMARK INTRA:                  -0.088
REMARK UNBOUND:                -0.088
REMARK SMILES O=c1c(O)c(-c2ccc(O)cc2)oc2cc(O)cc(O)c12
REMARK SMILES IDX 5 1 3 2 2 3 1 4 21 5 19 6 18 7 16 8 15 9 14 10 13 11 6 12
REMARK SMILES IDX 7 13 8 14 9 15 12 16 11 17 10 18 4 20 20 22 17 24
REMARK H PARENT 10 19 4 21 20 23 17 25
REMARK Flexibility Score: inf
ROOT
ATOM      1  C   UNL     1     -22.415 -15.450 -10.666  1.00  0.00     0.180 A 
ATOM      2  C   UNL     1     -21.296 -14.693 -10.267  1.00  0.00     0.208 A 
ATOM      3  C   UNL     1     -20.878 -14.753  -8.929  1.00  0.00     0.238 A 
ATOM      4  O   UNL     1     -19.871 -14.088  -8.563  1.00  0.00    -0.285 OA
ATOM      5  C   UNL     1     -21.595 -15.547  -8.010  1.00  0.00     0.111 A 
ATOM      6  C   UNL     1     -21.242 -15.658  -6.643  1.00  0.00     0.134 A 
ATOM      7  C   UNL     1     -22.011 -16.462  -5.790  1.00  0.00     0.093 A 
ATOM      8  C   UNL     1     -23.125 -17.157  -6.276  1.00  0.00     0.123 A 
ATOM      9  C   UNL     1     -23.476 -17.051  -7.623  1.00  0.00     0.094 A 
ATOM     10  C   UNL     1     -22.721 -16.255  -8.490  1.00  0.00     0.146 A 
ATOM     11  O   UNL     1     -23.075 -16.176  -9.768  1.00  0.00    -0.452 OA
ENDROOT
BRANCH   1  12
ATOM     12  C   UNL     1     -22.905 -15.455 -12.063  1.00  0.00     0.021 A 
ATOM     13  C   UNL     1     -23.379 -14.262 -12.634  1.00  0.00     0.016 A 
ATOM     14  C   UNL     1     -23.867 -14.248 -13.943  1.00  0.00     0.047 A 
ATOM     15  C   UNL     1     -23.903 -15.428 -14.694  1.00  0.00     0.115 A 
ATOM     16  C   UNL     1     -22.963 -16.643 -12.815  1.00  0.00     0.016 A 
ATOM     17  C   UNL     1     -23.453 -16.626 -14.125  1.00  0.00     0.047 A 
BRANCH  15  18
ATOM     18  O   UNL     1     -24.392 -15.400 -15.997  1.00  0.00    -0.508 OA
ATOM     19  H   UNL     1     -24.531 -16.251 -16.530  1.00  0.00     0.293 HD
ENDBRANCH  15  18
ENDBRANCH   1  12
BRANCH   2  20
ATOM     20  O   UNL     1     -20.633 -13.875 -11.186  1.00  0.00    -0.502 OA
ATOM     21  H   UNL     1     -19.630 -13.740 -11.167  1.00  0.00     0.293 HD
ENDBRANCH   2  20
BRANCH   6  22
ATOM     22  O   UNL     1     -20.138 -14.977  -6.128  1.00  0.00    -0.507 OA
ATOM     23  H   UNL     1     -19.929 -14.022  -6.394  1.00  0.00     0.293 HD
ENDBRANCH   6  22
BRANCH   8  24
ATOM     24  O   UNL     1     -23.890 -17.955  -5.428  1.00  0.00    -0.508 OA
ATOM     25  H   UNL     1     -24.763 -17.626  -5.035  1.00  0.00     0.293 HD
ENDBRANCH   8  24
TORSDOF 5
ENDMDL
MODEL 2
REMARK VINA RESULT:    -6.783      1.502      6.579
REMARK INTER + INTRA:          -8.061
REMARK INTER:                  -8.496
REMARK INTRA:                   0.435
REMARK UNBOUND:                -0.088
REMARK SMILES O=c1c(O)c(-c2ccc(O)cc2)oc2cc(O)cc(O)c12
REMARK SMILES IDX 5 1 3 2 2 3 1 4 21 5 19 6 18 7 16 8 15 9 14 10 13 11 6 12
REMARK SMILES IDX 7 13 8 14 9 15 12 16 11 17 10 18 4 20 20 22 17 24
REMARK H PARENT 10 19 4 21 20 23 17 25
REMARK Flexibility Score: inf
ROOT
ATOM      1  C   UNL     1     -22.050 -15.576 -10.728  1.00  0.00     0.180 A 
ATOM      2  C   UNL     1     -21.329 -14.702 -11.565  1.00  0.00     0.208 A 
ATOM      3  C   UNL     1     -21.636 -14.667 -12.934  1.00  0.00     0.238 A 
ATOM      4  O   UNL     1     -21.005 -13.879 -13.691  1.00  0.00    -0.285 OA
ATOM      5  C   UNL     1     -22.638 -15.516 -13.446  1.00  0.00     0.111 A 
ATOM      6  C   UNL     1     -23.004 -15.545 -14.814  1.00  0.00     0.134 A 
ATOM      7  C   UNL     1     -24.006 -16.426 -15.247  1.00  0.00     0.093 A 
ATOM      8  C   UNL     1     -24.647 -17.279 -14.340  1.00  0.00     0.123 A 
ATOM      9  C   UNL     1     -24.289 -17.253 -12.991  1.00  0.00     0.094 A 
ATOM     10  C   UNL     1     -23.295 -16.381 -12.539  1.00  0.00     0.146 A 
ATOM     11  O   UNL     1     -22.978 -16.374 -11.249  1.00  0.00    -0.452 OA
ENDROOT
BRANCH   1  12
ATOM     12  C   UNL     1     -21.798 -15.657  -9.272  1.00  0.00     0.021 A 
ATOM     13  C   UNL     1     -20.546 -15.273  -8.764  1.00  0.00     0.016 A 
ATOM     14  C   UNL     1     -20.279 -15.363  -7.394  1.00  0.00     0.047 A 
ATOM     15  C   UNL     1     -21.253 -15.853  -6.518  1.00  0.00     0.115 A 
ATOM     16  C   UNL     1     -22.767 -16.169  -8.388  1.00  0.00     0.016 A 
ATOM     17  C   UNL     1     -22.496 -16.258  -7.019  1.00  0.00     0.047 A 
BRANCH  15  18
ATOM     18  O   UNL     1     -20.973 -15.937  -5.156  1.00  0.00    -0.508 OA
ATOM     19  H   UNL     1     -20.233 -15.388  -4.733  1.00  0.00     0.293 HD
ENDBRANCH  15  18
ENDBRANCH   1  12
BRANCH   2  20
ATOM     20  O   UNL     1     -20.307 -13.906 -11.042  1.00  0.00    -0.502 OA
ATOM     21  H   UNL     1     -19.330 -14.166 -11.105  1.00  0.00     0.293 HD
ENDBRANCH   2  20
BRANCH   6  22
ATOM     22  O   UNL     1     -22.383 -14.709 -15.742  1.00  0.00    -0.507 OA
ATOM     23  H   UNL     1     -21.640 -14.073 -15.473  1.00  0.00     0.293 HD
ENDBRANCH   6  22
BRANCH   8  24
ATOM     24  O   UNL     1     -25.641 -18.154 -14.770  1.00  0.00    -0.508 OA
ATOM     25  H   UNL     1     -26.124 -18.016 -15.649  1.00  0.00     0.293 HD
ENDBRANCH   8  24
TORSDOF 5
ENDMDL
MODEL 3
REMARK VINA RESULT:    -6.724      1.458      6.532
REMARK INTER + INTRA:          -7.992
REMARK INTER:                  -8.349
REMARK INTRA:                   0.357
REMARK UNBOUND:                -0.088
REMARK SMILES O=c1c(O)c(-c2ccc(O)cc2)oc2cc(O)cc(O)c12
REMARK SMILES IDX 5 1 3 2 2 3 1 4 21 5 19 6 18 7 16 8 15 9 14 10 13 11 6 12
REMARK SMILES IDX 7 13 8 14 9 15 12 16 11 17 10 18 4 20 20 22 17 24
REMARK H PARENT 10 19 4 21 20 23 17 25
REMARK Flexibility Score: inf
ROOT
ATOM      1  C   UNL     1     -22.368 -16.082  -9.937  1.00  0.00     0.180 A 
ATOM      2  C   UNL     1     -21.573 -15.056 -10.485  1.00  0.00     0.208 A 
ATOM      3  C   UNL     1     -21.652 -14.799 -11.862  1.00  0.00     0.238 A 
ATOM      4  O   UNL     1     -20.952 -13.875 -12.361  1.00  0.00    -0.285 OA
ATOM      5  C   UNL     1     -22.503 -15.580 -12.670  1.00  0.00     0.111 A 
ATOM      6  C   UNL     1     -22.637 -15.387 -14.066  1.00  0.00     0.134 A 
ATOM      7  C   UNL     1     -23.500 -16.212 -14.802  1.00  0.00     0.093 A 
ATOM      8  C   UNL     1     -24.230 -17.226 -14.169  1.00  0.00     0.123 A 
ATOM      9  C   UNL     1     -24.102 -17.418 -12.793  1.00  0.00     0.094 A 
ATOM     10  C   UNL     1     -23.248 -16.605 -12.041  1.00  0.00     0.146 A 
ATOM     11  O   UNL     1     -23.149 -16.808 -10.732  1.00  0.00    -0.452 OA
ENDROOT
BRANCH   1  12
ATOM     12  C   UNL     1     -22.356 -16.402  -8.492  1.00  0.00     0.021 A 
ATOM     13  C   UNL     1     -23.500 -16.959  -7.897  1.00  0.00     0.016 A 
ATOM     14  C   UNL     1     -23.517 -17.249  -6.529  1.00  0.00     0.047 A 
ATOM     15  C   UNL     1     -22.399 -16.970  -5.736  1.00  0.00     0.115 A 
ATOM     16  C   UNL     1     -21.241 -16.105  -7.685  1.00  0.00     0.016 A 
ATOM     17  C   UNL     1     -21.262 -16.395  -6.317  1.00  0.00     0.047 A 
BRANCH  15  18
ATOM     18  O   UNL     1     -22.431 -17.264  -4.375  1.00  0.00    -0.508 OA
ATOM     19  H   UNL     1     -22.170 -16.574  -3.678  1.00  0.00     0.293 HD
ENDBRANCH  15  18
ENDBRANCH   1  12
BRANCH   2  20
ATOM     20  O   UNL     1     -20.700 -14.329  -9.670  1.00  0.00    -0.502 OA
ATOM     21  H   UNL     1     -20.172 -14.760  -8.921  1.00  0.00     0.293 HD
ENDBRANCH   2  20
BRANCH   6  22
ATOM     22  O   UNL     1     -21.922 -14.386 -14.725  1.00  0.00    -0.507 OA
ATOM     23  H   UNL     1     -21.797 -13.465 -14.320  1.00  0.00     0.293 HD
ENDBRANCH   6  22
BRANCH   8  24
ATOM     24  O   UNL     1     -25.085 -18.046 -14.901  1.00  0.00    -0.508 OA
ATOM     25  H   UNL     1     -26.087 -18.034 -14.753  1.00  0.00     0.293 HD
ENDBRANCH   8  24
TORSDOF 5
ENDMDL
MODEL 4
REMARK VINA RESULT:    -6.497      1.454      2.972
REMARK INTER + INTRA:          -7.724
REMARK INTER:                  -8.181
REMARK INTRA:                   0.457
REMARK UNBOUND:                -0.088
REMARK SMILES O=c1c(O)c(-c2ccc(O)cc2)oc2cc(O)cc(O)c12
REMARK SMILES IDX 5 1 3 2 2 3 1 4 21 5 19 6 18 7 16 8 15 9 14 10 13 11 6 12
REMARK SMILES IDX 7 13 8 14 9 15 12 16 11 17 10 18 4 20 20 22 17 24
REMARK H PARENT 10 19 4 21 20 23 17 25
REMARK Flexibility Score: inf
ROOT
ATOM      1  C   UNL     1     -22.643 -16.048 -10.969  1.00  0.00     0.180 A 
ATOM      2  C   UNL     1     -23.474 -17.038 -10.410  1.00  0.00     0.208 A 
ATOM      3  C   UNL     1     -23.496 -17.197  -9.016  1.00  0.00     0.238 A 
ATOM      4  O   UNL     1     -24.246 -18.073  -8.504  1.00  0.00    -0.285 OA
ATOM      5  C   UNL     1     -22.675 -16.384  -8.208  1.00  0.00     0.111 A 
ATOM      6  C   UNL     1     -22.635 -16.485  -6.796  1.00  0.00     0.134 A 
ATOM      7  C   UNL     1     -21.784 -15.645  -6.064  1.00  0.00     0.093 A 
ATOM      8  C   UNL     1     -20.972 -14.708  -6.715  1.00  0.00     0.123 A 
ATOM      9  C   UNL     1     -21.009 -14.605  -8.106  1.00  0.00     0.094 A 
ATOM     10  C   UNL     1     -21.852 -15.432  -8.855  1.00  0.00     0.146 A 
ATOM     11  O   UNL     1     -21.870 -15.309 -10.177  1.00  0.00    -0.452 OA
ENDROOT
BRANCH   1  12
ATOM     12  C   UNL     1     -22.579 -15.805 -12.428  1.00  0.00     0.021 A 
ATOM     13  C   UNL     1     -21.616 -14.919 -12.940  1.00  0.00     0.016 A 
ATOM     14  C   UNL     1     -21.552 -14.658 -14.312  1.00  0.00     0.047 A 
ATOM     15  C   UNL     1     -22.458 -15.267 -15.187  1.00  0.00     0.115 A 
ATOM     16  C   UNL     1     -23.500 -16.398 -13.311  1.00  0.00     0.016 A 
ATOM     17  C   UNL     1     -23.434 -16.135 -14.683  1.00  0.00     0.047 A 
BRANCH  15  18
ATOM     18  O   UNL     1     -22.382 -14.998 -16.552  1.00  0.00    -0.508 OA
ATOM     19  H   UNL     1     -22.920 -14.249 -16.975  1.00  0.00     0.293 HD
ENDBRANCH  15  18
ENDBRANCH   1  12
BRANCH   2  20
ATOM     20  O   UNL     1     -24.242 -17.863 -11.236  1.00  0.00    -0.502 OA
ATOM     21  H   UNL     1     -25.153 -18.210 -10.961  1.00  0.00     0.293 HD
ENDBRANCH   2  20
BRANCH   6  22
ATOM     22  O   UNL     1     -23.431 -17.409  -6.119  1.00  0.00    -0.507 OA
ATOM     23  H   UNL     1     -23.168 -17.776  -5.212  1.00  0.00     0.293 HD
ENDBRANCH   6  22
BRANCH   8  24
ATOM     24  O   UNL     1     -20.126 -13.875  -5.986  1.00  0.00    -0.508 OA
ATOM     25  H   UNL     1     -19.609 -13.126  -6.430  1.00  0.00     0.293 HD
ENDBRANCH   8  24
TORSDOF 5
ENDMDL
MODEL 5
REMARK VINA RESULT:    -5.526      1.904      7.092
REMARK INTER + INTRA:          -6.583
REMARK INTER:                  -6.327
REMARK INTRA:                  -0.256
REMARK UNBOUND:                -0.088
REMARK SMILES O=c1c(O)c(-c2ccc(O)cc2)oc2cc(O)cc(O)c12
REMARK SMILES IDX 5 1 3 2 2 3 1 4 21 5 19 6 18 7 16 8 15 9 14 10 13 11 6 12
REMARK SMILES IDX 7 13 8 14 9 15 12 16 11 17 10 18 4 20 20 22 17 24
REMARK H PARENT 10 19 4 21 20 23 17 25
REMARK Flexibility Score: inf
ROOT
ATOM      1  C   UNL     1     -22.603 -15.647 -10.466  1.00  0.00     0.180 A 
ATOM      2  C   UNL     1     -23.330 -16.851 -10.552  1.00  0.00     0.208 A 
ATOM      3  C   UNL     1     -23.821 -17.259 -11.802  1.00  0.00     0.238 A 
ATOM      4  O   UNL     1     -24.463 -18.341 -11.891  1.00  0.00    -0.285 OA
ATOM      5  C   UNL     1     -23.599 -16.452 -12.936  1.00  0.00     0.111 A 
ATOM      6  C   UNL     1     -24.064 -16.790 -14.230  1.00  0.00     0.134 A 
ATOM      7  C   UNL     1     -23.810 -15.929 -15.307  1.00  0.00     0.093 A 
ATOM      8  C   UNL     1     -23.100 -14.737 -15.115  1.00  0.00     0.123 A 
ATOM      9  C   UNL     1     -22.639 -14.401 -13.842  1.00  0.00     0.094 A 
ATOM     10  C   UNL     1     -22.881 -15.246 -12.755  1.00  0.00     0.146 A 
ATOM     11  O   UNL     1     -22.426 -14.903 -11.555  1.00  0.00    -0.452 OA
ENDROOT
BRANCH   1  12
ATOM     12  C   UNL     1     -22.037 -15.158  -9.189  1.00  0.00     0.021 A 
ATOM     13  C   UNL     1     -20.678 -15.377  -8.906  1.00  0.00     0.016 A 
ATOM     14  C   UNL     1     -20.128 -14.944  -7.696  1.00  0.00     0.047 A 
ATOM     15  C   UNL     1     -20.931 -14.301  -6.748  1.00  0.00     0.115 A 
ATOM     16  C   UNL     1     -22.844 -14.530  -8.222  1.00  0.00     0.016 A 
ATOM     17  C   UNL     1     -22.290 -14.098  -7.013  1.00  0.00     0.047 A 
BRANCH  15  18
ATOM     18  O   UNL     1     -20.368 -13.875  -5.547  1.00  0.00    -0.508 OA
ATOM     19  H   UNL     1     -20.248 -14.508  -4.764  1.00  0.00     0.293 HD
ENDBRANCH  15  18
ENDBRANCH   1  12
BRANCH   2  20
ATOM     20  O   UNL     1     -23.579 -17.608  -9.404  1.00  0.00    -0.502 OA
ATOM     21  H   UNL     1     -24.496 -17.977  -9.186  1.00  0.00     0.293 HD
ENDBRANCH   2  20
BRANCH   6  22
ATOM     22  O   UNL     1     -24.775 -17.970 -14.452  1.00  0.00    -0.507 OA
ATOM     23  H   UNL     1     -24.362 -18.881 -14.288  1.00  0.00     0.293 HD
ENDBRANCH   6  22
BRANCH   8  24
ATOM     24  O   UNL     1     -22.848 -13.882 -16.185  1.00  0.00    -0.508 OA
ATOM     25  H   UNL     1     -22.068 -13.236 -16.176  1.00  0.00     0.293 HD
ENDBRANCH   8  24
TORSDOF 5
ENDMDL
MODEL 6
REMARK VINA RESULT:    -5.306      1.094      1.514
REMARK INTER + INTRA:          -6.325
REMARK INTER:                  -6.792
REMARK INTRA:                   0.468
REMARK UNBOUND:                -0.088
REMARK SMILES O=c1c(O)c(-c2ccc(O)cc2)oc2cc(O)cc(O)c12
REMARK SMILES IDX 5 1 3 2 2 3 1 4 21 5 19 6 18 7 16 8 15 9 14 10 13 11 6 12
REMARK SMILES IDX 7 13 8 14 9 15 12 16 11 17 10 18 4 20 20 22 17 24
REMARK H PARENT 10 19 4 21 20 23 17 25
REMARK Flexibility Score: inf
ROOT
ATOM      1  C   UNL     1     -22.646 -16.030 -10.591  1.00  0.00     0.180 A 
ATOM      2  C   UNL     1     -21.639 -15.045 -10.551  1.00  0.00     0.208 A 
ATOM      3  C   UNL     1     -21.030 -14.747  -9.322  1.00  0.00     0.238 A 
ATOM      4  O   UNL     1     -20.120 -13.875  -9.277  1.00  0.00    -0.285 OA
ATOM      5  C   UNL     1     -21.449 -15.418  -8.155  1.00  0.00     0.111 A 
ATOM      6  C   UNL     1     -20.890 -15.173  -6.877  1.00  0.00     0.134 A 
ATOM      7  C   UNL     1     -21.368 -15.876  -5.763  1.00  0.00     0.093 A 
ATOM      8  C   UNL     1     -22.394 -16.819  -5.900  1.00  0.00     0.123 A 
ATOM      9  C   UNL     1     -22.947 -17.064  -7.157  1.00  0.00     0.094 A 
ATOM     10  C   UNL     1     -22.484 -16.375  -8.282  1.00  0.00     0.146 A 
ATOM     11  O   UNL     1     -23.026 -16.632  -9.467  1.00  0.00    -0.452 OA
ENDROOT
BRANCH   1  12
ATOM     12  C   UNL     1     -23.322 -16.414 -11.850  1.00  0.00     0.021 A 
ATOM     13  C   UNL     1     -24.070 -17.602 -11.899  1.00  0.00     0.016 A 
ATOM     14  C   UNL     1     -24.698 -17.996 -13.084  1.00  0.00     0.047 A 
ATOM     15  C   UNL     1     -24.574 -17.216 -14.239  1.00  0.00     0.115 A 
ATOM     16  C   UNL     1     -23.184 -15.645 -13.021  1.00  0.00     0.016 A 
ATOM     17  C   UNL     1     -23.813 -16.041 -14.205  1.00  0.00     0.047 A 
BRANCH  15  18
ATOM     18  O   UNL     1     -25.206 -17.620 -15.413  1.00  0.00    -0.508 OA
ATOM     19  H   UNL     1     -24.685 -17.773 -16.269  1.00  0.00     0.293 HD
ENDBRANCH  15  18
ENDBRANCH   1  12
BRANCH   2  20
ATOM     20  O   UNL     1     -21.276 -14.360 -11.713  1.00  0.00    -0.502 OA
ATOM     21  H   UNL     1     -20.456 -14.605 -12.254  1.00  0.00     0.293 HD
ENDBRANCH   2  20
BRANCH   6  22
ATOM     22  O   UNL     1     -19.867 -14.239  -6.709  1.00  0.00    -0.507 OA
ATOM     23  H   UNL     1     -19.249 -14.263  -5.906  1.00  0.00     0.293 HD
ENDBRANCH   6  22
BRANCH   8  24
ATOM     24  O   UNL     1     -22.869 -17.516  -4.792  1.00  0.00    -0.508 OA
ATOM     25  H   UNL     1     -22.689 -18.505  -4.671  1.00  0.00     0.293 HD
ENDBRANCH   8  24
TORSDOF 5
ENDMDL
MODEL 7
REMARK VINA RESULT:    -4.755      1.843      7.123
REMARK INTER + INTRA:          -5.677
REMARK INTER:                  -6.221
REMARK INTRA:                   0.543
REMARK UNBOUND:                -0.088
REMARK SMILES O=c1c(O)c(-c2ccc(O)cc2)oc2cc(O)cc(O)c12
REMARK SMILES IDX 5 1 3 2 2 3 1 4 21 5 19 6 18 7 16 8 15 9 14 10 13 11 6 12
REMARK SMILES IDX 7 13 8 14 9 15 12 16 11 17 10 18 4 20 20 22 17 24
REMARK H PARENT 10 19 4 21 20 23 17 25
REMARK Flexibility Score: inf
ROOT
ATOM      1  C   UNL     1     -22.932 -16.804  -9.885  1.00  0.00     0.180 A 
ATOM      2  C   UNL     1     -23.883 -17.564 -10.594  1.00  0.00     0.208 A 
ATOM      3  C   UNL     1     -23.931 -17.457 -11.993  1.00  0.00     0.238 A 
ATOM      4  O   UNL     1     -24.771 -18.141 -12.638  1.00  0.00    -0.285 OA
ATOM      5  C   UNL     1     -23.048 -16.580 -12.655  1.00  0.00     0.111 A 
ATOM      6  C   UNL     1     -23.036 -16.410 -14.062  1.00  0.00     0.134 A 
ATOM      7  C   UNL     1     -22.132 -15.511 -14.645  1.00  0.00     0.093 A 
ATOM      8  C   UNL     1     -21.242 -14.778 -13.851  1.00  0.00     0.123 A 
ATOM      9  C   UNL     1     -21.250 -14.943 -12.466  1.00  0.00     0.094 A 
ATOM     10  C   UNL     1     -22.142 -15.836 -11.864  1.00  0.00     0.146 A 
ATOM     11  O   UNL     1     -22.125 -15.975 -10.543  1.00  0.00    -0.452 OA
ENDROOT
BRANCH   1  12
ATOM     12  C   UNL     1     -22.805 -16.876  -8.412  1.00  0.00     0.021 A 
ATOM     13  C   UNL     1     -23.787 -17.549  -7.666  1.00  0.00     0.016 A 
ATOM     14  C   UNL     1     -23.699 -17.610  -6.272  1.00  0.00     0.047 A 
ATOM     15  C   UNL     1     -22.639 -16.986  -5.605  1.00  0.00     0.115 A 
ATOM     16  C   UNL     1     -21.752 -16.233  -7.735  1.00  0.00     0.016 A 
ATOM     17  C   UNL     1     -21.668 -16.295  -6.340  1.00  0.00     0.047 A 
BRANCH  15  18
ATOM     18  O   UNL     1     -22.565 -17.056  -4.216  1.00  0.00    -0.508 OA
ATOM     19  H   UNL     1     -21.716 -17.350  -3.746  1.00  0.00     0.293 HD
ENDBRANCH  15  18
ENDBRANCH   1  12
BRANCH   2  20
ATOM     20  O   UNL     1     -24.779 -18.388  -9.909  1.00  0.00    -0.502 OA
ATOM     21  H   UNL     1     -24.605 -19.375  -9.762  1.00  0.00     0.293 HD
ENDBRANCH   2  20
BRANCH   6  22
ATOM     22  O   UNL     1     -23.912 -17.126 -14.879  1.00  0.00    -0.507 OA
ATOM     23  H   UNL     1     -23.656 -18.021 -15.281  1.00  0.00     0.293 HD
ENDBRANCH   6  22
BRANCH   8  24
ATOM     24  O   UNL     1     -20.345 -13.884 -14.432  1.00  0.00    -0.508 OA
ATOM     25  H   UNL     1     -19.681 -13.362 -13.874  1.00  0.00     0.293 HD
ENDBRANCH   8  24
TORSDOF 5
ENDMDL
