MODEL 1
REMARK VINA RESULT:    -6.981      0.000      0.000
REMARK INTER + INTRA:         -10.520
REMARK INTER:                  -9.429
REMARK INTRA:                  -1.090
REMARK UNBOUND:                -1.090
REMARK SMILES O=c1c(-c2ccc(O)cc2)coc2c([C@H]3O[C@H](CO)[C@@H](O)[C@H](O)[C@@H]3O)c(O)ccc12
REMARK SMILES IDX 3 1 11 2 12 3 13 4 30 5 2 6 1 7 29 8 28 9 26 10 14 11 4 12
REMARK SMILES IDX 5 13 6 14 7 15 10 16 9 17 8 18 15 20 24 21 16 22 22 23 17 24
REMARK SMILES IDX 20 25 25 26 23 28 18 30 19 31 21 33 27 35
REMARK H PARENT 8 19 25 27 23 29 19 32 21 34 27 36
REMARK Flexibility Score: inf
ROOT
ATOM      1  C   UNL     1     172.306 174.701 176.908  1.00  0.00     0.065 A 
ATOM      2  C   UNL     1     171.344 173.941 176.229  1.00  0.00     0.208 A 
ATOM      3  O   UNL     1     170.764 174.401 175.128  1.00  0.00    -0.463 OA
ATOM      4  C   UNL     1     171.045 175.590 174.600  1.00  0.00     0.147 A 
ATOM      5  C   UNL     1     171.997 176.427 175.225  1.00  0.00     0.066 A 
ATOM      6  C   UNL     1     172.629 175.971 176.396  1.00  0.00     0.200 A 
ATOM      7  O   UNL     1     173.463 176.705 176.996  1.00  0.00    -0.288 OA
ATOM      8  C   UNL     1     172.282 177.685 174.673  1.00  0.00     0.020 A 
ATOM      9  C   UNL     1     171.626 178.111 173.520  1.00  0.00     0.047 A 
ATOM     10  C   UNL     1     170.679 177.292 172.893  1.00  0.00     0.125 A 
ATOM     11  C   UNL     1     170.386 176.013 173.419  1.00  0.00     0.069 A 
ENDROOT
BRANCH   1  12
ATOM     12  C   UNL     1     172.946 174.162 178.134  1.00  0.00    -0.011 A 
ATOM     13  C   UNL     1     172.276 174.220 179.368  1.00  0.00     0.013 A 
ATOM     14  C   UNL     1     172.872 173.704 180.523  1.00  0.00     0.047 A 
ATOM     15  C   UNL     1     174.140 173.120 180.459  1.00  0.00     0.115 A 
ATOM     16  C   UNL     1     174.219 173.566 178.076  1.00  0.00     0.013 A 
ATOM     17  C   UNL     1     174.813 173.051 179.232  1.00  0.00     0.047 A 
BRANCH  15  18
ATOM     18  O   UNL     1     174.723 172.610 181.617  1.00  0.00    -0.508 OA
ATOM     19  H   UNL     1     175.678 172.273 181.626  1.00  0.00     0.293 HD
ENDBRANCH  15  18
ENDBRANCH   1  12
BRANCH  11  20
ATOM     20  C   UNL     1     169.342 175.126 172.755  1.00  0.00     0.188 C 
ATOM     21  C   UNL     1     169.927 174.496 171.466  1.00  0.00     0.179 C 
ATOM     22  O   UNL     1     168.190 175.906 172.471  1.00  0.00    -0.362 OA
ATOM     23  C   UNL     1     168.871 173.631 170.756  1.00  0.00     0.177 C 
ATOM     24  C   UNL     1     167.129 175.150 171.902  1.00  0.00     0.176 C 
ATOM     25  C   UNL     1     167.547 174.412 170.598  1.00  0.00     0.177 C 
BRANCH  21  26
ATOM     26  O   UNL     1     171.089 173.748 171.731  1.00  0.00    -0.387 OA
ATOM     27  H   UNL     1     171.734 173.909 170.994  1.00  0.00     0.211 HD
ENDBRANCH  21  26
BRANCH  23  28
ATOM     28  O   UNL     1     168.652 172.445 171.479  1.00  0.00    -0.387 OA
ATOM     29  H   UNL     1     169.032 171.704 170.938  1.00  0.00     0.211 HD
ENDBRANCH  23  28
BRANCH  24  30
ATOM     30  C   UNL     1     166.435 174.243 172.943  1.00  0.00     0.191 C 
BRANCH  30  31
ATOM     31  O   UNL     1     166.118 172.997 172.381  1.00  0.00    -0.394 OA
ATOM     32  H   UNL     1     166.975 172.508 172.269  1.00  0.00     0.210 HD
ENDBRANCH  30  31
ENDBRANCH  24  30
BRANCH  25  33
ATOM     33  O   UNL     1     167.641 175.317 169.523  1.00  0.00    -0.388 OA
ATOM     34  H   UNL     1     168.537 175.216 169.111  1.00  0.00     0.211 HD
ENDBRANCH  25  33
ENDBRANCH  11  20
BRANCH  10  35
ATOM     35  O   UNL     1     170.027 177.752 171.749  1.00  0.00    -0.507 OA
ATOM     36  H   UNL     1     170.286 178.625 171.303  1.00  0.00     0.293 HD
ENDBRANCH  10  35
TORSDOF 9
ENDMDL
MODEL 2
REMARK VINA RESULT:    -6.944      5.865      8.241
REMARK INTER + INTRA:         -10.470
REMARK INTER:                  -9.316
REMARK INTRA:                  -1.154
REMARK UNBOUND:                -1.090
REMARK SMILES O=c1c(-c2ccc(O)cc2)coc2c([C@H]3O[C@H](CO)[C@@H](O)[C@H](O)[C@@H]3O)c(O)ccc12
REMARK SMILES IDX 3 1 11 2 12 3 13 4 30 5 2 6 1 7 29 8 28 9 26 10 14 11 4 12
REMARK SMILES IDX 5 13 6 14 7 15 10 16 9 17 8 18 15 20 24 21 16 22 22 23 17 24
REMARK SMILES IDX 20 25 25 26 23 28 18 30 19 31 21 33 27 35
REMARK H PARENT 8 19 25 27 23 29 19 32 21 34 27 36
REMARK Flexibility Score: inf
ROOT
ATOM      1  C   UNL     1     174.076 171.612 176.840  1.00  0.00     0.065 A 
ATOM      2  C   UNL     1     175.049 172.374 176.179  1.00  0.00     0.208 A 
ATOM      3  O   UNL     1     175.651 171.913 175.090  1.00  0.00    -0.463 OA
ATOM      4  C   UNL     1     175.384 170.723 174.558  1.00  0.00     0.147 A 
ATOM      5  C   UNL     1     174.422 169.884 175.167  1.00  0.00     0.066 A 
ATOM      6  C   UNL     1     173.766 170.340 176.325  1.00  0.00     0.200 A 
ATOM      7  O   UNL     1     172.923 169.605 176.910  1.00  0.00    -0.288 OA
ATOM      8  C   UNL     1     174.151 168.624 174.612  1.00  0.00     0.020 A 
ATOM      9  C   UNL     1     174.831 168.199 173.472  1.00  0.00     0.047 A 
ATOM     10  C   UNL     1     175.787 169.019 172.862  1.00  0.00     0.125 A 
ATOM     11  C   UNL     1     176.066 170.300 173.391  1.00  0.00     0.069 A 
ENDROOT
BRANCH   1  12
ATOM     12  C   UNL     1     173.411 172.151 178.053  1.00  0.00    -0.011 A 
ATOM     13  C   UNL     1     174.015 172.012 179.315  1.00  0.00     0.013 A 
ATOM     14  C   UNL     1     173.396 172.528 180.457  1.00  0.00     0.047 A 
ATOM     15  C   UNL     1     172.170 173.193 180.354  1.00  0.00     0.115 A 
ATOM     16  C   UNL     1     172.182 172.828 177.956  1.00  0.00     0.013 A 
ATOM     17  C   UNL     1     171.564 173.342 179.100  1.00  0.00     0.047 A 
BRANCH  15  18
ATOM     18  O   UNL     1     171.564 173.701 181.501  1.00  0.00    -0.508 OA
ATOM     19  H   UNL     1     170.687 174.206 181.457  1.00  0.00     0.293 HD
ENDBRANCH  15  18
ENDBRANCH   1  12
BRANCH  11  20
ATOM     20  C   UNL     1     177.121 171.189 172.746  1.00  0.00     0.188 C 
ATOM     21  C   UNL     1     176.526 171.896 171.502  1.00  0.00     0.179 C 
ATOM     22  O   UNL     1     178.243 170.391 172.399  1.00  0.00    -0.362 OA
ATOM     23  C   UNL     1     177.591 172.764 170.810  1.00  0.00     0.177 C 
ATOM     24  C   UNL     1     179.313 171.144 171.842  1.00  0.00     0.176 C 
ATOM     25  C   UNL     1     178.887 171.956 170.584  1.00  0.00     0.177 C 
BRANCH  21  26
ATOM     26  O   UNL     1     175.392 172.662 171.830  1.00  0.00    -0.387 OA
ATOM     27  H   UNL     1     175.202 172.534 172.796  1.00  0.00     0.211 HD
ENDBRANCH  21  26
BRANCH  23  28
ATOM     28  O   UNL     1     177.859 173.908 171.584  1.00  0.00    -0.387 OA
ATOM     29  H   UNL     1     178.473 173.627 172.311  1.00  0.00     0.211 HD
ENDBRANCH  23  28
BRANCH  24  30
ATOM     30  C   UNL     1     180.055 171.980 172.908  1.00  0.00     0.191 C 
BRANCH  30  31
ATOM     31  O   UNL     1     180.533 173.177 172.354  1.00  0.00    -0.394 OA
ATOM     32  H   UNL     1     180.736 173.783 173.114  1.00  0.00     0.210 HD
ENDBRANCH  30  31
ENDBRANCH  24  30
BRANCH  25  33
ATOM     33  O   UNL     1     178.744 171.107 169.470  1.00  0.00    -0.388 OA
ATOM     34  H   UNL     1     178.180 171.570 168.798  1.00  0.00     0.211 HD
ENDBRANCH  25  33
ENDBRANCH  11  20
BRANCH  10  35
ATOM     35  O   UNL     1     176.462 168.559 171.731  1.00  0.00    -0.507 OA
ATOM     36  H   UNL     1     176.018 167.945 171.058  1.00  0.00     0.293 HD
ENDBRANCH  10  35
TORSDOF 9
ENDMDL
MODEL 3
REMARK VINA RESULT:    -6.477      6.045      8.466
REMARK INTER + INTRA:          -9.840
REMARK INTER:                  -9.253
REMARK INTRA:                  -0.587
REMARK UNBOUND:                -1.090
REMARK SMILES O=c1c(-c2ccc(O)cc2)coc2c([C@H]3O[C@H](CO)[C@@H](O)[C@H](O)[C@@H]3O)c(O)ccc12
REMARK SMILES IDX 3 1 11 2 12 3 13 4 30 5 2 6 1 7 29 8 28 9 26 10 14 11 4 12
REMARK SMILES IDX 5 13 6 14 7 15 10 16 9 17 8 18 15 20 24 21 16 22 22 23 17 24
REMARK SMILES IDX 20 25 25 26 23 28 18 30 19 31 21 33 27 35
REMARK H PARENT 8 19 25 27 23 29 19 32 21 34 27 36
REMARK Flexibility Score: inf
ROOT
ATOM      1  C   UNL     1     174.585 171.848 176.648  1.00  0.00     0.065 A 
ATOM      2  C   UNL     1     175.639 172.398 175.905  1.00  0.00     0.208 A 
ATOM      3  O   UNL     1     176.107 171.782 174.828  1.00  0.00    -0.463 OA
ATOM      4  C   UNL     1     175.624 170.625 174.382  1.00  0.00     0.147 A 
ATOM      5  C   UNL     1     174.566 169.994 175.076  1.00  0.00     0.066 A 
ATOM      6  C   UNL     1     174.047 170.618 176.226  1.00  0.00     0.200 A 
ATOM      7  O   UNL     1     173.122 170.069 176.885  1.00  0.00    -0.288 OA
ATOM      8  C   UNL     1     174.067 168.767 174.612  1.00  0.00     0.020 A 
ATOM      9  C   UNL     1     174.615 168.171 173.479  1.00  0.00     0.047 A 
ATOM     10  C   UNL     1     175.665 168.784 172.785  1.00  0.00     0.125 A 
ATOM     11  C   UNL     1     176.174 170.028 173.221  1.00  0.00     0.069 A 
ENDROOT
BRANCH   1  12
ATOM     12  C   UNL     1     174.073 172.558 177.847  1.00  0.00    -0.011 A 
ATOM     13  C   UNL     1     174.820 172.570 179.038  1.00  0.00     0.013 A 
ATOM     14  C   UNL     1     174.345 173.247 180.165  1.00  0.00     0.047 A 
ATOM     15  C   UNL     1     173.123 173.924 180.116  1.00  0.00     0.115 A 
ATOM     16  C   UNL     1     172.848 173.248 177.803  1.00  0.00     0.013 A 
ATOM     17  C   UNL     1     172.375 173.924 178.932  1.00  0.00     0.047 A 
BRANCH  15  18
ATOM     18  O   UNL     1     172.662 174.594 181.247  1.00  0.00    -0.508 OA
ATOM     19  H   UNL     1     173.256 175.227 181.769  1.00  0.00     0.293 HD
ENDBRANCH  15  18
ENDBRANCH   1  12
BRANCH  11  20
ATOM     20  C   UNL     1     177.330 170.691 172.484  1.00  0.00     0.188 C 
ATOM     21  C   UNL     1     178.666 170.367 173.197  1.00  0.00     0.179 C 
ATOM     22  O   UNL     1     177.099 172.091 172.431  1.00  0.00    -0.362 OA
ATOM     23  C   UNL     1     179.842 171.065 172.492  1.00  0.00     0.177 C 
ATOM     24  C   UNL     1     178.098 172.795 171.705  1.00  0.00     0.176 C 
ATOM     25  C   UNL     1     179.529 172.561 172.268  1.00  0.00     0.177 C 
BRANCH  21  26
ATOM     26  O   UNL     1     178.889 168.980 173.285  1.00  0.00    -0.387 OA
ATOM     27  H   UNL     1     179.410 168.803 174.111  1.00  0.00     0.211 HD
ENDBRANCH  21  26
BRANCH  23  28
ATOM     28  O   UNL     1     180.111 170.435 171.264  1.00  0.00    -0.387 OA
ATOM     29  H   UNL     1     180.948 169.915 171.384  1.00  0.00     0.211 HD
ENDBRANCH  23  28
BRANCH  24  30
ATOM     30  C   UNL     1     177.977 172.573 170.181  1.00  0.00     0.191 C 
BRANCH  30  31
ATOM     31  O   UNL     1     179.226 172.726 169.558  1.00  0.00    -0.394 OA
ATOM     32  H   UNL     1     179.078 172.591 168.586  1.00  0.00     0.210 HD
ENDBRANCH  30  31
ENDBRANCH  24  30
BRANCH  25  33
ATOM     33  O   UNL     1     179.717 173.282 173.464  1.00  0.00    -0.388 OA
ATOM     34  H   UNL     1     180.590 173.015 173.852  1.00  0.00     0.211 HD
ENDBRANCH  25  33
ENDBRANCH  11  20
BRANCH  10  35
ATOM     35  O   UNL     1     176.203 168.154 171.662  1.00  0.00    -0.507 OA
ATOM     36  H   UNL     1     176.513 168.680 170.853  1.00  0.00     0.293 HD
ENDBRANCH  10  35
TORSDOF 9
ENDMDL
MODEL 4
REMARK VINA RESULT:    -6.436      7.323      9.940
REMARK INTER + INTRA:          -9.784
REMARK INTER:                  -9.296
REMARK INTRA:                  -0.489
REMARK UNBOUND:                -1.090
REMARK SMILES O=c1c(-c2ccc(O)cc2)coc2c([C@H]3O[C@H](CO)[C@@H](O)[C@H](O)[C@@H]3O)c(O)ccc12
REMARK SMILES IDX 3 1 11 2 12 3 13 4 30 5 2 6 1 7 29 8 28 9 26 10 14 11 4 12
REMARK SMILES IDX 5 13 6 14 7 15 10 16 9 17 8 18 15 20 24 21 16 22 22 23 17 24
REMARK SMILES IDX 20 25 25 26 23 28 18 30 19 31 21 33 27 35
REMARK H PARENT 8 19 25 27 23 29 19 32 21 34 27 36
REMARK Flexibility Score: inf
ROOT
ATOM      1  C   UNL     1     174.774 170.744 175.178  1.00  0.00     0.065 A 
ATOM      2  C   UNL     1     175.996 171.363 174.883  1.00  0.00     0.208 A 
ATOM      3  O   UNL     1     176.870 170.791 174.064  1.00  0.00    -0.463 OA
ATOM      4  C   UNL     1     176.657 169.617 173.476  1.00  0.00     0.147 A 
ATOM      5  C   UNL     1     175.453 168.917 173.725  1.00  0.00     0.066 A 
ATOM      6  C   UNL     1     174.506 169.493 174.591  1.00  0.00     0.200 A 
ATOM      7  O   UNL     1     173.433 168.883 174.858  1.00  0.00    -0.288 OA
ATOM      8  C   UNL     1     175.236 167.673 173.115  1.00  0.00     0.020 A 
ATOM      9  C   UNL     1     176.203 167.125 172.274  1.00  0.00     0.047 A 
ATOM     10  C   UNL     1     177.399 167.807 172.022  1.00  0.00     0.125 A 
ATOM     11  C   UNL     1     177.636 169.070 172.611  1.00  0.00     0.069 A 
ENDROOT
BRANCH   1  12
ATOM     12  C   UNL     1     173.809 171.406 176.092  1.00  0.00    -0.011 A 
ATOM     13  C   UNL     1     174.072 171.475 177.471  1.00  0.00     0.013 A 
ATOM     14  C   UNL     1     173.171 172.106 178.333  1.00  0.00     0.047 A 
ATOM     15  C   UNL     1     172.000 172.681 177.829  1.00  0.00     0.115 A 
ATOM     16  C   UNL     1     172.634 171.992 175.591  1.00  0.00     0.013 A 
ATOM     17  C   UNL     1     171.733 172.623 176.455  1.00  0.00     0.047 A 
BRANCH  15  18
ATOM     18  O   UNL     1     171.110 173.306 178.699  1.00  0.00    -0.508 OA
ATOM     19  H   UNL     1     171.009 174.314 178.720  1.00  0.00     0.293 HD
ENDBRANCH  15  18
ENDBRANCH   1  12
BRANCH  11  20
ATOM     20  C   UNL     1     178.944 169.807 172.358  1.00  0.00     0.188 C 
ATOM     21  C   UNL     1     179.642 170.121 173.705  1.00  0.00     0.179 C 
ATOM     22  O   UNL     1     178.668 170.995 171.630  1.00  0.00    -0.362 OA
ATOM     23  C   UNL     1     180.944 170.906 173.472  1.00  0.00     0.177 C 
ATOM     24  C   UNL     1     179.839 171.726 171.290  1.00  0.00     0.176 C 
ATOM     25  C   UNL     1     180.694 172.107 172.534  1.00  0.00     0.177 C 
BRANCH  21  26
ATOM     26  O   UNL     1     179.888 168.952 174.450  1.00  0.00    -0.387 OA
ATOM     27  H   UNL     1     180.826 168.986 174.773  1.00  0.00     0.211 HD
ENDBRANCH  21  26
BRANCH  23  28
ATOM     28  O   UNL     1     181.927 170.060 172.928  1.00  0.00    -0.387 OA
ATOM     29  H   UNL     1     181.589 169.755 172.046  1.00  0.00     0.211 HD
ENDBRANCH  23  28
BRANCH  24  30
ATOM     30  C   UNL     1     180.643 171.048 170.158  1.00  0.00     0.191 C 
BRANCH  30  31
ATOM     31  O   UNL     1     182.022 171.160 170.395  1.00  0.00    -0.394 OA
ATOM     32  H   UNL     1     182.225 172.131 170.442  1.00  0.00     0.210 HD
ENDBRANCH  30  31
ENDBRANCH  24  30
BRANCH  25  33
ATOM     33  O   UNL     1     180.093 173.164 173.245  1.00  0.00    -0.388 OA
ATOM     34  H   UNL     1     179.207 172.855 173.567  1.00  0.00     0.211 HD
ENDBRANCH  25  33
ENDBRANCH  11  20
BRANCH  10  35
ATOM     35  O   UNL     1     178.355 167.225 171.188  1.00  0.00    -0.507 OA
ATOM     36  H   UNL     1     178.843 167.763 170.481  1.00  0.00     0.293 HD
ENDBRANCH  10  35
TORSDOF 9
ENDMDL
MODEL 5
REMARK VINA RESULT:    -6.368      1.054      2.265
REMARK INTER + INTRA:          -9.693
REMARK INTER:                  -9.147
REMARK INTRA:                  -0.545
REMARK UNBOUND:                -1.090
REMARK SMILES O=c1c(-c2ccc(O)cc2)coc2c([C@H]3O[C@H](CO)[C@@H](O)[C@H](O)[C@@H]3O)c(O)ccc12
REMARK SMILES IDX 3 1 11 2 12 3 13 4 30 5 2 6 1 7 29 8 28 9 26 10 14 11 4 12
REMARK SMILES IDX 5 13 6 14 7 15 10 16 9 17 8 18 15 20 24 21 16 22 22 23 17 24
REMARK SMILES IDX 20 25 25 26 23 28 18 30 19 31 21 33 27 35
REMARK H PARENT 8 19 25 27 23 29 19 32 21 34 27 36
REMARK Flexibility Score: inf
ROOT
ATOM      1  C   UNL     1     171.792 174.551 176.639  1.00  0.00     0.065 A 
ATOM      2  C   UNL     1     170.768 173.994 175.861  1.00  0.00     0.208 A 
ATOM      3  O   UNL     1     170.320 174.614 174.777  1.00  0.00    -0.463 OA
ATOM      4  C   UNL     1     170.798 175.783 174.357  1.00  0.00     0.147 A 
ATOM      5  C   UNL     1     171.826 176.422 175.088  1.00  0.00     0.066 A 
ATOM      6  C   UNL     1     172.322 175.793 176.245  1.00  0.00     0.200 A 
ATOM      7  O   UNL     1     173.220 176.349 176.936  1.00  0.00    -0.288 OA
ATOM      8  C   UNL     1     172.319 177.661 174.651  1.00  0.00     0.020 A 
ATOM      9  C   UNL     1     171.794 178.262 173.509  1.00  0.00     0.047 A 
ATOM     10  C   UNL     1     170.774 177.641 172.779  1.00  0.00     0.125 A 
ATOM     11  C   UNL     1     170.272 176.384 173.187  1.00  0.00     0.069 A 
ENDROOT
BRANCH   1  12
ATOM     12  C   UNL     1     172.280 173.835 177.844  1.00  0.00    -0.011 A 
ATOM     13  C   UNL     1     173.552 173.236 177.846  1.00  0.00     0.013 A 
ATOM     14  C   UNL     1     174.019 172.570 178.983  1.00  0.00     0.047 A 
ATOM     15  C   UNL     1     173.226 172.499 180.132  1.00  0.00     0.115 A 
ATOM     16  C   UNL     1     171.491 173.767 179.006  1.00  0.00     0.013 A 
ATOM     17  C   UNL     1     171.960 173.099 180.142  1.00  0.00     0.047 A 
BRANCH  15  18
ATOM     18  O   UNL     1     173.703 171.831 181.258  1.00  0.00    -0.508 OA
ATOM     19  H   UNL     1     174.629 171.421 181.279  1.00  0.00     0.293 HD
ENDBRANCH  15  18
ENDBRANCH   1  12
BRANCH  11  20
ATOM     20  C   UNL     1     169.147 175.713 172.411  1.00  0.00     0.188 C 
ATOM     21  C   UNL     1     167.782 176.053 173.058  1.00  0.00     0.179 C 
ATOM     22  O   UNL     1     169.376 174.311 172.393  1.00  0.00    -0.362 OA
ATOM     23  C   UNL     1     166.637 175.346 172.313  1.00  0.00     0.177 C 
ATOM     24  C   UNL     1     168.407 173.597 171.635  1.00  0.00     0.176 C 
ATOM     25  C   UNL     1     166.953 173.846 172.130  1.00  0.00     0.177 C 
BRANCH  21  26
ATOM     26  O   UNL     1     167.561 177.442 173.112  1.00  0.00    -0.387 OA
ATOM     27  H   UNL     1     167.247 177.739 172.218  1.00  0.00     0.211 HD
ENDBRANCH  21  26
BRANCH  23  28
ATOM     28  O   UNL     1     166.424 175.955 171.064  1.00  0.00    -0.387 OA
ATOM     29  H   UNL     1     166.928 175.423 170.394  1.00  0.00     0.211 HD
ENDBRANCH  23  28
BRANCH  24  30
ATOM     30  C   UNL     1     168.596 173.792 170.114  1.00  0.00     0.191 C 
BRANCH  30  31
ATOM     31  O   UNL     1     167.387 173.580 169.434  1.00  0.00    -0.394 OA
ATOM     32  H   UNL     1     167.505 173.950 168.520  1.00  0.00     0.210 HD
ENDBRANCH  30  31
ENDBRANCH  24  30
BRANCH  25  33
ATOM     33  O   UNL     1     166.709 173.146 173.328  1.00  0.00    -0.388 OA
ATOM     34  H   UNL     1     167.511 173.232 173.904  1.00  0.00     0.211 HD
ENDBRANCH  25  33
ENDBRANCH  11  20
BRANCH  10  35
ATOM     35  O   UNL     1     170.258 178.275 171.648  1.00  0.00    -0.507 OA
ATOM     36  H   UNL     1     170.835 178.860 171.055  1.00  0.00     0.293 HD
ENDBRANCH  10  35
TORSDOF 9
ENDMDL
MODEL 6
REMARK VINA RESULT:    -6.297      1.685      2.831
REMARK INTER + INTRA:          -9.596
REMARK INTER:                  -9.013
REMARK INTRA:                  -0.583
REMARK UNBOUND:                -1.090
REMARK SMILES O=c1c(-c2ccc(O)cc2)coc2c([C@H]3O[C@H](CO)[C@@H](O)[C@H](O)[C@@H]3O)c(O)ccc12
REMARK SMILES IDX 3 1 11 2 12 3 13 4 30 5 2 6 1 7 29 8 28 9 26 10 14 11 4 12
REMARK SMILES IDX 5 13 6 14 7 15 10 16 9 17 8 18 15 20 24 21 16 22 22 23 17 24
REMARK SMILES IDX 20 25 25 26 23 28 18 30 19 31 21 33 27 35
REMARK H PARENT 8 19 25 27 23 29 19 32 21 34 27 36
REMARK Flexibility Score: inf
ROOT
ATOM      1  C   UNL     1     171.611 175.371 175.442  1.00  0.00     0.065 A 
ATOM      2  C   UNL     1     170.386 174.799 175.071  1.00  0.00     0.208 A 
ATOM      3  O   UNL     1     169.583 175.408 174.208  1.00  0.00    -0.463 OA
ATOM      4  C   UNL     1     169.872 176.578 173.645  1.00  0.00     0.147 A 
ATOM      5  C   UNL     1     171.084 177.231 173.969  1.00  0.00     0.066 A 
ATOM      6  C   UNL     1     171.958 176.614 174.884  1.00  0.00     0.200 A 
ATOM      7  O   UNL     1     173.034 177.183 175.218  1.00  0.00    -0.288 OA
ATOM      8  C   UNL     1     171.381 178.471 173.384  1.00  0.00     0.020 A 
ATOM      9  C   UNL     1     170.485 179.059 172.494  1.00  0.00     0.047 A 
ATOM     10  C   UNL     1     169.282 178.424 172.166  1.00  0.00     0.125 A 
ATOM     11  C   UNL     1     168.966 177.166 172.728  1.00  0.00     0.069 A 
ENDROOT
BRANCH   1  12
ATOM     12  C   UNL     1     172.496 174.668 176.404  1.00  0.00    -0.011 A 
ATOM     13  C   UNL     1     172.284 174.797 177.788  1.00  0.00     0.013 A 
ATOM     14  C   UNL     1     173.109 174.128 178.697  1.00  0.00     0.047 A 
ATOM     15  C   UNL     1     174.151 173.319 178.237  1.00  0.00     0.115 A 
ATOM     16  C   UNL     1     173.542 173.846 175.948  1.00  0.00     0.013 A 
ATOM     17  C   UNL     1     174.366 173.178 176.859  1.00  0.00     0.047 A 
BRANCH  15  18
ATOM     18  O   UNL     1     174.967 172.658 179.153  1.00  0.00    -0.508 OA
ATOM     19  H   UNL     1     175.165 173.050 180.065  1.00  0.00     0.293 HD
ENDBRANCH  15  18
ENDBRANCH   1  12
BRANCH  11  20
ATOM     20  C   UNL     1     167.649 176.479 172.394  1.00  0.00     0.188 C 
ATOM     21  C   UNL     1     166.838 176.232 173.690  1.00  0.00     0.179 C 
ATOM     22  O   UNL     1     167.925 175.261 171.718  1.00  0.00    -0.362 OA
ATOM     23  C   UNL     1     165.523 175.498 173.377  1.00  0.00     0.177 C 
ATOM     24  C   UNL     1     166.752 174.572 171.306  1.00  0.00     0.176 C 
ATOM     25  C   UNL     1     165.789 174.263 172.490  1.00  0.00     0.177 C 
BRANCH  21  26
ATOM     26  O   UNL     1     166.588 177.430 174.386  1.00  0.00    -0.387 OA
ATOM     27  H   UNL     1     166.197 178.082 173.747  1.00  0.00     0.211 HD
ENDBRANCH  21  26
BRANCH  23  28
ATOM     28  O   UNL     1     164.623 176.370 172.739  1.00  0.00    -0.387 OA
ATOM     29  H   UNL     1     165.059 176.672 171.900  1.00  0.00     0.211 HD
ENDBRANCH  23  28
BRANCH  24  30
ATOM     30  C   UNL     1     166.067 175.253 170.100  1.00  0.00     0.191 C 
BRANCH  30  31
ATOM     31  O   UNL     1     164.671 175.196 170.227  1.00  0.00    -0.394 OA
ATOM     32  H   UNL     1     164.469 175.257 171.198  1.00  0.00     0.210 HD
ENDBRANCH  30  31
ENDBRANCH  24  30
BRANCH  25  33
ATOM     33  O   UNL     1     166.286 173.200 173.270  1.00  0.00    -0.388 OA
ATOM     34  H   UNL     1     167.255 173.353 173.418  1.00  0.00     0.211 HD
ENDBRANCH  25  33
ENDBRANCH  11  20
BRANCH  10  35
ATOM     35  O   UNL     1     168.398 179.045 171.283  1.00  0.00    -0.507 OA
ATOM     36  H   UNL     1     167.771 178.511 170.692  1.00  0.00     0.293 HD
ENDBRANCH  10  35
TORSDOF 9
ENDMDL
MODEL 7
REMARK VINA RESULT:    -6.191      6.074      8.818
REMARK INTER + INTRA:          -9.453
REMARK INTER:                  -8.280
REMARK INTRA:                  -1.173
REMARK UNBOUND:                -1.090
REMARK SMILES O=c1c(-c2ccc(O)cc2)coc2c([C@H]3O[C@H](CO)[C@@H](O)[C@H](O)[C@@H]3O)c(O)ccc12
REMARK SMILES IDX 3 1 11 2 12 3 13 4 30 5 2 6 1 7 29 8 28 9 26 10 14 11 4 12
REMARK SMILES IDX 5 13 6 14 7 15 10 16 9 17 8 18 15 20 24 21 16 22 22 23 17 24
REMARK SMILES IDX 20 25 25 26 23 28 18 30 19 31 21 33 27 35
REMARK H PARENT 8 19 25 27 23 29 19 32 21 34 27 36
REMARK Flexibility Score: inf
ROOT
ATOM      1  C   UNL     1     177.775 170.924 173.244  1.00  0.00     0.065 A 
ATOM      2  C   UNL     1     177.106 172.108 173.586  1.00  0.00     0.208 A 
ATOM      3  O   UNL     1     176.043 172.085 174.380  1.00  0.00    -0.463 OA
ATOM      4  C   UNL     1     175.545 170.965 174.898  1.00  0.00     0.147 A 
ATOM      5  C   UNL     1     176.152 169.724 174.598  1.00  0.00     0.066 A 
ATOM      6  C   UNL     1     177.279 169.712 173.756  1.00  0.00     0.200 A 
ATOM      7  O   UNL     1     177.828 168.618 173.444  1.00  0.00    -0.288 OA
ATOM      8  C   UNL     1     175.617 168.543 175.135  1.00  0.00     0.020 A 
ATOM      9  C   UNL     1     174.491 168.592 175.953  1.00  0.00     0.047 A 
ATOM     10  C   UNL     1     173.879 169.814 176.256  1.00  0.00     0.125 A 
ATOM     11  C   UNL     1     174.408 171.021 175.742  1.00  0.00     0.069 A 
ENDROOT
BRANCH   1  12
ATOM     12  C   UNL     1     178.965 170.975 172.358  1.00  0.00    -0.011 A 
ATOM     13  C   UNL     1     180.255 171.081 172.908  1.00  0.00     0.013 A 
ATOM     14  C   UNL     1     181.378 171.119 172.078  1.00  0.00     0.047 A 
ATOM     15  C   UNL     1     181.229 171.047 170.689  1.00  0.00     0.115 A 
ATOM     16  C   UNL     1     178.824 170.896 170.962  1.00  0.00     0.013 A 
ATOM     17  C   UNL     1     179.949 170.935 170.132  1.00  0.00     0.047 A 
BRANCH  15  18
ATOM     18  O   UNL     1     182.357 171.086 169.873  1.00  0.00    -0.508 OA
ATOM     19  H   UNL     1     183.056 170.353 169.898  1.00  0.00     0.293 HD
ENDBRANCH  15  18
ENDBRANCH   1  12
BRANCH  11  20
ATOM     20  C   UNL     1     173.736 172.352 176.049  1.00  0.00     0.188 C 
ATOM     21  C   UNL     1     174.266 172.913 177.392  1.00  0.00     0.179 C 
ATOM     22  O   UNL     1     172.330 172.156 176.090  1.00  0.00    -0.362 OA
ATOM     23  C   UNL     1     173.565 174.237 177.742  1.00  0.00     0.177 C 
ATOM     24  C   UNL     1     171.605 173.360 176.311  1.00  0.00     0.176 C 
ATOM     25  C   UNL     1     172.033 174.088 177.618  1.00  0.00     0.177 C 
BRANCH  21  26
ATOM     26  O   UNL     1     175.664 173.078 177.374  1.00  0.00    -0.387 OA
ATOM     27  H   UNL     1     175.860 174.051 177.398  1.00  0.00     0.211 HD
ENDBRANCH  21  26
BRANCH  23  28
ATOM     28  O   UNL     1     174.023 175.265 176.898  1.00  0.00    -0.387 OA
ATOM     29  H   UNL     1     174.714 174.866 176.307  1.00  0.00     0.211 HD
ENDBRANCH  23  28
BRANCH  24  30
ATOM     30  C   UNL     1     171.588 174.269 175.062  1.00  0.00     0.191 C 
BRANCH  30  31
ATOM     31  O   UNL     1     171.410 175.611 175.429  1.00  0.00    -0.394 OA
ATOM     32  H   UNL     1     172.295 176.052 175.338  1.00  0.00     0.210 HD
ENDBRANCH  30  31
ENDBRANCH  24  30
BRANCH  25  33
ATOM     33  O   UNL     1     171.514 173.426 178.748  1.00  0.00    -0.388 OA
ATOM     34  H   UNL     1     170.604 173.101 178.525  1.00  0.00     0.211 HD
ENDBRANCH  25  33
ENDBRANCH  11  20
BRANCH  10  35
ATOM     35  O   UNL     1     172.743 169.829 177.065  1.00  0.00    -0.507 OA
ATOM     36  H   UNL     1     172.645 170.483 177.834  1.00  0.00     0.293 HD
ENDBRANCH  10  35
TORSDOF 9
ENDMDL
MODEL 8
REMARK VINA RESULT:    -6.189      7.402     10.063
REMARK INTER + INTRA:          -9.450
REMARK INTER:                  -8.671
REMARK INTRA:                  -0.778
REMARK UNBOUND:                -1.090
REMARK SMILES O=c1c(-c2ccc(O)cc2)coc2c([C@H]3O[C@H](CO)[C@@H](O)[C@H](O)[C@@H]3O)c(O)ccc12
REMARK SMILES IDX 3 1 11 2 12 3 13 4 30 5 2 6 1 7 29 8 28 9 26 10 14 11 4 12
REMARK SMILES IDX 5 13 6 14 7 15 10 16 9 17 8 18 15 20 24 21 16 22 22 23 17 24
REMARK SMILES IDX 20 25 25 26 23 28 18 30 19 31 21 33 27 35
REMARK H PARENT 8 19 25 27 23 29 19 32 21 34 27 36
REMARK Flexibility Score: inf
ROOT
ATOM      1  C   UNL     1     174.772 170.881 175.172  1.00  0.00     0.065 A 
ATOM      2  C   UNL     1     175.952 171.601 174.938  1.00  0.00     0.208 A 
ATOM      3  O   UNL     1     176.909 171.108 174.163  1.00  0.00    -0.463 OA
ATOM      4  C   UNL     1     176.824 169.922 173.565  1.00  0.00     0.147 A 
ATOM      5  C   UNL     1     175.672 169.124 173.753  1.00  0.00     0.066 A 
ATOM      6  C   UNL     1     174.639 169.615 174.572  1.00  0.00     0.200 A 
ATOM      7  O   UNL     1     173.609 168.916 174.785  1.00  0.00    -0.288 OA
ATOM      8  C   UNL     1     175.590 167.869 173.132  1.00  0.00     0.020 A 
ATOM      9  C   UNL     1     176.639 167.408 172.340  1.00  0.00     0.047 A 
ATOM     10  C   UNL     1     177.785 168.188 172.148  1.00  0.00     0.125 A 
ATOM     11  C   UNL     1     177.886 169.464 172.748  1.00  0.00     0.069 A 
ENDROOT
BRANCH   1  12
ATOM     12  C   UNL     1     173.712 171.456 176.037  1.00  0.00    -0.011 A 
ATOM     13  C   UNL     1     173.913 171.569 177.424  1.00  0.00     0.013 A 
ATOM     14  C   UNL     1     172.921 172.119 178.241  1.00  0.00     0.047 A 
ATOM     15  C   UNL     1     171.719 172.568 177.684  1.00  0.00     0.115 A 
ATOM     16  C   UNL     1     172.504 171.915 175.483  1.00  0.00     0.013 A 
ATOM     17  C   UNL     1     171.513 172.465 176.301  1.00  0.00     0.047 A 
BRANCH  15  18
ATOM     18  O   UNL     1     170.738 173.113 178.509  1.00  0.00    -0.508 OA
ATOM     19  H   UNL     1     169.900 173.535 178.128  1.00  0.00     0.293 HD
ENDBRANCH  15  18
ENDBRANCH   1  12
BRANCH  11  20
ATOM     20  C   UNL     1     179.139 170.308 172.561  1.00  0.00     0.188 C 
ATOM     21  C   UNL     1     178.977 171.226 171.324  1.00  0.00     0.179 C 
ATOM     22  O   UNL     1     180.258 169.444 172.420  1.00  0.00    -0.362 OA
ATOM     23  C   UNL     1     180.252 172.055 171.092  1.00  0.00     0.177 C 
ATOM     24  C   UNL     1     181.491 170.142 172.300  1.00  0.00     0.176 C 
ATOM     25  C   UNL     1     181.501 171.148 171.113  1.00  0.00     0.177 C 
BRANCH  21  26
ATOM     26  O   UNL     1     177.851 172.063 171.439  1.00  0.00    -0.387 OA
ATOM     27  H   UNL     1     177.181 171.600 172.006  1.00  0.00     0.211 HD
ENDBRANCH  21  26
BRANCH  23  28
ATOM     28  O   UNL     1     180.363 173.057 172.074  1.00  0.00    -0.387 OA
ATOM     29  H   UNL     1     180.965 173.755 171.707  1.00  0.00     0.211 HD
ENDBRANCH  23  28
BRANCH  24  30
ATOM     30  C   UNL     1     181.949 170.752 173.644  1.00  0.00     0.191 C 
BRANCH  30  31
ATOM     31  O   UNL     1     182.779 169.856 174.337  1.00  0.00    -0.394 OA
ATOM     32  H   UNL     1     183.518 169.616 173.719  1.00  0.00     0.210 HD
ENDBRANCH  30  31
ENDBRANCH  24  30
BRANCH  25  33
ATOM     33  O   UNL     1     181.629 170.466 169.886  1.00  0.00    -0.388 OA
ATOM     34  H   UNL     1     180.979 170.857 169.247  1.00  0.00     0.211 HD
ENDBRANCH  25  33
ENDBRANCH  11  20
BRANCH  10  35
ATOM     35  O   UNL     1     178.826 167.692 171.362  1.00  0.00    -0.507 OA
ATOM     36  H   UNL     1     179.103 168.143 170.497  1.00  0.00     0.293 HD
ENDBRANCH  10  35
TORSDOF 9
ENDMDL
MODEL 9
REMARK VINA RESULT:    -6.171      6.824      8.844
REMARK INTER + INTRA:          -9.426
REMARK INTER:                  -8.230
REMARK INTRA:                  -1.196
REMARK UNBOUND:                -1.090
REMARK SMILES O=c1c(-c2ccc(O)cc2)coc2c([C@H]3O[C@H](CO)[C@@H](O)[C@H](O)[C@@H]3O)c(O)ccc12
REMARK SMILES IDX 3 1 11 2 12 3 13 4 30 5 2 6 1 7 29 8 28 9 26 10 14 11 4 12
REMARK SMILES IDX 5 13 6 14 7 15 10 16 9 17 8 18 15 20 24 21 16 22 22 23 17 24
REMARK SMILES IDX 20 25 25 26 23 28 18 30 19 31 21 33 27 35
REMARK H PARENT 8 19 25 27 23 29 19 32 21 34 27 36
REMARK Flexibility Score: inf
ROOT
ATOM      1  C   UNL     1     174.678 172.983 174.982  1.00  0.00     0.065 A 
ATOM      2  C   UNL     1     175.812 172.167 175.095  1.00  0.00     0.208 A 
ATOM      3  O   UNL     1     176.667 172.046 174.087  1.00  0.00    -0.463 OA
ATOM      4  C   UNL     1     176.515 172.672 172.923  1.00  0.00     0.147 A 
ATOM      5  C   UNL     1     175.394 173.509 172.719  1.00  0.00     0.066 A 
ATOM      6  C   UNL     1     174.465 173.658 173.766  1.00  0.00     0.200 A 
ATOM      7  O   UNL     1     173.438 174.374 173.608  1.00  0.00    -0.288 OA
ATOM      8  C   UNL     1     175.229 174.158 171.486  1.00  0.00     0.020 A 
ATOM      9  C   UNL     1     176.160 173.975 170.467  1.00  0.00     0.047 A 
ATOM     10  C   UNL     1     177.274 173.148 170.656  1.00  0.00     0.125 A 
ATOM     11  C   UNL     1     177.472 172.495 171.894  1.00  0.00     0.069 A 
ENDROOT
BRANCH   1  12
ATOM     12  C   UNL     1     173.739 173.109 176.125  1.00  0.00    -0.011 A 
ATOM     13  C   UNL     1     172.707 172.171 176.302  1.00  0.00     0.013 A 
ATOM     14  C   UNL     1     171.828 172.282 177.383  1.00  0.00     0.047 A 
ATOM     15  C   UNL     1     171.970 173.325 178.303  1.00  0.00     0.115 A 
ATOM     16  C   UNL     1     173.881 174.152 177.058  1.00  0.00     0.013 A 
ATOM     17  C   UNL     1     173.000 174.261 178.138  1.00  0.00     0.047 A 
BRANCH  15  18
ATOM     18  O   UNL     1     171.086 173.424 179.375  1.00  0.00    -0.508 OA
ATOM     19  H   UNL     1     170.593 174.285 179.578  1.00  0.00     0.293 HD
ENDBRANCH  15  18
ENDBRANCH   1  12
BRANCH  11  20
ATOM     20  C   UNL     1     178.669 171.577 172.100  1.00  0.00     0.188 C 
ATOM     21  C   UNL     1     179.965 172.417 172.224  1.00  0.00     0.179 C 
ATOM     22  O   UNL     1     178.744 170.671 171.009  1.00  0.00    -0.362 OA
ATOM     23  C   UNL     1     181.191 171.503 172.387  1.00  0.00     0.177 C 
ATOM     24  C   UNL     1     179.800 169.726 171.139  1.00  0.00     0.176 C 
ATOM     25  C   UNL     1     181.193 170.399 171.308  1.00  0.00     0.177 C 
BRANCH  21  26
ATOM     26  O   UNL     1     179.887 173.343 173.282  1.00  0.00    -0.387 OA
ATOM     27  H   UNL     1     179.109 173.937 173.114  1.00  0.00     0.211 HD
ENDBRANCH  21  26
BRANCH  23  28
ATOM     28  O   UNL     1     181.199 170.930 173.671  1.00  0.00    -0.387 OA
ATOM     29  H   UNL     1     181.563 170.011 173.575  1.00  0.00     0.211 HD
ENDBRANCH  23  28
BRANCH  24  30
ATOM     30  C   UNL     1     179.489 168.647 172.201  1.00  0.00     0.191 C 
BRANCH  30  31
ATOM     31  O   UNL     1     180.676 168.134 172.746  1.00  0.00    -0.394 OA
ATOM     32  H   UNL     1     180.837 167.259 172.306  1.00  0.00     0.210 HD
ENDBRANCH  30  31
ENDBRANCH  24  30
BRANCH  25  33
ATOM     33  O   UNL     1     181.646 170.918 170.080  1.00  0.00    -0.388 OA
ATOM     34  H   UNL     1     180.873 170.965 169.460  1.00  0.00     0.211 HD
ENDBRANCH  25  33
ENDBRANCH  11  20
BRANCH  10  35
ATOM     35  O   UNL     1     178.181 172.972 169.611  1.00  0.00    -0.507 OA
ATOM     36  H   UNL     1     178.901 172.260 169.644  1.00  0.00     0.293 HD
ENDBRANCH  10  35
TORSDOF 9
ENDMDL
