MODEL 1
REMARK VINA RESULT:    -6.713      0.000      0.000
REMARK INTER + INTRA:          -6.713
REMARK INTER:                  -6.713
REMARK INTRA:                   0.000
REMARK UNBOUND:                 0.000
REMARK SMILES C=C1CCC[C@@]2(C)C=C3OC(=O)C(C)=C3C[C@@H]12
REMARK SMILES IDX 14 1 13 2 15 3 16 4 17 5 2 6 1 7 3 8 4 9 5 10 6 11 8 12 9 13
REMARK SMILES IDX 10 14 11 15 12 16 7 17
REMARK H PARENT
REMARK Flexibility Score: inf
ROOT
ATOM      1  C   UNL     1       5.279 -58.002 -25.850  1.00  0.00     0.053 C 
ATOM      2  C   UNL     1       4.575 -56.755 -26.285  1.00  0.00     0.041 C 
ATOM      3  C   UNL     1       3.530 -56.188 -25.688  1.00  0.00     0.005 C 
ATOM      4  C   UNL     1       2.772 -56.641 -24.481  1.00  0.00     0.049 C 
ATOM      5  C   UNL     1       1.970 -55.454 -23.879  1.00  0.00     0.029 C 
ATOM      6  C   UNL     1       2.870 -54.566 -23.028  1.00  0.00    -0.073 C 
ATOM      7  C   UNL     1       3.377 -55.023 -21.871  1.00  0.00     0.008 C 
ATOM      8  C   UNL     1       3.163 -53.155 -23.477  1.00  0.00     0.031 C 
ATOM      9  C   UNL     1       1.876 -52.391 -23.841  1.00  0.00     0.005 C 
ATOM     10  C   UNL     1       0.718 -53.284 -24.342  1.00  0.00     0.012 C 
ATOM     11  C   UNL     1       1.192 -54.617 -24.975  1.00  0.00    -0.004 C 
ATOM     12  C   UNL     1       2.043 -54.315 -26.206  1.00  0.00     0.027 C 
ATOM     13  C   UNL     1       3.089 -55.078 -26.509  1.00  0.00     0.131 C 
ATOM     14  O   UNL     1       3.901 -54.951 -27.625  1.00  0.00    -0.423 OA
ATOM     15  C   UNL     1       4.824 -55.984 -27.505  1.00  0.00     0.339 C 
ATOM     16  O   UNL     1       5.731 -56.214 -28.346  1.00  0.00    -0.246 OA
ATOM     17  C   UNL     1      -0.048 -55.404 -25.450  1.00  0.00     0.016 C 
ENDROOT
TORSDOF 0
ENDMDL
MODEL 2
REMARK VINA RESULT:    -6.630      5.973      8.613
REMARK INTER + INTRA:          -6.630
REMARK INTER:                  -6.630
REMARK INTRA:                   0.000
REMARK UNBOUND:                 0.000
REMARK SMILES C=C1CCC[C@@]2(C)C=C3OC(=O)C(C)=C3C[C@@H]12
REMARK SMILES IDX 14 1 13 2 15 3 16 4 17 5 2 6 1 7 3 8 4 9 5 10 6 11 8 12 9 13
REMARK SMILES IDX 10 14 11 15 12 16 7 17
REMARK H PARENT
REMARK Flexibility Score: inf
ROOT
ATOM      1  C   UNL     1      -0.016 -50.064 -21.360  1.00  0.00     0.053 C 
ATOM      2  C   UNL     1       1.157 -49.687 -22.209  1.00  0.00     0.041 C 
ATOM      3  C   UNL     1       1.479 -48.461 -22.614  1.00  0.00     0.005 C 
ATOM      4  C   UNL     1       0.766 -47.170 -22.372  1.00  0.00     0.049 C 
ATOM      5  C   UNL     1       1.731 -45.976 -22.608  1.00  0.00     0.029 C 
ATOM      6  C   UNL     1       2.627 -45.753 -21.394  1.00  0.00    -0.073 C 
ATOM      7  C   UNL     1       2.105 -45.314 -20.237  1.00  0.00     0.008 C 
ATOM      8  C   UNL     1       4.112 -45.997 -21.511  1.00  0.00     0.031 C 
ATOM      9  C   UNL     1       4.715 -45.287 -22.737  1.00  0.00     0.005 C 
ATOM     10  C   UNL     1       3.731 -45.086 -23.912  1.00  0.00     0.012 C 
ATOM     11  C   UNL     1       2.577 -46.120 -23.938  1.00  0.00    -0.004 C 
ATOM     12  C   UNL     1       3.159 -47.519 -24.122  1.00  0.00     0.027 C 
ATOM     13  C   UNL     1       2.607 -48.566 -23.518  1.00  0.00     0.131 C 
ATOM     14  O   UNL     1       2.997 -49.890 -23.650  1.00  0.00    -0.423 OA
ATOM     15  C   UNL     1       2.107 -50.598 -22.851  1.00  0.00     0.339 C 
ATOM     16  O   UNL     1       2.126 -51.850 -22.720  1.00  0.00    -0.246 OA
ATOM     17  C   UNL     1       1.681 -45.826 -25.160  1.00  0.00     0.016 C 
ENDROOT
TORSDOF 0
ENDMDL
MODEL 3
REMARK VINA RESULT:    -6.497      1.409      3.174
REMARK INTER + INTRA:          -6.497
REMARK INTER:                  -6.497
REMARK INTRA:                   0.000
REMARK UNBOUND:                 0.000
REMARK SMILES C=C1CCC[C@@]2(C)C=C3OC(=O)C(C)=C3C[C@@H]12
REMARK SMILES IDX 14 1 13 2 15 3 16 4 17 5 2 6 1 7 3 8 4 9 5 10 6 11 8 12 9 13
REMARK SMILES IDX 10 14 11 15 12 16 7 17
REMARK H PARENT
REMARK Flexibility Score: inf
ROOT
ATOM      1  C   UNL     1       3.448 -55.537 -28.873  1.00  0.00     0.053 C 
ATOM      2  C   UNL     1       3.538 -55.752 -27.395  1.00  0.00     0.041 C 
ATOM      3  C   UNL     1       2.875 -55.080 -26.457  1.00  0.00     0.005 C 
ATOM      4  C   UNL     1       1.918 -53.941 -26.610  1.00  0.00     0.049 C 
ATOM      5  C   UNL     1       1.048 -53.802 -25.330  1.00  0.00     0.029 C 
ATOM      6  C   UNL     1      -0.094 -54.814 -25.337  1.00  0.00    -0.073 C 
ATOM      7  C   UNL     1      -1.094 -54.703 -26.227  1.00  0.00     0.008 C 
ATOM      8  C   UNL     1      -0.110 -55.923 -24.313  1.00  0.00     0.031 C 
ATOM      9  C   UNL     1       0.100 -55.388 -22.885  1.00  0.00     0.005 C 
ATOM     10  C   UNL     1       0.927 -54.085 -22.801  1.00  0.00     0.012 C 
ATOM     11  C   UNL     1       1.895 -53.888 -23.996  1.00  0.00    -0.004 C 
ATOM     12  C   UNL     1       2.914 -55.024 -24.011  1.00  0.00     0.027 C 
ATOM     13  C   UNL     1       3.355 -55.521 -25.162  1.00  0.00     0.131 C 
ATOM     14  O   UNL     1       4.321 -56.505 -25.316  1.00  0.00    -0.423 OA
ATOM     15  C   UNL     1       4.449 -56.656 -26.692  1.00  0.00     0.339 C 
ATOM     16  O   UNL     1       5.253 -57.458 -27.236  1.00  0.00    -0.246 OA
ATOM     17  C   UNL     1       2.672 -52.571 -23.787  1.00  0.00     0.016 C 
ENDROOT
TORSDOF 0
ENDMDL
MODEL 4
REMARK VINA RESULT:    -6.190      8.698     10.390
REMARK INTER + INTRA:          -6.190
REMARK INTER:                  -6.190
REMARK INTRA:                   0.000
REMARK UNBOUND:                 0.000
REMARK SMILES C=C1CCC[C@@]2(C)C=C3OC(=O)C(C)=C3C[C@@H]12
REMARK SMILES IDX 14 1 13 2 15 3 16 4 17 5 2 6 1 7 3 8 4 9 5 10 6 11 8 12 9 13
REMARK SMILES IDX 10 14 11 15 12 16 7 17
REMARK H PARENT
REMARK Flexibility Score: inf
ROOT
ATOM      1  C   UNL     1      -2.311 -47.307 -23.856  1.00  0.00     0.053 C 
ATOM      2  C   UNL     1      -1.323 -46.544 -23.031  1.00  0.00     0.041 C 
ATOM      3  C   UNL     1      -0.029 -46.819 -22.893  1.00  0.00     0.005 C 
ATOM      4  C   UNL     1       0.763 -47.947 -23.472  1.00  0.00     0.049 C 
ATOM      5  C   UNL     1       2.278 -47.604 -23.443  1.00  0.00     0.029 C 
ATOM      6  C   UNL     1       2.652 -46.692 -24.607  1.00  0.00    -0.073 C 
ATOM      7  C   UNL     1       2.613 -47.152 -25.869  1.00  0.00     0.008 C 
ATOM      8  C   UNL     1       3.097 -45.277 -24.330  1.00  0.00     0.031 C 
ATOM      9  C   UNL     1       4.200 -45.223 -23.256  1.00  0.00     0.005 C 
ATOM     10  C   UNL     1       4.157 -46.381 -22.233  1.00  0.00     0.012 C 
ATOM     11  C   UNL     1       2.748 -47.001 -22.057  1.00  0.00    -0.004 C 
ATOM     12  C   UNL     1       1.793 -45.938 -21.518  1.00  0.00     0.027 C 
ATOM     13  C   UNL     1       0.523 -45.909 -21.909  1.00  0.00     0.131 C 
ATOM     14  O   UNL     1      -0.457 -45.041 -21.452  1.00  0.00    -0.423 OA
ATOM     15  C   UNL     1      -1.607 -45.423 -22.132  1.00  0.00     0.339 C 
ATOM     16  O   UNL     1      -2.729 -44.875 -21.975  1.00  0.00    -0.246 OA
ATOM     17  C   UNL     1       2.833 -48.124 -21.002  1.00  0.00     0.016 C 
ENDROOT
TORSDOF 0
ENDMDL
MODEL 5
REMARK VINA RESULT:    -6.187      7.179      9.459
REMARK INTER + INTRA:          -6.187
REMARK INTER:                  -6.187
REMARK INTRA:                   0.000
REMARK UNBOUND:                 0.000
REMARK SMILES C=C1CCC[C@@]2(C)C=C3OC(=O)C(C)=C3C[C@@H]12
REMARK SMILES IDX 14 1 13 2 15 3 16 4 17 5 2 6 1 7 3 8 4 9 5 10 6 11 8 12 9 13
REMARK SMILES IDX 10 14 11 15 12 16 7 17
REMARK H PARENT
REMARK Flexibility Score: inf
ROOT
ATOM      1  C   UNL     1      -0.976 -44.875 -25.502  1.00  0.00     0.053 C 
ATOM      2  C   UNL     1       0.330 -45.601 -25.574  1.00  0.00     0.041 C 
ATOM      3  C   UNL     1       1.122 -45.906 -24.549  1.00  0.00     0.005 C 
ATOM      4  C   UNL     1       0.952 -45.589 -23.098  1.00  0.00     0.049 C 
ATOM      5  C   UNL     1       1.840 -46.531 -22.239  1.00  0.00     0.029 C 
ATOM      6  C   UNL     1       1.174 -47.892 -22.060  1.00  0.00    -0.073 C 
ATOM      7  C   UNL     1       0.055 -48.008 -21.325  1.00  0.00     0.008 C 
ATOM      8  C   UNL     1       1.799 -49.114 -22.687  1.00  0.00     0.031 C 
ATOM      9  C   UNL     1       3.299 -49.224 -22.356  1.00  0.00     0.005 C 
ATOM     10  C   UNL     1       4.002 -47.871 -22.102  1.00  0.00     0.012 C 
ATOM     11  C   UNL     1       3.313 -46.673 -22.802  1.00  0.00    -0.004 C 
ATOM     12  C   UNL     1       3.353 -46.882 -24.314  1.00  0.00     0.027 C 
ATOM     13  C   UNL     1       2.338 -46.490 -25.078  1.00  0.00     0.131 C 
ATOM     14  O   UNL     1       2.276 -46.564 -26.461  1.00  0.00    -0.423 OA
ATOM     15  C   UNL     1       1.042 -46.014 -26.785  1.00  0.00     0.339 C 
ATOM     16  O   UNL     1       0.619 -45.886 -27.964  1.00  0.00    -0.246 OA
ATOM     17  C   UNL     1       4.116 -45.393 -22.490  1.00  0.00     0.016 C 
ENDROOT
TORSDOF 0
ENDMDL
MODEL 6
REMARK VINA RESULT:    -6.150      6.631      8.992
REMARK INTER + INTRA:          -6.150
REMARK INTER:                  -6.150
REMARK INTRA:                   0.000
REMARK UNBOUND:                 0.000
REMARK SMILES C=C1CCC[C@@]2(C)C=C3OC(=O)C(C)=C3C[C@@H]12
REMARK SMILES IDX 14 1 13 2 15 3 16 4 17 5 2 6 1 7 3 8 4 9 5 10 6 11 8 12 9 13
REMARK SMILES IDX 10 14 11 15 12 16 7 17
REMARK H PARENT
REMARK Flexibility Score: inf
ROOT
ATOM      1  C   UNL     1       0.514 -51.188 -22.507  1.00  0.00     0.053 C 
ATOM      2  C   UNL     1       0.659 -49.765 -22.067  1.00  0.00     0.041 C 
ATOM      3  C   UNL     1       1.626 -48.923 -22.419  1.00  0.00     0.005 C 
ATOM      4  C   UNL     1       2.815 -49.163 -23.293  1.00  0.00     0.049 C 
ATOM      5  C   UNL     1       3.385 -47.810 -23.802  1.00  0.00     0.029 C 
ATOM      6  C   UNL     1       2.574 -47.289 -24.983  1.00  0.00    -0.073 C 
ATOM      7  C   UNL     1       2.602 -47.932 -26.163  1.00  0.00     0.008 C 
ATOM      8  C   UNL     1       1.762 -46.025 -24.829  1.00  0.00     0.031 C 
ATOM      9  C   UNL     1       2.597 -44.879 -24.227  1.00  0.00     0.005 C 
ATOM     10  C   UNL     1       3.751 -45.338 -23.307  1.00  0.00     0.012 C 
ATOM     11  C   UNL     1       3.511 -46.725 -22.657  1.00  0.00    -0.004 C 
ATOM     12  C   UNL     1       2.274 -46.656 -21.765  1.00  0.00     0.027 C 
ATOM     13  C   UNL     1       1.453 -47.696 -21.666  1.00  0.00     0.131 C 
ATOM     14  O   UNL     1       0.337 -47.787 -20.849  1.00  0.00    -0.423 OA
ATOM     15  C   UNL     1      -0.165 -49.062 -21.081  1.00  0.00     0.339 C 
ATOM     16  O   UNL     1      -1.180 -49.532 -20.503  1.00  0.00    -0.246 OA
ATOM     17  C   UNL     1       4.716 -47.059 -21.752  1.00  0.00     0.016 C 
ENDROOT
TORSDOF 0
ENDMDL
MODEL 7
REMARK VINA RESULT:    -6.110      5.690      8.340
REMARK INTER + INTRA:          -6.110
REMARK INTER:                  -6.110
REMARK INTRA:                   0.000
REMARK UNBOUND:                 0.000
REMARK SMILES C=C1CCC[C@@]2(C)C=C3OC(=O)C(C)=C3C[C@@H]12
REMARK SMILES IDX 14 1 13 2 15 3 16 4 17 5 2 6 1 7 3 8 4 9 5 10 6 11 8 12 9 13
REMARK SMILES IDX 10 14 11 15 12 16 7 17
REMARK H PARENT
REMARK Flexibility Score: inf
ROOT
ATOM      1  C   UNL     1       3.704 -51.122 -23.938  1.00  0.00     0.053 C 
ATOM      2  C   UNL     1       2.615 -50.365 -23.246  1.00  0.00     0.041 C 
ATOM      3  C   UNL     1       2.532 -49.044 -23.112  1.00  0.00     0.005 C 
ATOM      4  C   UNL     1       3.487 -47.987 -23.567  1.00  0.00     0.049 C 
ATOM      5  C   UNL     1       2.769 -46.611 -23.626  1.00  0.00     0.029 C 
ATOM      6  C   UNL     1       1.952 -46.478 -24.907  1.00  0.00    -0.073 C 
ATOM      7  C   UNL     1       2.567 -46.393 -26.099  1.00  0.00     0.008 C 
ATOM      8  C   UNL     1       0.446 -46.411 -24.825  1.00  0.00     0.031 C 
ATOM      9  C   UNL     1      -0.025 -45.363 -23.800  1.00  0.00     0.005 C 
ATOM     10  C   UNL     1       0.962 -45.113 -22.637  1.00  0.00     0.012 C 
ATOM     11  C   UNL     1       1.891 -46.317 -22.342  1.00  0.00    -0.004 C 
ATOM     12  C   UNL     1       1.045 -47.513 -21.915  1.00  0.00     0.027 C 
ATOM     13  C   UNL     1       1.391 -48.747 -22.268  1.00  0.00     0.131 C 
ATOM     14  O   UNL     1       0.749 -49.919 -21.896  1.00  0.00    -0.423 OA
ATOM     15  C   UNL     1       1.496 -50.930 -22.489  1.00  0.00     0.339 C 
ATOM     16  O   UNL     1       1.235 -52.156 -22.369  1.00  0.00    -0.246 OA
ATOM     17  C   UNL     1       2.809 -45.951 -21.156  1.00  0.00     0.016 C 
ENDROOT
TORSDOF 0
ENDMDL
MODEL 8
REMARK VINA RESULT:    -5.771      3.193      5.052
REMARK INTER + INTRA:          -5.771
REMARK INTER:                  -5.771
REMARK INTRA:                   0.000
REMARK UNBOUND:                 0.000
REMARK SMILES C=C1CCC[C@@]2(C)C=C3OC(=O)C(C)=C3C[C@@H]12
REMARK SMILES IDX 14 1 13 2 15 3 16 4 17 5 2 6 1 7 3 8 4 9 5 10 6 11 8 12 9 13
REMARK SMILES IDX 10 14 11 15 12 16 7 17
REMARK H PARENT
REMARK Flexibility Score: inf
ROOT
ATOM      1  C   UNL     1      -1.581 -57.650 -24.659  1.00  0.00     0.053 C 
ATOM      2  C   UNL     1      -1.163 -56.311 -24.140  1.00  0.00     0.041 C 
ATOM      3  C   UNL     1       0.078 -55.833 -24.094  1.00  0.00     0.005 C 
ATOM      4  C   UNL     1       1.358 -56.491 -24.500  1.00  0.00     0.049 C 
ATOM      5  C   UNL     1       2.461 -55.419 -24.721  1.00  0.00     0.029 C 
ATOM      6  C   UNL     1       2.317 -54.765 -26.091  1.00  0.00    -0.073 C 
ATOM      7  C   UNL     1       2.552 -55.473 -27.209  1.00  0.00     0.008 C 
ATOM      8  C   UNL     1       1.941 -53.306 -26.183  1.00  0.00     0.031 C 
ATOM      9  C   UNL     1       2.827 -52.428 -25.281  1.00  0.00     0.005 C 
ATOM     10  C   UNL     1       3.384 -53.147 -24.031  1.00  0.00     0.012 C 
ATOM     11  C   UNL     1       2.513 -54.340 -23.563  1.00  0.00    -0.004 C 
ATOM     12  C   UNL     1       1.131 -53.830 -23.165  1.00  0.00     0.027 C 
ATOM     13  C   UNL     1       0.046 -54.559 -23.403  1.00  0.00     0.131 C 
ATOM     14  O   UNL     1      -1.254 -54.242 -23.038  1.00  0.00    -0.423 OA
ATOM     15  C   UNL     1      -2.014 -55.317 -23.482  1.00  0.00     0.339 C 
ATOM     16  O   UNL     1      -3.259 -55.409 -23.320  1.00  0.00    -0.246 OA
ATOM     17  C   UNL     1       3.160 -54.957 -22.305  1.00  0.00     0.016 C 
ENDROOT
TORSDOF 0
ENDMDL
MODEL 9
REMARK VINA RESULT:    -5.731      3.023      5.802
REMARK INTER + INTRA:          -5.731
REMARK INTER:                  -5.731
REMARK INTRA:                   0.000
REMARK UNBOUND:                 0.000
REMARK SMILES C=C1CCC[C@@]2(C)C=C3OC(=O)C(C)=C3C[C@@H]12
REMARK SMILES IDX 14 1 13 2 15 3 16 4 17 5 2 6 1 7 3 8 4 9 5 10 6 11 8 12 9 13
REMARK SMILES IDX 10 14 11 15 12 16 7 17
REMARK H PARENT
REMARK Flexibility Score: inf
ROOT
ATOM      1  C   UNL     1      -0.217 -50.110 -21.858  1.00  0.00     0.053 C 
ATOM      2  C   UNL     1       1.073 -50.515 -22.500  1.00  0.00     0.041 C 
ATOM      3  C   UNL     1       1.407 -51.739 -22.898  1.00  0.00     0.005 C 
ATOM      4  C   UNL     1       0.632 -53.013 -22.787  1.00  0.00     0.049 C 
ATOM      5  C   UNL     1       1.186 -54.063 -23.789  1.00  0.00     0.029 C 
ATOM      6  C   UNL     1       0.647 -53.812 -25.193  1.00  0.00    -0.073 C 
ATOM      7  C   UNL     1      -0.656 -54.000 -25.464  1.00  0.00     0.008 C 
ATOM      8  C   UNL     1       1.593 -53.381 -26.287  1.00  0.00     0.031 C 
ATOM      9  C   UNL     1       2.832 -54.292 -26.364  1.00  0.00     0.005 C 
ATOM     10  C   UNL     1       3.231 -54.950 -25.023  1.00  0.00     0.012 C 
ATOM     11  C   UNL     1       2.767 -54.151 -23.779  1.00  0.00    -0.004 C 
ATOM     12  C   UNL     1       3.438 -52.780 -23.781  1.00  0.00     0.027 C 
ATOM     13  C   UNL     1       2.786 -51.708 -23.343  1.00  0.00     0.131 C 
ATOM     14  O   UNL     1       3.299 -50.424 -23.234  1.00  0.00    -0.423 OA
ATOM     15  C   UNL     1       2.253 -49.674 -22.710  1.00  0.00     0.339 C 
ATOM     16  O   UNL     1       2.334 -48.445 -22.447  1.00  0.00    -0.246 OA
ATOM     17  C   UNL     1       3.238 -54.896 -22.512  1.00  0.00     0.016 C 
ENDROOT
TORSDOF 0
ENDMDL
