MODEL 1
REMARK VINA RESULT:    -5.343      0.000      0.000
REMARK INTER + INTRA:          -6.766
REMARK INTER:                  -6.436
REMARK INTRA:                  -0.330
REMARK UNBOUND:                -0.330
REMARK SMILES O=c1c(O)c(-c2ccc(O)c(O)c2)oc2cc(O)cc(O)c12
REMARK SMILES IDX 5 1 3 2 2 3 1 4 22 5 20 6 19 7 17 8 16 9 15 10 14 11 6 12
REMARK SMILES IDX 7 13 8 14 9 15 13 16 11 17 10 18 12 20 4 22 21 24 18 26
REMARK H PARENT 10 19 12 21 4 23 21 25 18 27
REMARK Flexibility Score: inf
ROOT
ATOM      1  C   UNL     1      15.396  24.799   4.993  1.00  0.00     0.180 A 
ATOM      2  C   UNL     1      14.745  23.751   4.312  1.00  0.00     0.208 A 
ATOM      3  C   UNL     1      13.344  23.689   4.345  1.00  0.00     0.238 A 
ATOM      4  O   UNL     1      12.750  22.749   3.748  1.00  0.00    -0.285 OA
ATOM      5  C   UNL     1      12.617  24.681   5.036  1.00  0.00     0.111 A 
ATOM      6  C   UNL     1      11.204  24.693   5.114  1.00  0.00     0.134 A 
ATOM      7  C   UNL     1      10.555  25.720   5.815  1.00  0.00     0.093 A 
ATOM      8  C   UNL     1      11.288  26.733   6.436  1.00  0.00     0.123 A 
ATOM      9  C   UNL     1      12.685  26.727   6.363  1.00  0.00     0.094 A 
ATOM     10  C   UNL     1      13.351  25.711   5.671  1.00  0.00     0.146 A 
ATOM     11  O   UNL     1      14.678  25.725   5.622  1.00  0.00    -0.452 OA
ENDROOT
BRANCH   1  12
ATOM     12  C   UNL     1      16.872  24.921   5.020  1.00  0.00     0.025 A 
ATOM     13  C   UNL     1      17.507  25.792   4.124  1.00  0.00     0.016 A 
ATOM     14  C   UNL     1      18.895  25.938   4.146  1.00  0.00     0.051 A 
ATOM     15  C   UNL     1      19.674  25.233   5.071  1.00  0.00     0.157 A 
ATOM     16  C   UNL     1      17.647  24.229   5.966  1.00  0.00     0.062 A 
ATOM     17  C   UNL     1      19.040  24.372   5.997  1.00  0.00     0.158 A 
BRANCH  15  18
ATOM     18  O   UNL     1      21.057  25.418   5.036  1.00  0.00    -0.504 OA
ATOM     19  H   UNL     1      21.505  26.281   4.764  1.00  0.00     0.293 HD
ENDBRANCH  15  18
BRANCH  17  20
ATOM     20  O   UNL     1      19.747  23.651   6.962  1.00  0.00    -0.504 OA
ATOM     21  H   UNL     1      19.561  22.687   7.196  1.00  0.00     0.293 HD
ENDBRANCH  17  20
ENDBRANCH   1  12
BRANCH   2  22
ATOM     22  O   UNL     1      15.485  22.810   3.592  1.00  0.00    -0.502 OA
ATOM     23  H   UNL     1      15.478  21.824   3.822  1.00  0.00     0.293 HD
ENDBRANCH   2  22
BRANCH   6  24
ATOM     24  O   UNL     1      10.443  23.696   4.503  1.00  0.00    -0.507 OA
ATOM     25  H   UNL     1       9.436  23.774   4.413  1.00  0.00     0.293 HD
ENDBRANCH   6  24
BRANCH   8  26
ATOM     26  O   UNL     1      10.619  27.743   7.125  1.00  0.00    -0.508 OA
ATOM     27  H   UNL     1       9.608  27.774   7.168  1.00  0.00     0.293 HD
ENDBRANCH   8  26
TORSDOF 6
ENDMDL
MODEL 2
REMARK VINA RESULT:    -5.162      8.774     12.024
REMARK INTER + INTRA:          -6.548
REMARK INTER:                  -6.233
REMARK INTRA:                  -0.315
REMARK UNBOUND:                -0.330
REMARK SMILES O=c1c(O)c(-c2ccc(O)c(O)c2)oc2cc(O)cc(O)c12
REMARK SMILES IDX 5 1 3 2 2 3 1 4 22 5 20 6 19 7 17 8 16 9 15 10 14 11 6 12
REMARK SMILES IDX 7 13 8 14 9 15 13 16 11 17 10 18 12 20 4 22 21 24 18 26
REMARK H PARENT 10 19 12 21 4 23 21 25 18 27
REMARK Flexibility Score: inf
ROOT
ATOM      1  C   UNL     1      25.063  23.860   5.401  1.00  0.00     0.180 A 
ATOM      2  C   UNL     1      26.238  23.502   6.090  1.00  0.00     0.208 A 
ATOM      3  C   UNL     1      26.890  22.308   5.743  1.00  0.00     0.238 A 
ATOM      4  O   UNL     1      27.937  21.972   6.360  1.00  0.00    -0.285 OA
ATOM      5  C   UNL     1      26.372  21.507   4.704  1.00  0.00     0.111 A 
ATOM      6  C   UNL     1      26.970  20.293   4.290  1.00  0.00     0.134 A 
ATOM      7  C   UNL     1      26.398  19.557   3.243  1.00  0.00     0.093 A 
ATOM      8  C   UNL     1      25.242  20.009   2.602  1.00  0.00     0.123 A 
ATOM      9  C   UNL     1      24.646  21.208   3.006  1.00  0.00     0.094 A 
ATOM     10  C   UNL     1      25.201  21.956   4.049  1.00  0.00     0.146 A 
ATOM     11  O   UNL     1      24.612  23.087   4.417  1.00  0.00    -0.452 OA
ENDROOT
BRANCH   1  12
ATOM     12  C   UNL     1      24.308  25.094   5.723  1.00  0.00     0.025 A 
ATOM     13  C   UNL     1      23.248  25.033   6.637  1.00  0.00     0.016 A 
ATOM     14  C   UNL     1      22.536  26.187   6.970  1.00  0.00     0.051 A 
ATOM     15  C   UNL     1      22.877  27.424   6.411  1.00  0.00     0.157 A 
ATOM     16  C   UNL     1      24.670  26.337   5.177  1.00  0.00     0.062 A 
ATOM     17  C   UNL     1      23.963  27.500   5.507  1.00  0.00     0.158 A 
BRANCH  15  18
ATOM     18  O   UNL     1      22.121  28.538   6.779  1.00  0.00    -0.504 OA
ATOM     19  H   UNL     1      22.337  29.484   6.501  1.00  0.00     0.293 HD
ENDBRANCH  15  18
BRANCH  17  20
ATOM     20  O   UNL     1      24.376  28.701   4.925  1.00  0.00    -0.504 OA
ATOM     21  H   UNL     1      24.088  29.013   4.009  1.00  0.00     0.293 HD
ENDBRANCH  17  20
ENDBRANCH   1  12
BRANCH   2  22
ATOM     22  O   UNL     1      26.759  24.338   7.080  1.00  0.00    -0.502 OA
ATOM     23  H   UNL     1      27.295  23.984   7.863  1.00  0.00     0.293 HD
ENDBRANCH   2  22
BRANCH   6  24
ATOM     24  O   UNL     1      28.125  19.814   4.910  1.00  0.00    -0.507 OA
ATOM     25  H   UNL     1      28.083  19.170   5.691  1.00  0.00     0.293 HD
ENDBRANCH   6  24
BRANCH   8  26
ATOM     26  O   UNL     1      24.695  19.260   1.563  1.00  0.00    -0.508 OA
ATOM     27  H   UNL     1      25.225  18.534   1.096  1.00  0.00     0.293 HD
ENDBRANCH   8  26
TORSDOF 6
ENDMDL
MODEL 3
REMARK VINA RESULT:    -4.963      4.163     10.279
REMARK INTER + INTRA:          -6.308
REMARK INTER:                  -6.171
REMARK INTRA:                  -0.137
REMARK UNBOUND:                -0.330
REMARK SMILES O=c1c(O)c(-c2ccc(O)c(O)c2)oc2cc(O)cc(O)c12
REMARK SMILES IDX 5 1 3 2 2 3 1 4 22 5 20 6 19 7 17 8 16 9 15 10 14 11 6 12
REMARK SMILES IDX 7 13 8 14 9 15 13 16 11 17 10 18 12 20 4 22 21 24 18 26
REMARK H PARENT 10 19 12 21 4 23 21 25 18 27
REMARK Flexibility Score: inf
ROOT
ATOM      1  C   UNL     1      21.922  25.356   5.725  1.00  0.00     0.180 A 
ATOM      2  C   UNL     1      22.501  26.581   6.111  1.00  0.00     0.208 A 
ATOM      3  C   UNL     1      23.889  26.642   6.308  1.00  0.00     0.238 A 
ATOM      4  O   UNL     1      24.417  27.731   6.664  1.00  0.00    -0.285 OA
ATOM      5  C   UNL     1      24.675  25.490   6.098  1.00  0.00     0.111 A 
ATOM      6  C   UNL     1      26.079  25.469   6.271  1.00  0.00     0.134 A 
ATOM      7  C   UNL     1      26.792  24.284   6.034  1.00  0.00     0.093 A 
ATOM      8  C   UNL     1      26.130  23.123   5.628  1.00  0.00     0.123 A 
ATOM      9  C   UNL     1      24.742  23.138   5.455  1.00  0.00     0.094 A 
ATOM     10  C   UNL     1      24.014  24.308   5.688  1.00  0.00     0.146 A 
ATOM     11  O   UNL     1      22.696  24.293   5.522  1.00  0.00    -0.452 OA
ENDROOT
BRANCH   1  12
ATOM     12  C   UNL     1      20.463  25.206   5.516  1.00  0.00     0.025 A 
ATOM     13  C   UNL     1      19.839  25.918   4.482  1.00  0.00     0.016 A 
ATOM     14  C   UNL     1      18.469  25.777   4.255  1.00  0.00     0.051 A 
ATOM     15  C   UNL     1      17.699  24.913   5.041  1.00  0.00     0.157 A 
ATOM     16  C   UNL     1      19.699  24.320   6.294  1.00  0.00     0.062 A 
ATOM     17  C   UNL     1      18.324  24.170   6.071  1.00  0.00     0.158 A 
BRANCH  15  18
ATOM     18  O   UNL     1      16.333  24.823   4.768  1.00  0.00    -0.504 OA
ATOM     19  H   UNL     1      15.880  25.292   3.996  1.00  0.00     0.293 HD
ENDBRANCH  15  18
BRANCH  17  20
ATOM     20  O   UNL     1      17.626  23.274   6.883  1.00  0.00    -0.504 OA
ATOM     21  H   UNL     1      16.634  23.102   6.812  1.00  0.00     0.293 HD
ENDBRANCH  17  20
ENDBRANCH   1  12
BRANCH   2  22
ATOM     22  O   UNL     1      21.707  27.720   6.263  1.00  0.00    -0.502 OA
ATOM     23  H   UNL     1      21.413  28.285   5.476  1.00  0.00     0.293 HD
ENDBRANCH   2  22
BRANCH   6  24
ATOM     24  O   UNL     1      26.771  26.611   6.676  1.00  0.00    -0.507 OA
ATOM     25  H   UNL     1      27.698  26.558   7.080  1.00  0.00     0.293 HD
ENDBRANCH   6  24
BRANCH   8  26
ATOM     26  O   UNL     1      26.861  21.960   5.398  1.00  0.00    -0.508 OA
ATOM     27  H   UNL     1      26.664  21.102   5.900  1.00  0.00     0.293 HD
ENDBRANCH   8  26
TORSDOF 6
ENDMDL
MODEL 4
REMARK VINA RESULT:    -4.651      8.816     11.149
REMARK INTER + INTRA:          -5.932
REMARK INTER:                  -5.652
REMARK INTRA:                  -0.280
REMARK UNBOUND:                -0.330
REMARK SMILES O=c1c(O)c(-c2ccc(O)c(O)c2)oc2cc(O)cc(O)c12
REMARK SMILES IDX 5 1 3 2 2 3 1 4 22 5 20 6 19 7 17 8 16 9 15 10 14 11 6 12
REMARK SMILES IDX 7 13 8 14 9 15 13 16 11 17 10 18 12 20 4 22 21 24 18 26
REMARK H PARENT 10 19 12 21 4 23 21 25 18 27
REMARK Flexibility Score: inf
ROOT
ATOM      1  C   UNL     1      24.988  23.600   6.343  1.00  0.00     0.180 A 
ATOM      2  C   UNL     1      26.274  24.131   6.557  1.00  0.00     0.208 A 
ATOM      3  C   UNL     1      26.412  25.515   6.747  1.00  0.00     0.238 A 
ATOM      4  O   UNL     1      27.561  26.004   6.929  1.00  0.00    -0.285 OA
ATOM      5  C   UNL     1      25.267  26.338   6.741  1.00  0.00     0.111 A 
ATOM      6  C   UNL     1      25.320  27.740   6.928  1.00  0.00     0.134 A 
ATOM      7  C   UNL     1      24.134  28.488   6.917  1.00  0.00     0.093 A 
ATOM      8  C   UNL     1      22.899  27.865   6.723  1.00  0.00     0.123 A 
ATOM      9  C   UNL     1      22.840  26.480   6.537  1.00  0.00     0.094 A 
ATOM     10  C   UNL     1      24.012  25.717   6.543  1.00  0.00     0.146 A 
ATOM     11  O   UNL     1      23.929  24.404   6.358  1.00  0.00    -0.452 OA
ENDROOT
BRANCH   1  12
ATOM     12  C   UNL     1      24.762  22.153   6.116  1.00  0.00     0.025 A 
ATOM     13  C   UNL     1      24.169  21.382   7.125  1.00  0.00     0.016 A 
ATOM     14  C   UNL     1      23.929  20.022   6.925  1.00  0.00     0.051 A 
ATOM     15  C   UNL     1      24.260  19.408   5.712  1.00  0.00     0.157 A 
ATOM     16  C   UNL     1      25.075  21.547   4.888  1.00  0.00     0.062 A 
ATOM     17  C   UNL     1      24.836  20.183   4.678  1.00  0.00     0.158 A 
BRANCH  15  18
ATOM     18  O   UNL     1      24.002  18.043   5.578  1.00  0.00    -0.504 OA
ATOM     19  H   UNL     1      23.745  17.599   4.708  1.00  0.00     0.293 HD
ENDBRANCH  15  18
BRANCH  17  20
ATOM     20  O   UNL     1      25.175  19.646   3.433  1.00  0.00    -0.504 OA
ATOM     21  H   UNL     1      25.523  18.708   3.298  1.00  0.00     0.293 HD
ENDBRANCH  17  20
ENDBRANCH   1  12
BRANCH   2  22
ATOM     22  O   UNL     1      27.387  23.289   6.609  1.00  0.00    -0.502 OA
ATOM     23  H   UNL     1      28.040  23.204   5.840  1.00  0.00     0.293 HD
ENDBRANCH   2  22
BRANCH   6  24
ATOM     24  O   UNL     1      26.537  28.393   7.125  1.00  0.00    -0.507 OA
ATOM     25  H   UNL     1      26.612  29.403   7.091  1.00  0.00     0.293 HD
ENDBRANCH   6  24
BRANCH   8  26
ATOM     26  O   UNL     1      21.736  28.631   6.717  1.00  0.00    -0.508 OA
ATOM     27  H   UNL     1      20.986  28.452   6.060  1.00  0.00     0.293 HD
ENDBRANCH   8  26
TORSDOF 6
ENDMDL
MODEL 5
REMARK VINA RESULT:    -4.358      4.316      9.985
REMARK INTER + INTRA:          -5.579
REMARK INTER:                  -5.651
REMARK INTRA:                   0.072
REMARK UNBOUND:                -0.330
REMARK SMILES O=c1c(O)c(-c2ccc(O)c(O)c2)oc2cc(O)cc(O)c12
REMARK SMILES IDX 5 1 3 2 2 3 1 4 22 5 20 6 19 7 17 8 16 9 15 10 14 11 6 12
REMARK SMILES IDX 7 13 8 14 9 15 13 16 11 17 10 18 12 20 4 22 21 24 18 26
REMARK H PARENT 10 19 12 21 4 23 21 25 18 27
REMARK Flexibility Score: inf
ROOT
ATOM      1  C   UNL     1      21.998  25.172   6.183  1.00  0.00     0.180 A 
ATOM      2  C   UNL     1      22.945  24.155   6.412  1.00  0.00     0.208 A 
ATOM      3  C   UNL     1      24.282  24.513   6.645  1.00  0.00     0.238 A 
ATOM      4  O   UNL     1      25.141  23.610   6.841  1.00  0.00    -0.285 OA
ATOM      5  C   UNL     1      24.645  25.876   6.667  1.00  0.00     0.111 A 
ATOM      6  C   UNL     1      25.969  26.321   6.898  1.00  0.00     0.134 A 
ATOM      7  C   UNL     1      26.248  27.695   6.912  1.00  0.00     0.093 A 
ATOM      8  C   UNL     1      25.233  28.631   6.701  1.00  0.00     0.123 A 
ATOM      9  C   UNL     1      23.923  28.198   6.471  1.00  0.00     0.094 A 
ATOM     10  C   UNL     1      23.625  26.832   6.452  1.00  0.00     0.146 A 
ATOM     11  O   UNL     1      22.374  26.447   6.226  1.00  0.00    -0.452 OA
ENDROOT
BRANCH   1  12
ATOM     12  C   UNL     1      20.573  24.873   5.911  1.00  0.00     0.025 A 
ATOM     13  C   UNL     1      19.886  23.980   6.745  1.00  0.00     0.016 A 
ATOM     14  C   UNL     1      18.537  23.700   6.519  1.00  0.00     0.051 A 
ATOM     15  C   UNL     1      17.845  24.314   5.470  1.00  0.00     0.157 A 
ATOM     16  C   UNL     1      19.877  25.511   4.871  1.00  0.00     0.062 A 
ATOM     17  C   UNL     1      18.523  25.237   4.639  1.00  0.00     0.158 A 
BRANCH  15  18
ATOM     18  O   UNL     1      16.500  23.985   5.293  1.00  0.00    -0.504 OA
ATOM     19  H   UNL     1      15.735  24.620   5.468  1.00  0.00     0.293 HD
ENDBRANCH  15  18
BRANCH  17  20
ATOM     20  O   UNL     1      17.894  25.906   3.586  1.00  0.00    -0.504 OA
ATOM     21  H   UNL     1      17.854  25.557   2.639  1.00  0.00     0.293 HD
ENDBRANCH  17  20
ENDBRANCH   1  12
BRANCH   2  22
ATOM     22  O   UNL     1      22.551  22.815   6.436  1.00  0.00    -0.502 OA
ATOM     23  H   UNL     1      22.091  22.371   5.650  1.00  0.00     0.293 HD
ENDBRANCH   2  22
BRANCH   6  24
ATOM     24  O   UNL     1      27.005  25.411   7.113  1.00  0.00    -0.507 OA
ATOM     25  H   UNL     1      27.940  25.717   7.355  1.00  0.00     0.293 HD
ENDBRANCH   6  24
BRANCH   8  26
ATOM     26  O   UNL     1      25.537  29.991   6.721  1.00  0.00    -0.508 OA
ATOM     27  H   UNL     1      25.219  30.616   5.990  1.00  0.00     0.293 HD
ENDBRANCH   8  26
TORSDOF 6
ENDMDL
MODEL 6
REMARK VINA RESULT:    -4.256      7.028     10.748
REMARK INTER + INTRA:          -5.456
REMARK INTER:                  -5.948
REMARK INTRA:                   0.492
REMARK UNBOUND:                -0.330
REMARK SMILES O=c1c(O)c(-c2ccc(O)c(O)c2)oc2cc(O)cc(O)c12
REMARK SMILES IDX 5 1 3 2 2 3 1 4 22 5 20 6 19 7 17 8 16 9 15 10 14 11 6 12
REMARK SMILES IDX 7 13 8 14 9 15 13 16 11 17 10 18 12 20 4 22 21 24 18 26
REMARK H PARENT 10 19 12 21 4 23 21 25 18 27
REMARK Flexibility Score: inf
ROOT
ATOM      1  C   UNL     1      25.392  23.687   5.235  1.00  0.00     0.180 A 
ATOM      2  C   UNL     1      26.053  24.704   5.952  1.00  0.00     0.208 A 
ATOM      3  C   UNL     1      25.338  25.861   6.300  1.00  0.00     0.238 A 
ATOM      4  O   UNL     1      25.922  26.783   6.933  1.00  0.00    -0.285 OA
ATOM      5  C   UNL     1      23.977  25.973   5.948  1.00  0.00     0.111 A 
ATOM      6  C   UNL     1      23.186  27.103   6.264  1.00  0.00     0.134 A 
ATOM      7  C   UNL     1      21.836  27.135   5.885  1.00  0.00     0.093 A 
ATOM      8  C   UNL     1      21.263  26.063   5.198  1.00  0.00     0.123 A 
ATOM      9  C   UNL     1      22.039  24.943   4.882  1.00  0.00     0.094 A 
ATOM     10  C   UNL     1      23.387  24.893   5.250  1.00  0.00     0.146 A 
ATOM     11  O   UNL     1      24.104  23.821   4.932  1.00  0.00    -0.452 OA
ENDROOT
BRANCH   1  12
ATOM     12  C   UNL     1      26.083  22.446   4.815  1.00  0.00     0.025 A 
ATOM     13  C   UNL     1      27.321  22.120   5.386  1.00  0.00     0.016 A 
ATOM     14  C   UNL     1      27.979  20.944   5.019  1.00  0.00     0.051 A 
ATOM     15  C   UNL     1      27.411  20.066   4.091  1.00  0.00     0.157 A 
ATOM     16  C   UNL     1      25.497  21.555   3.900  1.00  0.00     0.062 A 
ATOM     17  C   UNL     1      26.149  20.373   3.528  1.00  0.00     0.158 A 
BRANCH  15  18
ATOM     18  O   UNL     1      28.124  18.912   3.761  1.00  0.00    -0.504 OA
ATOM     19  H   UNL     1      28.267  18.587   2.816  1.00  0.00     0.293 HD
ENDBRANCH  15  18
BRANCH  17  20
ATOM     20  O   UNL     1      25.509  19.536   2.611  1.00  0.00    -0.504 OA
ATOM     21  H   UNL     1      24.609  19.733   2.199  1.00  0.00     0.293 HD
ENDBRANCH  17  20
ENDBRANCH   1  12
BRANCH   2  22
ATOM     22  O   UNL     1      27.387  24.547   6.333  1.00  0.00    -0.502 OA
ATOM     23  H   UNL     1      28.011  23.899   5.869  1.00  0.00     0.293 HD
ENDBRANCH   2  22
BRANCH   6  24
ATOM     24  O   UNL     1      23.728  28.190   6.950  1.00  0.00    -0.507 OA
ATOM     25  H   UNL     1      23.699  29.129   6.569  1.00  0.00     0.293 HD
ENDBRANCH   6  24
BRANCH   8  26
ATOM     26  O   UNL     1      19.919  26.119   4.834  1.00  0.00    -0.508 OA
ATOM     27  H   UNL     1      19.299  25.331   4.973  1.00  0.00     0.293 HD
ENDBRANCH   8  26
TORSDOF 6
ENDMDL
MODEL 7
REMARK VINA RESULT:    -4.214      1.478      3.116
REMARK INTER + INTRA:          -5.406
REMARK INTER:                  -5.157
REMARK INTRA:                  -0.249
REMARK UNBOUND:                -0.330
REMARK SMILES O=c1c(O)c(-c2ccc(O)c(O)c2)oc2cc(O)cc(O)c12
REMARK SMILES IDX 5 1 3 2 2 3 1 4 22 5 20 6 19 7 17 8 16 9 15 10 14 11 6 12
REMARK SMILES IDX 7 13 8 14 9 15 13 16 11 17 10 18 12 20 4 22 21 24 18 26
REMARK H PARENT 10 19 12 21 4 23 21 25 18 27
REMARK Flexibility Score: inf
ROOT
ATOM      1  C   UNL     1      14.259  25.779   5.661  1.00  0.00     0.180 A 
ATOM      2  C   UNL     1      13.745  26.924   6.300  1.00  0.00     0.208 A 
ATOM      3  C   UNL     1      12.356  27.044   6.461  1.00  0.00     0.238 A 
ATOM      4  O   UNL     1      11.883  28.069   7.023  1.00  0.00    -0.285 OA
ATOM      5  C   UNL     1      11.509  26.013   6.003  1.00  0.00     0.111 A 
ATOM      6  C   UNL     1      10.100  26.055   6.130  1.00  0.00     0.134 A 
ATOM      7  C   UNL     1       9.327  24.985   5.655  1.00  0.00     0.093 A 
ATOM      8  C   UNL     1       9.932  23.878   5.058  1.00  0.00     0.123 A 
ATOM      9  C   UNL     1      11.324  23.831   4.929  1.00  0.00     0.094 A 
ATOM     10  C   UNL     1      12.112  24.888   5.394  1.00  0.00     0.146 A 
ATOM     11  O   UNL     1      13.431  24.821   5.254  1.00  0.00    -0.452 OA
ENDROOT
BRANCH   1  12
ATOM     12  C   UNL     1      15.711  25.589   5.437  1.00  0.00     0.025 A 
ATOM     13  C   UNL     1      16.364  26.358   4.464  1.00  0.00     0.016 A 
ATOM     14  C   UNL     1      17.735  26.210   4.250  1.00  0.00     0.051 A 
ATOM     15  C   UNL     1      18.484  25.306   5.011  1.00  0.00     0.157 A 
ATOM     16  C   UNL     1      16.462  24.698   6.220  1.00  0.00     0.062 A 
ATOM     17  C   UNL     1      17.839  24.544   6.014  1.00  0.00     0.158 A 
BRANCH  15  18
ATOM     18  O   UNL     1      19.850  25.199   4.742  1.00  0.00    -0.504 OA
ATOM     19  H   UNL     1      20.279  24.394   4.311  1.00  0.00     0.293 HD
ENDBRANCH  15  18
BRANCH  17  20
ATOM     20  O   UNL     1      18.523  23.637   6.828  1.00  0.00    -0.504 OA
ATOM     21  H   UNL     1      19.475  23.342   6.669  1.00  0.00     0.293 HD
ENDBRANCH  17  20
ENDBRANCH   1  12
BRANCH   2  22
ATOM     22  O   UNL     1      14.608  27.906   6.791  1.00  0.00    -0.502 OA
ATOM     23  H   UNL     1      15.408  28.237   6.265  1.00  0.00     0.293 HD
ENDBRANCH   2  22
BRANCH   6  24
ATOM     24  O   UNL     1       9.464  27.146   6.723  1.00  0.00    -0.507 OA
ATOM     25  H   UNL     1       8.940  27.055   7.585  1.00  0.00     0.293 HD
ENDBRANCH   6  24
BRANCH   8  26
ATOM     26  O   UNL     1       9.142  22.828   4.596  1.00  0.00    -0.508 OA
ATOM     27  H   UNL     1       8.881  22.751   3.620  1.00  0.00     0.293 HD
ENDBRANCH   8  26
TORSDOF 6
ENDMDL
MODEL 8
REMARK VINA RESULT:    -4.047      8.635     10.944
REMARK INTER + INTRA:          -5.205
REMARK INTER:                  -5.327
REMARK INTRA:                   0.121
REMARK UNBOUND:                -0.330
REMARK SMILES O=c1c(O)c(-c2ccc(O)c(O)c2)oc2cc(O)cc(O)c12
REMARK SMILES IDX 5 1 3 2 2 3 1 4 22 5 20 6 19 7 17 8 16 9 15 10 14 11 6 12
REMARK SMILES IDX 7 13 8 14 9 15 13 16 11 17 10 18 12 20 4 22 21 24 18 26
REMARK H PARENT 10 19 12 21 4 23 21 25 18 27
REMARK Flexibility Score: inf
ROOT
ATOM      1  C   UNL     1      25.078  24.364   5.923  1.00  0.00     0.180 A 
ATOM      2  C   UNL     1      23.673  24.434   5.989  1.00  0.00     0.208 A 
ATOM      3  C   UNL     1      23.069  25.661   6.301  1.00  0.00     0.238 A 
ATOM      4  O   UNL     1      21.812  25.733   6.372  1.00  0.00    -0.285 OA
ATOM      5  C   UNL     1      23.873  26.799   6.520  1.00  0.00     0.111 A 
ATOM      6  C   UNL     1      23.344  28.073   6.835  1.00  0.00     0.134 A 
ATOM      7  C   UNL     1      24.211  29.158   7.031  1.00  0.00     0.093 A 
ATOM      8  C   UNL     1      25.594  28.995   6.918  1.00  0.00     0.123 A 
ATOM      9  C   UNL     1      26.123  27.738   6.607  1.00  0.00     0.094 A 
ATOM     10  C   UNL     1      25.276  26.644   6.410  1.00  0.00     0.146 A 
ATOM     11  O   UNL     1      25.804  25.460   6.122  1.00  0.00    -0.452 OA
ENDROOT
BRANCH   1  12
ATOM     12  C   UNL     1      25.790  23.101   5.619  1.00  0.00     0.025 A 
ATOM     13  C   UNL     1      26.909  22.740   6.382  1.00  0.00     0.016 A 
ATOM     14  C   UNL     1      27.582  21.544   6.125  1.00  0.00     0.051 A 
ATOM     15  C   UNL     1      27.144  20.679   5.117  1.00  0.00     0.157 A 
ATOM     16  C   UNL     1      25.332  22.224   4.621  1.00  0.00     0.062 A 
ATOM     17  C   UNL     1      26.000  21.022   4.358  1.00  0.00     0.158 A 
BRANCH  15  18
ATOM     18  O   UNL     1      27.866  19.503   4.905  1.00  0.00    -0.504 OA
ATOM     19  H   UNL     1      28.810  19.476   4.547  1.00  0.00     0.293 HD
ENDBRANCH  15  18
BRANCH  17  20
ATOM     20  O   UNL     1      25.490  20.200   3.350  1.00  0.00    -0.504 OA
ATOM     21  H   UNL     1      24.728  19.552   3.481  1.00  0.00     0.293 HD
ENDBRANCH  17  20
ENDBRANCH   1  12
BRANCH   2  22
ATOM     22  O   UNL     1      22.897  23.304   5.717  1.00  0.00    -0.502 OA
ATOM     23  H   UNL     1      21.910  23.364   5.498  1.00  0.00     0.293 HD
ENDBRANCH   2  22
BRANCH   6  24
ATOM     24  O   UNL     1      21.968  28.269   6.954  1.00  0.00    -0.507 OA
ATOM     25  H   UNL     1      21.582  29.127   7.332  1.00  0.00     0.293 HD
ENDBRANCH   6  24
BRANCH   8  26
ATOM     26  O   UNL     1      26.433  30.089   7.116  1.00  0.00    -0.508 OA
ATOM     27  H   UNL     1      26.803  30.314   8.032  1.00  0.00     0.293 HD
ENDBRANCH   8  26
TORSDOF 6
ENDMDL
