MODEL 1
REMARK VINA RESULT:    -7.019      0.000      0.000
REMARK INTER + INTRA:          -8.756
REMARK INTER:                  -8.455
REMARK INTRA:                  -0.302
REMARK UNBOUND:                -0.302
REMARK SMILES O=c1c(O)c(-c2ccc(O)c(O)c2)oc2cc(O)cc(O)c12
REMARK SMILES IDX 5 1 3 2 2 3 1 4 22 5 20 6 19 7 17 8 16 9 15 10 14 11 6 12
REMARK SMILES IDX 7 13 8 14 9 15 13 16 11 17 10 18 12 20 4 22 21 24 18 26
REMARK H PARENT 10 19 12 21 4 23 21 25 18 27
REMARK Flexibility Score: inf
ROOT
ATOM      1  C   UNL     1     -11.108 -41.607 -18.611  1.00  0.00     0.180 A 
ATOM      2  C   UNL     1     -10.475 -40.358 -18.736  1.00  0.00     0.208 A 
ATOM      3  C   UNL     1      -9.492 -40.188 -19.723  1.00  0.00     0.238 A 
ATOM      4  O   UNL     1      -8.969 -39.053 -19.865  1.00  0.00    -0.285 OA
ATOM      5  C   UNL     1      -9.143 -41.273 -20.564  1.00  0.00     0.111 A 
ATOM      6  C   UNL     1      -8.134 -41.225 -21.571  1.00  0.00     0.134 A 
ATOM      7  C   UNL     1      -7.963 -42.317 -22.430  1.00  0.00     0.093 A 
ATOM      8  C   UNL     1      -8.720 -43.481 -22.275  1.00  0.00     0.123 A 
ATOM      9  C   UNL     1      -9.667 -43.559 -21.257  1.00  0.00     0.094 A 
ATOM     10  C   UNL     1      -9.886 -42.473 -20.407  1.00  0.00     0.146 A 
ATOM     11  O   UNL     1     -10.805 -42.586 -19.457  1.00  0.00    -0.452 OA
ENDROOT
BRANCH   1  12
ATOM     12  C   UNL     1     -12.136 -41.871 -17.577  1.00  0.00     0.025 A 
ATOM     13  C   UNL     1     -13.509 -41.782 -17.872  1.00  0.00     0.016 A 
ATOM     14  C   UNL     1     -14.460 -42.011 -16.876  1.00  0.00     0.051 A 
ATOM     15  C   UNL     1     -14.058 -42.319 -15.570  1.00  0.00     0.157 A 
ATOM     16  C   UNL     1     -11.738 -42.159 -16.262  1.00  0.00     0.062 A 
ATOM     17  C   UNL     1     -12.690 -42.390 -15.262  1.00  0.00     0.158 A 
BRANCH  15  18
ATOM     18  O   UNL     1     -15.011 -42.549 -14.579  1.00  0.00    -0.504 OA
ATOM     19  H   UNL     1     -16.003 -42.517 -14.779  1.00  0.00     0.293 HD
ENDBRANCH  15  18
BRANCH  17  20
ATOM     20  O   UNL     1     -12.256 -42.687 -13.970  1.00  0.00    -0.504 OA
ATOM     21  H   UNL     1     -11.433 -42.256 -13.567  1.00  0.00     0.293 HD
ENDBRANCH  17  20
ENDBRANCH   1  12
BRANCH   2  22
ATOM     22  O   UNL     1     -10.851 -39.294 -17.910  1.00  0.00    -0.502 OA
ATOM     23  H   UNL     1     -10.558 -38.341 -18.084  1.00  0.00     0.293 HD
ENDBRANCH   2  22
BRANCH   6  24
ATOM     24  O   UNL     1      -7.260 -40.148 -21.750  1.00  0.00    -0.507 OA
ATOM     25  H   UNL     1      -6.752 -39.691 -21.008  1.00  0.00     0.293 HD
ENDBRANCH   6  24
BRANCH   8  26
ATOM     26  O   UNL     1      -8.533 -44.569 -23.125  1.00  0.00    -0.508 OA
ATOM     27  H   UNL     1      -8.294 -45.487 -22.766  1.00  0.00     0.293 HD
ENDBRANCH   8  26
TORSDOF 6
ENDMDL
MODEL 2
REMARK VINA RESULT:    -6.826      1.784      6.986
REMARK INTER + INTRA:          -8.524
REMARK INTER:                  -8.556
REMARK INTRA:                   0.032
REMARK UNBOUND:                -0.302
REMARK SMILES O=c1c(O)c(-c2ccc(O)c(O)c2)oc2cc(O)cc(O)c12
REMARK SMILES IDX 5 1 3 2 2 3 1 4 22 5 20 6 19 7 17 8 16 9 15 10 14 11 6 12
REMARK SMILES IDX 7 13 8 14 9 15 13 16 11 17 10 18 12 20 4 22 21 24 18 26
REMARK H PARENT 10 19 12 21 4 23 21 25 18 27
REMARK Flexibility Score: inf
ROOT
ATOM      1  C   UNL     1     -11.940 -41.105 -17.859  1.00  0.00     0.180 A 
ATOM      2  C   UNL     1     -11.833 -40.446 -16.622  1.00  0.00     0.208 A 
ATOM      3  C   UNL     1     -12.923 -40.476 -15.738  1.00  0.00     0.238 A 
ATOM      4  O   UNL     1     -12.801 -39.930 -14.610  1.00  0.00    -0.285 OA
ATOM      5  C   UNL     1     -14.111 -41.151 -16.107  1.00  0.00     0.111 A 
ATOM      6  C   UNL     1     -15.291 -41.212 -15.307  1.00  0.00     0.134 A 
ATOM      7  C   UNL     1     -16.362 -42.017 -15.714  1.00  0.00     0.093 A 
ATOM      8  C   UNL     1     -16.321 -42.711 -16.925  1.00  0.00     0.123 A 
ATOM      9  C   UNL     1     -15.197 -42.611 -17.742  1.00  0.00     0.094 A 
ATOM     10  C   UNL     1     -14.098 -41.845 -17.346  1.00  0.00     0.146 A 
ATOM     11  O   UNL     1     -13.044 -41.785 -18.150  1.00  0.00    -0.452 OA
ENDROOT
BRANCH   1  12
ATOM     12  C   UNL     1     -10.843 -41.097 -18.855  1.00  0.00     0.025 A 
ATOM     13  C   UNL     1     -10.163 -39.911 -19.184  1.00  0.00     0.016 A 
ATOM     14  C   UNL     1      -9.148 -39.923 -20.143  1.00  0.00     0.051 A 
ATOM     15  C   UNL     1      -8.806 -41.114 -20.797  1.00  0.00     0.157 A 
ATOM     16  C   UNL     1     -10.512 -42.283 -19.529  1.00  0.00     0.062 A 
ATOM     17  C   UNL     1      -9.494 -42.298 -20.490  1.00  0.00     0.158 A 
BRANCH  15  18
ATOM     18  O   UNL     1      -7.791 -41.122 -21.753  1.00  0.00    -0.504 OA
ATOM     19  H   UNL     1      -7.964 -41.411 -22.709  1.00  0.00     0.293 HD
ENDBRANCH  15  18
BRANCH  17  20
ATOM     20  O   UNL     1      -9.184 -43.499 -21.129  1.00  0.00    -0.504 OA
ATOM     21  H   UNL     1      -8.589 -44.197 -20.701  1.00  0.00     0.293 HD
ENDBRANCH  17  20
ENDBRANCH   1  12
BRANCH   2  22
ATOM     22  O   UNL     1     -10.643 -39.804 -16.268  1.00  0.00    -0.502 OA
ATOM     23  H   UNL     1     -10.248 -39.864 -15.338  1.00  0.00     0.293 HD
ENDBRANCH   2  22
BRANCH   6  24
ATOM     24  O   UNL     1     -15.472 -40.485 -14.126  1.00  0.00    -0.507 OA
ATOM     25  H   UNL     1     -15.088 -40.742 -13.229  1.00  0.00     0.293 HD
ENDBRANCH   6  24
BRANCH   8  26
ATOM     26  O   UNL     1     -17.397 -43.498 -17.331  1.00  0.00    -0.508 OA
ATOM     27  H   UNL     1     -17.469 -43.850 -18.278  1.00  0.00     0.293 HD
ENDBRANCH   8  26
TORSDOF 6
ENDMDL
MODEL 3
REMARK VINA RESULT:    -6.776      1.741      7.021
REMARK INTER + INTRA:          -8.464
REMARK INTER:                  -8.624
REMARK INTRA:                   0.160
REMARK UNBOUND:                -0.302
REMARK SMILES O=c1c(O)c(-c2ccc(O)c(O)c2)oc2cc(O)cc(O)c12
REMARK SMILES IDX 5 1 3 2 2 3 1 4 22 5 20 6 19 7 17 8 16 9 15 10 14 11 6 12
REMARK SMILES IDX 7 13 8 14 9 15 13 16 11 17 10 18 12 20 4 22 21 24 18 26
REMARK H PARENT 10 19 12 21 4 23 21 25 18 27
REMARK Flexibility Score: inf
ROOT
ATOM      1  C   UNL     1     -11.977 -41.095 -17.867  1.00  0.00     0.180 A 
ATOM      2  C   UNL     1     -11.860 -40.434 -16.633  1.00  0.00     0.208 A 
ATOM      3  C   UNL     1     -12.943 -40.461 -15.739  1.00  0.00     0.238 A 
ATOM      4  O   UNL     1     -12.811 -39.912 -14.614  1.00  0.00    -0.285 OA
ATOM      5  C   UNL     1     -14.135 -41.136 -16.098  1.00  0.00     0.111 A 
ATOM      6  C   UNL     1     -15.308 -41.193 -15.288  1.00  0.00     0.134 A 
ATOM      7  C   UNL     1     -16.383 -41.998 -15.684  1.00  0.00     0.093 A 
ATOM      8  C   UNL     1     -16.352 -42.695 -16.894  1.00  0.00     0.123 A 
ATOM      9  C   UNL     1     -15.235 -42.598 -17.721  1.00  0.00     0.094 A 
ATOM     10  C   UNL     1     -14.132 -41.832 -17.335  1.00  0.00     0.146 A 
ATOM     11  O   UNL     1     -13.084 -41.775 -18.147  1.00  0.00    -0.452 OA
ENDROOT
BRANCH   1  12
ATOM     12  C   UNL     1     -10.889 -41.090 -18.871  1.00  0.00     0.025 A 
ATOM     13  C   UNL     1     -10.536 -42.257 -19.573  1.00  0.00     0.016 A 
ATOM     14  C   UNL     1      -9.490 -42.235 -20.498  1.00  0.00     0.051 A 
ATOM     15  C   UNL     1      -8.772 -41.053 -20.727  1.00  0.00     0.157 A 
ATOM     16  C   UNL     1     -10.153 -39.914 -19.089  1.00  0.00     0.062 A 
ATOM     17  C   UNL     1      -9.104 -39.889 -20.016  1.00  0.00     0.158 A 
BRANCH  15  18
ATOM     18  O   UNL     1      -7.730 -41.035 -21.653  1.00  0.00    -0.504 OA
ATOM     19  H   UNL     1      -7.857 -41.366 -22.602  1.00  0.00     0.293 HD
ENDBRANCH  15  18
BRANCH  17  20
ATOM     20  O   UNL     1      -8.405 -38.699 -20.215  1.00  0.00    -0.504 OA
ATOM     21  H   UNL     1      -8.832 -37.793 -20.066  1.00  0.00     0.293 HD
ENDBRANCH  17  20
ENDBRANCH   1  12
BRANCH   2  22
ATOM     22  O   UNL     1     -10.666 -39.792 -16.290  1.00  0.00    -0.502 OA
ATOM     23  H   UNL     1      -9.983 -39.508 -16.981  1.00  0.00     0.293 HD
ENDBRANCH   2  22
BRANCH   6  24
ATOM     24  O   UNL     1     -15.478 -40.463 -14.107  1.00  0.00    -0.507 OA
ATOM     25  H   UNL     1     -16.136 -39.707 -13.989  1.00  0.00     0.293 HD
ENDBRANCH   6  24
BRANCH   8  26
ATOM     26  O   UNL     1     -17.432 -43.482 -17.289  1.00  0.00    -0.508 OA
ATOM     27  H   UNL     1     -18.090 -43.855 -16.616  1.00  0.00     0.293 HD
ENDBRANCH   8  26
TORSDOF 6
ENDMDL
MODEL 4
REMARK VINA RESULT:    -6.757      2.009      3.506
REMARK INTER + INTRA:          -8.442
REMARK INTER:                  -8.127
REMARK INTRA:                  -0.314
REMARK UNBOUND:                -0.302
REMARK SMILES O=c1c(O)c(-c2ccc(O)c(O)c2)oc2cc(O)cc(O)c12
REMARK SMILES IDX 5 1 3 2 2 3 1 4 22 5 20 6 19 7 17 8 16 9 15 10 14 11 6 12
REMARK SMILES IDX 7 13 8 14 9 15 13 16 11 17 10 18 12 20 4 22 21 24 18 26
REMARK H PARENT 10 19 12 21 4 23 21 25 18 27
REMARK Flexibility Score: inf
ROOT
ATOM      1  C   UNL     1     -11.062 -40.510 -18.339  1.00  0.00     0.180 A 
ATOM      2  C   UNL     1     -11.025 -41.759 -18.982  1.00  0.00     0.208 A 
ATOM      3  C   UNL     1     -10.144 -41.945 -20.060  1.00  0.00     0.238 A 
ATOM      4  O   UNL     1     -10.078 -43.081 -20.596  1.00  0.00    -0.285 OA
ATOM      5  C   UNL     1      -9.323 -40.874 -20.491  1.00  0.00     0.111 A 
ATOM      6  C   UNL     1      -8.424 -40.938 -21.597  1.00  0.00     0.134 A 
ATOM      7  C   UNL     1      -7.566 -39.862 -21.852  1.00  0.00     0.093 A 
ATOM      8  C   UNL     1      -7.621 -38.698 -21.082  1.00  0.00     0.123 A 
ATOM      9  C   UNL     1      -8.538 -38.603 -20.037  1.00  0.00     0.094 A 
ATOM     10  C   UNL     1      -9.381 -39.674 -19.734  1.00  0.00     0.146 A 
ATOM     11  O   UNL     1     -10.232 -39.546 -18.724  1.00  0.00    -0.452 OA
ENDROOT
BRANCH   1  12
ATOM     12  C   UNL     1     -11.981 -40.229 -17.211  1.00  0.00     0.025 A 
ATOM     13  C   UNL     1     -11.642 -40.570 -15.889  1.00  0.00     0.016 A 
ATOM     14  C   UNL     1     -12.534 -40.318 -14.845  1.00  0.00     0.051 A 
ATOM     15  C   UNL     1     -13.782 -39.736 -15.105  1.00  0.00     0.157 A 
ATOM     16  C   UNL     1     -13.241 -39.667 -17.469  1.00  0.00     0.062 A 
ATOM     17  C   UNL     1     -14.137 -39.412 -16.424  1.00  0.00     0.158 A 
BRANCH  15  18
ATOM     18  O   UNL     1     -14.669 -39.485 -14.060  1.00  0.00    -0.504 OA
ATOM     19  H   UNL     1     -14.897 -40.196 -13.374  1.00  0.00     0.293 HD
ENDBRANCH  15  18
BRANCH  17  20
ATOM     20  O   UNL     1     -15.375 -38.840 -16.718  1.00  0.00    -0.504 OA
ATOM     21  H   UNL     1     -16.157 -39.390 -17.049  1.00  0.00     0.293 HD
ENDBRANCH  17  20
ENDBRANCH   1  12
BRANCH   2  22
ATOM     22  O   UNL     1     -11.828 -42.808 -18.526  1.00  0.00    -0.502 OA
ATOM     23  H   UNL     1     -11.442 -43.664 -18.147  1.00  0.00     0.293 HD
ENDBRANCH   2  22
BRANCH   6  24
ATOM     24  O   UNL     1      -8.354 -42.016 -22.485  1.00  0.00    -0.507 OA
ATOM     25  H   UNL     1      -7.861 -42.003 -23.366  1.00  0.00     0.293 HD
ENDBRANCH   6  24
BRANCH   8  26
ATOM     26  O   UNL     1      -6.775 -37.625 -21.353  1.00  0.00    -0.508 OA
ATOM     27  H   UNL     1      -5.804 -37.630 -21.064  1.00  0.00     0.293 HD
ENDBRANCH   8  26
TORSDOF 6
ENDMDL
MODEL 5
REMARK VINA RESULT:    -6.618      2.752      4.419
REMARK INTER + INTRA:          -8.274
REMARK INTER:                  -7.942
REMARK INTRA:                  -0.332
REMARK UNBOUND:                -0.302
REMARK SMILES O=c1c(O)c(-c2ccc(O)c(O)c2)oc2cc(O)cc(O)c12
REMARK SMILES IDX 5 1 3 2 2 3 1 4 22 5 20 6 19 7 17 8 16 9 15 10 14 11 6 12
REMARK SMILES IDX 7 13 8 14 9 15 13 16 11 17 10 18 12 20 4 22 21 24 18 26
REMARK H PARENT 10 19 12 21 4 23 21 25 18 27
REMARK Flexibility Score: inf
ROOT
ATOM      1  C   UNL     1     -13.612 -41.253 -17.818  1.00  0.00     0.180 A 
ATOM      2  C   UNL     1     -12.390 -41.915 -18.024  1.00  0.00     0.208 A 
ATOM      3  C   UNL     1     -11.350 -41.239 -18.681  1.00  0.00     0.238 A 
ATOM      4  O   UNL     1     -10.241 -41.819 -18.814  1.00  0.00    -0.285 OA
ATOM      5  C   UNL     1     -11.551 -39.914 -19.139  1.00  0.00     0.111 A 
ATOM      6  C   UNL     1     -10.581 -39.149 -19.853  1.00  0.00     0.134 A 
ATOM      7  C   UNL     1     -10.840 -37.803 -20.142  1.00  0.00     0.093 A 
ATOM      8  C   UNL     1     -12.060 -37.215 -19.802  1.00  0.00     0.123 A 
ATOM      9  C   UNL     1     -13.037 -37.972 -19.158  1.00  0.00     0.094 A 
ATOM     10  C   UNL     1     -12.794 -39.306 -18.823  1.00  0.00     0.146 A 
ATOM     11  O   UNL     1     -13.748 -39.987 -18.201  1.00  0.00    -0.452 OA
ENDROOT
BRANCH   1  12
ATOM     12  C   UNL     1     -14.763 -41.908 -17.155  1.00  0.00     0.025 A 
ATOM     13  C   UNL     1     -15.683 -42.684 -17.884  1.00  0.00     0.016 A 
ATOM     14  C   UNL     1     -16.774 -43.273 -17.241  1.00  0.00     0.051 A 
ATOM     15  C   UNL     1     -16.972 -43.085 -15.867  1.00  0.00     0.157 A 
ATOM     16  C   UNL     1     -14.979 -41.705 -15.782  1.00  0.00     0.062 A 
ATOM     17  C   UNL     1     -16.071 -42.294 -15.136  1.00  0.00     0.158 A 
BRANCH  15  18
ATOM     18  O   UNL     1     -18.062 -43.676 -15.229  1.00  0.00    -0.504 OA
ATOM     19  H   UNL     1     -18.679 -44.316 -15.715  1.00  0.00     0.293 HD
ENDBRANCH  15  18
BRANCH  17  20
ATOM     20  O   UNL     1     -16.245 -42.081 -13.768  1.00  0.00    -0.504 OA
ATOM     21  H   UNL     1     -16.699 -41.252 -13.407  1.00  0.00     0.293 HD
ENDBRANCH  17  20
ENDBRANCH   1  12
BRANCH   2  22
ATOM     22  O   UNL     1     -12.206 -43.216 -17.544  1.00  0.00    -0.502 OA
ATOM     23  H   UNL     1     -11.416 -43.788 -17.814  1.00  0.00     0.293 HD
ENDBRANCH   2  22
BRANCH   6  24
ATOM     24  O   UNL     1      -9.369 -39.664 -20.321  1.00  0.00    -0.507 OA
ATOM     25  H   UNL     1      -8.718 -40.197 -19.763  1.00  0.00     0.293 HD
ENDBRANCH   6  24
BRANCH   8  26
ATOM     26  O   UNL     1     -12.316 -35.880 -20.107  1.00  0.00    -0.508 OA
ATOM     27  H   UNL     1     -12.745 -35.255 -19.435  1.00  0.00     0.293 HD
ENDBRANCH   8  26
TORSDOF 6
ENDMDL
MODEL 6
REMARK VINA RESULT:    -6.609      2.934      3.837
REMARK INTER + INTRA:          -8.263
REMARK INTER:                  -7.982
REMARK INTRA:                  -0.282
REMARK UNBOUND:                -0.302
REMARK SMILES O=c1c(O)c(-c2ccc(O)c(O)c2)oc2cc(O)cc(O)c12
REMARK SMILES IDX 5 1 3 2 2 3 1 4 22 5 20 6 19 7 17 8 16 9 15 10 14 11 6 12
REMARK SMILES IDX 7 13 8 14 9 15 13 16 11 17 10 18 12 20 4 22 21 24 18 26
REMARK H PARENT 10 19 12 21 4 23 21 25 18 27
REMARK Flexibility Score: inf
ROOT
ATOM      1  C   UNL     1     -11.173 -39.638 -19.084  1.00  0.00     0.180 A 
ATOM      2  C   UNL     1     -12.021 -39.229 -20.127  1.00  0.00     0.208 A 
ATOM      3  C   UNL     1     -11.497 -38.436 -21.161  1.00  0.00     0.238 A 
ATOM      4  O   UNL     1     -12.248 -38.119 -22.119  1.00  0.00    -0.285 OA
ATOM      5  C   UNL     1     -10.136 -38.048 -21.129  1.00  0.00     0.111 A 
ATOM      6  C   UNL     1      -9.509 -37.212 -22.101  1.00  0.00     0.134 A 
ATOM      7  C   UNL     1      -8.127 -36.999 -22.041  1.00  0.00     0.093 A 
ATOM      8  C   UNL     1      -7.359 -37.539 -21.006  1.00  0.00     0.123 A 
ATOM      9  C   UNL     1      -7.972 -38.307 -20.018  1.00  0.00     0.094 A 
ATOM     10  C   UNL     1      -9.344 -38.567 -20.071  1.00  0.00     0.146 A 
ATOM     11  O   UNL     1      -9.885 -39.312 -19.116  1.00  0.00    -0.452 OA
ENDROOT
BRANCH   1  12
ATOM     12  C   UNL     1     -11.658 -40.454 -17.947  1.00  0.00     0.025 A 
ATOM     13  C   UNL     1     -11.873 -41.838 -18.080  1.00  0.00     0.016 A 
ATOM     14  C   UNL     1     -12.353 -42.584 -17.001  1.00  0.00     0.051 A 
ATOM     15  C   UNL     1     -12.638 -41.960 -15.780  1.00  0.00     0.157 A 
ATOM     16  C   UNL     1     -11.966 -39.830 -16.727  1.00  0.00     0.062 A 
ATOM     17  C   UNL     1     -12.446 -40.575 -15.645  1.00  0.00     0.158 A 
BRANCH  15  18
ATOM     18  O   UNL     1     -13.116 -42.708 -14.705  1.00  0.00    -0.504 OA
ATOM     19  H   UNL     1     -13.785 -43.457 -14.836  1.00  0.00     0.293 HD
ENDBRANCH  15  18
BRANCH  17  20
ATOM     20  O   UNL     1     -12.728 -39.922 -14.445  1.00  0.00    -0.504 OA
ATOM     21  H   UNL     1     -13.390 -39.157 -14.391  1.00  0.00     0.293 HD
ENDBRANCH  17  20
ENDBRANCH   1  12
BRANCH   2  22
ATOM     22  O   UNL     1     -13.357 -39.642 -20.150  1.00  0.00    -0.502 OA
ATOM     23  H   UNL     1     -13.635 -40.565 -20.460  1.00  0.00     0.293 HD
ENDBRANCH   2  22
BRANCH   6  24
ATOM     24  O   UNL     1     -10.198 -36.550 -23.122  1.00  0.00    -0.507 OA
ATOM     25  H   UNL     1     -10.721 -35.695 -23.002  1.00  0.00     0.293 HD
ENDBRANCH   6  24
BRANCH   8  26
ATOM     26  O   UNL     1      -5.986 -37.309 -20.944  1.00  0.00    -0.508 OA
ATOM     27  H   UNL     1      -5.317 -38.041 -21.155  1.00  0.00     0.293 HD
ENDBRANCH   8  26
TORSDOF 6
ENDMDL
MODEL 7
REMARK VINA RESULT:    -6.568      3.361      7.049
REMARK INTER + INTRA:          -8.213
REMARK INTER:                  -7.903
REMARK INTRA:                  -0.311
REMARK UNBOUND:                -0.302
REMARK SMILES O=c1c(O)c(-c2ccc(O)c(O)c2)oc2cc(O)cc(O)c12
REMARK SMILES IDX 5 1 3 2 2 3 1 4 22 5 20 6 19 7 17 8 16 9 15 10 14 11 6 12
REMARK SMILES IDX 7 13 8 14 9 15 13 16 11 17 10 18 12 20 4 22 21 24 18 26
REMARK H PARENT 10 19 12 21 4 23 21 25 18 27
REMARK Flexibility Score: inf
ROOT
ATOM      1  C   UNL     1     -12.325 -39.312 -18.418  1.00  0.00     0.180 A 
ATOM      2  C   UNL     1     -13.651 -39.649 -18.096  1.00  0.00     0.208 A 
ATOM      3  C   UNL     1     -13.890 -40.535 -17.033  1.00  0.00     0.238 A 
ATOM      4  O   UNL     1     -15.081 -40.790 -16.716  1.00  0.00    -0.285 OA
ATOM      5  C   UNL     1     -12.800 -41.084 -16.316  1.00  0.00     0.111 A 
ATOM      6  C   UNL     1     -12.924 -42.022 -15.248  1.00  0.00     0.134 A 
ATOM      7  C   UNL     1     -11.786 -42.399 -14.524  1.00  0.00     0.093 A 
ATOM      8  C   UNL     1     -10.520 -41.922 -14.873  1.00  0.00     0.123 A 
ATOM      9  C   UNL     1     -10.382 -41.053 -15.952  1.00  0.00     0.094 A 
ATOM     10  C   UNL     1     -11.503 -40.630 -16.670  1.00  0.00     0.146 A 
ATOM     11  O   UNL     1     -11.327 -39.792 -17.685  1.00  0.00    -0.452 OA
ENDROOT
BRANCH   1  12
ATOM     12  C   UNL     1     -11.993 -38.404 -19.541  1.00  0.00     0.025 A 
ATOM     13  C   UNL     1     -12.016 -37.007 -19.383  1.00  0.00     0.016 A 
ATOM     14  C   UNL     1     -11.721 -36.170 -20.461  1.00  0.00     0.051 A 
ATOM     15  C   UNL     1     -11.414 -36.714 -21.716  1.00  0.00     0.157 A 
ATOM     16  C   UNL     1     -11.705 -38.943 -20.805  1.00  0.00     0.062 A 
ATOM     17  C   UNL     1     -11.409 -38.107 -21.887  1.00  0.00     0.158 A 
BRANCH  15  18
ATOM     18  O   UNL     1     -11.119 -35.875 -22.789  1.00  0.00    -0.504 OA
ATOM     19  H   UNL     1     -11.226 -34.870 -22.723  1.00  0.00     0.293 HD
ENDBRANCH  15  18
BRANCH  17  20
ATOM     20  O   UNL     1     -11.114 -38.680 -23.125  1.00  0.00    -0.504 OA
ATOM     21  H   UNL     1     -11.060 -39.683 -23.254  1.00  0.00     0.293 HD
ENDBRANCH  17  20
ENDBRANCH   1  12
BRANCH   2  22
ATOM     22  O   UNL     1     -14.713 -39.077 -18.803  1.00  0.00    -0.502 OA
ATOM     23  H   UNL     1     -14.944 -39.348 -19.751  1.00  0.00     0.293 HD
ENDBRANCH   2  22
BRANCH   6  24
ATOM     24  O   UNL     1     -14.127 -42.630 -14.878  1.00  0.00    -0.507 OA
ATOM     25  H   UNL     1     -15.043 -42.245 -15.055  1.00  0.00     0.293 HD
ENDBRANCH   6  24
BRANCH   8  26
ATOM     26  O   UNL     1      -9.391 -42.314 -14.158  1.00  0.00    -0.508 OA
ATOM     27  H   UNL     1      -8.491 -42.433 -14.610  1.00  0.00     0.293 HD
ENDBRANCH   8  26
TORSDOF 6
ENDMDL
MODEL 8
REMARK VINA RESULT:    -6.453      2.387      3.665
REMARK INTER + INTRA:          -8.075
REMARK INTER:                  -7.775
REMARK INTRA:                  -0.300
REMARK UNBOUND:                -0.302
REMARK SMILES O=c1c(O)c(-c2ccc(O)c(O)c2)oc2cc(O)cc(O)c12
REMARK SMILES IDX 5 1 3 2 2 3 1 4 22 5 20 6 19 7 17 8 16 9 15 10 14 11 6 12
REMARK SMILES IDX 7 13 8 14 9 15 13 16 11 17 10 18 12 20 4 22 21 24 18 26
REMARK H PARENT 10 19 12 21 4 23 21 25 18 27
REMARK Flexibility Score: inf
ROOT
ATOM      1  C   UNL     1     -14.088 -40.872 -17.786  1.00  0.00     0.180 A 
ATOM      2  C   UNL     1     -14.236 -39.500 -18.053  1.00  0.00     0.208 A 
ATOM      3  C   UNL     1     -13.195 -38.815 -18.700  1.00  0.00     0.238 A 
ATOM      4  O   UNL     1     -13.356 -37.600 -18.984  1.00  0.00    -0.285 OA
ATOM      5  C   UNL     1     -12.013 -39.508 -19.058  1.00  0.00     0.111 A 
ATOM      6  C   UNL     1     -10.878 -38.906 -19.680  1.00  0.00     0.134 A 
ATOM      7  C   UNL     1      -9.816 -39.711 -20.108  1.00  0.00     0.093 A 
ATOM      8  C   UNL     1      -9.819 -41.089 -19.876  1.00  0.00     0.123 A 
ATOM      9  C   UNL     1     -10.894 -41.677 -19.215  1.00  0.00     0.094 A 
ATOM     10  C   UNL     1     -11.986 -40.905 -18.810  1.00  0.00     0.146 A 
ATOM     11  O   UNL     1     -12.995 -41.508 -18.193  1.00  0.00    -0.452 OA
ENDROOT
BRANCH   1  12
ATOM     12  C   UNL     1     -15.131 -41.656 -17.086  1.00  0.00     0.025 A 
ATOM     13  C   UNL     1     -16.067 -42.428 -17.798  1.00  0.00     0.016 A 
ATOM     14  C   UNL     1     -17.057 -43.141 -17.117  1.00  0.00     0.051 A 
ATOM     15  C   UNL     1     -17.137 -43.083 -15.719  1.00  0.00     0.157 A 
ATOM     16  C   UNL     1     -15.229 -41.585 -15.687  1.00  0.00     0.062 A 
ATOM     17  C   UNL     1     -16.219 -42.299 -15.002  1.00  0.00     0.158 A 
BRANCH  15  18
ATOM     18  O   UNL     1     -18.125 -43.797 -15.044  1.00  0.00    -0.504 OA
ATOM     19  H   UNL     1     -18.507 -44.658 -15.418  1.00  0.00     0.293 HD
ENDBRANCH  15  18
BRANCH  17  20
ATOM     20  O   UNL     1     -16.276 -42.214 -13.611  1.00  0.00    -0.504 OA
ATOM     21  H   UNL     1     -16.763 -42.902 -13.050  1.00  0.00     0.293 HD
ENDBRANCH  17  20
ENDBRANCH   1  12
BRANCH   2  22
ATOM     22  O   UNL     1     -15.421 -38.841 -17.711  1.00  0.00    -0.502 OA
ATOM     23  H   UNL     1     -15.451 -37.852 -17.500  1.00  0.00     0.293 HD
ENDBRANCH   2  22
BRANCH   6  24
ATOM     24  O   UNL     1     -10.734 -37.529 -19.876  1.00  0.00    -0.507 OA
ATOM     25  H   UNL     1     -10.991 -37.039 -20.720  1.00  0.00     0.293 HD
ENDBRANCH   6  24
BRANCH   8  26
ATOM     26  O   UNL     1      -8.750 -41.882 -20.290  1.00  0.00    -0.508 OA
ATOM     27  H   UNL     1      -8.857 -42.879 -20.439  1.00  0.00     0.293 HD
ENDBRANCH   8  26
TORSDOF 6
ENDMDL
MODEL 9
REMARK VINA RESULT:    -6.440      2.338      3.678
REMARK INTER + INTRA:          -8.059
REMARK INTER:                  -7.852
REMARK INTRA:                  -0.206
REMARK UNBOUND:                -0.302
REMARK SMILES O=c1c(O)c(-c2ccc(O)c(O)c2)oc2cc(O)cc(O)c12
REMARK SMILES IDX 5 1 3 2 2 3 1 4 22 5 20 6 19 7 17 8 16 9 15 10 14 11 6 12
REMARK SMILES IDX 7 13 8 14 9 15 13 16 11 17 10 18 12 20 4 22 21 24 18 26
REMARK H PARENT 10 19 12 21 4 23 21 25 18 27
REMARK Flexibility Score: inf
ROOT
ATOM      1  C   UNL     1     -12.382 -40.363 -18.227  1.00  0.00     0.180 A 
ATOM      2  C   UNL     1     -11.747 -41.530 -18.684  1.00  0.00     0.208 A 
ATOM      3  C   UNL     1     -10.669 -41.415 -19.576  1.00  0.00     0.238 A 
ATOM      4  O   UNL     1     -10.071 -42.461 -19.939  1.00  0.00    -0.285 OA
ATOM      5  C   UNL     1     -10.250 -40.135 -20.012  1.00  0.00     0.111 A 
ATOM      6  C   UNL     1      -9.196 -39.902 -20.945  1.00  0.00     0.134 A 
ATOM      7  C   UNL     1      -8.780 -38.590 -21.204  1.00  0.00     0.093 A 
ATOM      8  C   UNL     1      -9.424 -37.500 -20.613  1.00  0.00     0.123 A 
ATOM      9  C   UNL     1     -10.493 -37.715 -19.747  1.00  0.00     0.094 A 
ATOM     10  C   UNL     1     -10.908 -39.014 -19.441  1.00  0.00     0.146 A 
ATOM     11  O   UNL     1     -11.924 -39.174 -18.602  1.00  0.00    -0.452 OA
ENDROOT
BRANCH   1  12
ATOM     12  C   UNL     1     -13.541 -40.405 -17.305  1.00  0.00     0.025 A 
ATOM     13  C   UNL     1     -14.774 -40.950 -17.705  1.00  0.00     0.016 A 
ATOM     14  C   UNL     1     -15.860 -40.957 -16.827  1.00  0.00     0.051 A 
ATOM     15  C   UNL     1     -15.737 -40.408 -15.543  1.00  0.00     0.157 A 
ATOM     16  C   UNL     1     -13.429 -39.837 -16.026  1.00  0.00     0.062 A 
ATOM     17  C   UNL     1     -14.515 -39.843 -15.143  1.00  0.00     0.158 A 
BRANCH  15  18
ATOM     18  O   UNL     1     -16.822 -40.419 -14.669  1.00  0.00    -0.504 OA
ATOM     19  H   UNL     1     -17.723 -40.040 -14.937  1.00  0.00     0.293 HD
ENDBRANCH  15  18
BRANCH  17  20
ATOM     20  O   UNL     1     -14.361 -39.282 -13.876  1.00  0.00    -0.504 OA
ATOM     21  H   UNL     1     -13.958 -38.363 -13.740  1.00  0.00     0.293 HD
ENDBRANCH  17  20
ENDBRANCH   1  12
BRANCH   2  22
ATOM     22  O   UNL     1     -12.163 -42.783 -18.224  1.00  0.00    -0.502 OA
ATOM     23  H   UNL     1     -12.885 -42.893 -17.523  1.00  0.00     0.293 HD
ENDBRANCH   2  22
BRANCH   6  24
ATOM     24  O   UNL     1      -8.547 -40.914 -21.659  1.00  0.00    -0.507 OA
ATOM     25  H   UNL     1      -7.576 -41.165 -21.546  1.00  0.00     0.293 HD
ENDBRANCH   6  24
BRANCH   8  26
ATOM     26  O   UNL     1      -9.014 -36.197 -20.889  1.00  0.00    -0.508 OA
ATOM     27  H   UNL     1      -9.558 -35.396 -20.589  1.00  0.00     0.293 HD
ENDBRANCH   8  26
TORSDOF 6
ENDMDL
