MODEL 1
REMARK VINA RESULT:    -3.118      0.000      0.000
REMARK INTER + INTRA:          -7.136
REMARK INTER:                  -5.488
REMARK INTRA:                  -1.648
REMARK UNBOUND:                -1.648
REMARK SMILES CCCCCCCCCCCCCCC(=O)[O-]
REMARK SMILES IDX 9 1 10 2 11 3 12 4 13 5 14 6 15 7 16 8 17 9 8 10 7 11 6 12
REMARK SMILES IDX 5 13 4 14 3 15 2 16 1 17
REMARK H PARENT
REMARK Flexibility Score: inf
ROOT
ATOM      1  C   UNL     1       6.777 -36.233  16.501  1.00  0.00     0.000 C 
ENDROOT
BRANCH   1   2
ATOM      2  C   UNL     1       5.887 -34.984  16.609  1.00  0.00     0.000 C 
BRANCH   2   3
ATOM      3  C   UNL     1       6.386 -33.824  15.729  1.00  0.00     0.000 C 
BRANCH   3   4
ATOM      4  C   UNL     1       6.536 -32.510  16.512  1.00  0.00     0.000 C 
BRANCH   4   5
ATOM      5  C   UNL     1       7.354 -32.683  17.804  1.00  0.00     0.006 C 
BRANCH   5   6
ATOM      6  C   UNL     1       8.865 -32.718  17.531  1.00  0.00     0.053 C 
BRANCH   6   7
ATOM      7  C   UNL     1       9.582 -31.594  18.213  1.00  0.00     0.041 C 
ATOM      8  O   UNL     1       9.470 -31.433  19.457  1.00  0.00    -0.550 OA
ATOM      9  O   UNL     1      10.400 -30.743  17.480  1.00  0.00    -0.550 OA
ENDBRANCH   6   7
ENDBRANCH   5   6
ENDBRANCH   4   5
ENDBRANCH   3   4
ENDBRANCH   2   3
ENDBRANCH   1   2
BRANCH   1  10
ATOM     10  C   UNL     1       6.045 -37.428  15.873  1.00  0.00     0.000 C 
BRANCH  10  11
ATOM     11  C   UNL     1       6.116 -37.373  14.342  1.00  0.00    -0.000 C 
BRANCH  11  12
ATOM     12  C   UNL     1       7.572 -37.280  13.862  1.00  0.00    -0.000 C 
BRANCH  12  13
ATOM     13  C   UNL     1       7.845 -36.006  13.047  1.00  0.00    -0.000 C 
BRANCH  13  14
ATOM     14  C   UNL     1       9.319 -35.566  13.113  1.00  0.00    -0.000 C 
BRANCH  14  15
ATOM     15  C   UNL     1       9.615 -34.681  14.334  1.00  0.00    -0.000 C 
BRANCH  15  16
ATOM     16  C   UNL     1       9.646 -33.186  13.986  1.00  0.00    -0.003 C 
ATOM     17  C   UNL     1      10.928 -32.822  13.243  1.00  0.00     0.004 C 
ENDBRANCH  15  16
ENDBRANCH  14  15
ENDBRANCH  13  14
ENDBRANCH  12  13
ENDBRANCH  11  12
ENDBRANCH  10  11
ENDBRANCH   1  10
TORSDOF 13
ENDMDL
MODEL 2
REMARK VINA RESULT:    -2.984      1.012      3.376
REMARK INTER + INTRA:          -6.899
REMARK INTER:                  -5.076
REMARK INTRA:                  -1.823
REMARK UNBOUND:                -1.648
REMARK SMILES CCCCCCCCCCCCCCC(=O)[O-]
REMARK SMILES IDX 9 1 10 2 11 3 12 4 13 5 14 6 15 7 16 8 17 9 8 10 7 11 6 12
REMARK SMILES IDX 5 13 4 14 3 15 2 16 1 17
REMARK H PARENT
REMARK Flexibility Score: inf
ROOT
ATOM      1  C   UNL     1       9.719 -34.123  13.241  1.00  0.00     0.000 C 
ENDROOT
BRANCH   1   2
ATOM      2  C   UNL     1       9.146 -32.857  13.898  1.00  0.00     0.000 C 
BRANCH   2   3
ATOM      3  C   UNL     1       7.676 -33.024  14.320  1.00  0.00     0.000 C 
BRANCH   3   4
ATOM      4  C   UNL     1       7.481 -32.915  15.841  1.00  0.00     0.000 C 
BRANCH   4   5
ATOM      5  C   UNL     1       8.780 -32.543  16.577  1.00  0.00     0.006 C 
BRANCH   5   6
ATOM      6  C   UNL     1       8.544 -32.287  18.073  1.00  0.00     0.053 C 
BRANCH   6   7
ATOM      7  C   UNL     1       9.595 -31.396  18.659  1.00  0.00     0.041 C 
ATOM      8  O   UNL     1       9.797 -31.387  19.902  1.00  0.00    -0.550 OA
ATOM      9  O   UNL     1      10.373 -30.598  17.830  1.00  0.00    -0.550 OA
ENDBRANCH   6   7
ENDBRANCH   5   6
ENDBRANCH   4   5
ENDBRANCH   3   4
ENDBRANCH   2   3
ENDBRANCH   1   2
BRANCH   1  10
ATOM     10  C   UNL     1       9.685 -35.342  14.175  1.00  0.00     0.000 C 
BRANCH  10  11
ATOM     11  C   UNL     1       9.557 -36.643  13.376  1.00  0.00    -0.000 C 
BRANCH  11  12
ATOM     12  C   UNL     1       8.119 -36.843  12.876  1.00  0.00    -0.000 C 
BRANCH  12  13
ATOM     13  C   UNL     1       7.209 -37.489  13.933  1.00  0.00    -0.000 C 
BRANCH  13  14
ATOM     14  C   UNL     1       5.987 -36.619  14.273  1.00  0.00    -0.000 C 
BRANCH  14  15
ATOM     15  C   UNL     1       5.876 -36.319  15.776  1.00  0.00    -0.000 C 
BRANCH  15  16
ATOM     16  C   UNL     1       7.156 -36.677  16.545  1.00  0.00    -0.003 C 
ATOM     17  C   UNL     1       7.375 -35.726  17.718  1.00  0.00     0.004 C 
ENDBRANCH  15  16
ENDBRANCH  14  15
ENDBRANCH  13  14
ENDBRANCH  12  13
ENDBRANCH  11  12
ENDBRANCH  10  11
ENDBRANCH   1  10
TORSDOF 13
ENDMDL
MODEL 3
REMARK VINA RESULT:    -2.712      1.363      3.691
REMARK INTER + INTRA:          -6.421
REMARK INTER:                  -4.761
REMARK INTRA:                  -1.660
REMARK UNBOUND:                -1.648
REMARK SMILES CCCCCCCCCCCCCCC(=O)[O-]
REMARK SMILES IDX 9 1 10 2 11 3 12 4 13 5 14 6 15 7 16 8 17 9 8 10 7 11 6 12
REMARK SMILES IDX 5 13 4 14 3 15 2 16 1 17
REMARK H PARENT
REMARK Flexibility Score: inf
ROOT
ATOM      1  C   UNL     1       9.581 -36.200  13.604  1.00  0.00     0.000 C 
ENDROOT
BRANCH   1   2
ATOM      2  C   UNL     1       9.378 -34.785  13.037  1.00  0.00     0.000 C 
BRANCH   2   3
ATOM      3  C   UNL     1       9.327 -33.710  14.136  1.00  0.00     0.000 C 
BRANCH   3   4
ATOM      4  C   UNL     1       7.939 -33.063  14.267  1.00  0.00     0.000 C 
BRANCH   4   5
ATOM      5  C   UNL     1       7.623 -32.630  15.709  1.00  0.00     0.006 C 
BRANCH   5   6
ATOM      6  C   UNL     1       8.891 -32.280  16.499  1.00  0.00     0.053 C 
BRANCH   6   7
ATOM      7  C   UNL     1       8.619 -32.156  17.967  1.00  0.00     0.041 C 
ATOM      8  O   UNL     1       9.534 -31.797  18.753  1.00  0.00    -0.550 OA
ATOM      9  O   UNL     1       7.346 -32.408  18.462  1.00  0.00    -0.550 OA
ENDBRANCH   6   7
ENDBRANCH   5   6
ENDBRANCH   4   5
ENDBRANCH   3   4
ENDBRANCH   2   3
ENDBRANCH   1   2
BRANCH   1  10
ATOM     10  C   UNL     1       8.451 -37.163  13.209  1.00  0.00     0.000 C 
BRANCH  10  11
ATOM     11  C   UNL     1       7.078 -36.525  13.446  1.00  0.00    -0.000 C 
BRANCH  11  12
ATOM     12  C   UNL     1       6.089 -37.546  14.026  1.00  0.00    -0.000 C 
BRANCH  12  13
ATOM     13  C   UNL     1       6.019 -37.496  15.561  1.00  0.00    -0.000 C 
BRANCH  13  14
ATOM     14  C   UNL     1       6.244 -36.078  16.117  1.00  0.00    -0.000 C 
BRANCH  14  15
ATOM     15  C   UNL     1       7.612 -35.924  16.801  1.00  0.00    -0.000 C 
BRANCH  15  16
ATOM     16  C   UNL     1       7.494 -35.755  18.322  1.00  0.00    -0.003 C 
ATOM     17  C   UNL     1       7.841 -37.053  19.047  1.00  0.00     0.004 C 
ENDBRANCH  15  16
ENDBRANCH  14  15
ENDBRANCH  13  14
ENDBRANCH  12  13
ENDBRANCH  11  12
ENDBRANCH  10  11
ENDBRANCH   1  10
TORSDOF 13
ENDMDL
MODEL 4
REMARK VINA RESULT:    -2.705     11.377     15.034
REMARK INTER + INTRA:          -6.409
REMARK INTER:                  -5.927
REMARK INTRA:                  -0.481
REMARK UNBOUND:                -1.648
REMARK SMILES CCCCCCCCCCCCCCC(=O)[O-]
REMARK SMILES IDX 9 1 10 2 11 3 12 4 13 5 14 6 15 7 16 8 17 9 8 10 7 11 6 12
REMARK SMILES IDX 5 13 4 14 3 15 2 16 1 17
REMARK H PARENT
REMARK Flexibility Score: inf
ROOT
ATOM      1  C   UNL     1      20.929 -27.778  13.741  1.00  0.00     0.000 C 
ENDROOT
BRANCH   1   2
ATOM      2  C   UNL     1      21.027 -29.060  12.899  1.00  0.00     0.000 C 
BRANCH   2   3
ATOM      3  C   UNL     1      19.710 -29.855  12.878  1.00  0.00     0.000 C 
BRANCH   3   4
ATOM      4  C   UNL     1      19.686 -30.989  13.916  1.00  0.00     0.000 C 
BRANCH   4   5
ATOM      5  C   UNL     1      18.663 -32.085  13.570  1.00  0.00     0.006 C 
BRANCH   5   6
ATOM      6  C   UNL     1      17.282 -31.502  13.238  1.00  0.00     0.053 C 
BRANCH   6   7
ATOM      7  C   UNL     1      16.359 -31.548  14.417  1.00  0.00     0.041 C 
ATOM      8  O   UNL     1      15.191 -31.085  14.327  1.00  0.00    -0.550 OA
ATOM      9  O   UNL     1      16.777 -32.131  15.607  1.00  0.00    -0.550 OA
ENDBRANCH   6   7
ENDBRANCH   5   6
ENDBRANCH   4   5
ENDBRANCH   3   4
ENDBRANCH   2   3
ENDBRANCH   1   2
BRANCH   1  10
ATOM     10  C   UNL     1      21.231 -26.511  12.927  1.00  0.00     0.000 C 
BRANCH  10  11
ATOM     11  C   UNL     1      20.009 -25.587  12.875  1.00  0.00    -0.000 C 
BRANCH  11  12
ATOM     12  C   UNL     1      20.415 -24.123  13.099  1.00  0.00    -0.000 C 
BRANCH  12  13
ATOM     13  C   UNL     1      20.111 -23.635  14.524  1.00  0.00    -0.000 C 
BRANCH  13  14
ATOM     14  C   UNL     1      20.650 -22.219  14.792  1.00  0.00    -0.000 C 
BRANCH  14  15
ATOM     15  C   UNL     1      19.545 -21.151  14.755  1.00  0.00    -0.000 C 
BRANCH  15  16
ATOM     16  C   UNL     1      20.046 -19.769  15.198  1.00  0.00    -0.003 C 
ATOM     17  C   UNL     1      20.091 -18.798  14.022  1.00  0.00     0.004 C 
ENDBRANCH  15  16
ENDBRANCH  14  15
ENDBRANCH  13  14
ENDBRANCH  12  13
ENDBRANCH  11  12
ENDBRANCH  10  11
ENDBRANCH   1  10
TORSDOF 13
ENDMDL
MODEL 5
REMARK VINA RESULT:    -2.582      2.574      5.446
REMARK INTER + INTRA:          -6.192
REMARK INTER:                  -4.739
REMARK INTRA:                  -1.453
REMARK UNBOUND:                -1.648
REMARK SMILES CCCCCCCCCCCCCCC(=O)[O-]
REMARK SMILES IDX 9 1 10 2 11 3 12 4 13 5 14 6 15 7 16 8 17 9 8 10 7 11 6 12
REMARK SMILES IDX 5 13 4 14 3 15 2 16 1 17
REMARK H PARENT
REMARK Flexibility Score: inf
ROOT
ATOM      1  C   UNL     1      10.401 -35.122  13.875  1.00  0.00     0.000 C 
ENDROOT
BRANCH   1   2
ATOM      2  C   UNL     1       9.907 -36.357  13.105  1.00  0.00     0.000 C 
BRANCH   2   3
ATOM      3  C   UNL     1       8.385 -36.344  12.879  1.00  0.00     0.000 C 
BRANCH   3   4
ATOM      4  C   UNL     1       7.641 -37.322  13.802  1.00  0.00     0.000 C 
BRANCH   4   5
ATOM      5  C   UNL     1       6.252 -36.806  14.213  1.00  0.00     0.006 C 
BRANCH   5   6
ATOM      6  C   UNL     1       6.307 -35.945  15.482  1.00  0.00     0.053 C 
BRANCH   6   7
ATOM      7  C   UNL     1       6.533 -36.774  16.710  1.00  0.00     0.041 C 
ATOM      8  O   UNL     1       6.049 -37.933  16.790  1.00  0.00    -0.550 OA
ATOM      9  O   UNL     1       7.305 -36.277  17.752  1.00  0.00    -0.550 OA
ENDBRANCH   6   7
ENDBRANCH   5   6
ENDBRANCH   4   5
ENDBRANCH   3   4
ENDBRANCH   2   3
ENDBRANCH   1   2
BRANCH   1  10
ATOM     10  C   UNL     1      10.852 -33.987  12.945  1.00  0.00     0.000 C 
BRANCH  10  11
ATOM     11  C   UNL     1      10.149 -32.672  13.301  1.00  0.00    -0.000 C 
BRANCH  11  12
ATOM     12  C   UNL     1       8.673 -32.704  12.875  1.00  0.00    -0.000 C 
BRANCH  12  13
ATOM     13  C   UNL     1       7.716 -32.839  14.071  1.00  0.00    -0.000 C 
BRANCH  13  14
ATOM     14  C   UNL     1       8.402 -32.537  15.415  1.00  0.00    -0.000 C 
BRANCH  14  15
ATOM     15  C   UNL     1       7.514 -32.883  16.620  1.00  0.00    -0.000 C 
BRANCH  15  16
ATOM     16  C   UNL     1       8.288 -32.866  17.946  1.00  0.00    -0.003 C 
ATOM     17  C   UNL     1       7.357 -33.123  19.128  1.00  0.00     0.004 C 
ENDBRANCH  15  16
ENDBRANCH  14  15
ENDBRANCH  13  14
ENDBRANCH  12  13
ENDBRANCH  11  12
ENDBRANCH  10  11
ENDBRANCH   1  10
TORSDOF 13
ENDMDL
MODEL 6
REMARK VINA RESULT:    -2.532      2.094      4.474
REMARK INTER + INTRA:          -6.103
REMARK INTER:                  -4.674
REMARK INTRA:                  -1.429
REMARK UNBOUND:                -1.648
REMARK SMILES CCCCCCCCCCCCCCC(=O)[O-]
REMARK SMILES IDX 9 1 10 2 11 3 12 4 13 5 14 6 15 7 16 8 17 9 8 10 7 11 6 12
REMARK SMILES IDX 5 13 4 14 3 15 2 16 1 17
REMARK H PARENT
REMARK Flexibility Score: inf
ROOT
ATOM      1  C   UNL     1       5.958 -35.626  15.724  1.00  0.00     0.000 C 
ENDROOT
BRANCH   1   2
ATOM      2  C   UNL     1       6.141 -36.332  14.371  1.00  0.00     0.000 C 
BRANCH   2   3
ATOM      3  C   UNL     1       6.290 -35.342  13.203  1.00  0.00     0.000 C 
BRANCH   3   4
ATOM      4  C   UNL     1       6.707 -33.937  13.668  1.00  0.00     0.000 C 
BRANCH   4   5
ATOM      5  C   UNL     1       7.922 -33.396  12.896  1.00  0.00     0.006 C 
BRANCH   5   6
ATOM      6  C   UNL     1       9.143 -34.318  13.021  1.00  0.00     0.053 C 
BRANCH   6   7
ATOM      7  C   UNL     1      10.379 -33.561  13.401  1.00  0.00     0.041 C 
ATOM      8  O   UNL     1      11.492 -33.871  12.900  1.00  0.00    -0.550 OA
ATOM      9  O   UNL     1      10.296 -32.491  14.283  1.00  0.00    -0.550 OA
ENDBRANCH   6   7
ENDBRANCH   5   6
ENDBRANCH   4   5
ENDBRANCH   3   4
ENDBRANCH   2   3
ENDBRANCH   1   2
BRANCH   1  10
ATOM     10  C   UNL     1       6.604 -36.397  16.885  1.00  0.00     0.000 C 
BRANCH  10  11
ATOM     11  C   UNL     1       7.618 -35.520  17.630  1.00  0.00    -0.000 C 
BRANCH  11  12
ATOM     12  C   UNL     1       8.491 -34.729  16.644  1.00  0.00    -0.000 C 
BRANCH  12  13
ATOM     13  C   UNL     1       8.229 -33.215  16.706  1.00  0.00    -0.000 C 
BRANCH  13  14
ATOM     14  C   UNL     1       7.492 -32.795  17.989  1.00  0.00    -0.000 C 
BRANCH  14  15
ATOM     15  C   UNL     1       8.232 -31.689  18.758  1.00  0.00    -0.000 C 
BRANCH  15  16
ATOM     16  C   UNL     1       9.757 -31.791  18.616  1.00  0.00    -0.003 C 
ATOM     17  C   UNL     1      10.324 -30.568  17.900  1.00  0.00     0.004 C 
ENDBRANCH  15  16
ENDBRANCH  14  15
ENDBRANCH  13  14
ENDBRANCH  12  13
ENDBRANCH  11  12
ENDBRANCH  10  11
ENDBRANCH   1  10
TORSDOF 13
ENDMDL
MODEL 7
REMARK VINA RESULT:    -2.515      2.631      5.531
REMARK INTER + INTRA:          -6.074
REMARK INTER:                  -4.664
REMARK INTRA:                  -1.410
REMARK UNBOUND:                -1.648
REMARK SMILES CCCCCCCCCCCCCCC(=O)[O-]
REMARK SMILES IDX 9 1 10 2 11 3 12 4 13 5 14 6 15 7 16 8 17 9 8 10 7 11 6 12
REMARK SMILES IDX 5 13 4 14 3 15 2 16 1 17
REMARK H PARENT
REMARK Flexibility Score: inf
ROOT
ATOM      1  C   UNL     1      10.047 -33.975  13.628  1.00  0.00     0.000 C 
ENDROOT
BRANCH   1   2
ATOM      2  C   UNL     1       9.967 -35.437  13.161  1.00  0.00     0.000 C 
BRANCH   2   3
ATOM      3  C   UNL     1       8.910 -36.248  13.932  1.00  0.00     0.000 C 
BRANCH   3   4
ATOM      4  C   UNL     1       7.793 -36.781  13.021  1.00  0.00     0.000 C 
BRANCH   4   5
ATOM      5  C   UNL     1       6.486 -37.053  13.786  1.00  0.00     0.006 C 
BRANCH   5   6
ATOM      6  C   UNL     1       6.308 -36.105  14.981  1.00  0.00     0.053 C 
BRANCH   6   7
ATOM      7  C   UNL     1       6.369 -36.836  16.287  1.00  0.00     0.041 C 
ATOM      8  O   UNL     1       5.883 -37.994  16.389  1.00  0.00    -0.550 OA
ATOM      9  O   UNL     1       6.990 -36.252  17.384  1.00  0.00    -0.550 OA
ENDBRANCH   6   7
ENDBRANCH   5   6
ENDBRANCH   4   5
ENDBRANCH   3   4
ENDBRANCH   2   3
ENDBRANCH   1   2
BRANCH   1  10
ATOM     10  C   UNL     1       9.023 -33.072  12.924  1.00  0.00     0.000 C 
BRANCH  10  11
ATOM     11  C   UNL     1       7.774 -32.878  13.791  1.00  0.00    -0.000 C 
BRANCH  11  12
ATOM     12  C   UNL     1       8.137 -32.855  15.283  1.00  0.00    -0.000 C 
BRANCH  12  13
ATOM     13  C   UNL     1       6.899 -32.850  16.194  1.00  0.00    -0.000 C 
BRANCH  13  14
ATOM     14  C   UNL     1       7.150 -32.129  17.530  1.00  0.00    -0.000 C 
BRANCH  14  15
ATOM     15  C   UNL     1       8.296 -32.763  18.335  1.00  0.00    -0.000 C 
BRANCH  15  16
ATOM     16  C   UNL     1       9.284 -31.720  18.876  1.00  0.00    -0.003 C 
ATOM     17  C   UNL     1       9.989 -30.989  17.736  1.00  0.00     0.004 C 
ENDBRANCH  15  16
ENDBRANCH  14  15
ENDBRANCH  13  14
ENDBRANCH  12  13
ENDBRANCH  11  12
ENDBRANCH  10  11
ENDBRANCH   1  10
TORSDOF 13
ENDMDL
MODEL 8
REMARK VINA RESULT:    -2.327      3.343      5.546
REMARK INTER + INTRA:          -5.743
REMARK INTER:                  -4.977
REMARK INTRA:                  -0.767
REMARK UNBOUND:                -1.648
REMARK SMILES CCCCCCCCCCCCCCC(=O)[O-]
REMARK SMILES IDX 9 1 10 2 11 3 12 4 13 5 14 6 15 7 16 8 17 9 8 10 7 11 6 12
REMARK SMILES IDX 5 13 4 14 3 15 2 16 1 17
REMARK H PARENT
REMARK Flexibility Score: inf
ROOT
ATOM      1  C   UNL     1       9.979 -34.166  13.300  1.00  0.00     0.000 C 
ENDROOT
BRANCH   1   2
ATOM      2  C   UNL     1       8.486 -34.325  12.971  1.00  0.00     0.000 C 
BRANCH   2   3
ATOM      3  C   UNL     1       7.615 -33.247  13.639  1.00  0.00     0.000 C 
BRANCH   3   4
ATOM      4  C   UNL     1       6.923 -33.752  14.915  1.00  0.00     0.000 C 
BRANCH   4   5
ATOM      5  C   UNL     1       6.997 -32.737  16.068  1.00  0.00     0.006 C 
BRANCH   5   6
ATOM      6  C   UNL     1       8.389 -32.696  16.714  1.00  0.00     0.053 C 
BRANCH   6   7
ATOM      7  C   UNL     1       8.311 -32.517  18.200  1.00  0.00     0.041 C 
ATOM      8  O   UNL     1       7.500 -33.201  18.879  1.00  0.00    -0.550 OA
ATOM      9  O   UNL     1       9.155 -31.617  18.837  1.00  0.00    -0.550 OA
ENDBRANCH   6   7
ENDBRANCH   5   6
ENDBRANCH   4   5
ENDBRANCH   3   4
ENDBRANCH   2   3
ENDBRANCH   1   2
BRANCH   1  10
ATOM     10  C   UNL     1      10.369 -32.709  13.590  1.00  0.00     0.000 C 
BRANCH  10  11
ATOM     11  C   UNL     1      11.893 -32.546  13.631  1.00  0.00    -0.000 C 
BRANCH  11  12
ATOM     12  C   UNL     1      12.290 -31.282  14.408  1.00  0.00    -0.000 C 
BRANCH  12  13
ATOM     13  C   UNL     1      13.635 -30.700  13.943  1.00  0.00    -0.000 C 
BRANCH  13  14
ATOM     14  C   UNL     1      14.819 -31.199  14.789  1.00  0.00    -0.000 C 
BRANCH  14  15
ATOM     15  C   UNL     1      16.150 -31.159  14.022  1.00  0.00    -0.000 C 
BRANCH  15  16
ATOM     16  C   UNL     1      17.153 -32.207  14.527  1.00  0.00    -0.003 C 
ATOM     17  C   UNL     1      18.570 -31.876  14.066  1.00  0.00     0.004 C 
ENDBRANCH  15  16
ENDBRANCH  14  15
ENDBRANCH  13  14
ENDBRANCH  12  13
ENDBRANCH  11  12
ENDBRANCH  10  11
ENDBRANCH   1  10
TORSDOF 13
ENDMDL
