MODEL 1
REMARK VINA RESULT:    -5.185      0.000      0.000
REMARK INTER + INTRA:          -5.847
REMARK INTER:                  -6.246
REMARK INTRA:                   0.399
REMARK UNBOUND:                 0.399
REMARK SMILES Oc1cc(O)c2c(c1)O[C@@H](c1ccc(O)c(O)c1)[C@H](O)C2
REMARK SMILES IDX 21 1 19 2 10 3 9 4 7 5 8 6 2 7 3 8 4 9 6 10 20 11 11 13
REMARK SMILES IDX 18 14 12 15 16 16 13 17 14 18 17 19 15 21 5 23 1 25
REMARK H PARENT 20 12 17 20 15 22 5 24 1 26
REMARK Flexibility Score: inf
ROOT
ATOM      1  C   UNL     1       3.311  -1.074  -8.282  1.00  0.00     0.079 C 
ATOM      2  C   UNL     1       1.954  -1.792  -8.409  1.00  0.00     0.164 C 
ATOM      3  C   UNL     1       2.176  -3.307  -8.549  1.00  0.00     0.232 C 
ATOM      4  O   UNL     1       2.929  -3.791  -7.437  1.00  0.00    -0.482 OA
ATOM      5  C   UNL     1       3.985  -3.064  -6.877  1.00  0.00     0.131 A 
ATOM      6  C   UNL     1       4.797  -3.676  -5.919  1.00  0.00     0.093 A 
ATOM      7  C   UNL     1       5.868  -2.982  -5.355  1.00  0.00     0.122 A 
ATOM      8  C   UNL     1       6.136  -1.669  -5.759  1.00  0.00     0.092 A 
ATOM      9  C   UNL     1       5.334  -1.040  -6.717  1.00  0.00     0.126 A 
ATOM     10  C   UNL     1       4.220  -1.725  -7.260  1.00  0.00     0.039 A 
ENDROOT
BRANCH   2  11
ATOM     11  O   UNL     1       1.264  -1.308  -9.532  1.00  0.00    -0.389 OA
ATOM     12  H   UNL     1       0.682  -2.047  -9.849  1.00  0.00     0.211 HD
ENDBRANCH   2  11
BRANCH   3  13
ATOM     13  C   UNL     1       0.860  -4.046  -8.629  1.00  0.00    -0.001 A 
ATOM     14  C   UNL     1      -0.325  -3.362  -8.955  1.00  0.00     0.057 A 
ATOM     15  C   UNL     1       0.816  -5.435  -8.423  1.00  0.00     0.012 A 
ATOM     16  C   UNL     1      -1.540  -4.055  -9.055  1.00  0.00     0.157 A 
ATOM     17  C   UNL     1      -0.396  -6.125  -8.522  1.00  0.00     0.050 A 
ATOM     18  C   UNL     1      -1.576  -5.438  -8.836  1.00  0.00     0.157 A 
BRANCH  16  19
ATOM     19  O   UNL     1      -2.715  -3.375  -9.373  1.00  0.00    -0.504 OA
ATOM     20  H   UNL     1      -3.275  -3.632 -10.177  1.00  0.00     0.293 HD
ENDBRANCH  16  19
BRANCH  18  21
ATOM     21  O   UNL     1      -2.786  -6.123  -8.936  1.00  0.00    -0.504 OA
ATOM     22  H   UNL     1      -3.483  -5.870  -9.626  1.00  0.00     0.293 HD
ENDBRANCH  18  21
ENDBRANCH   3  13
BRANCH   9  23
ATOM     23  O   UNL     1       5.676   0.255  -7.114  1.00  0.00    -0.507 OA
ATOM     24  H   UNL     1       6.038   0.953  -6.480  1.00  0.00     0.293 HD
ENDBRANCH   9  23
BRANCH   7  25
ATOM     25  O   UNL     1       6.666  -3.607  -4.399  1.00  0.00    -0.508 OA
ATOM     26  H   UNL     1       6.278  -3.949  -3.527  1.00  0.00     0.293 HD
ENDBRANCH   7  25
TORSDOF 6
ENDMDL
MODEL 2
REMARK VINA RESULT:    -5.080      1.305      7.076
REMARK INTER + INTRA:          -5.721
REMARK INTER:                  -5.973
REMARK INTRA:                   0.253
REMARK UNBOUND:                 0.399
REMARK SMILES Oc1cc(O)c2c(c1)O[C@@H](c1ccc(O)c(O)c1)[C@H](O)C2
REMARK SMILES IDX 21 1 19 2 10 3 9 4 7 5 8 6 2 7 3 8 4 9 6 10 20 11 11 13
REMARK SMILES IDX 18 14 12 15 16 16 13 17 14 18 17 19 15 21 5 23 1 25
REMARK H PARENT 20 12 17 20 15 22 5 24 1 26
REMARK Flexibility Score: inf
ROOT
ATOM      1  C   UNL     1       1.040  -5.505  -8.886  1.00  0.00     0.079 C 
ATOM      2  C   UNL     1       2.150  -5.176  -7.870  1.00  0.00     0.164 C 
ATOM      3  C   UNL     1       2.692  -3.760  -8.130  1.00  0.00     0.232 C 
ATOM      4  O   UNL     1       1.625  -2.815  -8.074  1.00  0.00    -0.482 OA
ATOM      5  C   UNL     1       0.355  -3.090  -8.591  1.00  0.00     0.131 A 
ATOM      6  C   UNL     1      -0.583  -2.058  -8.674  1.00  0.00     0.093 A 
ATOM      7  C   UNL     1      -1.853  -2.300  -9.200  1.00  0.00     0.122 A 
ATOM      8  C   UNL     1      -2.184  -3.580  -9.657  1.00  0.00     0.092 A 
ATOM      9  C   UNL     1      -1.258  -4.626  -9.583  1.00  0.00     0.126 A 
ATOM     10  C   UNL     1       0.016  -4.396  -9.009  1.00  0.00     0.039 A 
ENDROOT
BRANCH   2  11
ATOM     11  O   UNL     1       3.191  -6.111  -7.983  1.00  0.00    -0.389 OA
ATOM     12  H   UNL     1       2.815  -6.900  -8.455  1.00  0.00     0.211 HD
ENDBRANCH   2  11
BRANCH   3  13
ATOM     13  C   UNL     1       3.752  -3.388  -7.119  1.00  0.00    -0.001 A 
ATOM     14  C   UNL     1       4.339  -2.111  -7.135  1.00  0.00     0.057 A 
ATOM     15  C   UNL     1       4.127  -4.302  -6.120  1.00  0.00     0.012 A 
ATOM     16  C   UNL     1       5.302  -1.758  -6.178  1.00  0.00     0.157 A 
ATOM     17  C   UNL     1       5.087  -3.952  -5.167  1.00  0.00     0.050 A 
ATOM     18  C   UNL     1       5.679  -2.681  -5.194  1.00  0.00     0.157 A 
BRANCH  16  19
ATOM     19  O   UNL     1       5.888  -0.494  -6.200  1.00  0.00    -0.504 OA
ATOM     20  H   UNL     1       5.849   0.094  -7.024  1.00  0.00     0.293 HD
ENDBRANCH  16  19
BRANCH  18  21
ATOM     21  O   UNL     1       6.637  -2.329  -4.245  1.00  0.00    -0.504 OA
ATOM     22  H   UNL     1       6.668  -1.399  -3.844  1.00  0.00     0.293 HD
ENDBRANCH  18  21
ENDBRANCH   3  13
BRANCH   9  23
ATOM     23  O   UNL     1      -1.629  -5.871 -10.095  1.00  0.00    -0.507 OA
ATOM     24  H   UNL     1      -1.137  -6.332 -10.849  1.00  0.00     0.293 HD
ENDBRANCH   9  23
BRANCH   7  25
ATOM     25  O   UNL     1      -2.776  -1.259  -9.272  1.00  0.00    -0.508 OA
ATOM     26  H   UNL     1      -3.254  -0.915  -8.447  1.00  0.00     0.293 HD
ENDBRANCH   7  25
TORSDOF 6
ENDMDL
MODEL 3
REMARK VINA RESULT:    -5.052      1.562      7.151
REMARK INTER + INTRA:          -5.687
REMARK INTER:                  -5.875
REMARK INTRA:                   0.188
REMARK UNBOUND:                 0.399
REMARK SMILES Oc1cc(O)c2c(c1)O[C@@H](c1ccc(O)c(O)c1)[C@H](O)C2
REMARK SMILES IDX 21 1 19 2 10 3 9 4 7 5 8 6 2 7 3 8 4 9 6 10 20 11 11 13
REMARK SMILES IDX 18 14 12 15 16 16 13 17 14 18 17 19 15 21 5 23 1 25
REMARK H PARENT 20 12 17 20 15 22 5 24 1 26
REMARK Flexibility Score: inf
ROOT
ATOM      1  C   UNL     1       1.039  -5.508  -8.886  1.00  0.00     0.079 C 
ATOM      2  C   UNL     1       2.139  -5.188  -7.856  1.00  0.00     0.164 C 
ATOM      3  C   UNL     1       2.688  -3.772  -8.102  1.00  0.00     0.232 C 
ATOM      4  O   UNL     1       1.622  -2.824  -8.052  1.00  0.00    -0.482 OA
ATOM      5  C   UNL     1       0.357  -3.093  -8.583  1.00  0.00     0.131 A 
ATOM      6  C   UNL     1      -0.577  -2.058  -8.669  1.00  0.00     0.093 A 
ATOM      7  C   UNL     1      -1.842  -2.293  -9.210  1.00  0.00     0.122 A 
ATOM      8  C   UNL     1      -2.172  -3.569  -9.678  1.00  0.00     0.092 A 
ATOM      9  C   UNL     1      -1.250  -4.618  -9.600  1.00  0.00     0.126 A 
ATOM     10  C   UNL     1       0.019  -4.396  -9.012  1.00  0.00     0.039 A 
ENDROOT
BRANCH   2  11
ATOM     11  O   UNL     1       3.179  -6.125  -7.965  1.00  0.00    -0.389 OA
ATOM     12  H   UNL     1       2.806  -6.910  -8.444  1.00  0.00     0.211 HD
ENDBRANCH   2  11
BRANCH   3  13
ATOM     13  C   UNL     1       3.738  -3.409  -7.078  1.00  0.00    -0.001 A 
ATOM     14  C   UNL     1       4.034  -4.283  -6.016  1.00  0.00     0.057 A 
ATOM     15  C   UNL     1       4.464  -2.213  -7.203  1.00  0.00     0.012 A 
ATOM     16  C   UNL     1       5.028  -3.956  -5.082  1.00  0.00     0.157 A 
ATOM     17  C   UNL     1       5.454  -1.887  -6.272  1.00  0.00     0.050 A 
ATOM     18  C   UNL     1       5.737  -2.755  -5.209  1.00  0.00     0.157 A 
BRANCH  16  19
ATOM     19  O   UNL     1       5.315  -4.820  -4.028  1.00  0.00    -0.504 OA
ATOM     20  H   UNL     1       5.849  -4.515  -3.222  1.00  0.00     0.293 HD
ENDBRANCH  16  19
BRANCH  18  21
ATOM     21  O   UNL     1       6.724  -2.433  -4.278  1.00  0.00    -0.504 OA
ATOM     22  H   UNL     1       7.080  -1.489  -4.189  1.00  0.00     0.293 HD
ENDBRANCH  18  21
ENDBRANCH   3  13
BRANCH   9  23
ATOM     23  O   UNL     1      -1.619  -5.860 -10.124  1.00  0.00    -0.507 OA
ATOM     24  H   UNL     1      -2.344  -6.439  -9.724  1.00  0.00     0.293 HD
ENDBRANCH   9  23
BRANCH   7  25
ATOM     25  O   UNL     1      -2.762  -1.249  -9.285  1.00  0.00    -0.508 OA
ATOM     26  H   UNL     1      -3.744  -1.392  -9.080  1.00  0.00     0.293 HD
ENDBRANCH   7  25
TORSDOF 6
ENDMDL
MODEL 4
REMARK VINA RESULT:    -4.860      2.631      7.280
REMARK INTER + INTRA:          -5.455
REMARK INTER:                  -5.620
REMARK INTRA:                   0.165
REMARK UNBOUND:                 0.399
REMARK SMILES Oc1cc(O)c2c(c1)O[C@@H](c1ccc(O)c(O)c1)[C@H](O)C2
REMARK SMILES IDX 21 1 19 2 10 3 9 4 7 5 8 6 2 7 3 8 4 9 6 10 20 11 11 13
REMARK SMILES IDX 18 14 12 15 16 16 13 17 14 18 17 19 15 21 5 23 1 25
REMARK H PARENT 20 12 17 20 15 22 5 24 1 26
REMARK Flexibility Score: inf
ROOT
ATOM      1  C   UNL     1       2.405  -3.124  -8.252  1.00  0.00     0.079 C 
ATOM      2  C   UNL     1       2.970  -1.695  -8.130  1.00  0.00     0.164 C 
ATOM      3  C   UNL     1       2.578  -0.872  -9.369  1.00  0.00     0.232 C 
ATOM      4  O   UNL     1       1.158  -0.869  -9.518  1.00  0.00    -0.482 OA
ATOM      5  C   UNL     1       0.378  -2.000  -9.260  1.00  0.00     0.131 A 
ATOM      6  C   UNL     1      -0.976  -1.984  -9.607  1.00  0.00     0.093 A 
ATOM      7  C   UNL     1      -1.776  -3.105  -9.377  1.00  0.00     0.122 A 
ATOM      8  C   UNL     1      -1.216  -4.253  -8.806  1.00  0.00     0.092 A 
ATOM      9  C   UNL     1       0.137  -4.287  -8.452  1.00  0.00     0.126 A 
ATOM     10  C   UNL     1       0.942  -3.138  -8.642  1.00  0.00     0.039 A 
ENDROOT
BRANCH   2  11
ATOM     11  O   UNL     1       4.369  -1.746  -8.018  1.00  0.00    -0.389 OA
ATOM     12  H   UNL     1       4.628  -1.050  -7.360  1.00  0.00     0.211 HD
ENDBRANCH   2  11
BRANCH   3  13
ATOM     13  C   UNL     1       3.078   0.550  -9.258  1.00  0.00    -0.001 A 
ATOM     14  C   UNL     1       2.173   1.624  -9.189  1.00  0.00     0.057 A 
ATOM     15  C   UNL     1       4.457   0.809  -9.177  1.00  0.00     0.012 A 
ATOM     16  C   UNL     1       2.639   2.940  -9.059  1.00  0.00     0.157 A 
ATOM     17  C   UNL     1       4.922   2.121  -9.047  1.00  0.00     0.050 A 
ATOM     18  C   UNL     1       4.016   3.189  -8.991  1.00  0.00     0.157 A 
BRANCH  16  19
ATOM     19  O   UNL     1       1.741   4.003  -8.996  1.00  0.00    -0.504 OA
ATOM     20  H   UNL     1       1.527   4.565  -9.812  1.00  0.00     0.293 HD
ENDBRANCH  16  19
BRANCH  18  21
ATOM     21  O   UNL     1       4.476   4.499  -8.862  1.00  0.00    -0.504 OA
ATOM     22  H   UNL     1       5.351   4.796  -9.279  1.00  0.00     0.293 HD
ENDBRANCH  18  21
ENDBRANCH   3  13
BRANCH   9  23
ATOM     23  O   UNL     1       0.649  -5.476  -7.926  1.00  0.00    -0.507 OA
ATOM     24  H   UNL     1       1.590  -5.564  -7.566  1.00  0.00     0.293 HD
ENDBRANCH   9  23
BRANCH   7  25
ATOM     25  O   UNL     1      -3.124  -3.070  -9.727  1.00  0.00    -0.508 OA
ATOM     26  H   UNL     1      -3.773  -3.781  -9.410  1.00  0.00     0.293 HD
ENDBRANCH   7  25
TORSDOF 6
ENDMDL
MODEL 5
REMARK VINA RESULT:    -4.787     15.193     17.143
REMARK INTER + INTRA:          -5.368
REMARK INTER:                  -5.458
REMARK INTRA:                   0.089
REMARK UNBOUND:                 0.399
REMARK SMILES Oc1cc(O)c2c(c1)O[C@@H](c1ccc(O)c(O)c1)[C@H](O)C2
REMARK SMILES IDX 21 1 19 2 10 3 9 4 7 5 8 6 2 7 3 8 4 9 6 10 20 11 11 13
REMARK SMILES IDX 18 14 12 15 16 16 13 17 14 18 17 19 15 21 5 23 1 25
REMARK H PARENT 20 12 17 20 15 22 5 24 1 26
REMARK Flexibility Score: inf
ROOT
ATOM      1  C   UNL     1     -11.541   7.457  -4.460  1.00  0.00     0.079 C 
ATOM      2  C   UNL     1     -11.228   6.170  -3.673  1.00  0.00     0.164 C 
ATOM      3  C   UNL     1     -12.125   5.023  -4.169  1.00  0.00     0.232 C 
ATOM      4  O   UNL     1     -11.946   4.842  -5.574  1.00  0.00    -0.482 OA
ATOM      5  C   UNL     1     -11.784   5.919  -6.451  1.00  0.00     0.131 A 
ATOM      6  C   UNL     1     -11.803   5.682  -7.828  1.00  0.00     0.093 A 
ATOM      7  C   UNL     1     -11.660   6.739  -8.728  1.00  0.00     0.122 A 
ATOM      8  C   UNL     1     -11.507   8.044  -8.248  1.00  0.00     0.092 A 
ATOM      9  C   UNL     1     -11.484   8.301  -6.873  1.00  0.00     0.126 A 
ATOM     10  C   UNL     1     -11.585   7.227  -5.956  1.00  0.00     0.039 A 
ENDROOT
BRANCH   2  11
ATOM     11  O   UNL     1     -11.449   6.385  -2.303  1.00  0.00    -0.389 OA
ATOM     12  H   UNL     1     -10.947   5.679  -1.818  1.00  0.00     0.211 HD
ENDBRANCH   2  11
BRANCH   3  13
ATOM     13  C   UNL     1     -11.809   3.733  -3.448  1.00  0.00    -0.001 A 
ATOM     14  C   UNL     1     -12.105   3.587  -2.081  1.00  0.00     0.057 A 
ATOM     15  C   UNL     1     -11.258   2.648  -4.150  1.00  0.00     0.012 A 
ATOM     16  C   UNL     1     -11.836   2.379  -1.421  1.00  0.00     0.157 A 
ATOM     17  C   UNL     1     -10.990   1.445  -3.492  1.00  0.00     0.050 A 
ATOM     18  C   UNL     1     -11.276   1.308  -2.126  1.00  0.00     0.157 A 
BRANCH  16  19
ATOM     19  O   UNL     1     -12.124   2.238  -0.065  1.00  0.00    -0.504 OA
ATOM     20  H   UNL     1     -11.394   2.259   0.637  1.00  0.00     0.293 HD
ENDBRANCH  16  19
BRANCH  18  21
ATOM     21  O   UNL     1     -11.009   0.109  -1.467  1.00  0.00    -0.504 OA
ATOM     22  H   UNL     1     -11.731  -0.389  -0.959  1.00  0.00     0.293 HD
ENDBRANCH  18  21
ENDBRANCH   3  13
BRANCH   9  23
ATOM     23  O   UNL     1     -11.373   9.629  -6.453  1.00  0.00    -0.507 OA
ATOM     24  H   UNL     1     -11.681   9.953  -5.547  1.00  0.00     0.293 HD
ENDBRANCH   9  23
BRANCH   7  25
ATOM     25  O   UNL     1     -11.680   6.483 -10.097  1.00  0.00    -0.508 OA
ATOM     26  H   UNL     1     -12.268   5.758 -10.492  1.00  0.00     0.293 HD
ENDBRANCH   7  25
TORSDOF 6
ENDMDL
MODEL 6
REMARK VINA RESULT:    -4.777      1.433      2.070
REMARK INTER + INTRA:          -5.355
REMARK INTER:                  -5.176
REMARK INTRA:                  -0.179
REMARK UNBOUND:                 0.399
REMARK SMILES Oc1cc(O)c2c(c1)O[C@@H](c1ccc(O)c(O)c1)[C@H](O)C2
REMARK SMILES IDX 21 1 19 2 10 3 9 4 7 5 8 6 2 7 3 8 4 9 6 10 20 11 11 13
REMARK SMILES IDX 18 14 12 15 16 16 13 17 14 18 17 19 15 21 5 23 1 25
REMARK H PARENT 20 12 17 20 15 22 5 24 1 26
REMARK Flexibility Score: inf
ROOT
ATOM      1  C   UNL     1       4.211   0.244  -8.597  1.00  0.00     0.079 C 
ATOM      2  C   UNL     1       2.761  -0.246  -8.773  1.00  0.00     0.164 C 
ATOM      3  C   UNL     1       2.719  -1.783  -8.711  1.00  0.00     0.232 C 
ATOM      4  O   UNL     1       3.286  -2.234  -7.481  1.00  0.00    -0.482 OA
ATOM      5  C   UNL     1       4.408  -1.626  -6.908  1.00  0.00     0.131 A 
ATOM      6  C   UNL     1       5.021  -2.232  -5.809  1.00  0.00     0.093 A 
ATOM      7  C   UNL     1       6.152  -1.658  -5.227  1.00  0.00     0.122 A 
ATOM      8  C   UNL     1       6.680  -0.475  -5.754  1.00  0.00     0.092 A 
ATOM      9  C   UNL     1       6.080   0.147  -6.855  1.00  0.00     0.126 A 
ATOM     10  C   UNL     1       4.907  -0.408  -7.421  1.00  0.00     0.039 A 
ENDROOT
BRANCH   2  11
ATOM     11  O   UNL     1       2.257   0.192 -10.008  1.00  0.00    -0.389 OA
ATOM     12  H   UNL     1       2.799  -0.253 -10.711  1.00  0.00     0.211 HD
ENDBRANCH   2  11
BRANCH   3  13
ATOM     13  C   UNL     1       1.302  -2.295  -8.834  1.00  0.00    -0.001 A 
ATOM     14  C   UNL     1       1.042  -3.544  -9.425  1.00  0.00     0.057 A 
ATOM     15  C   UNL     1       0.233  -1.546  -8.315  1.00  0.00     0.012 A 
ATOM     16  C   UNL     1      -0.271  -4.029  -9.513  1.00  0.00     0.157 A 
ATOM     17  C   UNL     1      -1.075  -2.029  -8.402  1.00  0.00     0.050 A 
ATOM     18  C   UNL     1      -1.332  -3.269  -9.003  1.00  0.00     0.157 A 
BRANCH  16  19
ATOM     19  O   UNL     1      -0.528  -5.263 -10.105  1.00  0.00    -0.504 OA
ATOM     20  H   UNL     1       0.198  -5.785 -10.580  1.00  0.00     0.293 HD
ENDBRANCH  16  19
BRANCH  18  21
ATOM     21  O   UNL     1      -2.636  -3.753  -9.093  1.00  0.00    -0.504 OA
ATOM     22  H   UNL     1      -2.878  -4.685  -8.777  1.00  0.00     0.293 HD
ENDBRANCH  18  21
ENDBRANCH   3  13
BRANCH   9  23
ATOM     23  O   UNL     1       6.677   1.302  -7.365  1.00  0.00    -0.507 OA
ATOM     24  H   UNL     1       7.583   1.307  -7.814  1.00  0.00     0.293 HD
ENDBRANCH   9  23
BRANCH   7  25
ATOM     25  O   UNL     1       6.749  -2.276  -4.130  1.00  0.00    -0.508 OA
ATOM     26  H   UNL     1       6.369  -2.178  -3.195  1.00  0.00     0.293 HD
ENDBRANCH   7  25
TORSDOF 6
ENDMDL
MODEL 7
REMARK VINA RESULT:    -4.739      1.314      2.087
REMARK INTER + INTRA:          -5.310
REMARK INTER:                  -5.721
REMARK INTRA:                   0.411
REMARK UNBOUND:                 0.399
REMARK SMILES Oc1cc(O)c2c(c1)O[C@@H](c1ccc(O)c(O)c1)[C@H](O)C2
REMARK SMILES IDX 21 1 19 2 10 3 9 4 7 5 8 6 2 7 3 8 4 9 6 10 20 11 11 13
REMARK SMILES IDX 18 14 12 15 16 16 13 17 14 18 17 19 15 21 5 23 1 25
REMARK H PARENT 20 12 17 20 15 22 5 24 1 26
REMARK Flexibility Score: inf
ROOT
ATOM      1  C   UNL     1       4.812  -1.837  -7.423  1.00  0.00     0.079 C 
ATOM      2  C   UNL     1       3.328  -1.953  -7.820  1.00  0.00     0.164 C 
ATOM      3  C   UNL     1       2.958  -3.432  -8.027  1.00  0.00     0.232 C 
ATOM      4  O   UNL     1       3.249  -4.174  -6.843  1.00  0.00    -0.482 OA
ATOM      5  C   UNL     1       4.388  -3.928  -6.069  1.00  0.00     0.131 A 
ATOM      6  C   UNL     1       4.709  -4.812  -5.035  1.00  0.00     0.093 A 
ATOM      7  C   UNL     1       5.847  -4.601  -4.256  1.00  0.00     0.122 A 
ATOM      8  C   UNL     1       6.677  -3.506  -4.519  1.00  0.00     0.092 A 
ATOM      9  C   UNL     1       6.371  -2.611  -5.550  1.00  0.00     0.126 A 
ATOM     10  C   UNL     1       5.194  -2.795  -6.314  1.00  0.00     0.039 A 
ENDROOT
BRANCH   2  11
ATOM     11  O   UNL     1       3.096  -1.236  -9.005  1.00  0.00    -0.389 OA
ATOM     12  H   UNL     1       2.601  -1.844  -9.614  1.00  0.00     0.211 HD
ENDBRANCH   2  11
BRANCH   3  13
ATOM     13  C   UNL     1       1.494  -3.583  -8.373  1.00  0.00    -0.001 A 
ATOM     14  C   UNL     1       0.823  -4.794  -8.125  1.00  0.00     0.057 A 
ATOM     15  C   UNL     1       0.778  -2.498  -8.904  1.00  0.00     0.012 A 
ATOM     16  C   UNL     1      -0.542  -4.923  -8.421  1.00  0.00     0.157 A 
ATOM     17  C   UNL     1      -0.582  -2.627  -9.199  1.00  0.00     0.050 A 
ATOM     18  C   UNL     1      -1.245  -3.839  -8.961  1.00  0.00     0.157 A 
BRANCH  16  19
ATOM     19  O   UNL     1      -1.205  -6.125  -8.180  1.00  0.00    -0.504 OA
ATOM     20  H   UNL     1      -0.825  -7.011  -8.492  1.00  0.00     0.293 HD
ENDBRANCH  16  19
BRANCH  18  21
ATOM     21  O   UNL     1      -2.601  -3.971  -9.256  1.00  0.00    -0.504 OA
ATOM     22  H   UNL     1      -2.938  -3.973 -10.211  1.00  0.00     0.293 HD
ENDBRANCH  18  21
ENDBRANCH   3  13
BRANCH   9  23
ATOM     23  O   UNL     1       7.260  -1.561  -5.794  1.00  0.00    -0.507 OA
ATOM     24  H   UNL     1       7.224  -0.984  -6.623  1.00  0.00     0.293 HD
ENDBRANCH   9  23
BRANCH   7  25
ATOM     25  O   UNL     1       6.150  -5.492  -3.228  1.00  0.00    -0.508 OA
ATOM     26  H   UNL     1       7.004  -6.039  -3.235  1.00  0.00     0.293 HD
ENDBRANCH   7  25
TORSDOF 6
ENDMDL
MODEL 8
REMARK VINA RESULT:    -4.696      3.777      8.045
REMARK INTER + INTRA:          -5.258
REMARK INTER:                  -4.990
REMARK INTRA:                  -0.268
REMARK UNBOUND:                 0.399
REMARK SMILES Oc1cc(O)c2c(c1)O[C@@H](c1ccc(O)c(O)c1)[C@H](O)C2
REMARK SMILES IDX 21 1 19 2 10 3 9 4 7 5 8 6 2 7 3 8 4 9 6 10 20 11 11 13
REMARK SMILES IDX 18 14 12 15 16 16 13 17 14 18 17 19 15 21 5 23 1 25
REMARK H PARENT 20 12 17 20 15 22 5 24 1 26
REMARK Flexibility Score: inf
ROOT
ATOM      1  C   UNL     1       7.195  -0.508  -5.100  1.00  0.00     0.079 C 
ATOM      2  C   UNL     1       6.992   0.927  -5.624  1.00  0.00     0.164 C 
ATOM      3  C   UNL     1       6.815   0.904  -7.152  1.00  0.00     0.232 C 
ATOM      4  O   UNL     1       5.724   0.053  -7.500  1.00  0.00    -0.482 OA
ATOM      5  C   UNL     1       5.474  -1.152  -6.835  1.00  0.00     0.131 A 
ATOM      6  C   UNL     1       4.509  -2.023  -7.347  1.00  0.00     0.093 A 
ATOM      7  C   UNL     1       4.250  -3.239  -6.714  1.00  0.00     0.122 A 
ATOM      8  C   UNL     1       4.967  -3.592  -5.566  1.00  0.00     0.092 A 
ATOM      9  C   UNL     1       5.937  -2.733  -5.038  1.00  0.00     0.126 A 
ATOM     10  C   UNL     1       6.172  -1.478  -5.651  1.00  0.00     0.039 A 
ENDROOT
BRANCH   2  11
ATOM     11  O   UNL     1       8.102   1.718  -5.287  1.00  0.00    -0.389 OA
ATOM     12  H   UNL     1       7.748   2.538  -4.854  1.00  0.00     0.211 HD
ENDBRANCH   2  11
BRANCH   3  13
ATOM     13  C   UNL     1       6.567   2.293  -7.693  1.00  0.00    -0.001 A 
ATOM     14  C   UNL     1       5.718   3.184  -7.012  1.00  0.00     0.057 A 
ATOM     15  C   UNL     1       7.220   2.724  -8.859  1.00  0.00     0.012 A 
ATOM     16  C   UNL     1       5.511   4.482  -7.501  1.00  0.00     0.157 A 
ATOM     17  C   UNL     1       7.013   4.018  -9.347  1.00  0.00     0.050 A 
ATOM     18  C   UNL     1       6.157   4.899  -8.672  1.00  0.00     0.157 A 
BRANCH  16  19
ATOM     19  O   UNL     1       4.665   5.362  -6.829  1.00  0.00    -0.504 OA
ATOM     20  H   UNL     1       4.627   6.346  -7.066  1.00  0.00     0.293 HD
ENDBRANCH  16  19
BRANCH  18  21
ATOM     21  O   UNL     1       5.948   6.189  -9.156  1.00  0.00    -0.504 OA
ATOM     22  H   UNL     1       6.621   6.930  -8.997  1.00  0.00     0.293 HD
ENDBRANCH  18  21
ENDBRANCH   3  13
BRANCH   9  23
ATOM     23  O   UNL     1       6.652  -3.158  -3.916  1.00  0.00    -0.507 OA
ATOM     24  H   UNL     1       7.493  -2.704  -3.588  1.00  0.00     0.293 HD
ENDBRANCH   9  23
BRANCH   7  25
ATOM     25  O   UNL     1       3.283  -4.094  -7.239  1.00  0.00    -0.508 OA
ATOM     26  H   UNL     1       3.101  -4.142  -8.235  1.00  0.00     0.293 HD
ENDBRANCH   7  25
TORSDOF 6
ENDMDL
MODEL 9
REMARK VINA RESULT:    -4.575      4.180      6.945
REMARK INTER + INTRA:          -5.112
REMARK INTER:                  -4.741
REMARK INTRA:                  -0.371
REMARK UNBOUND:                 0.399
REMARK SMILES Oc1cc(O)c2c(c1)O[C@@H](c1ccc(O)c(O)c1)[C@H](O)C2
REMARK SMILES IDX 21 1 19 2 10 3 9 4 7 5 8 6 2 7 3 8 4 9 6 10 20 11 11 13
REMARK SMILES IDX 18 14 12 15 16 16 13 17 14 18 17 19 15 21 5 23 1 25
REMARK H PARENT 20 12 17 20 15 22 5 24 1 26
REMARK Flexibility Score: inf
ROOT
ATOM      1  C   UNL     1       2.517   1.374  -9.558  1.00  0.00     0.079 C 
ATOM      2  C   UNL     1       3.086   0.160  -8.799  1.00  0.00     0.164 C 
ATOM      3  C   UNL     1       4.623   0.224  -8.789  1.00  0.00     0.232 C 
ATOM      4  O   UNL     1       5.052   1.458  -8.214  1.00  0.00    -0.482 OA
ATOM      5  C   UNL     1       4.389   2.666  -8.455  1.00  0.00     0.131 A 
ATOM      6  C   UNL     1       4.970   3.858  -8.018  1.00  0.00     0.093 A 
ATOM      7  C   UNL     1       4.339   5.080  -8.258  1.00  0.00     0.122 A 
ATOM      8  C   UNL     1       3.123   5.110  -8.950  1.00  0.00     0.092 A 
ATOM      9  C   UNL     1       2.526   3.926  -9.396  1.00  0.00     0.126 A 
ATOM     10  C   UNL     1       3.140   2.681  -9.116  1.00  0.00     0.039 A 
ENDROOT
BRANCH   2  11
ATOM     11  O   UNL     1       2.664  -1.028  -9.418  1.00  0.00    -0.389 OA
ATOM     12  H   UNL     1       3.399  -1.310 -10.023  1.00  0.00     0.211 HD
ENDBRANCH   2  11
BRANCH   3  13
ATOM     13  C   UNL     1       5.211  -0.929  -8.010  1.00  0.00    -0.001 A 
ATOM     14  C   UNL     1       4.942  -1.077  -6.638  1.00  0.00     0.057 A 
ATOM     15  C   UNL     1       5.997  -1.894  -8.662  1.00  0.00     0.012 A 
ATOM     16  C   UNL     1       5.466  -2.164  -5.923  1.00  0.00     0.157 A 
ATOM     17  C   UNL     1       6.520  -2.977  -7.950  1.00  0.00     0.050 A 
ATOM     18  C   UNL     1       6.259  -3.114  -6.579  1.00  0.00     0.157 A 
BRANCH  16  19
ATOM     19  O   UNL     1       5.204  -2.305  -4.562  1.00  0.00    -0.504 OA
ATOM     20  H   UNL     1       5.159  -3.217  -4.123  1.00  0.00     0.293 HD
ENDBRANCH  16  19
BRANCH  18  21
ATOM     21  O   UNL     1       6.780  -4.192  -5.866  1.00  0.00    -0.504 OA
ATOM     22  H   UNL     1       7.729  -4.184  -5.512  1.00  0.00     0.293 HD
ENDBRANCH  18  21
ENDBRANCH   3  13
BRANCH   9  23
ATOM     23  O   UNL     1       1.336   4.021 -10.120  1.00  0.00    -0.507 OA
ATOM     24  H   UNL     1       0.618   3.310 -10.107  1.00  0.00     0.293 HD
ENDBRANCH   9  23
BRANCH   7  25
ATOM     25  O   UNL     1       4.932   6.259  -7.812  1.00  0.00    -0.508 OA
ATOM     26  H   UNL     1       5.016   7.071  -8.413  1.00  0.00     0.293 HD
ENDBRANCH   7  25
TORSDOF 6
ENDMDL
