MODEL 1
REMARK VINA RESULT:    -4.946      0.000      0.000
REMARK INTER + INTRA:          -5.759
REMARK INTER:                  -5.669
REMARK INTRA:                  -0.090
REMARK UNBOUND:                -0.090
REMARK SMILES COc1cc(C(=O)[O-])ccc1O
REMARK SMILES IDX 5 1 9 2 4 3 10 4 3 5 11 6 6 7 7 8 8 9 2 10 1 11 12 12
REMARK H PARENT 12 13
REMARK Flexibility Score: inf
ROOT
ATOM      1  C   UNL     1      65.358 -16.076 -17.084  1.00  0.00     0.001 A 
ATOM      2  C   UNL     1      65.550 -17.395 -17.530  1.00  0.00     0.014 A 
ATOM      3  C   UNL     1      64.380 -15.820 -16.107  1.00  0.00     0.060 A 
ATOM      4  C   UNL     1      64.779 -18.436 -17.008  1.00  0.00     0.051 A 
ATOM      5  C   UNL     1      63.601 -16.869 -15.577  1.00  0.00     0.161 A 
ATOM      6  C   UNL     1      63.808 -18.178 -16.034  1.00  0.00     0.157 A 
ENDROOT
BRANCH   1   7
ATOM      7  C   UNL     1      66.172 -14.969 -17.636  1.00  0.00     0.072 C 
ATOM      8  O   UNL     1      65.740 -14.272 -18.592  1.00  0.00    -0.545 OA
ATOM      9  O   UNL     1      67.426 -14.686 -17.109  1.00  0.00    -0.545 OA
ENDBRANCH   1   7
BRANCH   5  10
ATOM     10  O   UNL     1      62.617 -16.650 -14.600  1.00  0.00    -0.493 OA
ATOM     11  C   UNL     1      62.871 -16.571 -13.202  1.00  0.00     0.278 C 
ENDBRANCH   5  10
BRANCH   6  12
ATOM     12  O   UNL     1      63.040 -19.219 -15.514  1.00  0.00    -0.504 OA
ATOM     13  H   UNL     1      62.603 -19.906 -16.115  1.00  0.00     0.293 HD
ENDBRANCH   6  12
TORSDOF 3
ENDMDL
MODEL 2
REMARK VINA RESULT:    -4.916      2.394      3.226
REMARK INTER + INTRA:          -5.724
REMARK INTER:                  -5.640
REMARK INTRA:                  -0.084
REMARK UNBOUND:                -0.090
REMARK SMILES COc1cc(C(=O)[O-])ccc1O
REMARK SMILES IDX 5 1 9 2 4 3 10 4 3 5 11 6 6 7 7 8 8 9 2 10 1 11 12 12
REMARK H PARENT 12 13
REMARK Flexibility Score: inf
ROOT
ATOM      1  C   UNL     1      65.664 -16.403 -19.399  1.00  0.00     0.001 A 
ATOM      2  C   UNL     1      67.018 -16.774 -19.370  1.00  0.00     0.014 A 
ATOM      3  C   UNL     1      64.805 -16.869 -18.388  1.00  0.00     0.060 A 
ATOM      4  C   UNL     1      67.504 -17.595 -18.351  1.00  0.00     0.051 A 
ATOM      5  C   UNL     1      65.292 -17.698 -17.356  1.00  0.00     0.161 A 
ATOM      6  C   UNL     1      66.647 -18.057 -17.345  1.00  0.00     0.157 A 
ENDROOT
BRANCH   1   7
ATOM      7  C   UNL     1      65.144 -15.533 -20.479  1.00  0.00     0.072 C 
ATOM      8  O   UNL     1      64.591 -16.034 -21.493  1.00  0.00    -0.545 OA
ATOM      9  O   UNL     1      65.262 -14.151 -20.389  1.00  0.00    -0.545 OA
ENDBRANCH   1   7
BRANCH   5  10
ATOM     10  O   UNL     1      64.464 -18.182 -16.331  1.00  0.00    -0.493 OA
ATOM     11  C   UNL     1      63.193 -18.789 -16.538  1.00  0.00     0.278 C 
ENDBRANCH   5  10
BRANCH   6  12
ATOM     12  O   UNL     1      67.134 -18.877 -16.328  1.00  0.00    -0.504 OA
ATOM     13  H   UNL     1      67.636 -19.732 -16.532  1.00  0.00     0.293 HD
ENDBRANCH   6  12
TORSDOF 3
ENDMDL
MODEL 3
REMARK VINA RESULT:    -4.866      1.271      4.303
REMARK INTER + INTRA:          -5.667
REMARK INTER:                  -5.592
REMARK INTRA:                  -0.075
REMARK UNBOUND:                -0.090
REMARK SMILES COc1cc(C(=O)[O-])ccc1O
REMARK SMILES IDX 5 1 9 2 4 3 10 4 3 5 11 6 6 7 7 8 8 9 2 10 1 11 12 12
REMARK H PARENT 12 13
REMARK Flexibility Score: inf
ROOT
ATOM      1  C   UNL     1      63.618 -16.802 -15.420  1.00  0.00     0.001 A 
ATOM      2  C   UNL     1      63.664 -18.079 -16.002  1.00  0.00     0.014 A 
ATOM      3  C   UNL     1      64.384 -15.766 -15.984  1.00  0.00     0.060 A 
ATOM      4  C   UNL     1      64.459 -18.317 -17.124  1.00  0.00     0.051 A 
ATOM      5  C   UNL     1      65.188 -16.002 -17.118  1.00  0.00     0.161 A 
ATOM      6  C   UNL     1      65.220 -17.283 -17.684  1.00  0.00     0.157 A 
ENDROOT
BRANCH   1   7
ATOM      7  C   UNL     1      62.776 -16.546 -14.229  1.00  0.00     0.072 C 
ATOM      8  O   UNL     1      62.855 -17.293 -13.218  1.00  0.00    -0.545 OA
ATOM      9  O   UNL     1      61.886 -15.479 -14.210  1.00  0.00    -0.545 OA
ENDBRANCH   1   7
BRANCH   5  10
ATOM     10  O   UNL     1      65.965 -14.992 -17.707  1.00  0.00    -0.493 OA
ATOM     11  C   UNL     1      67.307 -14.688 -17.342  1.00  0.00     0.278 C 
ENDBRANCH   5  10
BRANCH   6  12
ATOM     12  O   UNL     1      66.013 -17.522 -18.805  1.00  0.00    -0.504 OA
ATOM     13  H   UNL     1      65.925 -18.375 -19.344  1.00  0.00     0.293 HD
ENDBRANCH   6  12
TORSDOF 3
ENDMDL
MODEL 4
REMARK VINA RESULT:    -4.805      2.869      4.481
REMARK INTER + INTRA:          -5.597
REMARK INTER:                  -5.516
REMARK INTRA:                  -0.082
REMARK UNBOUND:                -0.090
REMARK SMILES COc1cc(C(=O)[O-])ccc1O
REMARK SMILES IDX 5 1 9 2 4 3 10 4 3 5 11 6 6 7 7 8 8 9 2 10 1 11 12 12
REMARK H PARENT 12 13
REMARK Flexibility Score: inf
ROOT
ATOM      1  C   UNL     1      66.591 -15.767 -20.108  1.00  0.00     0.001 A 
ATOM      2  C   UNL     1      67.942 -15.408 -19.975  1.00  0.00     0.014 A 
ATOM      3  C   UNL     1      66.023 -16.651 -19.173  1.00  0.00     0.060 A 
ATOM      4  C   UNL     1      68.711 -15.922 -18.929  1.00  0.00     0.051 A 
ATOM      5  C   UNL     1      66.796 -17.172 -18.115  1.00  0.00     0.161 A 
ATOM      6  C   UNL     1      68.143 -16.801 -18.000  1.00  0.00     0.157 A 
ENDROOT
BRANCH   1   7
ATOM      7  C   UNL     1      65.772 -15.225 -21.217  1.00  0.00     0.072 C 
ATOM      8  O   UNL     1      65.994 -14.072 -21.671  1.00  0.00    -0.545 OA
ATOM      9  O   UNL     1      64.746 -15.981 -21.770  1.00  0.00    -0.545 OA
ENDBRANCH   1   7
BRANCH   5  10
ATOM     10  O   UNL     1      66.263 -18.056 -17.163  1.00  0.00    -0.493 OA
ATOM     11  C   UNL     1      64.882 -18.150 -16.834  1.00  0.00     0.278 C 
ENDBRANCH   5  10
BRANCH   6  12
ATOM     12  O   UNL     1      68.912 -17.313 -16.956  1.00  0.00    -0.504 OA
ATOM     13  H   UNL     1      69.704 -17.918 -17.129  1.00  0.00     0.293 HD
ENDBRANCH   6  12
TORSDOF 3
ENDMDL
MODEL 5
REMARK VINA RESULT:    -4.794      1.761      4.255
REMARK INTER + INTRA:          -5.584
REMARK INTER:                  -5.488
REMARK INTRA:                  -0.096
REMARK UNBOUND:                -0.090
REMARK SMILES COc1cc(C(=O)[O-])ccc1O
REMARK SMILES IDX 5 1 9 2 4 3 10 4 3 5 11 6 6 7 7 8 8 9 2 10 1 11 12 12
REMARK H PARENT 12 13
REMARK Flexibility Score: inf
ROOT
ATOM      1  C   UNL     1      64.099 -16.432 -16.615  1.00  0.00     0.001 A 
ATOM      2  C   UNL     1      64.342 -17.815 -16.648  1.00  0.00     0.014 A 
ATOM      3  C   UNL     1      65.131 -15.548 -16.977  1.00  0.00     0.060 A 
ATOM      4  C   UNL     1      65.591 -18.304 -17.034  1.00  0.00     0.051 A 
ATOM      5  C   UNL     1      66.394 -16.038 -17.369  1.00  0.00     0.161 A 
ATOM      6  C   UNL     1      66.616 -17.422 -17.395  1.00  0.00     0.157 A 
ENDROOT
BRANCH   1   7
ATOM      7  C   UNL     1      62.776 -15.909 -16.204  1.00  0.00     0.072 C 
ATOM      8  O   UNL     1      61.822 -15.865 -17.025  1.00  0.00    -0.545 OA
ATOM      9  O   UNL     1      62.569 -15.457 -14.906  1.00  0.00    -0.545 OA
ENDBRANCH   1   7
BRANCH   5  10
ATOM     10  O   UNL     1      67.446 -15.185 -17.737  1.00  0.00    -0.493 OA
ATOM     11  C   UNL     1      67.546 -14.520 -18.991  1.00  0.00     0.278 C 
ENDBRANCH   5  10
BRANCH   6  12
ATOM     12  O   UNL     1      67.862 -17.912 -17.781  1.00  0.00    -0.504 OA
ATOM     13  H   UNL     1      67.951 -18.653 -18.466  1.00  0.00     0.293 HD
ENDBRANCH   6  12
TORSDOF 3
ENDMDL
MODEL 6
REMARK VINA RESULT:    -4.753      2.725      4.156
REMARK INTER + INTRA:          -5.537
REMARK INTER:                  -5.441
REMARK INTRA:                  -0.096
REMARK UNBOUND:                -0.090
REMARK SMILES COc1cc(C(=O)[O-])ccc1O
REMARK SMILES IDX 5 1 9 2 4 3 10 4 3 5 11 6 6 7 7 8 8 9 2 10 1 11 12 12
REMARK H PARENT 12 13
REMARK Flexibility Score: inf
ROOT
ATOM      1  C   UNL     1      64.651 -16.132 -18.606  1.00  0.00     0.001 A 
ATOM      2  C   UNL     1      64.045 -16.924 -17.616  1.00  0.00     0.014 A 
ATOM      3  C   UNL     1      66.024 -16.292 -18.863  1.00  0.00     0.060 A 
ATOM      4  C   UNL     1      64.798 -17.855 -16.898  1.00  0.00     0.051 A 
ATOM      5  C   UNL     1      66.787 -17.232 -18.141  1.00  0.00     0.161 A 
ATOM      6  C   UNL     1      66.164 -18.012 -17.157  1.00  0.00     0.157 A 
ENDROOT
BRANCH   1   7
ATOM      7  C   UNL     1      63.857 -15.142 -19.368  1.00  0.00     0.072 C 
ATOM      8  O   UNL     1      64.352 -14.559 -20.369  1.00  0.00    -0.545 OA
ATOM      9  O   UNL     1      62.555 -14.840 -18.989  1.00  0.00    -0.545 OA
ENDBRANCH   1   7
BRANCH   5  10
ATOM     10  O   UNL     1      68.159 -17.418 -18.372  1.00  0.00    -0.493 OA
ATOM     11  C   UNL     1      69.141 -16.392 -18.274  1.00  0.00     0.278 C 
ENDBRANCH   5  10
BRANCH   6  12
ATOM     12  O   UNL     1      66.913 -18.943 -16.440  1.00  0.00    -0.504 OA
ATOM     13  H   UNL     1      66.833 -19.026 -15.434  1.00  0.00     0.293 HD
ENDBRANCH   6  12
TORSDOF 3
ENDMDL
MODEL 7
REMARK VINA RESULT:    -4.752      3.085      4.699
REMARK INTER + INTRA:          -5.537
REMARK INTER:                  -5.453
REMARK INTRA:                  -0.083
REMARK UNBOUND:                -0.090
REMARK SMILES COc1cc(C(=O)[O-])ccc1O
REMARK SMILES IDX 5 1 9 2 4 3 10 4 3 5 11 6 6 7 7 8 8 9 2 10 1 11 12 12
REMARK H PARENT 12 13
REMARK Flexibility Score: inf
ROOT
ATOM      1  C   UNL     1      67.373 -15.444 -20.308  1.00  0.00     0.001 A 
ATOM      2  C   UNL     1      68.718 -15.312 -19.924  1.00  0.00     0.014 A 
ATOM      3  C   UNL     1      66.520 -16.260 -19.544  1.00  0.00     0.060 A 
ATOM      4  C   UNL     1      69.199 -15.981 -18.797  1.00  0.00     0.051 A 
ATOM      5  C   UNL     1      67.003 -16.937 -18.405  1.00  0.00     0.161 A 
ATOM      6  C   UNL     1      68.348 -16.792 -18.038  1.00  0.00     0.157 A 
ENDROOT
BRANCH   1   7
ATOM      7  C   UNL     1      66.858 -14.737 -21.503  1.00  0.00     0.072 C 
ATOM      8  O   UNL     1      65.779 -15.096 -22.044  1.00  0.00    -0.545 OA
ATOM      9  O   UNL     1      67.561 -13.667 -22.046  1.00  0.00    -0.545 OA
ENDBRANCH   1   7
BRANCH   5  10
ATOM     10  O   UNL     1      66.180 -17.759 -17.618  1.00  0.00    -0.493 OA
ATOM     11  C   UNL     1      64.766 -17.629 -17.521  1.00  0.00     0.278 C 
ENDBRANCH   5  10
BRANCH   6  12
ATOM     12  O   UNL     1      68.831 -17.459 -16.913  1.00  0.00    -0.504 OA
ATOM     13  H   UNL     1      69.688 -17.998 -16.944  1.00  0.00     0.293 HD
ENDBRANCH   6  12
TORSDOF 3
ENDMDL
MODEL 8
REMARK VINA RESULT:    -4.748      4.464      5.990
REMARK INTER + INTRA:          -5.531
REMARK INTER:                  -5.444
REMARK INTRA:                  -0.087
REMARK UNBOUND:                -0.090
REMARK SMILES COc1cc(C(=O)[O-])ccc1O
REMARK SMILES IDX 5 1 9 2 4 3 10 4 3 5 11 6 6 7 7 8 8 9 2 10 1 11 12 12
REMARK H PARENT 12 13
REMARK Flexibility Score: inf
ROOT
ATOM      1  C   UNL     1      68.758 -14.490 -20.641  1.00  0.00     0.001 A 
ATOM      2  C   UNL     1      67.766 -13.534 -20.364  1.00  0.00     0.014 A 
ATOM      3  C   UNL     1      69.076 -15.448 -19.662  1.00  0.00     0.060 A 
ATOM      4  C   UNL     1      67.106 -13.536 -19.134  1.00  0.00     0.051 A 
ATOM      5  C   UNL     1      68.411 -15.454 -18.419  1.00  0.00     0.161 A 
ATOM      6  C   UNL     1      67.424 -14.492 -18.162  1.00  0.00     0.157 A 
ENDROOT
BRANCH   1   7
ATOM      7  C   UNL     1      69.461 -14.489 -21.944  1.00  0.00     0.072 C 
ATOM      8  O   UNL     1      68.849 -14.794 -23.001  1.00  0.00    -0.545 OA
ATOM      9  O   UNL     1      70.808 -14.155 -22.018  1.00  0.00    -0.545 OA
ENDBRANCH   1   7
BRANCH   5  10
ATOM     10  O   UNL     1      68.702 -16.395 -17.419  1.00  0.00    -0.493 OA
ATOM     11  C   UNL     1      70.008 -16.666 -16.920  1.00  0.00     0.278 C 
ENDBRANCH   5  10
BRANCH   6  12
ATOM     12  O   UNL     1      66.764 -14.493 -16.935  1.00  0.00    -0.504 OA
ATOM     13  H   UNL     1      66.469 -13.632 -16.491  1.00  0.00     0.293 HD
ENDBRANCH   6  12
TORSDOF 3
ENDMDL
MODEL 9
REMARK VINA RESULT:    -4.671      3.104      6.078
REMARK INTER + INTRA:          -5.444
REMARK INTER:                  -5.361
REMARK INTRA:                  -0.083
REMARK UNBOUND:                -0.090
REMARK SMILES COc1cc(C(=O)[O-])ccc1O
REMARK SMILES IDX 5 1 9 2 4 3 10 4 3 5 11 6 6 7 7 8 8 9 2 10 1 11 12 12
REMARK H PARENT 12 13
REMARK Flexibility Score: inf
ROOT
ATOM      1  C   UNL     1      66.790 -16.730 -18.406  1.00  0.00     0.001 A 
ATOM      2  C   UNL     1      68.111 -16.758 -17.929  1.00  0.00     0.014 A 
ATOM      3  C   UNL     1      66.494 -15.979 -19.556  1.00  0.00     0.060 A 
ATOM      4  C   UNL     1      69.116 -16.048 -18.589  1.00  0.00     0.051 A 
ATOM      5  C   UNL     1      67.506 -15.261 -20.226  1.00  0.00     0.161 A 
ATOM      6  C   UNL     1      68.818 -15.301 -19.735  1.00  0.00     0.157 A 
ENDROOT
BRANCH   1   7
ATOM      7  C   UNL     1      65.722 -17.481 -17.707  1.00  0.00     0.072 C 
ATOM      8  O   UNL     1      66.009 -18.426 -16.926  1.00  0.00    -0.545 OA
ATOM      9  O   UNL     1      64.386 -17.155 -17.906  1.00  0.00    -0.545 OA
ENDBRANCH   1   7
BRANCH   5  10
ATOM     10  O   UNL     1      67.247 -14.500 -21.378  1.00  0.00    -0.493 OA
ATOM     11  C   UNL     1      66.150 -14.717 -22.259  1.00  0.00     0.278 C 
ENDBRANCH   5  10
BRANCH   6  12
ATOM     12  O   UNL     1      69.822 -14.593 -20.393  1.00  0.00    -0.504 OA
ATOM     13  H   UNL     1      70.743 -14.990 -20.538  1.00  0.00     0.293 HD
ENDBRANCH   6  12
TORSDOF 3
ENDMDL
