MODEL 1
REMARK VINA RESULT:    -5.155      0.000      0.000
REMARK INTER + INTRA:          -5.703
REMARK INTER:                  -5.607
REMARK INTRA:                  -0.095
REMARK UNBOUND:                -0.095
REMARK SMILES C=C(C)[C@H]1CC=C(C)[C@@H](O)C1
REMARK SMILES IDX 8 1 7 2 6 3 5 4 4 5 11 6 9 7 10 8 2 10 1 11 3 12
REMARK H PARENT 10 9
REMARK Flexibility Score: inf
ROOT
ATOM      1  C   UNL     1     111.638 120.113 121.933  1.00  0.00     0.042 C 
ATOM      2  C   UNL     1     112.155 119.788 123.310  1.00  0.00    -0.049 C 
ATOM      3  C   UNL     1     111.614 118.743 123.972  1.00  0.00    -0.025 C 
ATOM      4  C   UNL     1     112.051 118.329 125.355  1.00  0.00     0.035 C 
ATOM      5  C   UNL     1     113.486 118.785 125.663  1.00  0.00     0.021 C 
ATOM      6  C   UNL     1     113.631 120.279 125.345  1.00  0.00     0.044 C 
ATOM      7  C   UNL     1     113.370 120.539 123.848  1.00  0.00     0.140 C 
ENDROOT
BRANCH   7   8
ATOM      8  O   UNL     1     113.253 121.920 123.614  1.00  0.00    -0.389 OA
ATOM      9  H   UNL     1     112.740 122.037 122.772  1.00  0.00     0.211 HD
ENDBRANCH   7   8
BRANCH   5  10
ATOM     10  C   UNL     1     113.867 118.479 127.105  1.00  0.00    -0.077 C 
ATOM     11  C   UNL     1     113.168 119.021 128.115  1.00  0.00     0.008 C 
ATOM     12  C   UNL     1     115.030 117.577 127.439  1.00  0.00     0.039 C 
ENDBRANCH   5  10
TORSDOF 2
ENDMDL
MODEL 2
REMARK VINA RESULT:    -4.990      1.925      2.921
REMARK INTER + INTRA:          -5.523
REMARK INTER:                  -5.428
REMARK INTRA:                  -0.095
REMARK UNBOUND:                -0.095
REMARK SMILES C=C(C)[C@H]1CC=C(C)[C@@H](O)C1
REMARK SMILES IDX 8 1 7 2 6 3 5 4 4 5 11 6 9 7 10 8 2 10 1 11 3 12
REMARK H PARENT 10 9
REMARK Flexibility Score: inf
ROOT
ATOM      1  C   UNL     1     112.181 120.240 123.689  1.00  0.00     0.042 C 
ATOM      2  C   UNL     1     113.116 119.645 124.710  1.00  0.00    -0.049 C 
ATOM      3  C   UNL     1     114.415 120.015 124.688  1.00  0.00    -0.025 C 
ATOM      4  C   UNL     1     115.439 119.481 125.658  1.00  0.00     0.035 C 
ATOM      5  C   UNL     1     114.791 118.991 126.964  1.00  0.00     0.021 C 
ATOM      6  C   UNL     1     113.632 118.039 126.638  1.00  0.00     0.044 C 
ATOM      7  C   UNL     1     112.546 118.773 125.825  1.00  0.00     0.140 C 
ENDROOT
BRANCH   7   8
ATOM      8  O   UNL     1     111.621 117.845 125.317  1.00  0.00    -0.389 OA
ATOM      9  H   UNL     1     111.265 118.214 124.466  1.00  0.00     0.211 HD
ENDBRANCH   7   8
BRANCH   5  10
ATOM     10  C   UNL     1     115.816 118.333 127.877  1.00  0.00    -0.077 C 
ATOM     11  C   UNL     1     116.293 117.113 127.586  1.00  0.00     0.008 C 
ATOM     12  C   UNL     1     116.316 119.021 129.125  1.00  0.00     0.039 C 
ENDBRANCH   5  10
TORSDOF 2
ENDMDL
MODEL 3
REMARK VINA RESULT:    -4.909     16.079     16.885
REMARK INTER + INTRA:          -5.434
REMARK INTER:                  -5.337
REMARK INTRA:                  -0.097
REMARK UNBOUND:                -0.095
REMARK SMILES C=C(C)[C@H]1CC=C(C)[C@@H](O)C1
REMARK SMILES IDX 8 1 7 2 6 3 5 4 4 5 11 6 9 7 10 8 2 10 1 11 3 12
REMARK H PARENT 10 9
REMARK Flexibility Score: inf
ROOT
ATOM      1  C   UNL     1     122.467 120.424 111.550  1.00  0.00     0.042 C 
ATOM      2  C   UNL     1     123.667 120.645 112.434  1.00  0.00    -0.049 C 
ATOM      3  C   UNL     1     124.381 121.782 112.281  1.00  0.00    -0.025 C 
ATOM      4  C   UNL     1     125.600 122.106 113.107  1.00  0.00     0.035 C 
ATOM      5  C   UNL     1     125.590 121.370 114.457  1.00  0.00     0.021 C 
ATOM      6  C   UNL     1     125.328 119.876 114.227  1.00  0.00     0.044 C 
ATOM      7  C   UNL     1     123.948 119.667 113.571  1.00  0.00     0.140 C 
ENDROOT
BRANCH   7   8
ATOM      8  O   UNL     1     123.822 118.337 113.134  1.00  0.00    -0.389 OA
ATOM      9  H   UNL     1     123.441 118.359 112.217  1.00  0.00     0.211 HD
ENDBRANCH   7   8
BRANCH   5  10
ATOM     10  C   UNL     1     126.886 121.600 115.222  1.00  0.00    -0.077 C 
ATOM     11  C   UNL     1     127.451 120.593 115.907  1.00  0.00     0.008 C 
ATOM     12  C   UNL     1     127.562 122.950 115.241  1.00  0.00     0.039 C 
ENDBRANCH   5  10
TORSDOF 2
ENDMDL
MODEL 4
REMARK VINA RESULT:    -4.891      1.597      4.430
REMARK INTER + INTRA:          -5.416
REMARK INTER:                  -5.318
REMARK INTRA:                  -0.098
REMARK UNBOUND:                -0.095
REMARK SMILES C=C(C)[C@H]1CC=C(C)[C@@H](O)C1
REMARK SMILES IDX 8 1 7 2 6 3 5 4 4 5 11 6 9 7 10 8 2 10 1 11 3 12
REMARK H PARENT 10 9
REMARK Flexibility Score: inf
ROOT
ATOM      1  C   UNL     1     113.845 118.314 127.503  1.00  0.00     0.042 C 
ATOM      2  C   UNL     1     113.541 118.801 126.110  1.00  0.00    -0.049 C 
ATOM      3  C   UNL     1     112.303 118.595 125.611  1.00  0.00    -0.025 C 
ATOM      4  C   UNL     1     111.889 119.036 124.230  1.00  0.00     0.035 C 
ATOM      5  C   UNL     1     112.749 120.204 123.719  1.00  0.00     0.021 C 
ATOM      6  C   UNL     1     114.235 119.859 123.883  1.00  0.00     0.044 C 
ATOM      7  C   UNL     1     114.576 119.644 125.372  1.00  0.00     0.140 C 
ENDROOT
BRANCH   7   8
ATOM      8  O   UNL     1     115.860 119.086 125.492  1.00  0.00    -0.389 OA
ATOM      9  H   UNL     1     116.394 119.689 126.074  1.00  0.00     0.211 HD
ENDBRANCH   7   8
BRANCH   5  10
ATOM     10  C   UNL     1     112.411 120.551 122.276  1.00  0.00    -0.077 C 
ATOM     11  C   UNL     1     111.290 120.072 121.714  1.00  0.00     0.008 C 
ATOM     12  C   UNL     1     113.315 121.427 121.442  1.00  0.00     0.039 C 
ENDBRANCH   5  10
TORSDOF 2
ENDMDL
MODEL 5
REMARK VINA RESULT:    -4.813     15.605     16.866
REMARK INTER + INTRA:          -5.331
REMARK INTER:                  -5.232
REMARK INTRA:                  -0.098
REMARK UNBOUND:                -0.095
REMARK SMILES C=C(C)[C@H]1CC=C(C)[C@@H](O)C1
REMARK SMILES IDX 8 1 7 2 6 3 5 4 4 5 11 6 9 7 10 8 2 10 1 11 3 12
REMARK H PARENT 10 9
REMARK Flexibility Score: inf
ROOT
ATOM      1  C   UNL     1     127.561 122.091 115.248  1.00  0.00     0.042 C 
ATOM      2  C   UNL     1     126.316 121.569 114.580  1.00  0.00    -0.049 C 
ATOM      3  C   UNL     1     125.863 122.200 113.475  1.00  0.00    -0.025 C 
ATOM      4  C   UNL     1     124.626 121.768 112.728  1.00  0.00     0.035 C 
ATOM      5  C   UNL     1     124.307 120.281 112.960  1.00  0.00     0.021 C 
ATOM      6  C   UNL     1     124.307 119.984 114.466  1.00  0.00     0.044 C 
ATOM      7  C   UNL     1     125.698 120.263 115.070  1.00  0.00     0.140 C 
ENDROOT
BRANCH   7   8
ATOM      8  O   UNL     1     125.624 120.235 116.473  1.00  0.00    -0.389 OA
ATOM      9  H   UNL     1     125.231 119.360 116.733  1.00  0.00     0.211 HD
ENDBRANCH   7   8
BRANCH   5  10
ATOM     10  C   UNL     1     122.986 119.891 112.311  1.00  0.00    -0.077 C 
ATOM     11  C   UNL     1     122.341 120.764 111.521  1.00  0.00     0.008 C 
ATOM     12  C   UNL     1     122.368 118.533 112.538  1.00  0.00     0.039 C 
ENDBRANCH   5  10
TORSDOF 2
ENDMDL
MODEL 6
REMARK VINA RESULT:    -4.679      1.811      4.978
REMARK INTER + INTRA:          -5.185
REMARK INTER:                  -5.088
REMARK INTRA:                  -0.097
REMARK UNBOUND:                -0.095
REMARK SMILES C=C(C)[C@H]1CC=C(C)[C@@H](O)C1
REMARK SMILES IDX 8 1 7 2 6 3 5 4 4 5 11 6 9 7 10 8 2 10 1 11 3 12
REMARK H PARENT 10 9
REMARK Flexibility Score: inf
ROOT
ATOM      1  C   UNL     1     113.620 119.024 126.820  1.00  0.00     0.042 C 
ATOM      2  C   UNL     1     113.160 119.541 125.482  1.00  0.00    -0.049 C 
ATOM      3  C   UNL     1     113.616 120.741 125.061  1.00  0.00    -0.025 C 
ATOM      4  C   UNL     1     113.220 121.357 123.743  1.00  0.00     0.035 C 
ATOM      5  C   UNL     1     112.775 120.294 122.725  1.00  0.00     0.021 C 
ATOM      6  C   UNL     1     111.727 119.374 123.365  1.00  0.00     0.044 C 
ATOM      7  C   UNL     1     112.327 118.636 124.578  1.00  0.00     0.140 C 
ENDROOT
BRANCH   7   8
ATOM      8  O   UNL     1     111.306 117.999 125.305  1.00  0.00    -0.389 OA
ATOM      9  H   UNL     1     111.011 118.627 126.016  1.00  0.00     0.211 HD
ENDBRANCH   7   8
BRANCH   5  10
ATOM     10  C   UNL     1     112.252 120.936 121.447  1.00  0.00    -0.077 C 
ATOM     11  C   UNL     1     111.170 120.430 120.834  1.00  0.00     0.008 C 
ATOM     12  C   UNL     1     112.929 122.138 120.835  1.00  0.00     0.039 C 
ENDBRANCH   5  10
TORSDOF 2
ENDMDL
MODEL 7
REMARK VINA RESULT:    -4.532     14.716     16.101
REMARK INTER + INTRA:          -5.025
REMARK INTER:                  -4.930
REMARK INTRA:                  -0.095
REMARK UNBOUND:                -0.095
REMARK SMILES C=C(C)[C@H]1CC=C(C)[C@@H](O)C1
REMARK SMILES IDX 8 1 7 2 6 3 5 4 4 5 11 6 9 7 10 8 2 10 1 11 3 12
REMARK H PARENT 10 9
REMARK Flexibility Score: inf
ROOT
ATOM      1  C   UNL     1     125.501 122.114 112.579  1.00  0.00     0.042 C 
ATOM      2  C   UNL     1     124.471 121.032 112.771  1.00  0.00    -0.049 C 
ATOM      3  C   UNL     1     123.424 120.979 111.919  1.00  0.00    -0.025 C 
ATOM      4  C   UNL     1     122.334 119.943 112.018  1.00  0.00     0.035 C 
ATOM      5  C   UNL     1     122.814 118.672 112.740  1.00  0.00     0.021 C 
ATOM      6  C   UNL     1     123.482 119.056 114.067  1.00  0.00     0.044 C 
ATOM      7  C   UNL     1     124.717 119.942 113.810  1.00  0.00     0.140 C 
ENDROOT
BRANCH   7   8
ATOM      8  O   UNL     1     125.170 120.494 115.022  1.00  0.00    -0.389 OA
ATOM      9  H   UNL     1     125.030 119.811 115.730  1.00  0.00     0.211 HD
ENDBRANCH   7   8
BRANCH   5  10
ATOM     10  C   UNL     1     121.670 117.690 112.951  1.00  0.00    -0.077 C 
ATOM     11  C   UNL     1     120.649 118.011 113.761  1.00  0.00     0.008 C 
ATOM     12  C   UNL     1     121.653 116.342 112.272  1.00  0.00     0.039 C 
ENDBRANCH   5  10
TORSDOF 2
ENDMDL
MODEL 8
REMARK VINA RESULT:    -4.452     14.799     16.035
REMARK INTER + INTRA:          -4.938
REMARK INTER:                  -4.843
REMARK INTRA:                  -0.095
REMARK UNBOUND:                -0.095
REMARK SMILES C=C(C)[C@H]1CC=C(C)[C@@H](O)C1
REMARK SMILES IDX 8 1 7 2 6 3 5 4 4 5 11 6 9 7 10 8 2 10 1 11 3 12
REMARK H PARENT 10 9
REMARK Flexibility Score: inf
ROOT
ATOM      1  C   UNL     1     121.031 118.127 113.371  1.00  0.00     0.042 C 
ATOM      2  C   UNL     1     122.223 119.032 113.550  1.00  0.00    -0.049 C 
ATOM      3  C   UNL     1     122.828 119.070 114.757  1.00  0.00    -0.025 C 
ATOM      4  C   UNL     1     124.024 119.940 115.051  1.00  0.00     0.035 C 
ATOM      5  C   UNL     1     124.811 120.282 113.775  1.00  0.00     0.021 C 
ATOM      6  C   UNL     1     123.851 120.820 112.706  1.00  0.00     0.044 C 
ATOM      7  C   UNL     1     122.804 119.750 112.336  1.00  0.00     0.140 C 
ENDROOT
BRANCH   7   8
ATOM      8  O   UNL     1     121.786 120.326 111.556  1.00  0.00    -0.389 OA
ATOM      9  H   UNL     1     121.184 120.822 112.171  1.00  0.00     0.211 HD
ENDBRANCH   7   8
BRANCH   5  10
ATOM     10  C   UNL     1     125.936 121.267 114.065  1.00  0.00    -0.077 C 
ATOM     11  C   UNL     1     125.789 122.565 113.755  1.00  0.00     0.008 C 
ATOM     12  C   UNL     1     127.233 120.820 114.693  1.00  0.00     0.039 C 
ENDBRANCH   5  10
TORSDOF 2
ENDMDL
MODEL 9
REMARK VINA RESULT:    -4.446      1.849      4.656
REMARK INTER + INTRA:          -4.932
REMARK INTER:                  -4.838
REMARK INTRA:                  -0.094
REMARK UNBOUND:                -0.095
REMARK SMILES C=C(C)[C@H]1CC=C(C)[C@@H](O)C1
REMARK SMILES IDX 8 1 7 2 6 3 5 4 4 5 11 6 9 7 10 8 2 10 1 11 3 12
REMARK H PARENT 10 9
REMARK Flexibility Score: inf
ROOT
ATOM      1  C   UNL     1     114.744 118.413 127.579  1.00  0.00     0.042 C 
ATOM      2  C   UNL     1     114.176 119.044 126.334  1.00  0.00    -0.049 C 
ATOM      3  C   UNL     1     115.031 119.470 125.379  1.00  0.00    -0.025 C 
ATOM      4  C   UNL     1     114.575 120.118 124.096  1.00  0.00     0.035 C 
ATOM      5  C   UNL     1     113.137 119.714 123.730  1.00  0.00     0.021 C 
ATOM      6  C   UNL     1     112.218 119.928 124.940  1.00  0.00     0.044 C 
ATOM      7  C   UNL     1     112.666 119.040 126.119  1.00  0.00     0.140 C 
ENDROOT
BRANCH   7   8
ATOM      8  O   UNL     1     111.988 119.422 127.289  1.00  0.00    -0.389 OA
ATOM      9  H   UNL     1     112.612 119.292 128.051  1.00  0.00     0.211 HD
ENDBRANCH   7   8
BRANCH   5  10
ATOM     10  C   UNL     1     112.642 120.477 122.508  1.00  0.00    -0.077 C 
ATOM     11  C   UNL     1     111.511 120.099 121.892  1.00  0.00     0.008 C 
ATOM     12  C   UNL     1     113.400 121.660 121.957  1.00  0.00     0.039 C 
ENDBRANCH   5  10
TORSDOF 2
ENDMDL
