MODEL 1
REMARK VINA RESULT:    -5.316      0.000      0.000
REMARK INTER + INTRA:          -8.097
REMARK INTER:                  -7.335
REMARK INTRA:                  -0.762
REMARK UNBOUND:                -0.762
REMARK SMILES O=C([O-])[C@@H]1O[C@@H](Oc2cc3oc(-c4ccccc4)cc(=O)c3c(O)c2O)[C@@H](O)[C@@H](O)[C@@H]1O
REMARK SMILES IDX 7 1 6 2 4 3 31 4 5 5 29 6 27 7 2 8 1 9 3 10 32 11 30 13
REMARK SMILES IDX 28 15 8 17 25 18 9 19 23 20 10 21 22 22 11 23 20 24 12 25
REMARK SMILES IDX 19 26 21 27 26 28 24 30 13 32 14 33 18 34 15 35 17 36 16 37
REMARK H PARENT 32 12 30 14 28 16 26 29 24 31
REMARK Flexibility Score: inf
ROOT
ATOM      1  O   UNL     1     -15.133  -8.548  -5.869  1.00  0.00    -0.458 OA
ENDROOT
BRANCH   1   2
ATOM      2  C   UNL     1     -15.609  -7.381  -6.553  1.00  0.00     0.339 C 
ATOM      3  C   UNL     1     -16.255  -6.350  -4.545  1.00  0.00     0.199 C 
ATOM      4  C   UNL     1     -17.762  -6.372  -4.881  1.00  0.00     0.180 C 
ATOM      5  O   UNL     1     -15.473  -6.238  -5.724  1.00  0.00    -0.328 OA
ATOM      6  C   UNL     1     -18.081  -7.513  -5.874  1.00  0.00     0.181 C 
ATOM      7  C   UNL     1     -17.073  -7.533  -7.041  1.00  0.00     0.214 C 
BRANCH   3   8
ATOM      8  C   UNL     1     -15.944  -5.191  -3.643  1.00  0.00     0.073 C 
ATOM      9  O   UNL     1     -15.722  -5.386  -2.418  1.00  0.00    -0.547 OA
ATOM     10  O   UNL     1     -15.952  -3.893  -4.139  1.00  0.00    -0.547 OA
ENDBRANCH   3   8
BRANCH   4  11
ATOM     11  O   UNL     1     -18.134  -5.139  -5.448  1.00  0.00    -0.387 OA
ATOM     12  H   UNL     1     -18.543  -5.340  -6.331  1.00  0.00     0.211 HD
ENDBRANCH   4  11
BRANCH   6  13
ATOM     13  O   UNL     1     -18.168  -8.761  -5.227  1.00  0.00    -0.387 OA
ATOM     14  H   UNL     1     -17.452  -9.349  -5.574  1.00  0.00     0.211 HD
ENDBRANCH   6  13
BRANCH   7  15
ATOM     15  O   UNL     1     -17.241  -8.710  -7.790  1.00  0.00    -0.384 OA
ATOM     16  H   UNL     1     -16.927  -8.512  -8.711  1.00  0.00     0.211 HD
ENDBRANCH   7  15
ENDBRANCH   1   2
BRANCH   1  17
ATOM     17  C   UNL     1     -14.024  -8.634  -5.007  1.00  0.00     0.172 A 
ATOM     18  C   UNL     1     -12.748  -8.655  -5.587  1.00  0.00     0.201 A 
ATOM     19  C   UNL     1     -14.157  -8.714  -3.612  1.00  0.00     0.098 A 
ATOM     20  C   UNL     1     -11.591  -8.739  -4.771  1.00  0.00     0.176 A 
ATOM     21  C   UNL     1     -13.030  -8.797  -2.795  1.00  0.00     0.146 A 
ATOM     22  C   UNL     1     -11.737  -8.808  -3.363  1.00  0.00     0.111 A 
ATOM     23  O   UNL     1     -13.194  -8.865  -1.479  1.00  0.00    -0.456 OA
ATOM     24  C   UNL     1     -10.640  -8.886  -2.477  1.00  0.00     0.197 A 
ATOM     25  C   UNL     1     -12.184  -8.950  -0.617  1.00  0.00     0.138 A 
ATOM     26  C   UNL     1     -10.866  -8.955  -1.101  1.00  0.00     0.100 A 
ATOM     27  O   UNL     1      -9.452  -8.891  -2.896  1.00  0.00    -0.289 OA
BRANCH  18  28
ATOM     28  O   UNL     1     -12.676  -8.585  -6.982  1.00  0.00    -0.502 OA
ATOM     29  H   UNL     1     -12.379  -7.773  -7.501  1.00  0.00     0.293 HD
ENDBRANCH  18  28
BRANCH  20  30
ATOM     30  O   UNL     1     -10.306  -8.756  -5.324  1.00  0.00    -0.504 OA
ATOM     31  H   UNL     1      -9.549  -9.341  -5.004  1.00  0.00     0.293 HD
ENDBRANCH  20  30
BRANCH  25  32
ATOM     32  C   UNL     1     -12.487  -9.020   0.834  1.00  0.00     0.017 A 
ATOM     33  C   UNL     1     -13.812  -9.008   1.317  1.00  0.00     0.012 A 
ATOM     34  C   UNL     1     -11.429  -9.067   1.762  1.00  0.00     0.012 A 
ATOM     35  C   UNL     1     -14.066  -9.065   2.691  1.00  0.00     0.001 A 
ATOM     36  C   UNL     1     -11.690  -9.124   3.134  1.00  0.00     0.001 A 
ATOM     37  C   UNL     1     -13.007  -9.125   3.598  1.00  0.00     0.000 A 
ENDBRANCH  25  32
ENDBRANCH   1  17
TORSDOF 9
ENDMDL
MODEL 2
REMARK VINA RESULT:    -5.115      1.760      3.428
REMARK INTER + INTRA:          -7.820
REMARK INTER:                  -6.451
REMARK INTRA:                  -1.369
REMARK UNBOUND:                -0.762
REMARK SMILES O=C([O-])[C@@H]1O[C@@H](Oc2cc3oc(-c4ccccc4)cc(=O)c3c(O)c2O)[C@@H](O)[C@@H](O)[C@@H]1O
REMARK SMILES IDX 7 1 6 2 4 3 31 4 5 5 29 6 27 7 2 8 1 9 3 10 32 11 30 13
REMARK SMILES IDX 28 15 8 17 25 18 9 19 23 20 10 21 22 22 11 23 20 24 12 25
REMARK SMILES IDX 19 26 21 27 26 28 24 30 13 32 14 33 18 34 15 35 17 36 16 37
REMARK H PARENT 32 12 30 14 28 16 26 29 24 31
REMARK Flexibility Score: inf
ROOT
ATOM      1  O   UNL     1     -15.771  -7.733  -3.666  1.00  0.00    -0.458 OA
ENDROOT
BRANCH   1   2
ATOM      2  C   UNL     1     -16.481  -8.663  -4.496  1.00  0.00     0.339 C 
ATOM      3  C   UNL     1     -15.697  -7.652  -6.464  1.00  0.00     0.199 C 
ATOM      4  C   UNL     1     -17.094  -7.175  -6.916  1.00  0.00     0.180 C 
ATOM      5  O   UNL     1     -15.788  -8.856  -5.719  1.00  0.00    -0.328 OA
ATOM      6  C   UNL     1     -18.030  -7.007  -5.698  1.00  0.00     0.181 C 
ATOM      7  C   UNL     1     -17.946  -8.227  -4.759  1.00  0.00     0.214 C 
BRANCH   3   8
ATOM      8  C   UNL     1     -14.820  -7.886  -7.660  1.00  0.00     0.073 C 
ATOM      9  O   UNL     1     -15.086  -7.328  -8.758  1.00  0.00    -0.547 OA
ATOM     10  O   UNL     1     -13.742  -8.760  -7.581  1.00  0.00    -0.547 OA
ENDBRANCH   3   8
BRANCH   4  11
ATOM     11  O   UNL     1     -17.646  -8.113  -7.807  1.00  0.00    -0.387 OA
ATOM     12  H   UNL     1     -16.885  -8.570  -8.252  1.00  0.00     0.211 HD
ENDBRANCH   4  11
BRANCH   6  13
ATOM     13  O   UNL     1     -17.794  -5.797  -5.017  1.00  0.00    -0.387 OA
ATOM     14  H   UNL     1     -18.110  -5.891  -4.084  1.00  0.00     0.211 HD
ENDBRANCH   6  13
BRANCH   7  15
ATOM     15  O   UNL     1     -18.617  -7.947  -3.557  1.00  0.00    -0.384 OA
ATOM     16  H   UNL     1     -17.993  -7.419  -2.994  1.00  0.00     0.211 HD
ENDBRANCH   7  15
ENDBRANCH   1   2
BRANCH   1  17
ATOM     17  C   UNL     1     -14.824  -8.035  -2.670  1.00  0.00     0.172 A 
ATOM     18  C   UNL     1     -13.497  -8.239  -3.072  1.00  0.00     0.201 A 
ATOM     19  C   UNL     1     -15.166  -8.152  -1.314  1.00  0.00     0.098 A 
ATOM     20  C   UNL     1     -12.496  -8.546  -2.115  1.00  0.00     0.176 A 
ATOM     21  C   UNL     1     -14.195  -8.452  -0.360  1.00  0.00     0.146 A 
ATOM     22  C   UNL     1     -12.851  -8.650  -0.747  1.00  0.00     0.111 A 
ATOM     23  O   UNL     1     -14.555  -8.549   0.916  1.00  0.00    -0.456 OA
ATOM     24  C   UNL     1     -11.919  -8.944   0.272  1.00  0.00     0.197 A 
ATOM     25  C   UNL     1     -13.704  -8.835   1.898  1.00  0.00     0.138 A 
ATOM     26  C   UNL     1     -12.348  -9.033   1.597  1.00  0.00     0.100 A 
ATOM     27  O   UNL     1     -10.698  -9.124   0.017  1.00  0.00    -0.289 OA
BRANCH  18  28
ATOM     28  O   UNL     1     -13.216  -8.122  -4.438  1.00  0.00    -0.502 OA
ATOM     29  H   UNL     1     -13.913  -8.068  -5.164  1.00  0.00     0.293 HD
ENDBRANCH  18  28
BRANCH  20  30
ATOM     30  O   UNL     1     -11.164  -8.749  -2.491  1.00  0.00    -0.504 OA
ATOM     31  H   UNL     1     -10.436  -9.077  -1.874  1.00  0.00     0.293 HD
ENDBRANCH  20  30
BRANCH  25  32
ATOM     32  C   UNL     1     -14.220  -8.915   3.287  1.00  0.00     0.017 A 
ATOM     33  C   UNL     1     -13.355  -8.907   4.402  1.00  0.00     0.012 A 
ATOM     34  C   UNL     1     -15.605  -9.034   3.507  1.00  0.00     0.012 A 
ATOM     35  C   UNL     1     -13.870  -8.995   5.699  1.00  0.00     0.001 A 
ATOM     36  C   UNL     1     -16.113  -9.121   4.806  1.00  0.00     0.001 A 
ATOM     37  C   UNL     1     -15.247  -9.099   5.901  1.00  0.00     0.000 A 
ENDBRANCH  25  32
ENDBRANCH   1  17
TORSDOF 9
ENDMDL
MODEL 3
REMARK VINA RESULT:    -4.145      3.778      8.217
REMARK INTER + INTRA:          -6.482
REMARK INTER:                  -5.369
REMARK INTRA:                  -1.113
REMARK UNBOUND:                -0.762
REMARK SMILES O=C([O-])[C@@H]1O[C@@H](Oc2cc3oc(-c4ccccc4)cc(=O)c3c(O)c2O)[C@@H](O)[C@@H](O)[C@@H]1O
REMARK SMILES IDX 7 1 6 2 4 3 31 4 5 5 29 6 27 7 2 8 1 9 3 10 32 11 30 13
REMARK SMILES IDX 28 15 8 17 25 18 9 19 23 20 10 21 22 22 11 23 20 24 12 25
REMARK SMILES IDX 19 26 21 27 26 28 24 30 13 32 14 33 18 34 15 35 17 36 16 37
REMARK H PARENT 32 12 30 14 28 16 26 29 24 31
REMARK Flexibility Score: inf
ROOT
ATOM      1  O   UNL     1      -8.731  -7.450  -6.295  1.00  0.00    -0.458 OA
ENDROOT
BRANCH   1   2
ATOM      2  C   UNL     1      -8.219  -6.134  -6.553  1.00  0.00     0.339 C 
ATOM      3  C   UNL     1      -7.661  -6.682  -8.767  1.00  0.00     0.199 C 
ATOM      4  C   UNL     1      -6.140  -6.530  -8.546  1.00  0.00     0.180 C 
ATOM      5  O   UNL     1      -8.387  -5.803  -7.922  1.00  0.00    -0.328 OA
ATOM      6  C   UNL     1      -5.781  -6.760  -7.060  1.00  0.00     0.181 C 
ATOM      7  C   UNL     1      -6.734  -5.982  -6.131  1.00  0.00     0.214 C 
BRANCH   3   8
ATOM      8  C   UNL     1      -8.007  -6.380 -10.196  1.00  0.00     0.073 C 
ATOM      9  O   UNL     1      -7.152  -6.553 -11.104  1.00  0.00    -0.547 OA
ATOM     10  O   UNL     1      -9.254  -5.858 -10.521  1.00  0.00    -0.547 OA
ENDBRANCH   3   8
BRANCH   4  11
ATOM     11  O   UNL     1      -5.737  -5.239  -8.931  1.00  0.00    -0.387 OA
ATOM     12  H   UNL     1      -5.179  -4.879  -8.193  1.00  0.00     0.211 HD
ENDBRANCH   4  11
BRANCH   6  13
ATOM     13  O   UNL     1      -5.730  -8.131  -6.739  1.00  0.00    -0.387 OA
ATOM     14  H   UNL     1      -6.218  -8.277  -5.891  1.00  0.00     0.211 HD
ENDBRANCH   6  13
BRANCH   7  15
ATOM     15  O   UNL     1      -6.538  -6.392  -4.801  1.00  0.00    -0.384 OA
ATOM     16  H   UNL     1      -6.425  -5.568  -4.259  1.00  0.00     0.211 HD
ENDBRANCH   7  15
ENDBRANCH   1   2
BRANCH   1  17
ATOM     17  C   UNL     1      -9.793  -7.794  -5.439  1.00  0.00     0.172 A 
ATOM     18  C   UNL     1      -9.481  -8.120  -4.112  1.00  0.00     0.201 A 
ATOM     19  C   UNL     1     -11.128  -7.836  -5.871  1.00  0.00     0.098 A 
ATOM     20  C   UNL     1     -10.508  -8.475  -3.200  1.00  0.00     0.176 A 
ATOM     21  C   UNL     1     -12.150  -8.182  -4.988  1.00  0.00     0.146 A 
ATOM     22  C   UNL     1     -11.853  -8.502  -3.644  1.00  0.00     0.111 A 
ATOM     23  O   UNL     1     -13.402  -8.204  -5.431  1.00  0.00    -0.456 OA
ATOM     24  C   UNL     1     -12.937  -8.836  -2.803  1.00  0.00     0.197 A 
ATOM     25  C   UNL     1     -14.444  -8.525  -4.668  1.00  0.00     0.138 A 
ATOM     26  C   UNL     1     -14.235  -8.844  -3.317  1.00  0.00     0.100 A 
ATOM     27  O   UNL     1     -12.765  -9.125  -1.588  1.00  0.00    -0.289 OA
BRANCH  18  28
ATOM     28  O   UNL     1      -8.134  -8.074  -3.740  1.00  0.00    -0.502 OA
ATOM     29  H   UNL     1      -7.529  -8.878  -3.671  1.00  0.00     0.293 HD
ENDBRANCH  18  28
BRANCH  20  30
ATOM     30  O   UNL     1     -10.224  -8.799  -1.869  1.00  0.00    -0.504 OA
ATOM     31  H   UNL     1      -9.993  -9.724  -1.539  1.00  0.00     0.293 HD
ENDBRANCH  20  30
BRANCH  25  32
ATOM     32  C   UNL     1     -15.800  -8.515  -5.271  1.00  0.00     0.017 A 
ATOM     33  C   UNL     1     -16.034  -8.004  -6.564  1.00  0.00     0.012 A 
ATOM     34  C   UNL     1     -16.893  -8.999  -4.527  1.00  0.00     0.012 A 
ATOM     35  C   UNL     1     -17.324  -7.999  -7.102  1.00  0.00     0.001 A 
ATOM     36  C   UNL     1     -18.181  -8.991  -5.071  1.00  0.00     0.001 A 
ATOM     37  C   UNL     1     -18.396  -8.494  -6.358  1.00  0.00     0.000 A 
ENDBRANCH  25  32
ENDBRANCH   1  17
TORSDOF 9
ENDMDL
MODEL 4
REMARK VINA RESULT:    -3.712      3.456      8.381
REMARK INTER + INTRA:          -5.884
REMARK INTER:                  -4.671
REMARK INTRA:                  -1.213
REMARK UNBOUND:                -0.762
REMARK SMILES O=C([O-])[C@@H]1O[C@@H](Oc2cc3oc(-c4ccccc4)cc(=O)c3c(O)c2O)[C@@H](O)[C@@H](O)[C@@H]1O
REMARK SMILES IDX 7 1 6 2 4 3 31 4 5 5 29 6 27 7 2 8 1 9 3 10 32 11 30 13
REMARK SMILES IDX 28 15 8 17 25 18 9 19 23 20 10 21 22 22 11 23 20 24 12 25
REMARK SMILES IDX 19 26 21 27 26 28 24 30 13 32 14 33 18 34 15 35 17 36 16 37
REMARK H PARENT 32 12 30 14 28 16 26 29 24 31
REMARK Flexibility Score: inf
ROOT
ATOM      1  O   UNL     1      -8.412  -7.730  -5.246  1.00  0.00    -0.458 OA
ENDROOT
BRANCH   1   2
ATOM      2  C   UNL     1      -7.799  -6.444  -5.413  1.00  0.00     0.339 C 
ATOM      3  C   UNL     1      -8.035  -6.529  -7.748  1.00  0.00     0.199 C 
ATOM      4  C   UNL     1      -6.516  -6.571  -8.018  1.00  0.00     0.180 C 
ATOM      5  O   UNL     1      -8.321  -5.799  -6.565  1.00  0.00    -0.328 OA
ATOM      6  C   UNL     1      -5.764  -7.161  -6.804  1.00  0.00     0.181 C 
ATOM      7  C   UNL     1      -6.252  -6.528  -5.486  1.00  0.00     0.214 C 
BRANCH   3   8
ATOM      8  C   UNL     1      -8.747  -5.883  -8.901  1.00  0.00     0.073 C 
ATOM      9  O   UNL     1      -8.373  -6.110 -10.082  1.00  0.00    -0.547 OA
ATOM     10  O   UNL     1      -9.787  -4.989  -8.673  1.00  0.00    -0.547 OA
ENDBRANCH   3   8
BRANCH   4  11
ATOM     11  O   UNL     1      -6.048  -5.269  -8.272  1.00  0.00    -0.387 OA
ATOM     12  H   UNL     1      -6.239  -5.075  -9.227  1.00  0.00     0.211 HD
ENDBRANCH   4  11
BRANCH   6  13
ATOM     13  O   UNL     1      -5.837  -8.567  -6.774  1.00  0.00    -0.387 OA
ATOM     14  H   UNL     1      -5.917  -8.862  -5.833  1.00  0.00     0.211 HD
ENDBRANCH   6  13
BRANCH   7  15
ATOM     15  O   UNL     1      -5.729  -7.242  -4.395  1.00  0.00    -0.384 OA
ATOM     16  H   UNL     1      -4.755  -7.343  -4.556  1.00  0.00     0.211 HD
ENDBRANCH   7  15
ENDBRANCH   1   2
BRANCH   1  17
ATOM     17  C   UNL     1      -9.711  -7.997  -4.776  1.00  0.00     0.172 A 
ATOM     18  C   UNL     1      -9.855  -8.361  -3.430  1.00  0.00     0.201 A 
ATOM     19  C   UNL     1     -10.843  -7.925  -5.603  1.00  0.00     0.098 A 
ATOM     20  C   UNL     1     -11.139  -8.642  -2.897  1.00  0.00     0.176 A 
ATOM     21  C   UNL     1     -12.112  -8.197  -5.095  1.00  0.00     0.146 A 
ATOM     22  C   UNL     1     -12.276  -8.555  -3.738  1.00  0.00     0.111 A 
ATOM     23  O   UNL     1     -13.161  -8.113  -5.907  1.00  0.00    -0.456 OA
ATOM     24  C   UNL     1     -13.590  -8.810  -3.289  1.00  0.00     0.197 A 
ATOM     25  C   UNL     1     -14.409  -8.357  -5.518  1.00  0.00     0.138 A 
ATOM     26  C   UNL     1     -14.658  -8.707  -4.182  1.00  0.00     0.100 A 
ATOM     27  O   UNL     1     -13.829  -9.125  -2.092  1.00  0.00    -0.289 OA
BRANCH  18  28
ATOM     28  O   UNL     1      -8.692  -8.429  -2.656  1.00  0.00    -0.502 OA
ATOM     29  H   UNL     1      -8.185  -7.628  -2.311  1.00  0.00     0.293 HD
ENDBRANCH  18  28
BRANCH  20  30
ATOM     30  O   UNL     1     -11.310  -9.003  -1.556  1.00  0.00    -0.504 OA
ATOM     31  H   UNL     1     -10.568  -9.304  -0.942  1.00  0.00     0.293 HD
ENDBRANCH  20  30
BRANCH  25  32
ATOM     32  C   UNL     1     -15.504  -8.231  -6.513  1.00  0.00     0.017 A 
ATOM     33  C   UNL     1     -16.724  -7.597  -6.198  1.00  0.00     0.012 A 
ATOM     34  C   UNL     1     -15.340  -8.783  -7.797  1.00  0.00     0.012 A 
ATOM     35  C   UNL     1     -17.740  -7.502  -7.154  1.00  0.00     0.001 A 
ATOM     36  C   UNL     1     -16.360  -8.685  -8.748  1.00  0.00     0.001 A 
ATOM     37  C   UNL     1     -17.558  -8.043  -8.427  1.00  0.00     0.000 A 
ENDBRANCH  25  32
ENDBRANCH   1  17
TORSDOF 9
ENDMDL
MODEL 5
REMARK VINA RESULT:    -3.574      2.776      5.540
REMARK INTER + INTRA:          -5.693
REMARK INTER:                  -4.607
REMARK INTRA:                  -1.086
REMARK UNBOUND:                -0.762
REMARK SMILES O=C([O-])[C@@H]1O[C@@H](Oc2cc3oc(-c4ccccc4)cc(=O)c3c(O)c2O)[C@@H](O)[C@@H](O)[C@@H]1O
REMARK SMILES IDX 7 1 6 2 4 3 31 4 5 5 29 6 27 7 2 8 1 9 3 10 32 11 30 13
REMARK SMILES IDX 28 15 8 17 25 18 9 19 23 20 10 21 22 22 11 23 20 24 12 25
REMARK SMILES IDX 19 26 21 27 26 28 24 30 13 32 14 33 18 34 15 35 17 36 16 37
REMARK H PARENT 32 12 30 14 28 16 26 29 24 31
REMARK Flexibility Score: inf
ROOT
ATOM      1  O   UNL     1     -15.073  -8.474  -5.860  1.00  0.00    -0.458 OA
ENDROOT
BRANCH   1   2
ATOM      2  C   UNL     1     -15.749  -7.437  -6.585  1.00  0.00     0.339 C 
ATOM      3  C   UNL     1     -15.895  -6.070  -4.682  1.00  0.00     0.199 C 
ATOM      4  C   UNL     1     -17.436  -6.134  -4.609  1.00  0.00     0.180 C 
ATOM      5  O   UNL     1     -15.446  -6.169  -6.024  1.00  0.00    -0.328 OA
ATOM      6  C   UNL     1     -17.958  -7.427  -5.277  1.00  0.00     0.181 C 
ATOM      7  C   UNL     1     -17.284  -7.657  -6.644  1.00  0.00     0.214 C 
BRANCH   3   8
ATOM      8  C   UNL     1     -15.405  -4.776  -4.099  1.00  0.00     0.073 C 
ATOM      9  O   UNL     1     -15.071  -4.715  -2.886  1.00  0.00    -0.547 OA
ATOM     10  O   UNL     1     -15.366  -3.625  -4.878  1.00  0.00    -0.547 OA
ENDBRANCH   3   8
BRANCH   4  11
ATOM     11  O   UNL     1     -17.985  -5.014  -5.260  1.00  0.00    -0.387 OA
ATOM     12  H   UNL     1     -18.736  -5.345  -5.818  1.00  0.00     0.211 HD
ENDBRANCH   4  11
BRANCH   6  13
ATOM     13  O   UNL     1     -17.833  -8.544  -4.429  1.00  0.00    -0.387 OA
ATOM     14  H   UNL     1     -18.441  -8.428  -3.658  1.00  0.00     0.211 HD
ENDBRANCH   6  13
BRANCH   7  15
ATOM     15  O   UNL     1     -17.596  -8.944  -7.115  1.00  0.00    -0.384 OA
ATOM     16  H   UNL     1     -17.542  -9.557  -6.336  1.00  0.00     0.211 HD
ENDBRANCH   7  15
ENDBRANCH   1   2
BRANCH   1  17
ATOM     17  C   UNL     1     -13.778  -8.420  -5.313  1.00  0.00     0.172 A 
ATOM     18  C   UNL     1     -13.627  -8.757  -3.960  1.00  0.00     0.201 A 
ATOM     19  C   UNL     1     -12.657  -8.032  -6.062  1.00  0.00     0.098 A 
ATOM     20  C   UNL     1     -12.347  -8.723  -3.351  1.00  0.00     0.176 A 
ATOM     21  C   UNL     1     -11.391  -7.994  -5.479  1.00  0.00     0.146 A 
ATOM     22  C   UNL     1     -11.221  -8.341  -4.121  1.00  0.00     0.111 A 
ATOM     23  O   UNL     1     -10.352  -7.627  -6.222  1.00  0.00    -0.456 OA
ATOM     24  C   UNL     1      -9.910  -8.287  -3.597  1.00  0.00     0.197 A 
ATOM     25  C   UNL     1      -9.108  -7.556  -5.757  1.00  0.00     0.138 A 
ATOM     26  C   UNL     1      -8.852  -7.896  -4.420  1.00  0.00     0.100 A 
ATOM     27  O   UNL     1      -9.666  -8.590  -2.398  1.00  0.00    -0.289 OA
BRANCH  18  28
ATOM     28  O   UNL     1     -14.781  -9.125  -3.259  1.00  0.00    -0.502 OA
ATOM     29  H   UNL     1     -15.669  -8.654  -3.329  1.00  0.00     0.293 HD
ENDBRANCH  18  28
BRANCH  20  30
ATOM     30  O   UNL     1     -12.170  -9.059  -2.004  1.00  0.00    -0.504 OA
ATOM     31  H   UNL     1     -11.575  -8.560  -1.360  1.00  0.00     0.293 HD
ENDBRANCH  20  30
BRANCH  25  32
ATOM     32  C   UNL     1      -8.024  -7.135  -6.680  1.00  0.00     0.017 A 
ATOM     33  C   UNL     1      -8.301  -6.505  -7.911  1.00  0.00     0.012 A 
ATOM     34  C   UNL     1      -6.683  -7.395  -6.339  1.00  0.00     0.012 A 
ATOM     35  C   UNL     1      -7.259  -6.128  -8.764  1.00  0.00     0.001 A 
ATOM     36  C   UNL     1      -5.646  -7.015  -7.196  1.00  0.00     0.001 A 
ATOM     37  C   UNL     1      -5.934  -6.381  -8.407  1.00  0.00     0.000 A 
ENDBRANCH  25  32
ENDBRANCH   1  17
TORSDOF 9
ENDMDL
