MODEL 1
REMARK VINA RESULT:    -4.411      0.000      0.000
REMARK INTER + INTRA:          -6.330
REMARK INTER:                  -5.442
REMARK INTRA:                  -0.888
REMARK UNBOUND:                -0.888
REMARK SMILES C=CC(=C)CCC=C(C)C
REMARK SMILES IDX 5 1 6 2 7 3 9 4 8 5 10 6 3 7 4 8 2 9 1 10
REMARK H PARENT
REMARK Flexibility Score: inf
ROOT
ATOM      1  C   UNL     1     101.378 105.294 128.965  1.00  0.00     0.039 C 
ENDROOT
BRANCH   1   2
ATOM      2  C   UNL     1     100.726 105.044 127.600  1.00  0.00     0.032 C 
BRANCH   2   3
ATOM      3  C   UNL     1     101.767 104.881 126.518  1.00  0.00    -0.028 C 
ATOM      4  C   UNL     1     101.105 107.031 125.434  1.00  0.00     0.039 C 
ATOM      5  C   UNL     1     101.947 105.780 125.528  1.00  0.00    -0.080 C 
ATOM      6  C   UNL     1     103.015 105.520 124.497  1.00  0.00     0.039 C 
ENDBRANCH   2   3
ENDBRANCH   1   2
BRANCH   1   7
ATOM      7  C   UNL     1     101.485 106.777 129.245  1.00  0.00    -0.055 C 
ATOM      8  C   UNL     1     100.367 107.489 129.422  1.00  0.00     0.012 C 
BRANCH   7   9
ATOM      9  C   UNL     1     102.793 107.482 129.285  1.00  0.00    -0.005 C 
ATOM     10  C   UNL     1     103.457 107.885 128.201  1.00  0.00     0.009 C 
ENDBRANCH   7   9
ENDBRANCH   1   7
TORSDOF 4
ENDMDL
MODEL 2
REMARK VINA RESULT:    -4.381      5.712      6.689
REMARK INTER + INTRA:          -6.294
REMARK INTER:                  -5.380
REMARK INTRA:                  -0.914
REMARK UNBOUND:                -0.888
REMARK SMILES C=CC(=C)CCC=C(C)C
REMARK SMILES IDX 5 1 6 2 7 3 9 4 8 5 10 6 3 7 4 8 2 9 1 10
REMARK H PARENT
REMARK Flexibility Score: inf
ROOT
ATOM      1  C   UNL     1     107.294 101.128 128.955  1.00  0.00     0.039 C 
ENDROOT
BRANCH   1   2
ATOM      2  C   UNL     1     107.517 100.594 127.535  1.00  0.00     0.032 C 
BRANCH   2   3
ATOM      3  C   UNL     1     107.640 101.722 126.539  1.00  0.00    -0.028 C 
ATOM      4  C   UNL     1     105.514 101.069 125.403  1.00  0.00     0.039 C 
ATOM      5  C   UNL     1     106.734 101.946 125.565  1.00  0.00    -0.080 C 
ATOM      6  C   UNL     1     106.954 103.101 124.622  1.00  0.00     0.039 C 
ENDBRANCH   2   3
ENDBRANCH   1   2
BRANCH   1   7
ATOM      7  C   UNL     1     105.826 101.396 129.205  1.00  0.00    -0.055 C 
ATOM      8  C   UNL     1     104.997 100.362 129.384  1.00  0.00     0.012 C 
BRANCH   7   9
ATOM      9  C   UNL     1     105.262 102.771 129.211  1.00  0.00    -0.005 C 
ATOM     10  C   UNL     1     104.517 103.277 128.229  1.00  0.00     0.009 C 
ENDBRANCH   7   9
ENDBRANCH   1   7
TORSDOF 4
ENDMDL
MODEL 3
REMARK VINA RESULT:    -4.379      7.813      9.368
REMARK INTER + INTRA:          -6.292
REMARK INTER:                  -5.369
REMARK INTRA:                  -0.923
REMARK UNBOUND:                -0.888
REMARK SMILES C=CC(=C)CCC=C(C)C
REMARK SMILES IDX 5 1 6 2 7 3 9 4 8 5 10 6 3 7 4 8 2 9 1 10
REMARK H PARENT
REMARK Flexibility Score: inf
ROOT
ATOM      1  C   UNL     1     111.276 107.225 128.991  1.00  0.00     0.039 C 
ENDROOT
BRANCH   1   2
ATOM      2  C   UNL     1     111.847 107.464 127.588  1.00  0.00     0.032 C 
BRANCH   2   3
ATOM      3  C   UNL     1     110.745 107.591 126.564  1.00  0.00    -0.028 C 
ATOM      4  C   UNL     1     111.411 105.456 125.452  1.00  0.00     0.039 C 
ATOM      5  C   UNL     1     110.539 106.682 125.587  1.00  0.00    -0.080 C 
ATOM      6  C   UNL     1     109.410 106.906 124.615  1.00  0.00     0.039 C 
ENDBRANCH   2   3
ENDBRANCH   1   2
BRANCH   1   7
ATOM      7  C   UNL     1     111.021 105.752 129.224  1.00  0.00    -0.055 C 
ATOM      8  C   UNL     1     112.062 104.928 129.382  1.00  0.00     0.012 C 
BRANCH   7   9
ATOM      9  C   UNL     1     109.650 105.179 129.237  1.00  0.00    -0.005 C 
ATOM     10  C   UNL     1     109.152 104.411 128.268  1.00  0.00     0.009 C 
ENDBRANCH   7   9
ENDBRANCH   1   7
TORSDOF 4
ENDMDL
MODEL 4
REMARK VINA RESULT:    -4.303      5.617      6.550
REMARK INTER + INTRA:          -6.197
REMARK INTER:                  -5.301
REMARK INTRA:                  -0.896
REMARK UNBOUND:                -0.888
REMARK SMILES C=CC(=C)CCC=C(C)C
REMARK SMILES IDX 5 1 6 2 7 3 9 4 8 5 10 6 3 7 4 8 2 9 1 10
REMARK H PARENT
REMARK Flexibility Score: inf
ROOT
ATOM      1  C   UNL     1     105.259 111.032 128.923  1.00  0.00     0.039 C 
ENDROOT
BRANCH   1   2
ATOM      2  C   UNL     1     105.011 111.726 127.579  1.00  0.00     0.032 C 
BRANCH   2   3
ATOM      3  C   UNL     1     104.850 110.720 126.465  1.00  0.00    -0.028 C 
ATOM      4  C   UNL     1     107.050 111.345 125.462  1.00  0.00     0.039 C 
ATOM      5  C   UNL     1     105.773 110.539 125.497  1.00  0.00    -0.080 C 
ATOM      6  C   UNL     1     105.512 109.507 124.430  1.00  0.00     0.039 C 
ENDBRANCH   2   3
ENDBRANCH   1   2
BRANCH   1   7
ATOM      7  C   UNL     1     106.740 110.960 129.225  1.00  0.00    -0.055 C 
ATOM      8  C   UNL     1     107.423 112.095 129.407  1.00  0.00     0.012 C 
BRANCH   7   9
ATOM      9  C   UNL     1     107.474 109.669 129.282  1.00  0.00    -0.005 C 
ATOM     10  C   UNL     1     107.615 108.844 128.245  1.00  0.00     0.009 C 
ENDBRANCH   7   9
ENDBRANCH   1   7
TORSDOF 4
ENDMDL
MODEL 5
REMARK VINA RESULT:    -4.236      7.301      8.867
REMARK INTER + INTRA:          -6.115
REMARK INTER:                  -5.210
REMARK INTRA:                  -0.905
REMARK UNBOUND:                -0.888
REMARK SMILES C=CC(=C)CCC=C(C)C
REMARK SMILES IDX 5 1 6 2 7 3 9 4 8 5 10 6 3 7 4 8 2 9 1 10
REMARK H PARENT
REMARK Flexibility Score: inf
ROOT
ATOM      1  C   UNL     1     111.670 105.418 128.701  1.00  0.00     0.039 C 
ENDROOT
BRANCH   1   2
ATOM      2  C   UNL     1     110.320 105.123 129.365  1.00  0.00     0.032 C 
BRANCH   2   3
ATOM      3  C   UNL     1     109.282 104.728 128.342  1.00  0.00    -0.028 C 
ATOM      4  C   UNL     1     108.122 106.931 128.538  1.00  0.00     0.039 C 
ATOM      5  C   UNL     1     108.278 105.544 127.959  1.00  0.00    -0.080 C 
ATOM      6  C   UNL     1     107.294 105.051 126.930  1.00  0.00     0.039 C 
ENDBRANCH   2   3
ENDBRANCH   1   2
BRANCH   1   7
ATOM      7  C   UNL     1     111.792 106.888 128.362  1.00  0.00    -0.055 C 
ATOM      8  C   UNL     1     111.996 107.769 129.348  1.00  0.00     0.012 C 
BRANCH   7   9
ATOM      9  C   UNL     1     111.646 107.395 126.973  1.00  0.00    -0.005 C 
ATOM     10  C   UNL     1     111.390 106.620 125.919  1.00  0.00     0.009 C 
ENDBRANCH   7   9
ENDBRANCH   1   7
TORSDOF 4
ENDMDL
MODEL 6
REMARK VINA RESULT:    -4.231      4.819      6.588
REMARK INTER + INTRA:          -6.108
REMARK INTER:                  -5.203
REMARK INTRA:                  -0.905
REMARK UNBOUND:                -0.888
REMARK SMILES C=CC(=C)CCC=C(C)C
REMARK SMILES IDX 5 1 6 2 7 3 9 4 8 5 10 6 3 7 4 8 2 9 1 10
REMARK H PARENT
REMARK Flexibility Score: inf
ROOT
ATOM      1  C   UNL     1     107.112 111.595 128.715  1.00  0.00     0.039 C 
ENDROOT
BRANCH   1   2
ATOM      2  C   UNL     1     107.372 110.232 129.367  1.00  0.00     0.032 C 
BRANCH   2   3
ATOM      3  C   UNL     1     107.782 109.204 128.341  1.00  0.00    -0.028 C 
ATOM      4  C   UNL     1     105.545 108.096 128.427  1.00  0.00     0.039 C 
ATOM      5  C   UNL     1     106.958 108.227 127.907  1.00  0.00    -0.080 C 
ATOM      6  C   UNL     1     107.468 107.251 126.879  1.00  0.00     0.039 C 
ENDBRANCH   2   3
ENDBRANCH   1   2
BRANCH   1   7
ATOM      7  C   UNL     1     105.650 111.750 128.358  1.00  0.00    -0.055 C 
ATOM      8  C   UNL     1     104.757 111.931 129.336  1.00  0.00     0.012 C 
BRANCH   7   9
ATOM      9  C   UNL     1     105.164 111.660 126.956  1.00  0.00    -0.005 C 
ATOM     10  C   UNL     1     105.940 111.361 125.914  1.00  0.00     0.009 C 
ENDBRANCH   7   9
ENDBRANCH   1   7
TORSDOF 4
ENDMDL
MODEL 7
REMARK VINA RESULT:    -4.184      4.143      5.430
REMARK INTER + INTRA:          -6.051
REMARK INTER:                  -5.798
REMARK INTRA:                  -0.253
REMARK UNBOUND:                -0.888
REMARK SMILES C=CC(=C)CCC=C(C)C
REMARK SMILES IDX 5 1 6 2 7 3 9 4 8 5 10 6 3 7 4 8 2 9 1 10
REMARK H PARENT
REMARK Flexibility Score: inf
ROOT
ATOM      1  C   UNL     1     104.961 103.381 128.913  1.00  0.00     0.039 C 
ENDROOT
BRANCH   1   2
ATOM      2  C   UNL     1     103.972 104.043 127.946  1.00  0.00     0.032 C 
BRANCH   2   3
ATOM      3  C   UNL     1     102.704 104.452 128.655  1.00  0.00    -0.028 C 
ATOM      4  C   UNL     1     101.506 104.811 126.494  1.00  0.00     0.039 C 
ATOM      5  C   UNL     1     101.576 104.803 128.003  1.00  0.00    -0.080 C 
ATOM      6  C   UNL     1     100.365 105.196 128.809  1.00  0.00     0.039 C 
ENDBRANCH   2   3
ENDBRANCH   1   2
BRANCH   1   7
ATOM      7  C   UNL     1     105.424 102.043 128.376  1.00  0.00    -0.055 C 
ATOM      8  C   UNL     1     105.303 101.789 127.069  1.00  0.00     0.012 C 
BRANCH   7   9
ATOM      9  C   UNL     1     105.967 100.981 129.262  1.00  0.00    -0.005 C 
ATOM     10  C   UNL     1     107.246 100.605 129.279  1.00  0.00     0.009 C 
ENDBRANCH   7   9
ENDBRANCH   1   7
TORSDOF 4
ENDMDL
MODEL 8
REMARK VINA RESULT:    -4.140      1.370      3.419
REMARK INTER + INTRA:          -5.996
REMARK INTER:                  -5.093
REMARK INTRA:                  -0.903
REMARK UNBOUND:                -0.888
REMARK SMILES C=CC(=C)CCC=C(C)C
REMARK SMILES IDX 5 1 6 2 7 3 9 4 8 5 10 6 3 7 4 8 2 9 1 10
REMARK H PARENT
REMARK Flexibility Score: inf
ROOT
ATOM      1  C   UNL     1     100.949 107.205 128.626  1.00  0.00     0.039 C 
ENDROOT
BRANCH   1   2
ATOM      2  C   UNL     1     102.312 107.422 129.294  1.00  0.00     0.032 C 
BRANCH   2   3
ATOM      3  C   UNL     1     103.375 107.753 128.275  1.00  0.00    -0.028 C 
ATOM      4  C   UNL     1     104.407 105.488 128.485  1.00  0.00     0.039 C 
ATOM      5  C   UNL     1     104.333 106.879 127.900  1.00  0.00    -0.080 C 
ATOM      6  C   UNL     1     105.348 107.312 126.873  1.00  0.00     0.039 C 
ENDBRANCH   2   3
ENDBRANCH   1   2
BRANCH   1   7
ATOM      7  C   UNL     1     100.750 105.747 128.272  1.00  0.00    -0.055 C 
ATOM      8  C   UNL     1     100.510 104.867 129.250  1.00  0.00     0.012 C 
BRANCH   7   9
ATOM      9  C   UNL     1     100.859 105.250 126.876  1.00  0.00    -0.005 C 
ATOM     10  C   UNL     1     101.125 106.026 125.826  1.00  0.00     0.009 C 
ENDBRANCH   7   9
ENDBRANCH   1   7
TORSDOF 4
ENDMDL
MODEL 9
REMARK VINA RESULT:    -4.119      2.375      4.829
REMARK INTER + INTRA:          -5.970
REMARK INTER:                  -5.725
REMARK INTRA:                  -0.246
REMARK UNBOUND:                -0.888
REMARK SMILES C=CC(=C)CCC=C(C)C
REMARK SMILES IDX 5 1 6 2 7 3 9 4 8 5 10 6 3 7 4 8 2 9 1 10
REMARK H PARENT
REMARK Flexibility Score: inf
ROOT
ATOM      1  C   UNL     1     103.330 107.492 129.031  1.00  0.00     0.039 C 
ENDROOT
BRANCH   1   2
ATOM      2  C   UNL     1     103.987 108.461 128.041  1.00  0.00     0.032 C 
BRANCH   2   3
ATOM      3  C   UNL     1     104.436 109.726 128.731  1.00  0.00    -0.028 C 
ATOM      4  C   UNL     1     104.818 110.884 126.551  1.00  0.00     0.039 C 
ATOM      5  C   UNL     1     104.817 110.835 128.061  1.00  0.00    -0.080 C 
ATOM      6  C   UNL     1     105.248 112.045 128.848  1.00  0.00     0.039 C 
ENDBRANCH   2   3
ENDBRANCH   1   2
BRANCH   1   7
ATOM      7  C   UNL     1     102.040 106.938 128.466  1.00  0.00    -0.055 C 
ATOM      8  C   UNL     1     101.747 107.155 127.180  1.00  0.00     0.012 C 
BRANCH   7   9
ATOM      9  C   UNL     1     101.061 106.200 129.306  1.00  0.00    -0.005 C 
ATOM     10  C   UNL     1     100.549 105.012 128.985  1.00  0.00     0.009 C 
ENDBRANCH   7   9
ENDBRANCH   1   7
TORSDOF 4
ENDMDL
