MODEL 1
REMARK VINA RESULT:    -5.695      0.000      0.000
REMARK INTER + INTRA:         -17.643
REMARK INTER:                 -14.352
REMARK INTRA:                  -3.291
REMARK UNBOUND:                -3.291
REMARK SMILES CCCCCCCCCCCCCCCCCCCCCCCCCCCC(=O)[O-]
REMARK SMILES IDX 15 1 16 2 17 3 18 4 19 5 20 6 21 7 22 8 23 9 24 10 25 11
REMARK SMILES IDX 26 12 27 13 28 14 29 15 30 16 14 17 13 18 12 19 11 20 10 21
REMARK SMILES IDX 9 22 8 23 7 24 6 25 5 26 4 27 3 28 2 29 1 30
REMARK H PARENT
REMARK Flexibility Score: inf
ROOT
ATOM      1  C   UNL     1      -9.843  -8.264   9.378  1.00  0.00     0.000 C 
ENDROOT
BRANCH   1   2
ATOM      2  C   UNL     1     -11.099  -7.505   9.838  1.00  0.00     0.000 C 
BRANCH   2   3
ATOM      3  C   UNL     1     -12.056  -8.356  10.698  1.00  0.00     0.000 C 
BRANCH   3   4
ATOM      4  C   UNL     1     -13.460  -8.457  10.076  1.00  0.00     0.000 C 
BRANCH   4   5
ATOM      5  C   UNL     1     -13.547  -7.761   8.708  1.00  0.00     0.000 C 
BRANCH   5   6
ATOM      6  C   UNL     1     -14.877  -7.019   8.507  1.00  0.00     0.000 C 
BRANCH   6   7
ATOM      7  C   UNL     1     -15.526  -6.589   9.835  1.00  0.00     0.000 C 
BRANCH   7   8
ATOM      8  C   UNL     1     -15.302  -5.099  10.183  1.00  0.00     0.000 C 
BRANCH   8   9
ATOM      9  C   UNL     1     -13.883  -4.586   9.866  1.00  0.00     0.000 C 
BRANCH   9  10
ATOM     10  C   UNL     1     -13.765  -3.760   8.571  1.00  0.00     0.000 C 
BRANCH  10  11
ATOM     11  C   UNL     1     -15.125  -3.279   8.033  1.00  0.00     0.000 C 
BRANCH  11  12
ATOM     12  C   UNL     1     -15.450  -3.889   6.651  1.00  0.00     0.006 C 
BRANCH  12  13
ATOM     13  C   UNL     1     -14.370  -3.622   5.590  1.00  0.00     0.053 C 
BRANCH  13  14
ATOM     14  C   UNL     1     -14.725  -4.188   4.250  1.00  0.00     0.041 C 
ATOM     15  O   UNL     1     -15.674  -5.008   4.139  1.00  0.00    -0.550 OA
ATOM     16  O   UNL     1     -13.976  -3.847   3.131  1.00  0.00    -0.550 OA
ENDBRANCH  13  14
ENDBRANCH  12  13
ENDBRANCH  11  12
ENDBRANCH  10  11
ENDBRANCH   9  10
ENDBRANCH   8   9
ENDBRANCH   7   8
ENDBRANCH   6   7
ENDBRANCH   5   6
ENDBRANCH   4   5
ENDBRANCH   3   4
ENDBRANCH   2   3
ENDBRANCH   1   2
BRANCH   1  17
ATOM     17  C   UNL     1      -9.736  -8.368   7.848  1.00  0.00     0.000 C 
BRANCH  17  18
ATOM     18  C   UNL     1      -8.355  -8.868   7.395  1.00  0.00     0.000 C 
BRANCH  18  19
ATOM     19  C   UNL     1      -8.258 -10.401   7.365  1.00  0.00     0.000 C 
BRANCH  19  20
ATOM     20  C   UNL     1      -9.657 -11.034   7.380  1.00  0.00     0.000 C 
BRANCH  20  21
ATOM     21  C   UNL     1      -9.815 -12.110   8.466  1.00  0.00     0.000 C 
BRANCH  21  22
ATOM     22  C   UNL     1      -9.959 -11.573   9.906  1.00  0.00    -0.000 C 
BRANCH  22  23
ATOM     23  C   UNL     1     -11.293 -11.901  10.603  1.00  0.00    -0.000 C 
BRANCH  23  24
ATOM     24  C   UNL     1     -12.529 -11.934   9.682  1.00  0.00    -0.000 C 
BRANCH  24  25
ATOM     25  C   UNL     1     -13.197 -13.322   9.571  1.00  0.00    -0.000 C 
BRANCH  25  26
ATOM     26  C   UNL     1     -12.937 -14.000   8.213  1.00  0.00    -0.000 C 
BRANCH  26  27
ATOM     27  C   UNL     1     -12.379 -15.431   8.359  1.00  0.00    -0.000 C 
BRANCH  27  28
ATOM     28  C   UNL     1     -10.907 -15.483   8.808  1.00  0.00    -0.000 C 
BRANCH  28  29
ATOM     29  C   UNL     1     -10.504 -16.758   9.567  1.00  0.00    -0.003 C 
ATOM     30  C   UNL     1     -11.540 -17.877   9.444  1.00  0.00     0.004 C 
ENDBRANCH  28  29
ENDBRANCH  27  28
ENDBRANCH  26  27
ENDBRANCH  25  26
ENDBRANCH  24  25
ENDBRANCH  23  24
ENDBRANCH  22  23
ENDBRANCH  21  22
ENDBRANCH  20  21
ENDBRANCH  19  20
ENDBRANCH  18  19
ENDBRANCH  17  18
ENDBRANCH   1  17
TORSDOF 26
ENDMDL
MODEL 2
REMARK VINA RESULT:    -5.519      2.888      9.166
REMARK INTER + INTRA:         -17.198
REMARK INTER:                 -13.129
REMARK INTRA:                  -4.069
REMARK UNBOUND:                -3.291
REMARK SMILES CCCCCCCCCCCCCCCCCCCCCCCCCCCC(=O)[O-]
REMARK SMILES IDX 15 1 16 2 17 3 18 4 19 5 20 6 21 7 22 8 23 9 24 10 25 11
REMARK SMILES IDX 26 12 27 13 28 14 29 15 30 16 14 17 13 18 12 19 11 20 10 21
REMARK SMILES IDX 9 22 8 23 7 24 6 25 5 26 4 27 3 28 2 29 1 30
REMARK H PARENT
REMARK Flexibility Score: inf
ROOT
ATOM      1  C   UNL     1     -12.053  -8.961   8.329  1.00  0.00     0.000 C 
ENDROOT
BRANCH   1   2
ATOM      2  C   UNL     1     -11.744  -8.148   9.597  1.00  0.00     0.000 C 
BRANCH   2   3
ATOM      3  C   UNL     1     -10.236  -7.973   9.869  1.00  0.00     0.000 C 
BRANCH   3   4
ATOM      4  C   UNL     1      -9.406  -9.136   9.297  1.00  0.00     0.000 C 
BRANCH   4   5
ATOM      5  C   UNL     1      -8.643  -8.742   8.022  1.00  0.00     0.000 C 
BRANCH   5   6
ATOM      6  C   UNL     1      -8.015  -9.951   7.312  1.00  0.00     0.000 C 
BRANCH   6   7
ATOM      7  C   UNL     1      -8.644 -11.288   7.743  1.00  0.00     0.000 C 
BRANCH   7   8
ATOM      8  C   UNL     1      -9.838 -11.726   6.865  1.00  0.00     0.000 C 
BRANCH   8   9
ATOM      9  C   UNL     1     -10.955 -12.454   7.640  1.00  0.00     0.000 C 
BRANCH   9  10
ATOM     10  C   UNL     1     -10.508 -13.734   8.372  1.00  0.00     0.000 C 
BRANCH  10  11
ATOM     11  C   UNL     1     -10.712 -13.663   9.896  1.00  0.00     0.000 C 
BRANCH  11  12
ATOM     12  C   UNL     1     -11.200 -12.270  10.352  1.00  0.00     0.006 C 
BRANCH  12  13
ATOM     13  C   UNL     1     -12.685 -12.237  10.749  1.00  0.00     0.053 C 
BRANCH  13  14
ATOM     14  C   UNL     1     -13.062 -10.982  11.473  1.00  0.00     0.041 C 
ATOM     15  O   UNL     1     -14.046 -10.298  11.085  1.00  0.00    -0.550 OA
ATOM     16  O   UNL     1     -12.299 -10.541  12.545  1.00  0.00    -0.550 OA
ENDBRANCH  13  14
ENDBRANCH  12  13
ENDBRANCH  11  12
ENDBRANCH  10  11
ENDBRANCH   9  10
ENDBRANCH   8   9
ENDBRANCH   7   8
ENDBRANCH   6   7
ENDBRANCH   5   6
ENDBRANCH   4   5
ENDBRANCH   3   4
ENDBRANCH   2   3
ENDBRANCH   1   2
BRANCH   1  17
ATOM     17  C   UNL     1     -12.778  -8.136   7.254  1.00  0.00     0.000 C 
BRANCH  17  18
ATOM     18  C   UNL     1     -13.581  -6.972   7.857  1.00  0.00     0.000 C 
BRANCH  18  19
ATOM     19  C   UNL     1     -15.013  -6.888   7.307  1.00  0.00     0.000 C 
BRANCH  19  20
ATOM     20  C   UNL     1     -16.039  -7.012   8.443  1.00  0.00     0.000 C 
BRANCH  20  21
ATOM     21  C   UNL     1     -15.384  -7.125   9.830  1.00  0.00     0.000 C 
BRANCH  21  22
ATOM     22  C   UNL     1     -15.691  -5.961  10.796  1.00  0.00    -0.000 C 
BRANCH  22  23
ATOM     23  C   UNL     1     -15.446  -4.550  10.230  1.00  0.00    -0.000 C 
BRANCH  23  24
ATOM     24  C   UNL     1     -13.966  -4.171  10.018  1.00  0.00    -0.000 C 
BRANCH  24  25
ATOM     25  C   UNL     1     -13.718  -3.253   8.802  1.00  0.00    -0.000 C 
BRANCH  25  26
ATOM     26  C   UNL     1     -15.024  -2.763   8.150  1.00  0.00    -0.000 C 
BRANCH  26  27
ATOM     27  C   UNL     1     -15.331  -3.482   6.819  1.00  0.00    -0.000 C 
BRANCH  27  28
ATOM     28  C   UNL     1     -14.197  -3.384   5.782  1.00  0.00    -0.000 C 
BRANCH  28  29
ATOM     29  C   UNL     1     -14.341  -4.321   4.571  1.00  0.00    -0.003 C 
ATOM     30  C   UNL     1     -14.325  -3.575   3.236  1.00  0.00     0.004 C 
ENDBRANCH  28  29
ENDBRANCH  27  28
ENDBRANCH  26  27
ENDBRANCH  25  26
ENDBRANCH  24  25
ENDBRANCH  23  24
ENDBRANCH  22  23
ENDBRANCH  21  22
ENDBRANCH  20  21
ENDBRANCH  19  20
ENDBRANCH  18  19
ENDBRANCH  17  18
ENDBRANCH   1  17
TORSDOF 26
ENDMDL
MODEL 3
REMARK VINA RESULT:    -5.473      1.324      3.744
REMARK INTER + INTRA:         -17.082
REMARK INTER:                 -13.060
REMARK INTRA:                  -4.022
REMARK UNBOUND:                -3.291
REMARK SMILES CCCCCCCCCCCCCCCCCCCCCCCCCCCC(=O)[O-]
REMARK SMILES IDX 15 1 16 2 17 3 18 4 19 5 20 6 21 7 22 8 23 9 24 10 25 11
REMARK SMILES IDX 26 12 27 13 28 14 29 15 30 16 14 17 13 18 12 19 11 20 10 21
REMARK SMILES IDX 9 22 8 23 7 24 6 25 5 26 4 27 3 28 2 29 1 30
REMARK H PARENT
REMARK Flexibility Score: inf
ROOT
ATOM      1  C   UNL     1     -13.988 -10.187  10.291  1.00  0.00     0.000 C 
ENDROOT
BRANCH   1   2
ATOM      2  C   UNL     1     -14.968  -9.015  10.469  1.00  0.00     0.000 C 
BRANCH   2   3
ATOM      3  C   UNL     1     -15.383  -8.347   9.142  1.00  0.00     0.000 C 
BRANCH   3   4
ATOM      4  C   UNL     1     -15.042  -6.847   9.118  1.00  0.00     0.000 C 
BRANCH   4   5
ATOM      5  C   UNL     1     -15.299  -6.164  10.471  1.00  0.00     0.000 C 
BRANCH   5   6
ATOM      6  C   UNL     1     -14.879  -4.686  10.476  1.00  0.00     0.000 C 
BRANCH   6   7
ATOM      7  C   UNL     1     -13.591  -4.429   9.673  1.00  0.00     0.000 C 
BRANCH   7   8
ATOM      8  C   UNL     1     -13.442  -2.970   9.187  1.00  0.00     0.000 C 
BRANCH   8   9
ATOM      9  C   UNL     1     -13.852  -2.751   7.716  1.00  0.00     0.000 C 
BRANCH   9  10
ATOM     10  C   UNL     1     -15.372  -2.695   7.468  1.00  0.00     0.000 C 
BRANCH  10  11
ATOM     11  C   UNL     1     -15.905  -3.914   6.694  1.00  0.00     0.000 C 
BRANCH  11  12
ATOM     12  C   UNL     1     -14.767  -4.736   6.049  1.00  0.00     0.006 C 
BRANCH  12  13
ATOM     13  C   UNL     1     -15.009  -5.066   4.567  1.00  0.00     0.053 C 
BRANCH  13  14
ATOM     14  C   UNL     1     -14.622  -3.944   3.654  1.00  0.00     0.041 C 
ATOM     15  O   UNL     1     -14.704  -4.086   2.406  1.00  0.00    -0.550 OA
ATOM     16  O   UNL     1     -14.127  -2.758   4.180  1.00  0.00    -0.550 OA
ENDBRANCH  13  14
ENDBRANCH  12  13
ENDBRANCH  11  12
ENDBRANCH  10  11
ENDBRANCH   9  10
ENDBRANCH   8   9
ENDBRANCH   7   8
ENDBRANCH   6   7
ENDBRANCH   5   6
ENDBRANCH   4   5
ENDBRANCH   3   4
ENDBRANCH   2   3
ENDBRANCH   1   2
BRANCH   1  17
ATOM     17  C   UNL     1     -13.429 -10.705  11.625  1.00  0.00     0.000 C 
BRANCH  17  18
ATOM     18  C   UNL     1     -11.993 -10.219  11.882  1.00  0.00     0.000 C 
BRANCH  18  19
ATOM     19  C   UNL     1     -11.333  -9.624  10.629  1.00  0.00     0.000 C 
BRANCH  19  20
ATOM     20  C   UNL     1     -11.329  -8.089  10.696  1.00  0.00     0.000 C 
BRANCH  20  21
ATOM     21  C   UNL     1     -11.431  -7.430   9.311  1.00  0.00     0.000 C 
BRANCH  21  22
ATOM     22  C   UNL     1     -11.138  -8.363   8.117  1.00  0.00    -0.000 C 
BRANCH  22  23
ATOM     23  C   UNL     1      -9.720  -8.254   7.526  1.00  0.00    -0.000 C 
BRANCH  23  24
ATOM     24  C   UNL     1      -8.677  -9.215   8.131  1.00  0.00    -0.000 C 
BRANCH  24  25
ATOM     25  C   UNL     1      -8.641 -10.608   7.466  1.00  0.00    -0.000 C 
BRANCH  25  26
ATOM     26  C   UNL     1      -9.428 -11.667   8.261  1.00  0.00    -0.000 C 
BRANCH  26  27
ATOM     27  C   UNL     1     -10.755 -12.060   7.577  1.00  0.00    -0.000 C 
BRANCH  27  28
ATOM     28  C   UNL     1     -11.812 -12.623   8.546  1.00  0.00    -0.000 C 
BRANCH  28  29
ATOM     29  C   UNL     1     -12.461 -13.944   8.102  1.00  0.00    -0.003 C 
ATOM     30  C   UNL     1     -11.650 -15.174   8.513  1.00  0.00     0.004 C 
ENDBRANCH  28  29
ENDBRANCH  27  28
ENDBRANCH  26  27
ENDBRANCH  25  26
ENDBRANCH  24  25
ENDBRANCH  23  24
ENDBRANCH  22  23
ENDBRANCH  21  22
ENDBRANCH  20  21
ENDBRANCH  19  20
ENDBRANCH  18  19
ENDBRANCH  17  18
ENDBRANCH   1  17
TORSDOF 26
ENDMDL
MODEL 4
REMARK VINA RESULT:    -5.393      1.755      2.297
REMARK INTER + INTRA:         -16.881
REMARK INTER:                 -13.748
REMARK INTRA:                  -3.134
REMARK UNBOUND:                -3.291
REMARK SMILES CCCCCCCCCCCCCCCCCCCCCCCCCCCC(=O)[O-]
REMARK SMILES IDX 15 1 16 2 17 3 18 4 19 5 20 6 21 7 22 8 23 9 24 10 25 11
REMARK SMILES IDX 26 12 27 13 28 14 29 15 30 16 14 17 13 18 12 19 11 20 10 21
REMARK SMILES IDX 9 22 8 23 7 24 6 25 5 26 4 27 3 28 2 29 1 30
REMARK H PARENT
REMARK Flexibility Score: inf
ROOT
ATOM      1  C   UNL     1      -8.993  -8.703   8.683  1.00  0.00     0.000 C 
ENDROOT
BRANCH   1   2
ATOM      2  C   UNL     1     -10.364  -8.015   8.587  1.00  0.00     0.000 C 
BRANCH   2   3
ATOM      3  C   UNL     1     -10.985  -7.676   9.957  1.00  0.00     0.000 C 
BRANCH   3   4
ATOM      4  C   UNL     1     -11.720  -8.879  10.575  1.00  0.00     0.000 C 
BRANCH   4   5
ATOM      5  C   UNL     1     -13.180  -8.979  10.105  1.00  0.00     0.000 C 
BRANCH   5   6
ATOM      6  C   UNL     1     -13.833  -7.601   9.913  1.00  0.00     0.000 C 
BRANCH   6   7
ATOM      7  C   UNL     1     -15.285  -7.695   9.409  1.00  0.00     0.000 C 
BRANCH   7   8
ATOM      8  C   UNL     1     -15.427  -7.506   7.881  1.00  0.00     0.000 C 
BRANCH   8   9
ATOM      9  C   UNL     1     -15.416  -6.033   7.426  1.00  0.00     0.000 C 
BRANCH   9  10
ATOM     10  C   UNL     1     -14.671  -5.768   6.104  1.00  0.00     0.000 C 
BRANCH  10  11
ATOM     11  C   UNL     1     -15.258  -4.591   5.302  1.00  0.00     0.000 C 
BRANCH  11  12
ATOM     12  C   UNL     1     -14.175  -3.563   4.905  1.00  0.00     0.006 C 
BRANCH  12  13
ATOM     13  C   UNL     1     -14.422  -2.158   5.477  1.00  0.00     0.053 C 
BRANCH  13  14
ATOM     14  C   UNL     1     -14.418  -2.135   6.975  1.00  0.00     0.041 C 
ATOM     15  O   UNL     1     -15.499  -2.013   7.610  1.00  0.00    -0.550 OA
ATOM     16  O   UNL     1     -13.217  -2.200   7.668  1.00  0.00    -0.550 OA
ENDBRANCH  13  14
ENDBRANCH  12  13
ENDBRANCH  11  12
ENDBRANCH  10  11
ENDBRANCH   9  10
ENDBRANCH   8   9
ENDBRANCH   7   8
ENDBRANCH   6   7
ENDBRANCH   5   6
ENDBRANCH   4   5
ENDBRANCH   3   4
ENDBRANCH   2   3
ENDBRANCH   1   2
BRANCH   1  17
ATOM     17  C   UNL     1      -8.294  -8.833   7.321  1.00  0.00     0.000 C 
BRANCH  17  18
ATOM     18  C   UNL     1      -7.681 -10.227   7.112  1.00  0.00     0.000 C 
BRANCH  18  19
ATOM     19  C   UNL     1      -8.527 -11.349   7.733  1.00  0.00     0.000 C 
BRANCH  19  20
ATOM     20  C   UNL     1      -9.883 -11.462   7.022  1.00  0.00     0.000 C 
BRANCH  20  21
ATOM     21  C   UNL     1     -11.057 -11.640   7.998  1.00  0.00     0.000 C 
BRANCH  21  22
ATOM     22  C   UNL     1     -10.664 -12.084   9.423  1.00  0.00    -0.000 C 
BRANCH  22  23
ATOM     23  C   UNL     1     -11.752 -12.849  10.200  1.00  0.00    -0.000 C 
BRANCH  23  24
ATOM     24  C   UNL     1     -13.152 -12.845   9.553  1.00  0.00    -0.000 C 
BRANCH  24  25
ATOM     25  C   UNL     1     -13.572 -14.203   8.951  1.00  0.00    -0.000 C 
BRANCH  25  26
ATOM     26  C   UNL     1     -12.422 -14.904   8.205  1.00  0.00    -0.000 C 
BRANCH  26  27
ATOM     27  C   UNL     1     -12.105 -16.302   8.778  1.00  0.00    -0.000 C 
BRANCH  27  28
ATOM     28  C   UNL     1     -10.630 -16.491   9.180  1.00  0.00    -0.000 C 
BRANCH  28  29
ATOM     29  C   UNL     1      -9.665 -15.429   8.627  1.00  0.00    -0.003 C 
ATOM     30  C   UNL     1      -8.307 -16.009   8.230  1.00  0.00     0.004 C 
ENDBRANCH  28  29
ENDBRANCH  27  28
ENDBRANCH  26  27
ENDBRANCH  25  26
ENDBRANCH  24  25
ENDBRANCH  23  24
ENDBRANCH  22  23
ENDBRANCH  21  22
ENDBRANCH  20  21
ENDBRANCH  19  20
ENDBRANCH  18  19
ENDBRANCH  17  18
ENDBRANCH   1  17
TORSDOF 26
ENDMDL
MODEL 5
REMARK VINA RESULT:    -5.278      1.524      4.411
REMARK INTER + INTRA:         -16.591
REMARK INTER:                 -12.979
REMARK INTRA:                  -3.612
REMARK UNBOUND:                -3.291
REMARK SMILES CCCCCCCCCCCCCCCCCCCCCCCCCCCC(=O)[O-]
REMARK SMILES IDX 15 1 16 2 17 3 18 4 19 5 20 6 21 7 22 8 23 9 24 10 25 11
REMARK SMILES IDX 26 12 27 13 28 14 29 15 30 16 14 17 13 18 12 19 11 20 10 21
REMARK SMILES IDX 9 22 8 23 7 24 6 25 5 26 4 27 3 28 2 29 1 30
REMARK H PARENT
REMARK Flexibility Score: inf
ROOT
ATOM      1  C   UNL     1     -13.026  -7.462   8.494  1.00  0.00     0.000 C 
ENDROOT
BRANCH   1   2
ATOM      2  C   UNL     1     -13.963  -6.245   8.551  1.00  0.00     0.000 C 
BRANCH   2   3
ATOM      3  C   UNL     1     -13.635  -5.265   9.697  1.00  0.00     0.000 C 
BRANCH   3   4
ATOM      4  C   UNL     1     -14.906  -4.678  10.338  1.00  0.00     0.000 C 
BRANCH   4   5
ATOM      5  C   UNL     1     -15.989  -4.348   9.298  1.00  0.00     0.000 C 
BRANCH   5   6
ATOM      6  C   UNL     1     -16.099  -2.841   9.019  1.00  0.00     0.000 C 
BRANCH   6   7
ATOM      7  C   UNL     1     -15.217  -1.995   9.954  1.00  0.00     0.000 C 
BRANCH   7   8
ATOM      8  C   UNL     1     -14.102  -1.216   9.220  1.00  0.00     0.000 C 
BRANCH   8   9
ATOM      9  C   UNL     1     -13.392  -2.024   8.115  1.00  0.00     0.000 C 
BRANCH   9  10
ATOM     10  C   UNL     1     -13.297  -1.314   6.751  1.00  0.00     0.000 C 
BRANCH  10  11
ATOM     11  C   UNL     1     -14.277  -1.877   5.705  1.00  0.00     0.000 C 
BRANCH  11  12
ATOM     12  C   UNL     1     -14.417  -3.412   5.808  1.00  0.00     0.006 C 
BRANCH  12  13
ATOM     13  C   UNL     1     -15.607  -3.976   5.016  1.00  0.00     0.053 C 
BRANCH  13  14
ATOM     14  C   UNL     1     -15.236  -4.377   3.621  1.00  0.00     0.041 C 
ATOM     15  O   UNL     1     -15.688  -5.444   3.127  1.00  0.00    -0.550 OA
ATOM     16  O   UNL     1     -14.353  -3.598   2.886  1.00  0.00    -0.550 OA
ENDBRANCH  13  14
ENDBRANCH  12  13
ENDBRANCH  11  12
ENDBRANCH  10  11
ENDBRANCH   9  10
ENDBRANCH   8   9
ENDBRANCH   7   8
ENDBRANCH   6   7
ENDBRANCH   5   6
ENDBRANCH   4   5
ENDBRANCH   3   4
ENDBRANCH   2   3
ENDBRANCH   1   2
BRANCH   1  17
ATOM     17  C   UNL     1     -13.297  -8.476   9.616  1.00  0.00     0.000 C 
BRANCH  17  18
ATOM     18  C   UNL     1     -12.273  -8.368  10.757  1.00  0.00     0.000 C 
BRANCH  18  19
ATOM     19  C   UNL     1     -12.087  -9.690  11.518  1.00  0.00     0.000 C 
BRANCH  19  20
ATOM     20  C   UNL     1     -13.036 -10.768  10.972  1.00  0.00     0.000 C 
BRANCH  20  21
ATOM     21  C   UNL     1     -12.349 -12.130  10.786  1.00  0.00     0.000 C 
BRANCH  21  22
ATOM     22  C   UNL     1     -12.997 -13.053   9.732  1.00  0.00    -0.000 C 
BRANCH  22  23
ATOM     23  C   UNL     1     -12.015 -13.912   8.914  1.00  0.00    -0.000 C 
BRANCH  23  24
ATOM     24  C   UNL     1     -10.673 -13.234   8.568  1.00  0.00    -0.000 C 
BRANCH  24  25
ATOM     25  C   UNL     1     -10.752 -12.245   7.386  1.00  0.00    -0.000 C 
BRANCH  25  26
ATOM     26  C   UNL     1     -10.584 -10.778   7.826  1.00  0.00    -0.000 C 
BRANCH  26  27
ATOM     27  C   UNL     1      -9.809 -10.640   9.153  1.00  0.00    -0.000 C 
BRANCH  27  28
ATOM     28  C   UNL     1      -8.960  -9.358   9.249  1.00  0.00    -0.000 C 
BRANCH  28  29
ATOM     29  C   UNL     1      -9.275  -8.290   8.189  1.00  0.00    -0.003 C 
ATOM     30  C   UNL     1      -8.198  -8.189   7.107  1.00  0.00     0.004 C 
ENDBRANCH  28  29
ENDBRANCH  27  28
ENDBRANCH  26  27
ENDBRANCH  25  26
ENDBRANCH  24  25
ENDBRANCH  23  24
ENDBRANCH  22  23
ENDBRANCH  21  22
ENDBRANCH  20  21
ENDBRANCH  19  20
ENDBRANCH  18  19
ENDBRANCH  17  18
ENDBRANCH   1  17
TORSDOF 26
ENDMDL
MODEL 6
REMARK VINA RESULT:    -5.187      1.168      2.032
REMARK INTER + INTRA:         -16.361
REMARK INTER:                 -12.861
REMARK INTRA:                  -3.500
REMARK UNBOUND:                -3.291
REMARK SMILES CCCCCCCCCCCCCCCCCCCCCCCCCCCC(=O)[O-]
REMARK SMILES IDX 15 1 16 2 17 3 18 4 19 5 20 6 21 7 22 8 23 9 24 10 25 11
REMARK SMILES IDX 26 12 27 13 28 14 29 15 30 16 14 17 13 18 12 19 11 20 10 21
REMARK SMILES IDX 9 22 8 23 7 24 6 25 5 26 4 27 3 28 2 29 1 30
REMARK H PARENT
REMARK Flexibility Score: inf
ROOT
ATOM      1  C   UNL     1      -8.033  -8.429   7.091  1.00  0.00     0.000 C 
ENDROOT
BRANCH   1   2
ATOM      2  C   UNL     1      -9.365  -7.665   7.162  1.00  0.00     0.000 C 
BRANCH   2   3
ATOM      3  C   UNL     1     -10.018  -7.685   8.559  1.00  0.00     0.000 C 
BRANCH   3   4
ATOM      4  C   UNL     1     -11.555  -7.670   8.481  1.00  0.00     0.000 C 
BRANCH   4   5
ATOM      5  C   UNL     1     -12.208  -7.302   9.823  1.00  0.00     0.000 C 
BRANCH   5   6
ATOM      6  C   UNL     1     -13.610  -7.910   9.984  1.00  0.00     0.000 C 
BRANCH   6   7
ATOM      7  C   UNL     1     -14.696  -7.107   9.246  1.00  0.00     0.000 C 
BRANCH   7   8
ATOM      8  C   UNL     1     -15.415  -6.068  10.137  1.00  0.00     0.000 C 
BRANCH   8   9
ATOM      9  C   UNL     1     -14.623  -4.762  10.345  1.00  0.00     0.000 C 
BRANCH   9  10
ATOM     10  C   UNL     1     -15.434  -3.470  10.132  1.00  0.00     0.000 C 
BRANCH  10  11
ATOM     11  C   UNL     1     -15.051  -2.718   8.844  1.00  0.00     0.000 C 
BRANCH  11  12
ATOM     12  C   UNL     1     -14.026  -3.504   7.996  1.00  0.00     0.006 C 
BRANCH  12  13
ATOM     13  C   UNL     1     -14.641  -4.191   6.767  1.00  0.00     0.053 C 
BRANCH  13  14
ATOM     14  C   UNL     1     -14.215  -3.560   5.478  1.00  0.00     0.041 C 
ATOM     15  O   UNL     1     -14.060  -4.267   4.447  1.00  0.00    -0.550 OA
ATOM     16  O   UNL     1     -13.942  -2.200   5.426  1.00  0.00    -0.550 OA
ENDBRANCH  13  14
ENDBRANCH  12  13
ENDBRANCH  11  12
ENDBRANCH  10  11
ENDBRANCH   9  10
ENDBRANCH   8   9
ENDBRANCH   7   8
ENDBRANCH   6   7
ENDBRANCH   5   6
ENDBRANCH   4   5
ENDBRANCH   3   4
ENDBRANCH   2   3
ENDBRANCH   1   2
BRANCH   1  17
ATOM     17  C   UNL     1      -8.056  -9.742   7.890  1.00  0.00     0.000 C 
BRANCH  17  18
ATOM     18  C   UNL     1      -8.471 -10.942   7.023  1.00  0.00     0.000 C 
BRANCH  18  19
ATOM     19  C   UNL     1      -9.282 -11.988   7.803  1.00  0.00     0.000 C 
BRANCH  19  20
ATOM     20  C   UNL     1     -10.370 -11.309   8.649  1.00  0.00     0.000 C 
BRANCH  20  21
ATOM     21  C   UNL     1     -10.044 -11.305  10.151  1.00  0.00     0.000 C 
BRANCH  21  22
ATOM     22  C   UNL     1     -10.866 -10.311  10.999  1.00  0.00    -0.000 C 
BRANCH  22  23
ATOM     23  C   UNL     1     -11.882 -10.950  11.964  1.00  0.00    -0.000 C 
BRANCH  23  24
ATOM     24  C   UNL     1     -13.331 -11.026  11.442  1.00  0.00    -0.000 C 
BRANCH  24  25
ATOM     25  C   UNL     1     -13.475 -11.735  10.078  1.00  0.00    -0.000 C 
BRANCH  25  26
ATOM     26  C   UNL     1     -13.092 -13.226  10.140  1.00  0.00    -0.000 C 
BRANCH  26  27
ATOM     27  C   UNL     1     -13.238 -13.934   8.777  1.00  0.00    -0.000 C 
BRANCH  27  28
ATOM     28  C   UNL     1     -11.928 -14.555   8.254  1.00  0.00    -0.000 C 
BRANCH  28  29
ATOM     29  C   UNL     1     -10.898 -14.909   9.339  1.00  0.00    -0.003 C 
ATOM     30  C   UNL     1      -9.890 -15.964   8.881  1.00  0.00     0.004 C 
ENDBRANCH  28  29
ENDBRANCH  27  28
ENDBRANCH  26  27
ENDBRANCH  25  26
ENDBRANCH  24  25
ENDBRANCH  23  24
ENDBRANCH  22  23
ENDBRANCH  21  22
ENDBRANCH  20  21
ENDBRANCH  19  20
ENDBRANCH  18  19
ENDBRANCH  17  18
ENDBRANCH   1  17
TORSDOF 26
ENDMDL
MODEL 7
REMARK VINA RESULT:    -5.187      1.530      3.617
REMARK INTER + INTRA:         -16.361
REMARK INTER:                 -13.485
REMARK INTRA:                  -2.876
REMARK UNBOUND:                -3.291
REMARK SMILES CCCCCCCCCCCCCCCCCCCCCCCCCCCC(=O)[O-]
REMARK SMILES IDX 15 1 16 2 17 3 18 4 19 5 20 6 21 7 22 8 23 9 24 10 25 11
REMARK SMILES IDX 26 12 27 13 28 14 29 15 30 16 14 17 13 18 12 19 11 20 10 21
REMARK SMILES IDX 9 22 8 23 7 24 6 25 5 26 4 27 3 28 2 29 1 30
REMARK H PARENT
REMARK Flexibility Score: inf
ROOT
ATOM      1  C   UNL     1     -12.658  -7.010   8.945  1.00  0.00     0.000 C 
ENDROOT
BRANCH   1   2
ATOM      2  C   UNL     1     -13.952  -7.401   9.678  1.00  0.00     0.000 C 
BRANCH   2   3
ATOM      3  C   UNL     1     -15.028  -6.295   9.667  1.00  0.00     0.000 C 
BRANCH   3   4
ATOM      4  C   UNL     1     -14.411  -4.886   9.726  1.00  0.00     0.000 C 
BRANCH   4   5
ATOM      5  C   UNL     1     -15.335  -3.869  10.415  1.00  0.00     0.000 C 
BRANCH   5   6
ATOM      6  C   UNL     1     -15.351  -2.508   9.702  1.00  0.00     0.000 C 
BRANCH   6   7
ATOM      7  C   UNL     1     -13.938  -1.969   9.415  1.00  0.00     0.000 C 
BRANCH   7   8
ATOM      8  C   UNL     1     -13.888  -0.936   8.266  1.00  0.00     0.000 C 
BRANCH   8   9
ATOM      9  C   UNL     1     -13.144  -1.430   7.009  1.00  0.00     0.000 C 
BRANCH   9  10
ATOM     10  C   UNL     1     -14.019  -1.566   5.748  1.00  0.00     0.000 C 
BRANCH  10  11
ATOM     11  C   UNL     1     -15.432  -2.102   6.045  1.00  0.00     0.000 C 
BRANCH  11  12
ATOM     12  C   UNL     1     -15.492  -3.644   5.985  1.00  0.00     0.006 C 
BRANCH  12  13
ATOM     13  C   UNL     1     -14.460  -4.264   5.029  1.00  0.00     0.053 C 
BRANCH  13  14
ATOM     14  C   UNL     1     -14.995  -4.449   3.642  1.00  0.00     0.041 C 
ATOM     15  O   UNL     1     -15.922  -5.274   3.426  1.00  0.00    -0.550 OA
ATOM     16  O   UNL     1     -14.437  -3.747   2.582  1.00  0.00    -0.550 OA
ENDBRANCH  13  14
ENDBRANCH  12  13
ENDBRANCH  11  12
ENDBRANCH  10  11
ENDBRANCH   9  10
ENDBRANCH   8   9
ENDBRANCH   7   8
ENDBRANCH   6   7
ENDBRANCH   5   6
ENDBRANCH   4   5
ENDBRANCH   3   4
ENDBRANCH   2   3
ENDBRANCH   1   2
BRANCH   1  17
ATOM     17  C   UNL     1     -11.392  -7.387   9.730  1.00  0.00     0.000 C 
BRANCH  17  18
ATOM     18  C   UNL     1     -10.589  -8.501   9.038  1.00  0.00     0.000 C 
BRANCH  18  19
ATOM     19  C   UNL     1      -9.749  -7.985   7.859  1.00  0.00     0.000 C 
BRANCH  19  20
ATOM     20  C   UNL     1      -8.588  -8.945   7.560  1.00  0.00     0.000 C 
BRANCH  20  21
ATOM     21  C   UNL     1      -8.732 -10.298   8.275  1.00  0.00     0.000 C 
BRANCH  21  22
ATOM     22  C   UNL     1      -8.887 -11.519   7.343  1.00  0.00    -0.000 C 
BRANCH  22  23
ATOM     23  C   UNL     1      -9.739 -12.673   7.903  1.00  0.00    -0.000 C 
BRANCH  23  24
ATOM     24  C   UNL     1     -11.260 -12.533   7.692  1.00  0.00    -0.000 C 
BRANCH  24  25
ATOM     25  C   UNL     1     -12.076 -13.762   8.147  1.00  0.00    -0.000 C 
BRANCH  25  26
ATOM     26  C   UNL     1     -12.996 -13.456   9.344  1.00  0.00    -0.000 C 
BRANCH  26  27
ATOM     27  C   UNL     1     -12.378 -12.436  10.323  1.00  0.00    -0.000 C 
BRANCH  27  28
ATOM     28  C   UNL     1     -13.053 -11.051  10.289  1.00  0.00    -0.000 C 
BRANCH  28  29
ATOM     29  C   UNL     1     -13.186 -10.360  11.655  1.00  0.00    -0.003 C 
ATOM     30  C   UNL     1     -12.007 -10.650  12.586  1.00  0.00     0.004 C 
ENDBRANCH  28  29
ENDBRANCH  27  28
ENDBRANCH  26  27
ENDBRANCH  25  26
ENDBRANCH  24  25
ENDBRANCH  23  24
ENDBRANCH  22  23
ENDBRANCH  21  22
ENDBRANCH  20  21
ENDBRANCH  19  20
ENDBRANCH  18  19
ENDBRANCH  17  18
ENDBRANCH   1  17
TORSDOF 26
ENDMDL
MODEL 8
REMARK VINA RESULT:    -5.011     13.484     17.430
REMARK INTER + INTRA:         -15.918
REMARK INTER:                 -10.058
REMARK INTRA:                  -5.861
REMARK UNBOUND:                -3.291
REMARK SMILES CCCCCCCCCCCCCCCCCCCCCCCCCCCC(=O)[O-]
REMARK SMILES IDX 15 1 16 2 17 3 18 4 19 5 20 6 21 7 22 8 23 9 24 10 25 11
REMARK SMILES IDX 26 12 27 13 28 14 29 15 30 16 14 17 13 18 12 19 11 20 10 21
REMARK SMILES IDX 9 22 8 23 7 24 6 25 5 26 4 27 3 28 2 29 1 30
REMARK H PARENT
REMARK Flexibility Score: inf
ROOT
ATOM      1  C   UNL     1      -1.015 -14.933  15.147  1.00  0.00     0.000 C 
ENDROOT
BRANCH   1   2
ATOM      2  C   UNL     1      -0.318 -13.626  15.559  1.00  0.00     0.000 C 
BRANCH   2   3
ATOM      3  C   UNL     1       0.095 -13.585  17.045  1.00  0.00     0.000 C 
BRANCH   3   4
ATOM      4  C   UNL     1       1.586 -13.250  17.223  1.00  0.00     0.000 C 
BRANCH   4   5
ATOM      5  C   UNL     1       2.241 -14.067  18.347  1.00  0.00     0.000 C 
BRANCH   5   6
ATOM      6  C   UNL     1       1.264 -15.053  19.006  1.00  0.00     0.000 C 
BRANCH   6   7
ATOM      7  C   UNL     1       1.967 -16.054  19.941  1.00  0.00     0.000 C 
BRANCH   7   8
ATOM      8  C   UNL     1       1.638 -17.532  19.629  1.00  0.00     0.000 C 
BRANCH   8   9
ATOM      9  C   UNL     1       1.987 -17.964  18.191  1.00  0.00     0.000 C 
BRANCH   9  10
ATOM     10  C   UNL     1       3.494 -18.076  17.894  1.00  0.00     0.000 C 
BRANCH  10  11
ATOM     11  C   UNL     1       4.015 -16.963  16.967  1.00  0.00     0.000 C 
BRANCH  11  12
ATOM     12  C   UNL     1       2.988 -16.591  15.874  1.00  0.00     0.006 C 
BRANCH  12  13
ATOM     13  C   UNL     1       3.553 -15.662  14.788  1.00  0.00     0.053 C 
BRANCH  13  14
ATOM     14  C   UNL     1       2.521 -15.250  13.785  1.00  0.00     0.041 C 
ATOM     15  O   UNL     1       1.795 -16.117  13.230  1.00  0.00    -0.550 OA
ATOM     16  O   UNL     1       2.393 -13.915  13.427  1.00  0.00    -0.550 OA
ENDBRANCH  13  14
ENDBRANCH  12  13
ENDBRANCH  11  12
ENDBRANCH  10  11
ENDBRANCH   9  10
ENDBRANCH   8   9
ENDBRANCH   7   8
ENDBRANCH   6   7
ENDBRANCH   5   6
ENDBRANCH   4   5
ENDBRANCH   3   4
ENDBRANCH   2   3
ENDBRANCH   1   2
BRANCH   1  17
ATOM     17  C   UNL     1      -0.667 -16.111  16.070  1.00  0.00     0.000 C 
BRANCH  17  18
ATOM     18  C   UNL     1      -1.920 -16.780  16.657  1.00  0.00     0.000 C 
BRANCH  18  19
ATOM     19  C   UNL     1      -1.607 -17.677  17.865  1.00  0.00     0.000 C 
BRANCH  19  20
ATOM     20  C   UNL     1      -2.299 -17.145  19.128  1.00  0.00     0.000 C 
BRANCH  20  21
ATOM     21  C   UNL     1      -2.419 -15.613  19.144  1.00  0.00     0.000 C 
BRANCH  21  22
ATOM     22  C   UNL     1      -3.806 -15.067  19.548  1.00  0.00    -0.000 C 
BRANCH  22  23
ATOM     23  C   UNL     1      -4.161 -13.681  18.979  1.00  0.00    -0.000 C 
BRANCH  23  24
ATOM     24  C   UNL     1      -3.386 -13.268  17.712  1.00  0.00    -0.000 C 
BRANCH  24  25
ATOM     25  C   UNL     1      -4.163 -12.314  16.780  1.00  0.00    -0.000 C 
BRANCH  25  26
ATOM     26  C   UNL     1      -4.581 -12.983  15.457  1.00  0.00    -0.000 C 
BRANCH  26  27
ATOM     27  C   UNL     1      -4.483 -14.522  15.512  1.00  0.00    -0.000 C 
BRANCH  27  28
ATOM     28  C   UNL     1      -5.726 -15.205  16.113  1.00  0.00    -0.000 C 
BRANCH  28  29
ATOM     29  C   UNL     1      -5.486 -16.617  16.670  1.00  0.00    -0.003 C 
ATOM     30  C   UNL     1      -6.643 -17.120  17.536  1.00  0.00     0.004 C 
ENDBRANCH  28  29
ENDBRANCH  27  28
ENDBRANCH  26  27
ENDBRANCH  25  26
ENDBRANCH  24  25
ENDBRANCH  23  24
ENDBRANCH  22  23
ENDBRANCH  21  22
ENDBRANCH  20  21
ENDBRANCH  19  20
ENDBRANCH  18  19
ENDBRANCH  17  18
ENDBRANCH   1  17
TORSDOF 26
ENDMDL
MODEL 9
REMARK VINA RESULT:    -3.827      2.905      5.845
REMARK INTER + INTRA:         -12.936
REMARK INTER:                  -9.097
REMARK INTRA:                  -3.839
REMARK UNBOUND:                -3.291
REMARK SMILES CCCCCCCCCCCCCCCCCCCCCCCCCCCC(=O)[O-]
REMARK SMILES IDX 15 1 16 2 17 3 18 4 19 5 20 6 21 7 22 8 23 9 24 10 25 11
REMARK SMILES IDX 26 12 27 13 28 14 29 15 30 16 14 17 13 18 12 19 11 20 10 21
REMARK SMILES IDX 9 22 8 23 7 24 6 25 5 26 4 27 3 28 2 29 1 30
REMARK H PARENT
REMARK Flexibility Score: inf
ROOT
ATOM      1  C   UNL     1     -14.990  -5.699   6.585  1.00  0.00     0.000 C 
ENDROOT
BRANCH   1   2
ATOM      2  C   UNL     1     -15.426  -4.233   6.433  1.00  0.00     0.000 C 
BRANCH   2   3
ATOM      3  C   UNL     1     -14.255  -3.229   6.485  1.00  0.00     0.000 C 
BRANCH   3   4
ATOM      4  C   UNL     1     -13.840  -2.898   7.929  1.00  0.00     0.000 C 
BRANCH   4   5
ATOM      5  C   UNL     1     -14.933  -3.253   8.951  1.00  0.00     0.000 C 
BRANCH   5   6
ATOM      6  C   UNL     1     -14.447  -4.254  10.011  1.00  0.00     0.000 C 
BRANCH   6   7
ATOM      7  C   UNL     1     -12.957  -4.608   9.858  1.00  0.00     0.000 C 
BRANCH   7   8
ATOM      8  C   UNL     1     -12.698  -6.109   9.596  1.00  0.00     0.000 C 
BRANCH   8   9
ATOM      9  C   UNL     1     -11.486  -6.681  10.360  1.00  0.00     0.000 C 
BRANCH   9  10
ATOM     10  C   UNL     1     -10.705  -7.777   9.610  1.00  0.00     0.000 C 
BRANCH  10  11
ATOM     11  C   UNL     1     -11.421  -8.271   8.339  1.00  0.00     0.000 C 
BRANCH  11  12
ATOM     12  C   UNL     1     -10.732  -9.512   7.730  1.00  0.00     0.006 C 
BRANCH  12  13
ATOM     13  C   UNL     1      -9.254  -9.652   8.128  1.00  0.00     0.053 C 
BRANCH  13  14
ATOM     14  C   UNL     1      -8.571 -10.785   7.425  1.00  0.00     0.041 C 
ATOM     15  O   UNL     1      -7.338 -10.724   7.177  1.00  0.00    -0.550 OA
ATOM     16  O   UNL     1      -9.305 -11.884   7.002  1.00  0.00    -0.550 OA
ENDBRANCH  13  14
ENDBRANCH  12  13
ENDBRANCH  11  12
ENDBRANCH  10  11
ENDBRANCH   9  10
ENDBRANCH   8   9
ENDBRANCH   7   8
ENDBRANCH   6   7
ENDBRANCH   5   6
ENDBRANCH   4   5
ENDBRANCH   3   4
ENDBRANCH   2   3
ENDBRANCH   1   2
BRANCH   1  17
ATOM     17  C   UNL     1     -15.989  -6.537   7.398  1.00  0.00     0.000 C 
BRANCH  17  18
ATOM     18  C   UNL     1     -15.298  -7.660   8.189  1.00  0.00     0.000 C 
BRANCH  18  19
ATOM     19  C   UNL     1     -15.742  -7.713   9.659  1.00  0.00     0.000 C 
BRANCH  19  20
ATOM     20  C   UNL     1     -16.125  -9.146  10.058  1.00  0.00     0.000 C 
BRANCH  20  21
ATOM     21  C   UNL     1     -15.183  -9.744  11.114  1.00  0.00     0.000 C 
BRANCH  21  22
ATOM     22  C   UNL     1     -13.716  -9.912  10.665  1.00  0.00    -0.000 C 
BRANCH  22  23
ATOM     23  C   UNL     1     -12.896 -10.947  11.458  1.00  0.00    -0.000 C 
BRANCH  23  24
ATOM     24  C   UNL     1     -11.439 -11.134  10.993  1.00  0.00    -0.000 C 
BRANCH  24  25
ATOM     25  C   UNL     1     -11.217 -12.366  10.089  1.00  0.00    -0.000 C 
BRANCH  25  26
ATOM     26  C   UNL     1     -12.296 -12.505   8.999  1.00  0.00    -0.000 C 
BRANCH  26  27
ATOM     27  C   UNL     1     -12.940 -13.907   8.974  1.00  0.00    -0.000 C 
BRANCH  27  28
ATOM     28  C   UNL     1     -12.151 -14.940   8.147  1.00  0.00    -0.000 C 
BRANCH  28  29
ATOM     29  C   UNL     1     -11.380 -15.982   8.974  1.00  0.00    -0.003 C 
ATOM     30  C   UNL     1      -9.863 -15.804   8.890  1.00  0.00     0.004 C 
ENDBRANCH  28  29
ENDBRANCH  27  28
ENDBRANCH  26  27
ENDBRANCH  25  26
ENDBRANCH  24  25
ENDBRANCH  23  24
ENDBRANCH  22  23
ENDBRANCH  21  22
ENDBRANCH  20  21
ENDBRANCH  19  20
ENDBRANCH  18  19
ENDBRANCH  17  18
ENDBRANCH   1  17
TORSDOF 26
ENDMDL
