MODEL 1
REMARK VINA RESULT:    -5.287      0.000      0.000
REMARK INTER + INTRA:          -6.054
REMARK INTER:                  -5.906
REMARK INTRA:                  -0.148
REMARK UNBOUND:                -0.148
REMARK SMILES O=C([O-])c1ccccc1C(=O)[O-]
REMARK SMILES IDX 4 1 9 2 5 3 8 4 6 5 7 6 2 7 1 8 3 9 10 10 11 11 12 12
REMARK H PARENT
REMARK Flexibility Score: inf
ROOT
ATOM      1  C   UNL     1      38.580  18.323  10.873  1.00  0.00     0.006 A 
ATOM      2  C   UNL     1      38.350  18.614   9.499  1.00  0.00     0.006 A 
ATOM      3  C   UNL     1      39.876  18.479  11.397  1.00  0.00     0.010 A 
ATOM      4  C   UNL     1      39.437  18.988   8.688  1.00  0.00     0.010 A 
ATOM      5  C   UNL     1      40.935  18.873  10.578  1.00  0.00     0.001 A 
ATOM      6  C   UNL     1      40.718  19.116   9.224  1.00  0.00     0.001 A 
ENDROOT
BRANCH   1   7
ATOM      7  C   UNL     1      37.528  17.792  11.771  1.00  0.00     0.072 C 
ATOM      8  O   UNL     1      36.980  18.531  12.631  1.00  0.00    -0.545 OA
ATOM      9  O   UNL     1      37.085  16.482  11.625  1.00  0.00    -0.545 OA
ENDBRANCH   1   7
BRANCH   2  10
ATOM     10  C   UNL     1      36.997  18.612   8.896  1.00  0.00     0.072 C 
ATOM     11  O   UNL     1      36.460  17.527   8.547  1.00  0.00    -0.545 OA
ATOM     12  O   UNL     1      36.329  19.805   8.647  1.00  0.00    -0.545 OA
ENDBRANCH   2  10
TORSDOF 2
ENDMDL
MODEL 2
REMARK VINA RESULT:    -5.276      0.089      3.146
REMARK INTER + INTRA:          -6.041
REMARK INTER:                  -5.923
REMARK INTRA:                  -0.118
REMARK UNBOUND:                -0.148
REMARK SMILES O=C([O-])c1ccccc1C(=O)[O-]
REMARK SMILES IDX 4 1 9 2 5 3 8 4 6 5 7 6 2 7 1 8 3 9 10 10 11 11 12 12
REMARK H PARENT
REMARK Flexibility Score: inf
ROOT
ATOM      1  C   UNL     1      38.403  18.595   9.458  1.00  0.00     0.006 A 
ATOM      2  C   UNL     1      38.599  18.352  10.847  1.00  0.00     0.006 A 
ATOM      3  C   UNL     1      39.514  18.914   8.657  1.00  0.00     0.010 A 
ATOM      4  C   UNL     1      39.888  18.500  11.392  1.00  0.00     0.010 A 
ATOM      5  C   UNL     1      40.788  19.033   9.215  1.00  0.00     0.001 A 
ATOM      6  C   UNL     1      40.972  18.838  10.582  1.00  0.00     0.001 A 
ENDROOT
BRANCH   1   7
ATOM      7  C   UNL     1      37.065  18.598   8.823  1.00  0.00     0.072 C 
ATOM      8  O   UNL     1      36.478  17.517   8.549  1.00  0.00    -0.545 OA
ATOM      9  O   UNL     1      36.411  19.801   8.583  1.00  0.00    -0.545 OA
ENDBRANCH   1   7
BRANCH   2  10
ATOM     10  C   UNL     1      37.515  17.877  11.737  1.00  0.00     0.072 C 
ATOM     11  O   UNL     1      37.068  18.625  12.647  1.00  0.00    -0.545 OA
ATOM     12  O   UNL     1      37.022  16.582  11.627  1.00  0.00    -0.545 OA
ENDBRANCH   2  10
TORSDOF 2
ENDMDL
MODEL 3
REMARK VINA RESULT:    -5.174      1.248      1.608
REMARK INTER + INTRA:          -5.927
REMARK INTER:                  -5.773
REMARK INTRA:                  -0.153
REMARK UNBOUND:                -0.148
REMARK SMILES O=C([O-])c1ccccc1C(=O)[O-]
REMARK SMILES IDX 4 1 9 2 5 3 8 4 6 5 7 6 2 7 1 8 3 9 10 10 11 11 12 12
REMARK H PARENT
REMARK Flexibility Score: inf
ROOT
ATOM      1  C   UNL     1      38.040  18.214  10.383  1.00  0.00     0.006 A 
ATOM      2  C   UNL     1      38.535  18.775   9.171  1.00  0.00     0.006 A 
ATOM      3  C   UNL     1      38.902  18.112  11.490  1.00  0.00     0.010 A 
ATOM      4  C   UNL     1      39.888  19.153   9.095  1.00  0.00     0.010 A 
ATOM      5  C   UNL     1      40.235  18.514  11.398  1.00  0.00     0.001 A 
ATOM      6  C   UNL     1      40.730  19.023  10.200  1.00  0.00     0.001 A 
ENDROOT
BRANCH   1   7
ATOM      7  C   UNL     1      36.672  17.663  10.515  1.00  0.00     0.072 C 
ATOM      8  O   UNL     1      36.442  16.445  10.287  1.00  0.00    -0.545 OA
ATOM      9  O   UNL     1      35.635  18.473  10.960  1.00  0.00    -0.545 OA
ENDBRANCH   1   7
BRANCH   2  10
ATOM     10  C   UNL     1      37.667  19.048   8.003  1.00  0.00     0.072 C 
ATOM     11  O   UNL     1      37.899  18.492   6.896  1.00  0.00    -0.545 OA
ATOM     12  O   UNL     1      36.628  19.967   8.090  1.00  0.00    -0.545 OA
ENDBRANCH   2  10
TORSDOF 2
ENDMDL
MODEL 4
REMARK VINA RESULT:    -5.107      1.280      2.973
REMARK INTER + INTRA:          -5.852
REMARK INTER:                  -5.728
REMARK INTRA:                  -0.124
REMARK UNBOUND:                -0.148
REMARK SMILES O=C([O-])c1ccccc1C(=O)[O-]
REMARK SMILES IDX 4 1 9 2 5 3 8 4 6 5 7 6 2 7 1 8 3 9 10 10 11 11 12 12
REMARK H PARENT
REMARK Flexibility Score: inf
ROOT
ATOM      1  C   UNL     1      38.410  18.831   9.168  1.00  0.00     0.006 A 
ATOM      2  C   UNL     1      37.939  18.239  10.374  1.00  0.00     0.006 A 
ATOM      3  C   UNL     1      39.758  19.221   9.080  1.00  0.00     0.010 A 
ATOM      4  C   UNL     1      38.819  18.117  11.466  1.00  0.00     0.010 A 
ATOM      5  C   UNL     1      40.619  19.071  10.168  1.00  0.00     0.001 A 
ATOM      6  C   UNL     1      40.147  18.531  11.362  1.00  0.00     0.001 A 
ENDROOT
BRANCH   1   7
ATOM      7  C   UNL     1      37.525  19.125   8.017  1.00  0.00     0.072 C 
ATOM      8  O   UNL     1      36.603  19.978   8.113  1.00  0.00    -0.545 OA
ATOM      9  O   UNL     1      37.749  18.508   6.792  1.00  0.00    -0.545 OA
ENDBRANCH   1   7
BRANCH   2  10
ATOM     10  C   UNL     1      36.576  17.674  10.509  1.00  0.00     0.072 C 
ATOM     11  O   UNL     1      36.367  16.457  10.262  1.00  0.00    -0.545 OA
ATOM     12  O   UNL     1      35.501  18.488  10.845  1.00  0.00    -0.545 OA
ENDBRANCH   2  10
TORSDOF 2
ENDMDL
MODEL 5
REMARK VINA RESULT:    -4.915      2.311      3.272
REMARK INTER + INTRA:          -5.637
REMARK INTER:                  -5.506
REMARK INTRA:                  -0.131
REMARK UNBOUND:                -0.148
REMARK SMILES O=C([O-])c1ccccc1C(=O)[O-]
REMARK SMILES IDX 4 1 9 2 5 3 8 4 6 5 7 6 2 7 1 8 3 9 10 10 11 11 12 12
REMARK H PARENT
REMARK Flexibility Score: inf
ROOT
ATOM      1  C   UNL     1      39.099  18.348  10.533  1.00  0.00     0.006 A 
ATOM      2  C   UNL     1      38.041  18.042   9.631  1.00  0.00     0.006 A 
ATOM      3  C   UNL     1      38.806  18.518  11.898  1.00  0.00     0.010 A 
ATOM      4  C   UNL     1      36.723  17.980  10.119  1.00  0.00     0.010 A 
ATOM      5  C   UNL     1      37.492  18.431  12.363  1.00  0.00     0.001 A 
ATOM      6  C   UNL     1      36.452  18.174  11.473  1.00  0.00     0.001 A 
ENDROOT
BRANCH   1   7
ATOM      7  C   UNL     1      40.495  18.569  10.091  1.00  0.00     0.072 C 
ATOM      8  O   UNL     1      40.801  19.571   9.392  1.00  0.00    -0.545 OA
ATOM      9  O   UNL     1      41.502  17.703  10.504  1.00  0.00    -0.545 OA
ENDBRANCH   1   7
BRANCH   2  10
ATOM     10  C   UNL     1      38.275  17.711   8.206  1.00  0.00     0.072 C 
ATOM     11  O   UNL     1      38.755  16.592   7.885  1.00  0.00    -0.545 OA
ATOM     12  O   UNL     1      38.033  18.651   7.211  1.00  0.00    -0.545 OA
ENDBRANCH   2  10
TORSDOF 2
ENDMDL
MODEL 6
REMARK VINA RESULT:    -4.913      2.187      3.995
REMARK INTER + INTRA:          -5.636
REMARK INTER:                  -5.602
REMARK INTRA:                  -0.034
REMARK UNBOUND:                -0.148
REMARK SMILES O=C([O-])c1ccccc1C(=O)[O-]
REMARK SMILES IDX 4 1 9 2 5 3 8 4 6 5 7 6 2 7 1 8 3 9 10 10 11 11 12 12
REMARK H PARENT
REMARK Flexibility Score: inf
ROOT
ATOM      1  C   UNL     1      37.729  18.118   9.759  1.00  0.00     0.006 A 
ATOM      2  C   UNL     1      38.768  18.371  10.699  1.00  0.00     0.006 A 
ATOM      3  C   UNL     1      36.397  18.076  10.207  1.00  0.00     0.010 A 
ATOM      4  C   UNL     1      38.439  18.508  12.060  1.00  0.00     0.010 A 
ATOM      5  C   UNL     1      36.092  18.238  11.560  1.00  0.00     0.001 A 
ATOM      6  C   UNL     1      37.112  18.442  12.486  1.00  0.00     0.001 A 
ENDROOT
BRANCH   1   7
ATOM      7  C   UNL     1      37.990  17.824   8.331  1.00  0.00     0.072 C 
ATOM      8  O   UNL     1      37.634  18.629   7.430  1.00  0.00    -0.545 OA
ATOM      9  O   UNL     1      38.695  16.681   7.973  1.00  0.00    -0.545 OA
ENDBRANCH   1   7
BRANCH   2  10
ATOM     10  C   UNL     1      40.180  18.568  10.298  1.00  0.00     0.072 C 
ATOM     11  O   UNL     1      41.095  17.901  10.848  1.00  0.00    -0.545 OA
ATOM     12  O   UNL     1      40.522  19.536   9.359  1.00  0.00    -0.545 OA
ENDBRANCH   2  10
TORSDOF 2
ENDMDL
MODEL 7
REMARK VINA RESULT:    -4.763      1.939      3.471
REMARK INTER + INTRA:          -5.467
REMARK INTER:                  -5.248
REMARK INTRA:                  -0.220
REMARK UNBOUND:                -0.148
REMARK SMILES O=C([O-])c1ccccc1C(=O)[O-]
REMARK SMILES IDX 4 1 9 2 5 3 8 4 6 5 7 6 2 7 1 8 3 9 10 10 11 11 12 12
REMARK H PARENT
REMARK Flexibility Score: inf
ROOT
ATOM      1  C   UNL     1      36.902  18.316  10.116  1.00  0.00     0.006 A 
ATOM      2  C   UNL     1      37.761  18.712   9.052  1.00  0.00     0.006 A 
ATOM      3  C   UNL     1      35.528  18.602  10.027  1.00  0.00     0.010 A 
ATOM      4  C   UNL     1      37.223  19.432   7.970  1.00  0.00     0.010 A 
ATOM      5  C   UNL     1      35.012  19.299   8.934  1.00  0.00     0.001 A 
ATOM      6  C   UNL     1      35.860  19.723   7.913  1.00  0.00     0.001 A 
ENDROOT
BRANCH   1   7
ATOM      7  C   UNL     1      37.399  17.677  11.356  1.00  0.00     0.072 C 
ATOM      8  O   UNL     1      37.310  16.431  11.520  1.00  0.00    -0.545 OA
ATOM      9  O   UNL     1      38.033  18.442  12.329  1.00  0.00    -0.545 OA
ENDBRANCH   1   7
BRANCH   2  10
ATOM     10  C   UNL     1      39.192  18.333   8.996  1.00  0.00     0.072 C 
ATOM     11  O   UNL     1      40.084  19.182   9.263  1.00  0.00    -0.545 OA
ATOM     12  O   UNL     1      39.574  17.060   8.587  1.00  0.00    -0.545 OA
ENDBRANCH   2  10
TORSDOF 2
ENDMDL
MODEL 8
REMARK VINA RESULT:    -4.717      2.025      3.984
REMARK INTER + INTRA:          -5.416
REMARK INTER:                  -5.202
REMARK INTRA:                  -0.215
REMARK UNBOUND:                -0.148
REMARK SMILES O=C([O-])c1ccccc1C(=O)[O-]
REMARK SMILES IDX 4 1 9 2 5 3 8 4 6 5 7 6 2 7 1 8 3 9 10 10 11 11 12 12
REMARK H PARENT
REMARK Flexibility Score: inf
ROOT
ATOM      1  C   UNL     1      38.078  18.534   9.122  1.00  0.00     0.006 A 
ATOM      2  C   UNL     1      37.099  18.177  10.091  1.00  0.00     0.006 A 
ATOM      3  C   UNL     1      37.693  19.316   8.018  1.00  0.00     0.010 A 
ATOM      4  C   UNL     1      35.761  18.561   9.886  1.00  0.00     0.010 A 
ATOM      5  C   UNL     1      36.364  19.705   7.846  1.00  0.00     0.001 A 
ATOM      6  C   UNL     1      35.398  19.319   8.772  1.00  0.00     0.001 A 
ENDROOT
BRANCH   1   7
ATOM      7  C   UNL     1      39.480  18.060   9.181  1.00  0.00     0.072 C 
ATOM      8  O   UNL     1      39.833  17.011   8.579  1.00  0.00    -0.545 OA
ATOM      9  O   UNL     1      40.441  18.811   9.849  1.00  0.00    -0.545 OA
ENDBRANCH   1   7
BRANCH   2  10
ATOM     10  C   UNL     1      37.439  17.476  11.351  1.00  0.00     0.072 C 
ATOM     11  O   UNL     1      37.132  16.264  11.505  1.00  0.00    -0.545 OA
ATOM     12  O   UNL     1      38.040  18.159  12.403  1.00  0.00    -0.545 OA
ENDBRANCH   2  10
TORSDOF 2
ENDMDL
MODEL 9
REMARK VINA RESULT:    -4.696      1.999      3.594
REMARK INTER + INTRA:          -5.393
REMARK INTER:                  -5.165
REMARK INTRA:                  -0.228
REMARK UNBOUND:                -0.148
REMARK SMILES O=C([O-])c1ccccc1C(=O)[O-]
REMARK SMILES IDX 4 1 9 2 5 3 8 4 6 5 7 6 2 7 1 8 3 9 10 10 11 11 12 12
REMARK H PARENT
REMARK Flexibility Score: inf
ROOT
ATOM      1  C   UNL     1      36.280  18.338  10.617  1.00  0.00     0.006 A 
ATOM      2  C   UNL     1      36.669  18.804   9.329  1.00  0.00     0.006 A 
ATOM      3  C   UNL     1      34.991  18.640  11.092  1.00  0.00     0.010 A 
ATOM      4  C   UNL     1      35.777  19.607   8.594  1.00  0.00     0.010 A 
ATOM      5  C   UNL     1      34.115  19.421  10.337  1.00  0.00     0.001 A 
ATOM      6  C   UNL     1      34.512  19.913   9.095  1.00  0.00     0.001 A 
ENDROOT
BRANCH   1   7
ATOM      7  C   UNL     1      37.198  17.603  11.518  1.00  0.00     0.072 C 
ATOM      8  O   UNL     1      37.266  16.346  11.485  1.00  0.00    -0.545 OA
ATOM      9  O   UNL     1      38.048  18.303  12.367  1.00  0.00    -0.545 OA
ENDBRANCH   1   7
BRANCH   2  10
ATOM     10  C   UNL     1      37.949  18.418   8.691  1.00  0.00     0.072 C 
ATOM     11  O   UNL     1      38.038  17.339   8.048  1.00  0.00    -0.545 OA
ATOM     12  O   UNL     1      39.084  19.205   8.849  1.00  0.00    -0.545 OA
ENDBRANCH   2  10
TORSDOF 2
ENDMDL
