MODEL 1
REMARK VINA RESULT:    -6.404      0.000      0.000
REMARK INTER + INTRA:          -8.630
REMARK INTER:                  -8.088
REMARK INTRA:                  -0.542
REMARK UNBOUND:                -0.542
REMARK SMILES O=C(C=Cc1ccc(O)cc1)c1ccc(O)cc1O
REMARK SMILES IDX 4 1 3 2 5 3 6 4 7 5 8 6 11 7 10 8 9 9 2 11 1 12 12 13 18 14
REMARK SMILES IDX 13 15 17 16 14 17 15 18 19 19 16 21
REMARK H PARENT 9 10 19 20 16 22
REMARK Flexibility Score: inf
ROOT
ATOM      1  C   UNL     1      31.225 -92.578  37.563  1.00  0.00     0.012 C 
ATOM      2  C   UNL     1      31.766 -93.401  38.473  1.00  0.00     0.053 C 
ENDROOT
BRANCH   1   3
ATOM      3  C   UNL     1      31.495 -91.119  37.510  1.00  0.00    -0.025 A 
ATOM      4  C   UNL     1      30.723 -90.263  38.313  1.00  0.00     0.012 A 
ATOM      5  C   UNL     1      30.935 -88.881  38.287  1.00  0.00     0.047 A 
ATOM      6  C   UNL     1      31.913 -88.335  37.452  1.00  0.00     0.115 A 
ATOM      7  C   UNL     1      32.469 -90.559  36.658  1.00  0.00     0.012 A 
ATOM      8  C   UNL     1      32.677 -89.176  36.635  1.00  0.00     0.047 A 
BRANCH   6   9
ATOM      9  O   UNL     1      32.113 -86.956  37.437  1.00  0.00    -0.508 OA
ATOM     10  H   UNL     1      33.044 -86.556  37.433  1.00  0.00     0.293 HD
ENDBRANCH   6   9
ENDBRANCH   1   3
BRANCH   2  11
ATOM     11  C   UNL     1      31.463 -94.848  38.506  1.00  0.00     0.189 C 
ATOM     12  O   UNL     1      32.304 -95.682  38.071  1.00  0.00    -0.289 OA
BRANCH  11  13
ATOM     13  C   UNL     1      30.187 -95.332  39.076  1.00  0.00     0.064 A 
ATOM     14  C   UNL     1      29.036 -95.534  38.273  1.00  0.00     0.130 A 
ATOM     15  C   UNL     1      30.124 -95.639  40.447  1.00  0.00     0.020 A 
ATOM     16  C   UNL     1      27.875 -96.064  38.847  1.00  0.00     0.093 A 
ATOM     17  C   UNL     1      28.953 -96.154  41.009  1.00  0.00     0.047 A 
ATOM     18  C   UNL     1      27.827 -96.372  40.209  1.00  0.00     0.119 A 
BRANCH  14  19
ATOM     19  O   UNL     1      29.003 -95.197  36.919  1.00  0.00    -0.507 OA
ATOM     20  H   UNL     1      28.156 -94.925  36.436  1.00  0.00     0.293 HD
ENDBRANCH  14  19
BRANCH  18  21
ATOM     21  O   UNL     1      26.656 -96.893  40.756  1.00  0.00    -0.508 OA
ATOM     22  H   UNL     1      25.949 -97.328  40.176  1.00  0.00     0.293 HD
ENDBRANCH  18  21
ENDBRANCH  11  13
ENDBRANCH   2  11
TORSDOF 6
ENDMDL
MODEL 2
REMARK VINA RESULT:    -6.399      1.253      2.195
REMARK INTER + INTRA:          -8.625
REMARK INTER:                  -8.074
REMARK INTRA:                  -0.551
REMARK UNBOUND:                -0.542
REMARK SMILES O=C(C=Cc1ccc(O)cc1)c1ccc(O)cc1O
REMARK SMILES IDX 4 1 3 2 5 3 6 4 7 5 8 6 11 7 10 8 9 9 2 11 1 12 12 13 18 14
REMARK SMILES IDX 13 15 17 16 14 17 15 18 19 19 16 21
REMARK H PARENT 9 10 19 20 16 22
REMARK Flexibility Score: inf
ROOT
ATOM      1  C   UNL     1      31.212 -92.292  37.912  1.00  0.00     0.012 C 
ATOM      2  C   UNL     1      32.208 -93.104  38.297  1.00  0.00     0.053 C 
ENDROOT
BRANCH   1   3
ATOM      3  C   UNL     1      31.360 -90.823  37.764  1.00  0.00    -0.025 A 
ATOM      4  C   UNL     1      32.402 -90.330  36.959  1.00  0.00     0.012 A 
ATOM      5  C   UNL     1      32.585 -88.953  36.798  1.00  0.00     0.047 A 
ATOM      6  C   UNL     1      31.739 -88.050  37.447  1.00  0.00     0.115 A 
ATOM      7  C   UNL     1      30.520 -89.906  38.426  1.00  0.00     0.012 A 
ATOM      8  C   UNL     1      30.708 -88.529  38.264  1.00  0.00     0.047 A 
BRANCH   6   9
ATOM      9  O   UNL     1      31.934 -86.681  37.277  1.00  0.00    -0.508 OA
ATOM     10  H   UNL     1      32.001 -86.266  36.355  1.00  0.00     0.293 HD
ENDBRANCH   6   9
ENDBRANCH   1   3
BRANCH   2  11
ATOM     11  C   UNL     1      32.021 -94.563  38.449  1.00  0.00     0.189 C 
ATOM     12  O   UNL     1      32.998 -95.298  38.763  1.00  0.00    -0.289 OA
BRANCH  11  13
ATOM     13  C   UNL     1      30.684 -95.169  38.266  1.00  0.00     0.064 A 
ATOM     14  C   UNL     1      29.858 -95.507  39.367  1.00  0.00     0.130 A 
ATOM     15  C   UNL     1      30.201 -95.378  36.962  1.00  0.00     0.020 A 
ATOM     16  C   UNL     1      28.571 -96.009  39.140  1.00  0.00     0.093 A 
ATOM     17  C   UNL     1      28.921 -95.894  36.751  1.00  0.00     0.047 A 
ATOM     18  C   UNL     1      28.101 -96.206  37.839  1.00  0.00     0.119 A 
BRANCH  14  19
ATOM     19  O   UNL     1      30.289 -95.385  40.690  1.00  0.00    -0.507 OA
ATOM     20  H   UNL     1      29.852 -95.869  41.463  1.00  0.00     0.293 HD
ENDBRANCH  14  19
BRANCH  18  21
ATOM     21  O   UNL     1      26.818 -96.714  37.641  1.00  0.00    -0.508 OA
ATOM     22  H   UNL     1      26.385 -97.335  38.314  1.00  0.00     0.293 HD
ENDBRANCH  18  21
ENDBRANCH  11  13
ENDBRANCH   2  11
TORSDOF 6
ENDMDL
MODEL 3
REMARK VINA RESULT:    -6.006      2.848      7.403
REMARK INTER + INTRA:          -8.128
REMARK INTER:                  -7.521
REMARK INTRA:                  -0.607
REMARK UNBOUND:                -0.542
REMARK SMILES O=C(C=Cc1ccc(O)cc1)c1ccc(O)cc1O
REMARK SMILES IDX 4 1 3 2 5 3 6 4 7 5 8 6 11 7 10 8 9 9 2 11 1 12 12 13 18 14
REMARK SMILES IDX 13 15 17 16 14 17 15 18 19 19 16 21
REMARK H PARENT 9 10 19 20 16 22
REMARK Flexibility Score: inf
ROOT
ATOM      1  C   UNL     1      31.499 -92.339  38.219  1.00  0.00     0.012 C 
ATOM      2  C   UNL     1      30.614 -92.202  37.220  1.00  0.00     0.053 C 
ENDROOT
BRANCH   1   3
ATOM      3  C   UNL     1      32.223 -93.601  38.509  1.00  0.00    -0.025 A 
ATOM      4  C   UNL     1      33.605 -93.656  38.260  1.00  0.00     0.012 A 
ATOM      5  C   UNL     1      34.327 -94.828  38.508  1.00  0.00     0.047 A 
ATOM      6  C   UNL     1      33.677 -95.963  38.998  1.00  0.00     0.115 A 
ATOM      7  C   UNL     1      31.572 -94.756  38.989  1.00  0.00     0.012 A 
ATOM      8  C   UNL     1      32.297 -95.926  39.235  1.00  0.00     0.047 A 
BRANCH   6   9
ATOM      9  O   UNL     1      34.409 -97.124  39.241  1.00  0.00    -0.508 OA
ATOM     10  H   UNL     1      33.992 -97.926  39.697  1.00  0.00     0.293 HD
ENDBRANCH   6   9
ENDBRANCH   1   3
BRANCH   2  11
ATOM     11  C   UNL     1      29.900 -90.932  36.969  1.00  0.00     0.189 C 
ATOM     12  O   UNL     1      28.655 -90.935  36.759  1.00  0.00    -0.289 OA
BRANCH  11  13
ATOM     13  C   UNL     1      30.630 -89.646  36.991  1.00  0.00     0.064 A 
ATOM     14  C   UNL     1      30.116 -88.504  37.655  1.00  0.00     0.130 A 
ATOM     15  C   UNL     1      31.890 -89.564  36.371  1.00  0.00     0.020 A 
ATOM     16  C   UNL     1      30.880 -87.332  37.710  1.00  0.00     0.093 A 
ATOM     17  C   UNL     1      32.634 -88.383  36.422  1.00  0.00     0.047 A 
ATOM     18  C   UNL     1      32.133 -87.266  37.096  1.00  0.00     0.119 A 
BRANCH  14  19
ATOM     19  O   UNL     1      28.849 -88.488  38.241  1.00  0.00    -0.507 OA
ATOM     20  H   UNL     1      28.691 -88.667  39.224  1.00  0.00     0.293 HD
ENDBRANCH  14  19
BRANCH  18  21
ATOM     21  O   UNL     1      32.870 -86.085  37.161  1.00  0.00    -0.508 OA
ATOM     22  H   UNL     1      32.423 -85.178  37.096  1.00  0.00     0.293 HD
ENDBRANCH  18  21
ENDBRANCH  11  13
ENDBRANCH   2  11
TORSDOF 6
ENDMDL
MODEL 4
REMARK VINA RESULT:    -5.486     16.231     17.225
REMARK INTER + INTRA:          -7.471
REMARK INTER:                  -6.846
REMARK INTRA:                  -0.625
REMARK UNBOUND:                -0.542
REMARK SMILES O=C(C=Cc1ccc(O)cc1)c1ccc(O)cc1O
REMARK SMILES IDX 4 1 3 2 5 3 6 4 7 5 8 6 11 7 10 8 9 9 2 11 1 12 12 13 18 14
REMARK SMILES IDX 13 15 17 16 14 17 15 18 19 19 16 21
REMARK H PARENT 9 10 19 20 16 22
REMARK Flexibility Score: inf
ROOT
ATOM      1  C   UNL     1      38.096 -78.457  39.604  1.00  0.00     0.012 C 
ATOM      2  C   UNL     1      37.477 -78.469  38.414  1.00  0.00     0.053 C 
ENDROOT
BRANCH   1   3
ATOM      3  C   UNL     1      39.259 -79.318  39.934  1.00  0.00    -0.025 A 
ATOM      4  C   UNL     1      40.203 -79.587  38.929  1.00  0.00     0.012 A 
ATOM      5  C   UNL     1      41.309 -80.401  39.193  1.00  0.00     0.047 A 
ATOM      6  C   UNL     1      41.481 -80.967  40.458  1.00  0.00     0.115 A 
ATOM      7  C   UNL     1      39.432 -79.904  41.205  1.00  0.00     0.012 A 
ATOM      8  C   UNL     1      40.538 -80.719  41.464  1.00  0.00     0.047 A 
BRANCH   6   9
ATOM      9  O   UNL     1      42.588 -81.775  40.707  1.00  0.00    -0.508 OA
ATOM     10  H   UNL     1      43.096 -81.725  41.582  1.00  0.00     0.293 HD
ENDBRANCH   6   9
ENDBRANCH   1   3
BRANCH   2  11
ATOM     11  C   UNL     1      36.311 -77.607  38.123  1.00  0.00     0.189 C 
ATOM     12  O   UNL     1      35.819 -76.879  39.029  1.00  0.00    -0.289 OA
BRANCH  11  13
ATOM     13  C   UNL     1      35.732 -77.567  36.763  1.00  0.00     0.064 A 
ATOM     14  C   UNL     1      34.335 -77.652  36.541  1.00  0.00     0.130 A 
ATOM     15  C   UNL     1      36.588 -77.398  35.660  1.00  0.00     0.020 A 
ATOM     16  C   UNL     1      33.830 -77.534  35.241  1.00  0.00     0.093 A 
ATOM     17  C   UNL     1      36.071 -77.297  34.366  1.00  0.00     0.047 A 
ATOM     18  C   UNL     1      34.691 -77.360  34.154  1.00  0.00     0.119 A 
BRANCH  14  19
ATOM     19  O   UNL     1      33.427 -77.879  37.578  1.00  0.00    -0.507 OA
ATOM     20  H   UNL     1      33.163 -77.170  38.249  1.00  0.00     0.293 HD
ENDBRANCH  14  19
BRANCH  18  21
ATOM     21  O   UNL     1      34.164 -77.252  32.869  1.00  0.00    -0.508 OA
ATOM     22  H   UNL     1      33.235 -76.881  32.707  1.00  0.00     0.293 HD
ENDBRANCH  18  21
ENDBRANCH  11  13
ENDBRANCH   2  11
TORSDOF 6
ENDMDL
MODEL 5
REMARK VINA RESULT:    -5.287      2.111      3.480
REMARK INTER + INTRA:          -7.221
REMARK INTER:                  -7.215
REMARK INTRA:                  -0.005
REMARK UNBOUND:                -0.542
REMARK SMILES O=C(C=Cc1ccc(O)cc1)c1ccc(O)cc1O
REMARK SMILES IDX 4 1 3 2 5 3 6 4 7 5 8 6 11 7 10 8 9 9 2 11 1 12 12 13 18 14
REMARK SMILES IDX 13 15 17 16 14 17 15 18 19 19 16 21
REMARK H PARENT 9 10 19 20 16 22
REMARK Flexibility Score: inf
ROOT
ATOM      1  C   UNL     1      31.101 -91.544  38.088  1.00  0.00     0.012 C 
ATOM      2  C   UNL     1      30.461 -92.364  37.241  1.00  0.00     0.053 C 
ENDROOT
BRANCH   1   3
ATOM      3  C   UNL     1      31.329 -90.102  37.822  1.00  0.00    -0.025 A 
ATOM      4  C   UNL     1      32.452 -89.727  37.065  1.00  0.00     0.012 A 
ATOM      5  C   UNL     1      32.713 -88.379  36.799  1.00  0.00     0.047 A 
ATOM      6  C   UNL     1      31.863 -87.387  37.294  1.00  0.00     0.115 A 
ATOM      7  C   UNL     1      30.485 -89.094  38.331  1.00  0.00     0.012 A 
ATOM      8  C   UNL     1      30.750 -87.747  38.063  1.00  0.00     0.047 A 
BRANCH   6   9
ATOM      9  O   UNL     1      32.134 -86.048  37.020  1.00  0.00    -0.508 OA
ATOM     10  H   UNL     1      32.708 -85.487  37.639  1.00  0.00     0.293 HD
ENDBRANCH   6   9
ENDBRANCH   1   3
BRANCH   2  11
ATOM     11  C   UNL     1      30.264 -93.800  37.531  1.00  0.00     0.189 C 
ATOM     12  O   UNL     1      29.147 -94.344  37.313  1.00  0.00    -0.289 OA
BRANCH  11  13
ATOM     13  C   UNL     1      31.382 -94.618  38.050  1.00  0.00     0.064 A 
ATOM     14  C   UNL     1      31.238 -96.003  38.313  1.00  0.00     0.130 A 
ATOM     15  C   UNL     1      32.637 -94.014  38.250  1.00  0.00     0.020 A 
ATOM     16  C   UNL     1      32.346 -96.749  38.732  1.00  0.00     0.093 A 
ATOM     17  C   UNL     1      33.730 -94.767  38.682  1.00  0.00     0.047 A 
ATOM     18  C   UNL     1      33.588 -96.138  38.920  1.00  0.00     0.119 A 
BRANCH  14  19
ATOM     19  O   UNL     1      30.012 -96.661  38.196  1.00  0.00    -0.507 OA
ATOM     20  H   UNL     1      29.488 -96.709  37.332  1.00  0.00     0.293 HD
ENDBRANCH  14  19
BRANCH  18  21
ATOM     21  O   UNL     1      34.674 -96.902  39.345  1.00  0.00    -0.508 OA
ATOM     22  H   UNL     1      35.337 -96.547  40.024  1.00  0.00     0.293 HD
ENDBRANCH  18  21
ENDBRANCH  11  13
ENDBRANCH   2  11
TORSDOF 6
ENDMDL
MODEL 6
REMARK VINA RESULT:    -5.090     15.921     17.035
REMARK INTER + INTRA:          -6.971
REMARK INTER:                  -6.342
REMARK INTRA:                  -0.629
REMARK UNBOUND:                -0.542
REMARK SMILES O=C(C=Cc1ccc(O)cc1)c1ccc(O)cc1O
REMARK SMILES IDX 4 1 3 2 5 3 6 4 7 5 8 6 11 7 10 8 9 9 2 11 1 12 12 13 18 14
REMARK SMILES IDX 13 15 17 16 14 17 15 18 19 19 16 21
REMARK H PARENT 9 10 19 20 16 22
REMARK Flexibility Score: inf
ROOT
ATOM      1  C   UNL     1      36.360 -77.254  36.986  1.00  0.00     0.012 C 
ATOM      2  C   UNL     1      37.390 -78.099  36.829  1.00  0.00     0.053 C 
ENDROOT
BRANCH   1   3
ATOM      3  C   UNL     1      35.025 -77.461  36.371  1.00  0.00    -0.025 A 
ATOM      4  C   UNL     1      33.922 -77.673  37.214  1.00  0.00     0.012 A 
ATOM      5  C   UNL     1      32.647 -77.882  36.679  1.00  0.00     0.047 A 
ATOM      6  C   UNL     1      32.459 -77.893  35.295  1.00  0.00     0.115 A 
ATOM      7  C   UNL     1      34.830 -77.489  34.975  1.00  0.00     0.012 A 
ATOM      8  C   UNL     1      33.553 -77.699  34.443  1.00  0.00     0.047 A 
BRANCH   6   9
ATOM      9  O   UNL     1      31.183 -78.102  34.775  1.00  0.00    -0.508 OA
ATOM     10  H   UNL     1      30.732 -79.008  34.827  1.00  0.00     0.293 HD
ENDBRANCH   6   9
ENDBRANCH   1   3
BRANCH   2  11
ATOM     11  C   UNL     1      38.711 -77.855  37.446  1.00  0.00     0.189 C 
ATOM     12  O   UNL     1      39.527 -77.059  36.903  1.00  0.00    -0.289 OA
BRANCH  11  13
ATOM     13  C   UNL     1      39.076 -78.515  38.718  1.00  0.00     0.064 A 
ATOM     14  C   UNL     1      40.347 -79.110  38.915  1.00  0.00     0.130 A 
ATOM     15  C   UNL     1      38.151 -78.518  39.777  1.00  0.00     0.020 A 
ATOM     16  C   UNL     1      40.671 -79.658  40.162  1.00  0.00     0.093 A 
ATOM     17  C   UNL     1      38.483 -79.081  41.011  1.00  0.00     0.047 A 
ATOM     18  C   UNL     1      39.745 -79.647  41.208  1.00  0.00     0.119 A 
BRANCH  14  19
ATOM     19  O   UNL     1      41.296 -79.200  37.894  1.00  0.00    -0.507 OA
ATOM     20  H   UNL     1      42.284 -79.037  38.039  1.00  0.00     0.293 HD
ENDBRANCH  14  19
BRANCH  18  21
ATOM     21  O   UNL     1      40.090 -80.205  42.438  1.00  0.00    -0.508 OA
ATOM     22  H   UNL     1      40.014 -79.676  43.299  1.00  0.00     0.293 HD
ENDBRANCH  18  21
ENDBRANCH  11  13
ENDBRANCH   2  11
TORSDOF 6
ENDMDL
MODEL 7
REMARK VINA RESULT:    -5.059     16.183     17.445
REMARK INTER + INTRA:          -6.931
REMARK INTER:                  -6.319
REMARK INTRA:                  -0.612
REMARK UNBOUND:                -0.542
REMARK SMILES O=C(C=Cc1ccc(O)cc1)c1ccc(O)cc1O
REMARK SMILES IDX 4 1 3 2 5 3 6 4 7 5 8 6 11 7 10 8 9 9 2 11 1 12 12 13 18 14
REMARK SMILES IDX 13 15 17 16 14 17 15 18 19 19 16 21
REMARK H PARENT 9 10 19 20 16 22
REMARK Flexibility Score: inf
ROOT
ATOM      1  C   UNL     1      37.630 -78.469  37.779  1.00  0.00     0.012 C 
ATOM      2  C   UNL     1      37.767 -78.185  39.082  1.00  0.00     0.053 C 
ENDROOT
BRANCH   1   3
ATOM      3  C   UNL     1      36.470 -78.036  36.959  1.00  0.00    -0.025 A 
ATOM      4  C   UNL     1      35.193 -78.041  37.546  1.00  0.00     0.012 A 
ATOM      5  C   UNL     1      34.071 -77.651  36.809  1.00  0.00     0.047 A 
ATOM      6  C   UNL     1      34.206 -77.262  35.474  1.00  0.00     0.115 A 
ATOM      7  C   UNL     1      36.597 -77.657  35.608  1.00  0.00     0.012 A 
ATOM      8  C   UNL     1      35.471 -77.268  34.874  1.00  0.00     0.047 A 
BRANCH   6   9
ATOM      9  O   UNL     1      33.079 -76.875  34.752  1.00  0.00    -0.508 OA
ATOM     10  H   UNL     1      32.392 -77.551  34.441  1.00  0.00     0.293 HD
ENDBRANCH   6   9
ENDBRANCH   1   3
BRANCH   2  11
ATOM     11  C   UNL     1      38.929 -78.645  39.872  1.00  0.00     0.189 C 
ATOM     12  O   UNL     1      38.833 -78.779  41.123  1.00  0.00    -0.289 OA
BRANCH  11  13
ATOM     13  C   UNL     1      40.203 -78.983  39.200  1.00  0.00     0.064 A 
ATOM     14  C   UNL     1      40.748 -80.291  39.241  1.00  0.00     0.130 A 
ATOM     15  C   UNL     1      40.872 -77.988  38.464  1.00  0.00     0.020 A 
ATOM     16  C   UNL     1      41.918 -80.577  38.528  1.00  0.00     0.093 A 
ATOM     17  C   UNL     1      42.046 -78.286  37.769  1.00  0.00     0.047 A 
ATOM     18  C   UNL     1      42.569 -79.582  37.795  1.00  0.00     0.119 A 
BRANCH  14  19
ATOM     19  O   UNL     1      40.175 -81.315  39.998  1.00  0.00    -0.507 OA
ATOM     20  H   UNL     1      40.254 -81.371  41.005  1.00  0.00     0.293 HD
ENDBRANCH  14  19
BRANCH  18  21
ATOM     21  O   UNL     1      43.736 -79.892  37.099  1.00  0.00    -0.508 OA
ATOM     22  H   UNL     1      43.851 -80.783  36.630  1.00  0.00     0.293 HD
ENDBRANCH  18  21
ENDBRANCH  11  13
ENDBRANCH   2  11
TORSDOF 6
ENDMDL
MODEL 8
REMARK VINA RESULT:    -4.992      8.722     10.576
REMARK INTER + INTRA:          -6.847
REMARK INTER:                  -6.327
REMARK INTRA:                  -0.521
REMARK UNBOUND:                -0.542
REMARK SMILES O=C(C=Cc1ccc(O)cc1)c1ccc(O)cc1O
REMARK SMILES IDX 4 1 3 2 5 3 6 4 7 5 8 6 11 7 10 8 9 9 2 11 1 12 12 13 18 14
REMARK SMILES IDX 13 15 17 16 14 17 15 18 19 19 16 21
REMARK H PARENT 9 10 19 20 16 22
REMARK Flexibility Score: inf
ROOT
ATOM      1  C   UNL     1      39.824 -94.232  33.437  1.00  0.00     0.012 C 
ATOM      2  C   UNL     1      39.603 -95.053  34.474  1.00  0.00     0.053 C 
ENDROOT
BRANCH   1   3
ATOM      3  C   UNL     1      39.478 -94.568  32.034  1.00  0.00    -0.025 A 
ATOM      4  C   UNL     1      38.158 -94.949  31.740  1.00  0.00     0.012 A 
ATOM      5  C   UNL     1      37.788 -95.284  30.433  1.00  0.00     0.047 A 
ATOM      6  C   UNL     1      38.734 -95.256  29.406  1.00  0.00     0.115 A 
ATOM      7  C   UNL     1      40.430 -94.556  30.994  1.00  0.00     0.012 A 
ATOM      8  C   UNL     1      40.057 -94.894  29.689  1.00  0.00     0.047 A 
BRANCH   6   9
ATOM      9  O   UNL     1      38.352 -95.592  28.109  1.00  0.00    -0.508 OA
ATOM     10  H   UNL     1      38.242 -94.887  27.389  1.00  0.00     0.293 HD
ENDBRANCH   6   9
ENDBRANCH   1   3
BRANCH   2  11
ATOM     11  C   UNL     1      39.974 -94.690  35.859  1.00  0.00     0.189 C 
ATOM     12  O   UNL     1      40.926 -93.890  36.072  1.00  0.00    -0.289 OA
BRANCH  11  13
ATOM     13  C   UNL     1      39.213 -95.237  37.004  1.00  0.00     0.064 A 
ATOM     14  C   UNL     1      39.373 -94.732  38.319  1.00  0.00     0.130 A 
ATOM     15  C   UNL     1      38.275 -96.260  36.776  1.00  0.00     0.020 A 
ATOM     16  C   UNL     1      38.576 -95.233  39.356  1.00  0.00     0.093 A 
ATOM     17  C   UNL     1      37.498 -96.760  37.823  1.00  0.00     0.047 A 
ATOM     18  C   UNL     1      37.643 -96.244  39.114  1.00  0.00     0.119 A 
BRANCH  14  19
ATOM     19  O   UNL     1      40.324 -93.760  38.635  1.00  0.00    -0.507 OA
ATOM     20  H   UNL     1      41.309 -93.858  38.423  1.00  0.00     0.293 HD
ENDBRANCH  14  19
BRANCH  18  21
ATOM     21  O   UNL     1      36.867 -96.730  40.166  1.00  0.00    -0.508 OA
ATOM     22  H   UNL     1      37.127 -97.569  40.671  1.00  0.00     0.293 HD
ENDBRANCH  18  21
ENDBRANCH  11  13
ENDBRANCH   2  11
TORSDOF 6
ENDMDL
MODEL 9
REMARK VINA RESULT:    -4.872      9.675     10.949
REMARK INTER + INTRA:          -6.696
REMARK INTER:                  -5.950
REMARK INTRA:                  -0.746
REMARK UNBOUND:                -0.542
REMARK SMILES O=C(C=Cc1ccc(O)cc1)c1ccc(O)cc1O
REMARK SMILES IDX 4 1 3 2 5 3 6 4 7 5 8 6 11 7 10 8 9 9 2 11 1 12 12 13 18 14
REMARK SMILES IDX 13 15 17 16 14 17 15 18 19 19 16 21
REMARK H PARENT 9 10 19 20 16 22
REMARK Flexibility Score: inf
ROOT
ATOM      1  C   UNL     1      36.334 -94.779  30.538  1.00  0.00     0.012 C 
ATOM      2  C   UNL     1      37.454 -95.442  30.217  1.00  0.00     0.053 C 
ENDROOT
BRANCH   1   3
ATOM      3  C   UNL     1      35.074 -94.866  29.758  1.00  0.00    -0.025 A 
ATOM      4  C   UNL     1      34.741 -93.804  28.900  1.00  0.00     0.012 A 
ATOM      5  C   UNL     1      33.559 -93.838  28.153  1.00  0.00     0.047 A 
ATOM      6  C   UNL     1      32.689 -94.925  28.262  1.00  0.00     0.115 A 
ATOM      7  C   UNL     1      34.184 -95.953  29.873  1.00  0.00     0.012 A 
ATOM      8  C   UNL     1      33.002 -95.982  29.125  1.00  0.00     0.047 A 
BRANCH   6   9
ATOM      9  O   UNL     1      31.515 -94.945  27.511  1.00  0.00    -0.508 OA
ATOM     10  H   UNL     1      31.533 -94.894  26.500  1.00  0.00     0.293 HD
ENDBRANCH   6   9
ENDBRANCH   1   3
BRANCH   2  11
ATOM     11  C   UNL     1      38.697 -95.321  31.010  1.00  0.00     0.189 C 
ATOM     12  O   UNL     1      39.780 -95.001  30.447  1.00  0.00    -0.289 OA
BRANCH  11  13
ATOM     13  C   UNL     1      38.675 -95.543  32.472  1.00  0.00     0.064 A 
ATOM     14  C   UNL     1      39.053 -94.530  33.389  1.00  0.00     0.130 A 
ATOM     15  C   UNL     1      38.229 -96.781  32.969  1.00  0.00     0.020 A 
ATOM     16  C   UNL     1      38.944 -94.765  34.765  1.00  0.00     0.093 A 
ATOM     17  C   UNL     1      38.140 -97.006  34.344  1.00  0.00     0.047 A 
ATOM     18  C   UNL     1      38.492 -95.997  35.245  1.00  0.00     0.119 A 
BRANCH  14  19
ATOM     19  O   UNL     1      39.562 -93.299  32.973  1.00  0.00    -0.507 OA
ATOM     20  H   UNL     1      39.044 -92.652  32.392  1.00  0.00     0.293 HD
ENDBRANCH  14  19
BRANCH  18  21
ATOM     21  O   UNL     1      38.400 -96.207  36.620  1.00  0.00    -0.508 OA
ATOM     22  H   UNL     1      37.950 -95.534  37.230  1.00  0.00     0.293 HD
ENDBRANCH  18  21
ENDBRANCH  11  13
ENDBRANCH   2  11
TORSDOF 6
ENDMDL
