MODEL 1
REMARK VINA RESULT:    -3.206      0.000      0.000
REMARK INTER + INTRA:          -7.263
REMARK INTER:                  -5.455
REMARK INTRA:                  -1.809
REMARK UNBOUND:                -1.809
REMARK SMILES CCCCCCCCCCCCCC(=O)[O-]
REMARK SMILES IDX 8 1 9 2 10 3 11 4 12 5 13 6 14 7 15 8 16 9 7 10 6 11 5 12
REMARK SMILES IDX 4 13 3 14 2 15 1 16
REMARK H PARENT
REMARK Flexibility Score: inf
ROOT
ATOM      1  C   UNL     1      70.671  15.109  78.574  1.00  0.00     0.000 C 
ENDROOT
BRANCH   1   2
ATOM      2  C   UNL     1      71.103  14.759  77.141  1.00  0.00     0.000 C 
BRANCH   2   3
ATOM      3  C   UNL     1      69.935  14.803  76.145  1.00  0.00     0.000 C 
BRANCH   3   4
ATOM      4  C   UNL     1      68.588  14.715  76.872  1.00  0.00     0.000 C 
BRANCH   4   5
ATOM      5  C   UNL     1      67.435  14.529  75.875  1.00  0.00     0.006 C 
BRANCH   5   6
ATOM      6  C   UNL     1      66.155  15.245  76.327  1.00  0.00     0.053 C 
BRANCH   6   7
ATOM      7  C   UNL     1      65.081  14.275  76.711  1.00  0.00     0.041 C 
ATOM      8  O   UNL     1      65.105  13.096  76.270  1.00  0.00    -0.550 OA
ATOM      9  O   UNL     1      64.070  14.661  77.582  1.00  0.00    -0.550 OA
ENDBRANCH   6   7
ENDBRANCH   5   6
ENDBRANCH   4   5
ENDBRANCH   3   4
ENDBRANCH   2   3
ENDBRANCH   1   2
BRANCH   1  10
ATOM     10  C   UNL     1      71.731  15.931  79.328  1.00  0.00     0.000 C 
BRANCH  10  11
ATOM     11  C   UNL     1      71.444  17.440  79.291  1.00  0.00    -0.000 C 
BRANCH  11  12
ATOM     12  C   UNL     1      70.129  17.809  79.993  1.00  0.00    -0.000 C 
BRANCH  12  13
ATOM     13  C   UNL     1      69.280  18.738  79.118  1.00  0.00    -0.000 C 
BRANCH  13  14
ATOM     14  C   UNL     1      68.223  17.948  78.339  1.00  0.00    -0.000 C 
BRANCH  14  15
ATOM     15  C   UNL     1      68.201  18.364  76.863  1.00  0.00    -0.003 C 
ATOM     16  C   UNL     1      69.617  18.484  76.303  1.00  0.00     0.004 C 
ENDBRANCH  14  15
ENDBRANCH  13  14
ENDBRANCH  12  13
ENDBRANCH  11  12
ENDBRANCH  10  11
ENDBRANCH   1  10
TORSDOF 12
ENDMDL
MODEL 2
REMARK VINA RESULT:    -3.198      3.331      4.957
REMARK INTER + INTRA:          -7.251
REMARK INTER:                  -5.253
REMARK INTRA:                  -1.998
REMARK UNBOUND:                -1.809
REMARK SMILES CCCCCCCCCCCCCC(=O)[O-]
REMARK SMILES IDX 8 1 9 2 10 3 11 4 12 5 13 6 14 7 15 8 16 9 7 10 6 11 5 12
REMARK SMILES IDX 4 13 3 14 2 15 1 16
REMARK H PARENT
REMARK Flexibility Score: inf
ROOT
ATOM      1  C   UNL     1      68.880  14.347  76.263  1.00  0.00     0.000 C 
ENDROOT
BRANCH   1   2
ATOM      2  C   UNL     1      67.689  15.297  76.053  1.00  0.00     0.000 C 
BRANCH   2   3
ATOM      3  C   UNL     1      67.338  16.092  77.319  1.00  0.00     0.000 C 
BRANCH   3   4
ATOM      4  C   UNL     1      67.367  17.601  77.046  1.00  0.00     0.000 C 
BRANCH   4   5
ATOM      5  C   UNL     1      68.648  18.237  77.606  1.00  0.00     0.006 C 
BRANCH   5   6
ATOM      6  C   UNL     1      69.533  18.832  76.502  1.00  0.00     0.053 C 
BRANCH   6   7
ATOM      7  C   UNL     1      69.505  20.329  76.513  1.00  0.00     0.041 C 
ATOM      8  O   UNL     1      70.578  20.982  76.602  1.00  0.00    -0.550 OA
ATOM      9  O   UNL     1      68.298  21.006  76.392  1.00  0.00    -0.550 OA
ENDBRANCH   6   7
ENDBRANCH   5   6
ENDBRANCH   4   5
ENDBRANCH   3   4
ENDBRANCH   2   3
ENDBRANCH   1   2
BRANCH   1  10
ATOM     10  C   UNL     1      70.185  15.096  76.584  1.00  0.00     0.000 C 
BRANCH  10  11
ATOM     11  C   UNL     1      70.694  14.812  78.006  1.00  0.00    -0.000 C 
BRANCH  11  12
ATOM     12  C   UNL     1      71.462  16.000  78.606  1.00  0.00    -0.000 C 
BRANCH  12  13
ATOM     13  C   UNL     1      70.850  16.430  79.944  1.00  0.00    -0.000 C 
BRANCH  13  14
ATOM     14  C   UNL     1      69.580  15.629  80.251  1.00  0.00    -0.000 C 
BRANCH  14  15
ATOM     15  C   UNL     1      68.513  16.518  80.902  1.00  0.00    -0.003 C 
ATOM     16  C   UNL     1      67.161  15.810  80.951  1.00  0.00     0.004 C 
ENDBRANCH  14  15
ENDBRANCH  13  14
ENDBRANCH  12  13
ENDBRANCH  11  12
ENDBRANCH  10  11
ENDBRANCH   1  10
TORSDOF 12
ENDMDL
MODEL 3
REMARK VINA RESULT:    -3.128      3.316      5.772
REMARK INTER + INTRA:          -7.131
REMARK INTER:                  -5.318
REMARK INTRA:                  -1.813
REMARK UNBOUND:                -1.809
REMARK SMILES CCCCCCCCCCCCCC(=O)[O-]
REMARK SMILES IDX 8 1 9 2 10 3 11 4 12 5 13 6 14 7 15 8 16 9 7 10 6 11 5 12
REMARK SMILES IDX 4 13 3 14 2 15 1 16
REMARK H PARENT
REMARK Flexibility Score: inf
ROOT
ATOM      1  C   UNL     1      65.706  15.832  78.038  1.00  0.00     0.000 C 
ENDROOT
BRANCH   1   2
ATOM      2  C   UNL     1      66.487  17.148  78.181  1.00  0.00     0.000 C 
BRANCH   2   3
ATOM      3  C   UNL     1      67.341  17.194  79.457  1.00  0.00     0.000 C 
BRANCH   3   4
ATOM      4  C   UNL     1      67.101  15.951  80.322  1.00  0.00     0.000 C 
BRANCH   4   5
ATOM      5  C   UNL     1      68.367  15.573  81.106  1.00  0.00     0.006 C 
BRANCH   5   6
ATOM      6  C   UNL     1      69.181  16.805  81.523  1.00  0.00     0.053 C 
BRANCH   6   7
ATOM      7  C   UNL     1      68.650  17.422  82.780  1.00  0.00     0.041 C 
ATOM      8  O   UNL     1      68.530  18.672  82.869  1.00  0.00    -0.550 OA
ATOM      9  O   UNL     1      68.256  16.616  83.841  1.00  0.00    -0.550 OA
ENDBRANCH   6   7
ENDBRANCH   5   6
ENDBRANCH   4   5
ENDBRANCH   3   4
ENDBRANCH   2   3
ENDBRANCH   1   2
BRANCH   1  10
ATOM     10  C   UNL     1      65.924  15.160  76.671  1.00  0.00     0.000 C 
BRANCH  10  11
ATOM     11  C   UNL     1      67.308  15.466  76.077  1.00  0.00    -0.000 C 
BRANCH  11  12
ATOM     12  C   UNL     1      68.277  14.279  76.197  1.00  0.00    -0.000 C 
BRANCH  12  13
ATOM     13  C   UNL     1      69.732  14.761  76.226  1.00  0.00    -0.000 C 
BRANCH  13  14
ATOM     14  C   UNL     1      69.823  16.212  76.710  1.00  0.00    -0.000 C 
BRANCH  14  15
ATOM     15  C   UNL     1      70.508  16.295  78.079  1.00  0.00    -0.003 C 
ATOM     16  C   UNL     1      71.067  14.937  78.499  1.00  0.00     0.004 C 
ENDBRANCH  14  15
ENDBRANCH  13  14
ENDBRANCH  12  13
ENDBRANCH  11  12
ENDBRANCH  10  11
ENDBRANCH   1  10
TORSDOF 12
ENDMDL
MODEL 4
REMARK VINA RESULT:    -3.123      1.715      3.057
REMARK INTER + INTRA:          -7.122
REMARK INTER:                  -5.146
REMARK INTRA:                  -1.976
REMARK UNBOUND:                -1.809
REMARK SMILES CCCCCCCCCCCCCC(=O)[O-]
REMARK SMILES IDX 8 1 9 2 10 3 11 4 12 5 13 6 14 7 15 8 16 9 7 10 6 11 5 12
REMARK SMILES IDX 4 13 3 14 2 15 1 16
REMARK H PARENT
REMARK Flexibility Score: inf
ROOT
ATOM      1  C   UNL     1      71.159  15.831  80.549  1.00  0.00     0.000 C 
ENDROOT
BRANCH   1   2
ATOM      2  C   UNL     1      69.893  16.665  80.805  1.00  0.00     0.000 C 
BRANCH   2   3
ATOM      3  C   UNL     1      68.605  15.838  80.681  1.00  0.00     0.000 C 
BRANCH   3   4
ATOM      4  C   UNL     1      67.434  16.711  80.214  1.00  0.00     0.000 C 
BRANCH   4   5
ATOM      5  C   UNL     1      66.184  15.859  79.946  1.00  0.00     0.006 C 
BRANCH   5   6
ATOM      6  C   UNL     1      65.471  16.265  78.650  1.00  0.00     0.053 C 
BRANCH   6   7
ATOM      7  C   UNL     1      64.848  15.088  77.965  1.00  0.00     0.041 C 
ATOM      8  O   UNL     1      65.340  14.645  76.894  1.00  0.00    -0.550 OA
ATOM      9  O   UNL     1      63.745  14.458  78.527  1.00  0.00    -0.550 OA
ENDBRANCH   6   7
ENDBRANCH   5   6
ENDBRANCH   4   5
ENDBRANCH   3   4
ENDBRANCH   2   3
ENDBRANCH   1   2
BRANCH   1  10
ATOM     10  C   UNL     1      71.614  15.885  79.081  1.00  0.00     0.000 C 
BRANCH  10  11
ATOM     11  C   UNL     1      71.160  14.656  78.277  1.00  0.00    -0.000 C 
BRANCH  11  12
ATOM     12  C   UNL     1      70.530  15.034  76.927  1.00  0.00    -0.000 C 
BRANCH  12  13
ATOM     13  C   UNL     1      69.001  15.096  77.034  1.00  0.00    -0.000 C 
BRANCH  13  14
ATOM     14  C   UNL     1      68.480  16.490  76.665  1.00  0.00    -0.000 C 
BRANCH  14  15
ATOM     15  C   UNL     1      69.626  17.507  76.599  1.00  0.00    -0.003 C 
ATOM     16  C   UNL     1      69.427  18.628  77.616  1.00  0.00     0.004 C 
ENDBRANCH  14  15
ENDBRANCH  13  14
ENDBRANCH  12  13
ENDBRANCH  11  12
ENDBRANCH  10  11
ENDBRANCH   1  10
TORSDOF 12
ENDMDL
MODEL 5
REMARK VINA RESULT:    -3.105      2.772      4.675
REMARK INTER + INTRA:          -7.093
REMARK INTER:                  -5.201
REMARK INTRA:                  -1.891
REMARK UNBOUND:                -1.809
REMARK SMILES CCCCCCCCCCCCCC(=O)[O-]
REMARK SMILES IDX 8 1 9 2 10 3 11 4 12 5 13 6 14 7 15 8 16 9 7 10 6 11 5 12
REMARK SMILES IDX 4 13 3 14 2 15 1 16
REMARK H PARENT
REMARK Flexibility Score: inf
ROOT
ATOM      1  C   UNL     1      67.683  15.584  76.376  1.00  0.00     0.000 C 
ENDROOT
BRANCH   1   2
ATOM      2  C   UNL     1      68.172  16.981  76.789  1.00  0.00     0.000 C 
BRANCH   2   3
ATOM      3  C   UNL     1      67.787  17.340  78.232  1.00  0.00     0.000 C 
BRANCH   3   4
ATOM      4  C   UNL     1      66.365  16.865  78.555  1.00  0.00     0.000 C 
BRANCH   4   5
ATOM      5  C   UNL     1      66.362  15.919  79.766  1.00  0.00     0.006 C 
BRANCH   5   6
ATOM      6  C   UNL     1      67.654  16.024  80.587  1.00  0.00     0.053 C 
BRANCH   6   7
ATOM      7  C   UNL     1      67.373  16.247  82.041  1.00  0.00     0.041 C 
ATOM      8  O   UNL     1      68.304  16.569  82.825  1.00  0.00    -0.550 OA
ATOM      9  O   UNL     1      66.075  16.133  82.526  1.00  0.00    -0.550 OA
ENDBRANCH   6   7
ENDBRANCH   5   6
ENDBRANCH   4   5
ENDBRANCH   3   4
ENDBRANCH   2   3
ENDBRANCH   1   2
BRANCH   1  10
ATOM     10  C   UNL     1      68.804  14.531  76.409  1.00  0.00     0.000 C 
BRANCH  10  11
ATOM     11  C   UNL     1      70.199  15.148  76.221  1.00  0.00    -0.000 C 
BRANCH  11  12
ATOM     12  C   UNL     1      71.182  14.734  77.327  1.00  0.00    -0.000 C 
BRANCH  12  13
ATOM     13  C   UNL     1      70.521  14.815  78.708  1.00  0.00    -0.000 C 
BRANCH  13  14
ATOM     14  C   UNL     1      71.348  15.682  79.665  1.00  0.00    -0.000 C 
BRANCH  14  15
ATOM     15  C   UNL     1      71.332  17.152  79.229  1.00  0.00    -0.003 C 
ATOM     16  C   UNL     1      70.813  18.053  80.346  1.00  0.00     0.004 C 
ENDBRANCH  14  15
ENDBRANCH  13  14
ENDBRANCH  12  13
ENDBRANCH  11  12
ENDBRANCH  10  11
ENDBRANCH   1  10
TORSDOF 12
ENDMDL
MODEL 6
REMARK VINA RESULT:    -3.078      3.212      4.817
REMARK INTER + INTRA:          -7.045
REMARK INTER:                  -4.935
REMARK INTRA:                  -2.111
REMARK UNBOUND:                -1.809
REMARK SMILES CCCCCCCCCCCCCC(=O)[O-]
REMARK SMILES IDX 8 1 9 2 10 3 11 4 12 5 13 6 14 7 15 8 16 9 7 10 6 11 5 12
REMARK SMILES IDX 4 13 3 14 2 15 1 16
REMARK H PARENT
REMARK Flexibility Score: inf
ROOT
ATOM      1  C   UNL     1      69.874  15.367  76.301  1.00  0.00     0.000 C 
ENDROOT
BRANCH   1   2
ATOM      2  C   UNL     1      71.081  14.774  77.045  1.00  0.00     0.000 C 
BRANCH   2   3
ATOM      3  C   UNL     1      70.934  14.858  78.572  1.00  0.00     0.000 C 
BRANCH   3   4
ATOM      4  C   UNL     1      70.145  16.108  78.979  1.00  0.00     0.000 C 
BRANCH   4   5
ATOM      5  C   UNL     1      69.140  15.785  80.095  1.00  0.00     0.006 C 
BRANCH   5   6
ATOM      6  C   UNL     1      68.676  17.043  80.841  1.00  0.00     0.053 C 
BRANCH   6   7
ATOM      7  C   UNL     1      69.822  17.949  81.170  1.00  0.00     0.041 C 
ATOM      8  O   UNL     1      69.912  19.080  80.625  1.00  0.00    -0.550 OA
ATOM      9  O   UNL     1      70.773  17.559  82.105  1.00  0.00    -0.550 OA
ENDBRANCH   6   7
ENDBRANCH   5   6
ENDBRANCH   4   5
ENDBRANCH   3   4
ENDBRANCH   2   3
ENDBRANCH   1   2
BRANCH   1  10
ATOM     10  C   UNL     1      68.732  14.352  76.123  1.00  0.00     0.000 C 
BRANCH  10  11
ATOM     11  C   UNL     1      67.383  14.886  76.628  1.00  0.00    -0.000 C 
BRANCH  11  12
ATOM     12  C   UNL     1      67.181  16.375  76.310  1.00  0.00    -0.000 C 
BRANCH  12  13
ATOM     13  C   UNL     1      66.750  17.150  77.561  1.00  0.00    -0.000 C 
BRANCH  13  14
ATOM     14  C   UNL     1      67.482  18.493  77.657  1.00  0.00    -0.000 C 
BRANCH  14  15
ATOM     15  C   UNL     1      68.373  18.723  76.430  1.00  0.00    -0.003 C 
ATOM     16  C   UNL     1      69.781  19.145  76.841  1.00  0.00     0.004 C 
ENDBRANCH  14  15
ENDBRANCH  13  14
ENDBRANCH  12  13
ENDBRANCH  11  12
ENDBRANCH  10  11
ENDBRANCH   1  10
TORSDOF 12
ENDMDL
MODEL 7
REMARK VINA RESULT:    -3.025      2.835      5.325
REMARK INTER + INTRA:          -6.955
REMARK INTER:                  -5.220
REMARK INTRA:                  -1.736
REMARK UNBOUND:                -1.809
REMARK SMILES CCCCCCCCCCCCCC(=O)[O-]
REMARK SMILES IDX 8 1 9 2 10 3 11 4 12 5 13 6 14 7 15 8 16 9 7 10 6 11 5 12
REMARK SMILES IDX 4 13 3 14 2 15 1 16
REMARK H PARENT
REMARK Flexibility Score: inf
ROOT
ATOM      1  C   UNL     1      67.369  15.031  76.066  1.00  0.00     0.000 C 
ENDROOT
BRANCH   1   2
ATOM      2  C   UNL     1      68.731  14.335  76.218  1.00  0.00     0.000 C 
BRANCH   2   3
ATOM      3  C   UNL     1      69.894  15.332  76.341  1.00  0.00     0.000 C 
BRANCH   3   4
ATOM      4  C   UNL     1      70.756  15.021  77.570  1.00  0.00     0.000 C 
BRANCH   4   5
ATOM      5  C   UNL     1      70.002  15.345  78.869  1.00  0.00     0.006 C 
BRANCH   5   6
ATOM      6  C   UNL     1      70.005  16.846  79.183  1.00  0.00     0.053 C 
BRANCH   6   7
ATOM      7  C   UNL     1      69.479  17.128  80.556  1.00  0.00     0.041 C 
ATOM      8  O   UNL     1      68.289  17.510  80.713  1.00  0.00    -0.550 OA
ATOM      9  O   UNL     1      70.290  16.937  81.668  1.00  0.00    -0.550 OA
ENDBRANCH   6   7
ENDBRANCH   5   6
ENDBRANCH   4   5
ENDBRANCH   3   4
ENDBRANCH   2   3
ENDBRANCH   1   2
BRANCH   1  10
ATOM     10  C   UNL     1      67.447  16.546  76.322  1.00  0.00     0.000 C 
BRANCH  10  11
ATOM     11  C   UNL     1      66.615  16.983  77.538  1.00  0.00    -0.000 C 
BRANCH  11  12
ATOM     12  C   UNL     1      66.184  15.798  78.415  1.00  0.00    -0.000 C 
BRANCH  12  13
ATOM     13  C   UNL     1      64.690  15.878  78.750  1.00  0.00    -0.000 C 
BRANCH  13  14
ATOM     14  C   UNL     1      63.837  15.343  77.595  1.00  0.00    -0.000 C 
BRANCH  14  15
ATOM     15  C   UNL     1      63.773  13.811  77.621  1.00  0.00    -0.003 C 
ATOM     16  C   UNL     1      64.217  13.217  76.287  1.00  0.00     0.004 C 
ENDBRANCH  14  15
ENDBRANCH  13  14
ENDBRANCH  12  13
ENDBRANCH  11  12
ENDBRANCH  10  11
ENDBRANCH   1  10
TORSDOF 12
ENDMDL
MODEL 8
REMARK VINA RESULT:    -3.022      1.973      3.896
REMARK INTER + INTRA:          -6.951
REMARK INTER:                  -4.833
REMARK INTRA:                  -2.117
REMARK UNBOUND:                -1.809
REMARK SMILES CCCCCCCCCCCCCC(=O)[O-]
REMARK SMILES IDX 8 1 9 2 10 3 11 4 12 5 13 6 14 7 15 8 16 9 7 10 6 11 5 12
REMARK SMILES IDX 4 13 3 14 2 15 1 16
REMARK H PARENT
REMARK Flexibility Score: inf
ROOT
ATOM      1  C   UNL     1      72.125  15.875  78.944  1.00  0.00     0.000 C 
ENDROOT
BRANCH   1   2
ATOM      2  C   UNL     1      71.512  16.803  80.005  1.00  0.00     0.000 C 
BRANCH   2   3
ATOM      3  C   UNL     1      70.184  16.267  80.562  1.00  0.00     0.000 C 
BRANCH   3   4
ATOM      4  C   UNL     1      69.360  17.394  81.196  1.00  0.00     0.000 C 
BRANCH   4   5
ATOM      5  C   UNL     1      67.964  16.896  81.598  1.00  0.00     0.006 C 
BRANCH   5   6
ATOM      6  C   UNL     1      67.428  15.828  80.635  1.00  0.00     0.053 C 
BRANCH   6   7
ATOM      7  C   UNL     1      66.304  16.350  79.796  1.00  0.00     0.041 C 
ATOM      8  O   UNL     1      65.925  17.544  79.916  1.00  0.00    -0.550 OA
ATOM      9  O   UNL     1      65.695  15.527  78.856  1.00  0.00    -0.550 OA
ENDBRANCH   6   7
ENDBRANCH   5   6
ENDBRANCH   4   5
ENDBRANCH   3   4
ENDBRANCH   2   3
ENDBRANCH   1   2
BRANCH   1  10
ATOM     10  C   UNL     1      71.171  14.743  78.526  1.00  0.00     0.000 C 
BRANCH  10  11
ATOM     11  C   UNL     1      71.294  14.386  77.037  1.00  0.00    -0.000 C 
BRANCH  11  12
ATOM     12  C   UNL     1      70.026  14.730  76.240  1.00  0.00    -0.000 C 
BRANCH  12  13
ATOM     13  C   UNL     1      68.901  15.194  77.172  1.00  0.00    -0.000 C 
BRANCH  13  14
ATOM     14  C   UNL     1      68.389  16.582  76.770  1.00  0.00    -0.000 C 
BRANCH  14  15
ATOM     15  C   UNL     1      69.509  17.627  76.853  1.00  0.00    -0.003 C 
ATOM     16  C   UNL     1      69.128  18.772  77.788  1.00  0.00     0.004 C 
ENDBRANCH  14  15
ENDBRANCH  13  14
ENDBRANCH  12  13
ENDBRANCH  11  12
ENDBRANCH  10  11
ENDBRANCH   1  10
TORSDOF 12
ENDMDL
MODEL 9
REMARK VINA RESULT:    -3.021      1.788      2.705
REMARK INTER + INTRA:          -6.950
REMARK INTER:                  -5.484
REMARK INTRA:                  -1.466
REMARK UNBOUND:                -1.809
REMARK SMILES CCCCCCCCCCCCCC(=O)[O-]
REMARK SMILES IDX 8 1 9 2 10 3 11 4 12 5 13 6 14 7 15 8 16 9 7 10 6 11 5 12
REMARK SMILES IDX 4 13 3 14 2 15 1 16
REMARK H PARENT
REMARK Flexibility Score: inf
ROOT
ATOM      1  C   UNL     1      70.230  15.735  77.361  1.00  0.00     0.000 C 
ENDROOT
BRANCH   1   2
ATOM      2  C   UNL     1      69.892  14.743  76.236  1.00  0.00     0.000 C 
BRANCH   2   3
ATOM      3  C   UNL     1      68.395  14.405  76.178  1.00  0.00     0.000 C 
BRANCH   3   4
ATOM      4  C   UNL     1      67.539  15.663  76.364  1.00  0.00     0.000 C 
BRANCH   4   5
ATOM      5  C   UNL     1      66.101  15.429  75.875  1.00  0.00     0.006 C 
BRANCH   5   6
ATOM      6  C   UNL     1      65.104  15.315  77.036  1.00  0.00     0.053 C 
BRANCH   6   7
ATOM      7  C   UNL     1      64.414  13.986  77.048  1.00  0.00     0.041 C 
ATOM      8  O   UNL     1      63.309  13.851  77.635  1.00  0.00    -0.550 OA
ATOM      9  O   UNL     1      64.975  12.903  76.382  1.00  0.00    -0.550 OA
ENDBRANCH   6   7
ENDBRANCH   5   6
ENDBRANCH   4   5
ENDBRANCH   3   4
ENDBRANCH   2   3
ENDBRANCH   1   2
BRANCH   1  10
ATOM     10  C   UNL     1      70.548  15.032  78.693  1.00  0.00     0.000 C 
BRANCH  10  11
ATOM     11  C   UNL     1      69.992  15.790  79.908  1.00  0.00    -0.000 C 
BRANCH  11  12
ATOM     12  C   UNL     1      69.651  17.253  79.586  1.00  0.00    -0.000 C 
BRANCH  12  13
ATOM     13  C   UNL     1      68.227  17.597  80.037  1.00  0.00    -0.000 C 
BRANCH  13  14
ATOM     14  C   UNL     1      67.289  16.397  79.863  1.00  0.00    -0.000 C 
BRANCH  14  15
ATOM     15  C   UNL     1      66.405  16.205  81.101  1.00  0.00    -0.003 C 
ATOM     16  C   UNL     1      65.080  15.540  80.736  1.00  0.00     0.004 C 
ENDBRANCH  14  15
ENDBRANCH  13  14
ENDBRANCH  12  13
ENDBRANCH  11  12
ENDBRANCH  10  11
ENDBRANCH   1  10
TORSDOF 12
ENDMDL
