MODEL 1
REMARK VINA RESULT:    -3.048      0.000      0.000
REMARK INTER + INTRA:          -4.291
REMARK INTER:                  -4.118
REMARK INTRA:                  -0.173
REMARK UNBOUND:                -0.173
REMARK SMILES CCCCCCCC(=O)[O-]
REMARK SMILES IDX 5 1 6 2 7 3 8 4 9 5 10 6 4 7 3 8 2 9 1 10
REMARK H PARENT
REMARK Flexibility Score: inf
ROOT
ATOM      1  C   UNL     1       4.376   4.983   1.879  1.00  0.00     0.000 C 
ENDROOT
BRANCH   1   2
ATOM      2  C   UNL     1       5.790   5.554   1.673  1.00  0.00     0.006 C 
BRANCH   2   3
ATOM      3  C   UNL     1       6.373   5.174   0.305  1.00  0.00     0.053 C 
BRANCH   3   4
ATOM      4  C   UNL     1       7.857   4.977   0.366  1.00  0.00     0.041 C 
ATOM      5  O   UNL     1       8.556   5.668   1.154  1.00  0.00    -0.550 OA
ATOM      6  O   UNL     1       8.464   4.011  -0.425  1.00  0.00    -0.550 OA
ENDBRANCH   3   4
ENDBRANCH   2   3
ENDBRANCH   1   2
BRANCH   1   7
ATOM      7  C   UNL     1       4.155   4.451   3.305  1.00  0.00     0.000 C 
BRANCH   7   8
ATOM      8  C   UNL     1       3.206   3.243   3.346  1.00  0.00    -0.000 C 
BRANCH   8   9
ATOM      9  C   UNL     1       2.111   3.444   4.401  1.00  0.00    -0.003 C 
ATOM     10  C   UNL     1       1.356   4.750   4.170  1.00  0.00     0.004 C 
ENDBRANCH   8   9
ENDBRANCH   7   8
ENDBRANCH   1   7
TORSDOF 6
ENDMDL
MODEL 2
REMARK VINA RESULT:    -2.947      0.969      1.476
REMARK INTER + INTRA:          -4.154
REMARK INTER:                  -3.937
REMARK INTRA:                  -0.217
REMARK UNBOUND:                -0.173
REMARK SMILES CCCCCCCC(=O)[O-]
REMARK SMILES IDX 5 1 6 2 7 3 8 4 9 5 10 6 4 7 3 8 2 9 1 10
REMARK H PARENT
REMARK Flexibility Score: inf
ROOT
ATOM      1  C   UNL     1       5.850   6.123   2.420  1.00  0.00     0.000 C 
ENDROOT
BRANCH   1   2
ATOM      2  C   UNL     1       6.874   6.481   1.329  1.00  0.00     0.006 C 
BRANCH   2   3
ATOM      3  C   UNL     1       7.041   5.355   0.301  1.00  0.00     0.053 C 
BRANCH   3   4
ATOM      4  C   UNL     1       8.403   4.734   0.367  1.00  0.00     0.041 C 
ATOM      5  O   UNL     1       9.097   4.842   1.412  1.00  0.00    -0.550 OA
ATOM      6  O   UNL     1       8.892   4.011  -0.713  1.00  0.00    -0.550 OA
ENDBRANCH   3   4
ENDBRANCH   2   3
ENDBRANCH   1   2
BRANCH   1   7
ATOM      7  C   UNL     1       4.793   5.118   1.931  1.00  0.00     0.000 C 
BRANCH   7   8
ATOM      8  C   UNL     1       3.684   4.874   2.966  1.00  0.00    -0.000 C 
BRANCH   8   9
ATOM      9  C   UNL     1       3.699   3.419   3.451  1.00  0.00    -0.003 C 
ATOM     10  C   UNL     1       2.282   2.900   3.680  1.00  0.00     0.004 C 
ENDBRANCH   8   9
ENDBRANCH   7   8
ENDBRANCH   1   7
TORSDOF 6
ENDMDL
MODEL 3
REMARK VINA RESULT:    -2.846      4.011      6.234
REMARK INTER + INTRA:          -4.018
REMARK INTER:                  -3.885
REMARK INTRA:                  -0.134
REMARK UNBOUND:                -0.173
REMARK SMILES CCCCCCCC(=O)[O-]
REMARK SMILES IDX 5 1 6 2 7 3 8 4 9 5 10 6 4 7 3 8 2 9 1 10
REMARK H PARENT
REMARK Flexibility Score: inf
ROOT
ATOM      1  C   UNL     1       4.048   4.529   3.350  1.00  0.00     0.000 C 
ENDROOT
BRANCH   1   2
ATOM      2  C   UNL     1       3.150   3.280   3.334  1.00  0.00     0.006 C 
BRANCH   2   3
ATOM      3  C   UNL     1       2.120   3.294   4.472  1.00  0.00     0.053 C 
BRANCH   3   4
ATOM      4  C   UNL     1       2.261   2.101   5.367  1.00  0.00     0.041 C 
ATOM      5  O   UNL     1       3.172   2.064   6.235  1.00  0.00    -0.550 OA
ATOM      6  O   UNL     1       1.366   1.044   5.263  1.00  0.00    -0.550 OA
ENDBRANCH   3   4
ENDBRANCH   2   3
ENDBRANCH   1   2
BRANCH   1   7
ATOM      7  C   UNL     1       4.262   5.122   1.948  1.00  0.00     0.000 C 
BRANCH   7   8
ATOM      8  C   UNL     1       5.725   5.512   1.686  1.00  0.00    -0.000 C 
BRANCH   8   9
ATOM      9  C   UNL     1       6.103   5.262   0.221  1.00  0.00    -0.003 C 
ATOM     10  C   UNL     1       7.560   4.825   0.096  1.00  0.00     0.004 C 
ENDBRANCH   8   9
ENDBRANCH   7   8
ENDBRANCH   1   7
TORSDOF 6
ENDMDL
MODEL 4
REMARK VINA RESULT:    -2.846      8.631      9.753
REMARK INTER + INTRA:          -4.018
REMARK INTER:                  -3.751
REMARK INTRA:                  -0.267
REMARK UNBOUND:                -0.173
REMARK SMILES CCCCCCCC(=O)[O-]
REMARK SMILES IDX 5 1 6 2 7 3 8 4 9 5 10 6 4 7 3 8 2 9 1 10
REMARK H PARENT
REMARK Flexibility Score: inf
ROOT
ATOM      1  C   UNL     1      -2.755   4.240  -0.684  1.00  0.00     0.000 C 
ENDROOT
BRANCH   1   2
ATOM      2  C   UNL     1      -3.120   5.372  -1.660  1.00  0.00     0.006 C 
BRANCH   2   3
ATOM      3  C   UNL     1      -4.219   4.952  -2.646  1.00  0.00     0.053 C 
BRANCH   3   4
ATOM      4  C   UNL     1      -3.953   5.463  -4.029  1.00  0.00     0.041 C 
ATOM      5  O   UNL     1      -4.847   5.394  -4.913  1.00  0.00    -0.550 OA
ATOM      6  O   UNL     1      -2.728   6.043  -4.334  1.00  0.00    -0.550 OA
ENDBRANCH   3   4
ENDBRANCH   2   3
ENDBRANCH   1   2
BRANCH   1   7
ATOM      7  C   UNL     1      -2.439   4.757   0.729  1.00  0.00     0.000 C 
BRANCH   7   8
ATOM      8  C   UNL     1      -2.707   6.262   0.883  1.00  0.00    -0.000 C 
BRANCH   8   9
ATOM      9  C   UNL     1      -3.120   6.599   2.321  1.00  0.00    -0.003 C 
ATOM     10  C   UNL     1      -2.926   5.401   3.246  1.00  0.00     0.004 C 
ENDBRANCH   8   9
ENDBRANCH   7   8
ENDBRANCH   1   7
TORSDOF 6
ENDMDL
MODEL 5
REMARK VINA RESULT:    -2.818      8.298      9.760
REMARK INTER + INTRA:          -3.980
REMARK INTER:                  -3.702
REMARK INTRA:                  -0.278
REMARK UNBOUND:                -0.173
REMARK SMILES CCCCCCCC(=O)[O-]
REMARK SMILES IDX 5 1 6 2 7 3 8 4 9 5 10 6 4 7 3 8 2 9 1 10
REMARK H PARENT
REMARK Flexibility Score: inf
ROOT
ATOM      1  C   UNL     1       5.506   0.102  -6.371  1.00  0.00     0.000 C 
ENDROOT
BRANCH   1   2
ATOM      2  C   UNL     1       4.199   0.432  -5.629  1.00  0.00     0.006 C 
BRANCH   2   3
ATOM      3  C   UNL     1       3.665   1.824  -5.991  1.00  0.00     0.053 C 
BRANCH   3   4
ATOM      4  C   UNL     1       2.935   2.458  -4.846  1.00  0.00     0.041 C 
ATOM      5  O   UNL     1       2.303   3.533  -5.015  1.00  0.00    -0.550 OA
ATOM      6  O   UNL     1       2.929   1.844  -3.600  1.00  0.00    -0.550 OA
ENDBRANCH   3   4
ENDBRANCH   2   3
ENDBRANCH   1   2
BRANCH   1   7
ATOM      7  C   UNL     1       5.811  -1.405  -6.391  1.00  0.00     0.000 C 
BRANCH   7   8
ATOM      8  C   UNL     1       6.986  -1.784  -5.477  1.00  0.00    -0.000 C 
BRANCH   8   9
ATOM      9  C   UNL     1       6.539  -2.774  -4.394  1.00  0.00    -0.003 C 
ATOM     10  C   UNL     1       5.047  -3.076  -4.506  1.00  0.00     0.004 C 
ENDBRANCH   8   9
ENDBRANCH   7   8
ENDBRANCH   1   7
TORSDOF 6
ENDMDL
MODEL 6
REMARK VINA RESULT:    -2.803      1.450      2.046
REMARK INTER + INTRA:          -3.959
REMARK INTER:                  -3.856
REMARK INTRA:                  -0.103
REMARK UNBOUND:                -0.173
REMARK SMILES CCCCCCCC(=O)[O-]
REMARK SMILES IDX 5 1 6 2 7 3 8 4 9 5 10 6 4 7 3 8 2 9 1 10
REMARK H PARENT
REMARK Flexibility Score: inf
ROOT
ATOM      1  C   UNL     1       3.972   4.847   3.213  1.00  0.00     0.000 C 
ENDROOT
BRANCH   1   2
ATOM      2  C   UNL     1       4.455   5.272   1.816  1.00  0.00     0.006 C 
BRANCH   2   3
ATOM      3  C   UNL     1       5.982   5.409   1.749  1.00  0.00     0.053 C 
BRANCH   3   4
ATOM      4  C   UNL     1       6.492   5.304   0.344  1.00  0.00     0.041 C 
ATOM      5  O   UNL     1       7.402   4.481   0.060  1.00  0.00    -0.550 OA
ATOM      6  O   UNL     1       5.941   6.094  -0.657  1.00  0.00    -0.550 OA
ENDBRANCH   3   4
ENDBRANCH   2   3
ENDBRANCH   1   2
BRANCH   1   7
ATOM      7  C   UNL     1       3.539   3.373   3.266  1.00  0.00     0.000 C 
BRANCH   7   8
ATOM      8  C   UNL     1       2.209   3.172   4.010  1.00  0.00    -0.000 C 
BRANCH   8   9
ATOM      9  C   UNL     1       2.431   2.438   5.338  1.00  0.00    -0.003 C 
ATOM     10  C   UNL     1       1.510   1.228   5.459  1.00  0.00     0.004 C 
ENDBRANCH   8   9
ENDBRANCH   7   8
ENDBRANCH   1   7
TORSDOF 6
ENDMDL
MODEL 7
REMARK VINA RESULT:    -2.771      3.253      5.703
REMARK INTER + INTRA:          -3.917
REMARK INTER:                  -3.672
REMARK INTRA:                  -0.245
REMARK UNBOUND:                -0.173
REMARK SMILES CCCCCCCC(=O)[O-]
REMARK SMILES IDX 5 1 6 2 7 3 8 4 9 5 10 6 4 7 3 8 2 9 1 10
REMARK H PARENT
REMARK Flexibility Score: inf
ROOT
ATOM      1  C   UNL     1       5.488   5.612   1.650  1.00  0.00     0.000 C 
ENDROOT
BRANCH   1   2
ATOM      2  C   UNL     1       4.311   4.766   2.167  1.00  0.00     0.006 C 
BRANCH   2   3
ATOM      3  C   UNL     1       4.314   4.646   3.697  1.00  0.00     0.053 C 
BRANCH   3   4
ATOM      4  C   UNL     1       3.438   3.527   4.171  1.00  0.00     0.041 C 
ATOM      5  O   UNL     1       3.401   3.227   5.394  1.00  0.00    -0.550 OA
ATOM      6  O   UNL     1       2.641   2.836   3.268  1.00  0.00    -0.550 OA
ENDBRANCH   3   4
ENDBRANCH   2   3
ENDBRANCH   1   2
BRANCH   1   7
ATOM      7  C   UNL     1       5.988   5.148   0.272  1.00  0.00     0.000 C 
BRANCH   7   8
ATOM      8  C   UNL     1       7.507   4.918   0.240  1.00  0.00    -0.000 C 
BRANCH   8   9
ATOM      9  C   UNL     1       8.182   5.552   1.462  1.00  0.00    -0.003 C 
ATOM     10  C   UNL     1       9.621   5.066   1.611  1.00  0.00     0.004 C 
ENDBRANCH   8   9
ENDBRANCH   7   8
ENDBRANCH   1   7
TORSDOF 6
ENDMDL
MODEL 8
REMARK VINA RESULT:    -2.716      8.389      9.009
REMARK INTER + INTRA:          -3.842
REMARK INTER:                  -3.531
REMARK INTRA:                  -0.310
REMARK UNBOUND:                -0.173
REMARK SMILES CCCCCCCC(=O)[O-]
REMARK SMILES IDX 5 1 6 2 7 3 8 4 9 5 10 6 4 7 3 8 2 9 1 10
REMARK H PARENT
REMARK Flexibility Score: inf
ROOT
ATOM      1  C   UNL     1      -2.567   4.758   0.747  1.00  0.00     0.000 C 
ENDROOT
BRANCH   1   2
ATOM      2  C   UNL     1      -2.369   4.464  -0.750  1.00  0.00     0.006 C 
BRANCH   2   3
ATOM      3  C   UNL     1      -3.513   5.025  -1.606  1.00  0.00     0.053 C 
BRANCH   3   4
ATOM      4  C   UNL     1      -3.006   5.906  -2.707  1.00  0.00     0.041 C 
ATOM      5  O   UNL     1      -3.378   5.712  -3.894  1.00  0.00    -0.550 OA
ATOM      6  O   UNL     1      -2.148   6.958  -2.417  1.00  0.00    -0.550 OA
ENDBRANCH   3   4
ENDBRANCH   2   3
ENDBRANCH   1   2
BRANCH   1   7
ATOM      7  C   UNL     1      -2.815   6.249   1.029  1.00  0.00     0.000 C 
BRANCH   7   8
ATOM      8  C   UNL     1      -2.853   6.570   2.531  1.00  0.00    -0.000 C 
BRANCH   8   9
ATOM      9  C   UNL     1      -2.992   5.288   3.360  1.00  0.00    -0.003 C 
ATOM     10  C   UNL     1      -4.040   5.453   4.458  1.00  0.00     0.004 C 
ENDBRANCH   8   9
ENDBRANCH   7   8
ENDBRANCH   1   7
TORSDOF 6
ENDMDL
MODEL 9
REMARK VINA RESULT:    -2.689      6.381      8.464
REMARK INTER + INTRA:          -3.806
REMARK INTER:                  -3.657
REMARK INTRA:                  -0.149
REMARK UNBOUND:                -0.173
REMARK SMILES CCCCCCCC(=O)[O-]
REMARK SMILES IDX 5 1 6 2 7 3 8 4 9 5 10 6 4 7 3 8 2 9 1 10
REMARK H PARENT
REMARK Flexibility Score: inf
ROOT
ATOM      1  C   UNL     1       1.589   0.534   6.067  1.00  0.00     0.000 C 
ENDROOT
BRANCH   1   2
ATOM      2  C   UNL     1       0.580  -0.392   5.366  1.00  0.00     0.006 C 
BRANCH   2   3
ATOM      3  C   UNL     1       0.636  -1.826   5.911  1.00  0.00     0.053 C 
BRANCH   3   4
ATOM      4  C   UNL     1       0.287  -2.836   4.861  1.00  0.00     0.041 C 
ATOM      5  O   UNL     1       1.026  -3.840   4.678  1.00  0.00    -0.550 OA
ATOM      6  O   UNL     1      -0.869  -2.686   4.107  1.00  0.00    -0.550 OA
ENDBRANCH   3   4
ENDBRANCH   2   3
ENDBRANCH   1   2
BRANCH   1   7
ATOM      7  C   UNL     1       1.389   2.014   5.699  1.00  0.00     0.000 C 
BRANCH   7   8
ATOM      8  C   UNL     1       2.661   2.661   5.131  1.00  0.00    -0.000 C 
BRANCH   8   9
ATOM      9  C   UNL     1       2.497   2.970   3.638  1.00  0.00    -0.003 C 
ATOM     10  C   UNL     1       3.642   3.839   3.126  1.00  0.00     0.004 C 
ENDBRANCH   8   9
ENDBRANCH   7   8
ENDBRANCH   1   7
TORSDOF 6
ENDMDL
