MODEL 1
REMARK VINA RESULT:    -0.844      0.000      0.000
REMARK INTER + INTRA:           0.100
REMARK INTER:                  -1.288
REMARK INTRA:                   1.388
REMARK UNBOUND:                 1.388
REMARK SMILES CC1=CCC[C@@H](C)C(=O)C[C@@H](C(C)C)C(=O)C1
REMARK SMILES IDX 8 1 9 2 6 3 7 4 5 5 4 6 3 7 2 8 1 9 10 11 11 12 15 13 16 14
REMARK SMILES IDX 17 15 12 17 13 18 14 19
REMARK H PARENT
REMARK Flexibility Score: 70.00
ROOT
ATOM      1  C   UNL     1      86.692  32.409  64.112  1.00  0.00     0.136 C 
ATOM      2  O   UNL     1      87.659  31.825  63.644  1.00  0.00    -0.299 OA
ENDROOT
BRANCH   1   3
ATOM      3  C   UNL     1      86.914  33.616  64.995  1.00  0.00     0.053 C 
ATOM      4  C   UNL     1      87.122  34.878  64.150  1.00  0.00     0.016 C 
BRANCH   3   5
ATOM      5  C   UNL     1      88.125  33.353  65.931  1.00  0.00     0.015 C 
BRANCH   5   6
ATOM      6  C   UNL     1      87.763  33.149  67.412  1.00  0.00     0.028 C 
BRANCH   6   7
ATOM      7  C   UNL     1      86.298  32.910  67.705  1.00  0.00    -0.028 C 
ATOM      8  C   UNL     1      85.628  31.740  67.579  1.00  0.00    -0.070 CG0
ATOM      9  C   UNL     1      84.205  31.696  68.078  1.00  0.00     0.039 C 
ATOM     10  G   UNL     1      86.241  30.474  67.003  1.00  0.00     0.000 G0
ENDBRANCH   6   7
ENDBRANCH   5   6
ENDBRANCH   3   5
ENDBRANCH   1   3
BRANCH   1  11
ATOM     11  C   UNL     1      85.304  31.901  63.790  1.00  0.00     0.087 C 
BRANCH  11  12
ATOM     12  C   UNL     1      84.736  30.861  64.800  1.00  0.00     0.066 C 
BRANCH  12  13
ATOM     13  C   UNL     1      85.832  30.128  65.575  1.00  0.00     0.140 C 
ATOM     14  O   UNL     1      86.393  29.184  65.040  1.00  0.00    -0.299 OA
BRANCH  13  15
ATOM     15  C   UNL     1      86.260  30.489  66.992  1.00  0.00     0.106 CG0
ATOM     16  G   UNL     1      85.614  31.737  67.569  1.00  0.00     0.000 G0
ENDBRANCH  13  15
ENDBRANCH  12  13
BRANCH  12  17
ATOM     17  C   UNL     1      83.749  29.879  64.085  1.00  0.00    -0.006 C 
ATOM     18  C   UNL     1      82.286  30.242  64.366  1.00  0.00     0.008 C 
ATOM     19  C   UNL     1      83.979  28.391  64.418  1.00  0.00     0.008 C 
ENDBRANCH  12  17
ENDBRANCH  11  12
ENDBRANCH   1  11
TORSDOF 1
ENDMDL
MODEL 2
REMARK VINA RESULT:    -0.686      2.074      4.428
REMARK INTER + INTRA:           0.342
REMARK INTER:                  -0.271
REMARK INTRA:                   0.613
REMARK UNBOUND:                 1.388
REMARK SMILES CC1=CCC[C@@H](C)C(=O)C[C@@H](C(C)C)C(=O)C1
REMARK SMILES IDX 8 1 9 2 6 3 7 4 5 5 4 6 3 7 2 8 1 9 10 11 11 12 15 13 16 14
REMARK SMILES IDX 17 15 12 17 13 18 14 19
REMARK H PARENT
REMARK Flexibility Score: 70.00
ROOT
ATOM      1  C   UNL     1      87.850  30.409  65.790  1.00  0.00     0.136 C 
ATOM      2  O   UNL     1      87.812  30.355  67.011  1.00  0.00    -0.299 OA
ENDROOT
BRANCH   1   3
ATOM      3  C   UNL     1      88.046  29.135  64.999  1.00  0.00     0.053 C 
ATOM      4  C   UNL     1      88.066  29.426  63.494  1.00  0.00     0.016 C 
BRANCH   3   5
ATOM      5  C   UNL     1      86.926  28.124  65.367  1.00  0.00     0.015 C 
BRANCH   5   6
ATOM      6  C   UNL     1      85.840  27.943  64.293  1.00  0.00     0.028 C 
BRANCH   6   7
ATOM      7  C   UNL     1      84.438  28.344  64.699  1.00  0.00    -0.028 C 
ATOM      8  C   UNL     1      83.915  29.593  64.675  1.00  0.00    -0.070 CG0
ATOM      9  C   UNL     1      82.444  29.736  64.976  1.00  0.00     0.039 C 
ATOM     10  G   UNL     1      84.715  30.838  64.327  1.00  0.00     0.000 G0
ENDBRANCH   6   7
ENDBRANCH   5   6
ENDBRANCH   3   5
ENDBRANCH   1   3
BRANCH   1  11
ATOM     11  C   UNL     1      87.698  31.753  65.112  1.00  0.00     0.087 C 
BRANCH  11  12
ATOM     12  C   UNL     1      86.430  32.556  65.525  1.00  0.00     0.066 C 
BRANCH  12  13
ATOM     13  C   UNL     1      85.160  31.703  65.520  1.00  0.00     0.140 C 
ATOM     14  O   UNL     1      84.480  31.664  66.534  1.00  0.00    -0.299 OA
BRANCH  13  15
ATOM     15  C   UNL     1      84.697  30.873  64.330  1.00  0.00     0.106 CG0
ATOM     16  G   UNL     1      83.915  29.617  64.676  1.00  0.00     0.000 G0
ENDBRANCH  13  15
ENDBRANCH  12  13
BRANCH  12  17
ATOM     17  C   UNL     1      86.286  33.849  64.654  1.00  0.00    -0.006 C 
ATOM     18  C   UNL     1      85.758  33.529  63.250  1.00  0.00     0.008 C 
ATOM     19  C   UNL     1      87.577  34.683  64.535  1.00  0.00     0.008 C 
ENDBRANCH  12  17
ENDBRANCH  11  12
ENDBRANCH   1  11
TORSDOF 1
ENDMDL
MODEL 3
REMARK VINA RESULT:    -0.226      1.887      4.845
REMARK INTER + INTRA:           1.044
REMARK INTER:                  -1.863
REMARK INTRA:                   2.907
REMARK UNBOUND:                 1.388
REMARK SMILES CC1=CCC[C@@H](C)C(=O)C[C@@H](C(C)C)C(=O)C1
REMARK SMILES IDX 8 1 9 2 6 3 7 4 5 5 4 6 3 7 2 8 1 9 10 11 11 12 15 13 16 14
REMARK SMILES IDX 17 15 12 17 13 18 14 19
REMARK H PARENT
REMARK Flexibility Score: 70.00
ROOT
ATOM      1  C   UNL     1      84.231  31.306  64.768  1.00  0.00     0.136 C 
ATOM      2  O   UNL     1      83.899  31.691  65.880  1.00  0.00    -0.299 OA
ENDROOT
BRANCH   1   3
ATOM      3  C   UNL     1      83.648  30.020  64.226  1.00  0.00     0.053 C 
ATOM      4  C   UNL     1      82.184  30.215  63.818  1.00  0.00     0.016 C 
BRANCH   3   5
ATOM      5  C   UNL     1      83.797  28.899  65.291  1.00  0.00     0.015 C 
BRANCH   5   6
ATOM      6  C   UNL     1      84.074  27.499  64.720  1.00  0.00     0.028 C 
BRANCH   6   7
ATOM      7  C   UNL     1      85.529  27.166  64.468  1.00  0.00    -0.028 C 
ATOM      8  C   UNL     1      86.597  27.959  64.726  1.00  0.00    -0.070 CG0
ATOM      9  C   UNL     1      87.968  27.360  64.540  1.00  0.00     0.039 C 
ATOM     10  G   UNL     1      86.485  29.391  65.223  1.00  0.00     0.000 G0
ENDBRANCH   6   7
ENDBRANCH   5   6
ENDBRANCH   3   5
ENDBRANCH   1   3
BRANCH   1  11
ATOM     11  C   UNL     1      85.216  32.132  63.972  1.00  0.00     0.087 C 
BRANCH  11  12
ATOM     12  C   UNL     1      86.709  31.937  64.371  1.00  0.00     0.066 C 
BRANCH  12  13
ATOM     13  C   UNL     1      87.137  30.469  64.365  1.00  0.00     0.140 C 
ATOM     14  O   UNL     1      88.031  30.125  63.606  1.00  0.00    -0.299 OA
BRANCH  13  15
ATOM     15  C   UNL     1      86.500  29.392  65.234  1.00  0.00     0.106 CG0
ATOM     16  G   UNL     1      86.611  27.974  64.700  1.00  0.00     0.000 G0
ENDBRANCH  13  15
ENDBRANCH  12  13
BRANCH  12  17
ATOM     17  C   UNL     1      87.013  32.644  65.734  1.00  0.00    -0.006 C 
ATOM     18  C   UNL     1      87.500  34.083  65.529  1.00  0.00     0.008 C 
ATOM     19  C   UNL     1      88.012  31.890  66.633  1.00  0.00     0.008 C 
ENDBRANCH  12  17
ENDBRANCH  11  12
ENDBRANCH   1  11
TORSDOF 1
ENDMDL
MODEL 4
REMARK VINA RESULT:     0.236     15.194     16.563
REMARK INTER + INTRA:           1.749
REMARK INTER:                  -1.166
REMARK INTRA:                   2.915
REMARK UNBOUND:                 1.388
REMARK SMILES CC1=CCC[C@@H](C)C(=O)C[C@@H](C(C)C)C(=O)C1
REMARK SMILES IDX 8 1 9 2 6 3 7 4 5 5 4 6 3 7 2 8 1 9 10 11 11 12 15 13 16 14
REMARK SMILES IDX 17 15 12 17 13 18 14 19
REMARK H PARENT
REMARK Flexibility Score: 70.00
ROOT
ATOM      1  C   UNL     1      78.086  35.742  50.960  1.00  0.00     0.136 C 
ATOM      2  O   UNL     1      78.488  35.952  49.825  1.00  0.00    -0.299 OA
ENDROOT
BRANCH   1   3
ATOM      3  C   UNL     1      79.018  35.110  51.970  1.00  0.00     0.053 C 
ATOM      4  C   UNL     1      80.150  36.073  52.344  1.00  0.00     0.016 C 
BRANCH   3   5
ATOM      5  C   UNL     1      79.571  33.778  51.395  1.00  0.00     0.015 C 
BRANCH   5   6
ATOM      6  C   UNL     1      79.863  32.693  52.445  1.00  0.00     0.028 C 
BRANCH   6   7
ATOM      7  C   UNL     1      78.739  31.714  52.711  1.00  0.00    -0.028 C 
ATOM      8  C   UNL     1      77.456  31.823  52.292  1.00  0.00    -0.070 CG0
ATOM      9  C   UNL     1      76.542  30.649  52.541  1.00  0.00     0.039 C 
ATOM     10  G   UNL     1      76.906  33.036  51.559  1.00  0.00     0.000 G0
ENDBRANCH   6   7
ENDBRANCH   5   6
ENDBRANCH   3   5
ENDBRANCH   1   3
BRANCH   1  11
ATOM     11  C   UNL     1      76.666  36.123  51.316  1.00  0.00     0.087 C 
BRANCH  11  12
ATOM     12  C   UNL     1      76.087  35.402  52.568  1.00  0.00     0.066 C 
BRANCH  12  13
ATOM     13  C   UNL     1      75.909  33.897  52.355  1.00  0.00     0.140 C 
ATOM     14  O   UNL     1      74.952  33.344  52.877  1.00  0.00    -0.299 OA
BRANCH  13  15
ATOM     15  C   UNL     1      76.866  33.033  51.546  1.00  0.00     0.106 CG0
ATOM     16  G   UNL     1      77.437  31.830  52.279  1.00  0.00     0.000 G0
ENDBRANCH  13  15
ENDBRANCH  12  13
BRANCH  12  17
ATOM     17  C   UNL     1      74.771  36.099  53.049  1.00  0.00    -0.006 C 
ATOM     18  C   UNL     1      74.552  35.917  54.555  1.00  0.00     0.008 C 
ATOM     19  C   UNL     1      73.503  35.657  52.292  1.00  0.00     0.008 C 
ENDBRANCH  12  17
ENDBRANCH  11  12
ENDBRANCH   1  11
TORSDOF 1
ENDMDL
MODEL 5
REMARK VINA RESULT:     1.171     14.383     16.237
REMARK INTER + INTRA:           3.175
REMARK INTER:                   0.201
REMARK INTRA:                   2.974
REMARK UNBOUND:                 1.388
REMARK SMILES CC1=CCC[C@@H](C)C(=O)C[C@@H](C(C)C)C(=O)C1
REMARK SMILES IDX 8 1 9 2 6 3 7 4 5 5 4 6 3 7 2 8 1 9 10 11 11 12 15 13 16 14
REMARK SMILES IDX 17 15 12 17 13 18 14 19
REMARK H PARENT
REMARK Flexibility Score: 70.00
ROOT
ATOM      1  C   UNL     1      78.000  32.523  52.153  1.00  0.00     0.136 C 
ATOM      2  O   UNL     1      76.892  32.050  51.946  1.00  0.00    -0.299 OA
ENDROOT
BRANCH   1   3
ATOM      3  C   UNL     1      79.214  31.624  52.082  1.00  0.00     0.053 C 
ATOM      4  C   UNL     1      80.204  31.956  53.204  1.00  0.00     0.016 C 
BRANCH   3   5
ATOM      5  C   UNL     1      79.873  31.760  50.683  1.00  0.00     0.015 C 
BRANCH   5   6
ATOM      6  C   UNL     1      80.687  33.049  50.476  1.00  0.00     0.028 C 
BRANCH   6   7
ATOM      7  C   UNL     1      81.199  33.714  51.736  1.00  0.00    -0.028 C 
ATOM      8  C   UNL     1      80.961  34.987  52.133  1.00  0.00    -0.070 CG0
ATOM      9  C   UNL     1      81.443  35.388  53.505  1.00  0.00     0.039 C 
ATOM     10  G   UNL     1      80.207  36.006  51.295  1.00  0.00     0.000 G0
ENDBRANCH   6   7
ENDBRANCH   5   6
ENDBRANCH   3   5
ENDBRANCH   1   3
BRANCH   1  11
ATOM     11  C   UNL     1      78.118  33.997  52.473  1.00  0.00     0.087 C 
BRANCH  11  12
ATOM     12  C   UNL     1      77.735  34.955  51.307  1.00  0.00     0.066 C 
BRANCH  12  13
ATOM     13  C   UNL     1      78.956  35.523  50.582  1.00  0.00     0.140 C 
ATOM     14  O   UNL     1      78.941  35.566  49.361  1.00  0.00    -0.299 OA
BRANCH  13  15
ATOM     15  C   UNL     1      80.209  36.023  51.288  1.00  0.00     0.106 CG0
ATOM     16  G   UNL     1      80.947  34.986  52.118  1.00  0.00     0.000 G0
ENDBRANCH  13  15
ENDBRANCH  12  13
BRANCH  12  17
ATOM     17  C   UNL     1      76.761  36.073  51.808  1.00  0.00    -0.006 C 
ATOM     18  C   UNL     1      76.699  36.124  53.339  1.00  0.00     0.008 C 
ATOM     19  C   UNL     1      75.331  35.972  51.242  1.00  0.00     0.008 C 
ENDBRANCH  12  17
ENDBRANCH  11  12
ENDBRANCH   1  11
TORSDOF 1
ENDMDL
MODEL 6
REMARK VINA RESULT:     1.189      1.840      3.870
REMARK INTER + INTRA:           3.203
REMARK INTER:                  -0.428
REMARK INTRA:                   3.631
REMARK UNBOUND:                 1.388
REMARK SMILES CC1=CCC[C@@H](C)C(=O)C[C@@H](C(C)C)C(=O)C1
REMARK SMILES IDX 8 1 9 2 6 3 7 4 5 5 4 6 3 7 2 8 1 9 10 11 11 12 15 13 16 14
REMARK SMILES IDX 17 15 12 17 13 18 14 19
REMARK H PARENT
REMARK Flexibility Score: 70.00
ROOT
ATOM      1  C   UNL     1      86.352  32.867  64.513  1.00  0.00     0.136 C 
ATOM      2  O   UNL     1      86.217  33.585  65.493  1.00  0.00    -0.299 OA
ENDROOT
BRANCH   1   3
ATOM      3  C   UNL     1      85.188  32.682  63.566  1.00  0.00     0.053 C 
ATOM      4  C   UNL     1      85.045  33.892  62.636  1.00  0.00     0.016 C 
BRANCH   3   5
ATOM      5  C   UNL     1      83.892  32.438  64.386  1.00  0.00     0.015 C 
BRANCH   5   6
ATOM      6  C   UNL     1      84.061  31.503  65.597  1.00  0.00     0.028 C 
BRANCH   6   7
ATOM      7  C   UNL     1      83.872  30.027  65.320  1.00  0.00    -0.028 C 
ATOM      8  C   UNL     1      84.757  29.197  64.720  1.00  0.00    -0.070 CG0
ATOM      9  C   UNL     1      84.420  27.727  64.690  1.00  0.00     0.039 C 
ATOM     10  G   UNL     1      86.074  29.658  64.117  1.00  0.00     0.000 G0
ENDBRANCH   6   7
ENDBRANCH   5   6
ENDBRANCH   3   5
ENDBRANCH   1   3
BRANCH   1  11
ATOM     11  C   UNL     1      87.684  32.188  64.282  1.00  0.00     0.087 C 
BRANCH  11  12
ATOM     12  C   UNL     1      88.045  31.082  65.318  1.00  0.00     0.066 C 
BRANCH  12  13
ATOM     13  C   UNL     1      87.220  29.807  65.134  1.00  0.00     0.140 C 
ATOM     14  O   UNL     1      87.505  28.826  65.805  1.00  0.00    -0.299 OA
BRANCH  13  15
ATOM     15  C   UNL     1      86.071  29.672  64.144  1.00  0.00     0.106 CG0
ATOM     16  G   UNL     1      84.760  29.173  64.730  1.00  0.00     0.000 G0
ENDBRANCH  13  15
ENDBRANCH  12  13
BRANCH  12  17
ATOM     17  C   UNL     1      87.963  31.643  66.776  1.00  0.00    -0.006 C 
ATOM     18  C   UNL     1      86.664  31.220  67.473  1.00  0.00     0.008 C 
ATOM     19  C   UNL     1      88.122  33.173  66.880  1.00  0.00     0.008 C 
ENDBRANCH  12  17
ENDBRANCH  11  12
ENDBRANCH   1  11
TORSDOF 1
ENDMDL
MODEL 7
REMARK VINA RESULT:     1.731      1.809      3.325
REMARK INTER + INTRA:           4.031
REMARK INTER:                   0.452
REMARK INTRA:                   3.579
REMARK UNBOUND:                 1.388
REMARK SMILES CC1=CCC[C@@H](C)C(=O)C[C@@H](C(C)C)C(=O)C1
REMARK SMILES IDX 8 1 9 2 6 3 7 4 5 5 4 6 3 7 2 8 1 9 10 11 11 12 15 13 16 14
REMARK SMILES IDX 17 15 12 17 13 18 14 19
REMARK H PARENT
REMARK Flexibility Score: 70.00
ROOT
ATOM      1  C   UNL     1      86.879  32.126  65.425  1.00  0.00     0.136 C 
ATOM      2  O   UNL     1      88.017  32.324  65.026  1.00  0.00    -0.299 OA
ENDROOT
BRANCH   1   3
ATOM      3  C   UNL     1      86.488  32.595  66.808  1.00  0.00     0.053 C 
ATOM      4  C   UNL     1      87.727  32.779  67.692  1.00  0.00     0.016 C 
BRANCH   3   5
ATOM      5  C   UNL     1      85.491  31.579  67.432  1.00  0.00     0.015 C 
BRANCH   5   6
ATOM      6  C   UNL     1      84.016  32.012  67.386  1.00  0.00     0.028 C 
BRANCH   6   7
ATOM      7  C   UNL     1      83.311  31.809  66.061  1.00  0.00    -0.028 C 
ATOM      8  C   UNL     1      83.270  30.668  65.333  1.00  0.00    -0.070 CG0
ATOM      9  C   UNL     1      82.375  30.651  64.119  1.00  0.00     0.039 C 
ATOM     10  G   UNL     1      84.038  29.407  65.694  1.00  0.00     0.000 G0
ENDBRANCH   6   7
ENDBRANCH   5   6
ENDBRANCH   3   5
ENDBRANCH   1   3
BRANCH   1  11
ATOM     11  C   UNL     1      85.898  31.417  64.517  1.00  0.00     0.087 C 
BRANCH  11  12
ATOM     12  C   UNL     1      86.227  29.921  64.238  1.00  0.00     0.066 C 
BRANCH  12  13
ATOM     13  C   UNL     1      85.142  28.971  64.750  1.00  0.00     0.140 C 
ATOM     14  O   UNL     1      85.157  27.810  64.370  1.00  0.00    -0.299 OA
BRANCH  13  15
ATOM     15  C   UNL     1      84.021  29.388  65.693  1.00  0.00     0.106 CG0
ATOM     16  G   UNL     1      83.275  30.653  65.299  1.00  0.00     0.000 G0
ENDBRANCH  13  15
ENDBRANCH  12  13
BRANCH  12  17
ATOM     17  C   UNL     1      87.647  29.556  64.783  1.00  0.00    -0.006 C 
ATOM     18  C   UNL     1      88.125  28.198  64.253  1.00  0.00     0.008 C 
ATOM     19  C   UNL     1      87.764  29.573  66.320  1.00  0.00     0.008 C 
ENDBRANCH  12  17
ENDBRANCH  11  12
ENDBRANCH   1  11
TORSDOF 1
ENDMDL
MODEL 8
REMARK VINA RESULT:     1.787      1.783      4.253
REMARK INTER + INTRA:           4.115
REMARK INTER:                   1.063
REMARK INTRA:                   3.053
REMARK UNBOUND:                 1.388
REMARK SMILES CC1=CCC[C@@H](C)C(=O)C[C@@H](C(C)C)C(=O)C1
REMARK SMILES IDX 8 1 9 2 6 3 7 4 5 5 4 6 3 7 2 8 1 9 10 11 11 12 15 13 16 14
REMARK SMILES IDX 17 15 12 17 13 18 14 19
REMARK H PARENT
REMARK Flexibility Score: 70.00
ROOT
ATOM      1  C   UNL     1      86.839  29.493  65.045  1.00  0.00     0.136 C 
ATOM      2  O   UNL     1      87.109  29.941  63.940  1.00  0.00    -0.299 OA
ENDROOT
BRANCH   1   3
ATOM      3  C   UNL     1      85.834  28.370  65.163  1.00  0.00     0.053 C 
ATOM      4  C   UNL     1      86.353  27.100  64.480  1.00  0.00     0.016 C 
BRANCH   3   5
ATOM      5  C   UNL     1      84.479  28.828  64.558  1.00  0.00     0.015 C 
BRANCH   5   6
ATOM      6  C   UNL     1      84.325  30.350  64.398  1.00  0.00     0.028 C 
BRANCH   6   7
ATOM      7  C   UNL     1      83.360  31.019  65.354  1.00  0.00    -0.028 C 
ATOM      8  C   UNL     1      83.598  31.346  66.646  1.00  0.00    -0.070 CG0
ATOM      9  C   UNL     1      82.543  32.150  67.365  1.00  0.00     0.039 C 
ATOM     10  G   UNL     1      84.874  30.984  67.389  1.00  0.00     0.000 G0
ENDBRANCH   6   7
ENDBRANCH   5   6
ENDBRANCH   3   5
ENDBRANCH   1   3
BRANCH   1  11
ATOM     11  C   UNL     1      87.524  30.081  66.259  1.00  0.00     0.087 C 
BRANCH  11  12
ATOM     12  C   UNL     1      87.317  31.612  66.452  1.00  0.00     0.066 C 
BRANCH  12  13
ATOM     13  C   UNL     1      86.039  31.943  67.225  1.00  0.00     0.140 C 
ATOM     14  O   UNL     1      85.943  33.042  67.750  1.00  0.00    -0.299 OA
BRANCH  13  15
ATOM     15  C   UNL     1      84.876  30.976  67.402  1.00  0.00     0.106 CG0
ATOM     16  G   UNL     1      83.601  31.348  66.663  1.00  0.00     0.000 G0
ENDBRANCH  13  15
ENDBRANCH  12  13
BRANCH  12  17
ATOM     17  C   UNL     1      87.397  32.358  65.079  1.00  0.00    -0.006 C 
ATOM     18  C   UNL     1      88.018  33.752  65.229  1.00  0.00     0.008 C 
ATOM     19  C   UNL     1      86.051  32.476  64.339  1.00  0.00     0.008 C 
ENDBRANCH  12  17
ENDBRANCH  11  12
ENDBRANCH   1  11
TORSDOF 1
ENDMDL
MODEL 9
REMARK VINA RESULT:     2.029      1.836      3.769
REMARK INTER + INTRA:           4.485
REMARK INTER:                   1.282
REMARK INTRA:                   3.203
REMARK UNBOUND:                 1.388
REMARK SMILES CC1=CCC[C@@H](C)C(=O)C[C@@H](C(C)C)C(=O)C1
REMARK SMILES IDX 8 1 9 2 6 3 7 4 5 5 4 6 3 7 2 8 1 9 10 11 11 12 15 13 16 14
REMARK SMILES IDX 17 15 12 17 13 18 14 19
REMARK H PARENT
REMARK Flexibility Score: 70.00
ROOT
ATOM      1  C   UNL     1      84.697  29.781  64.465  1.00  0.00     0.136 C 
ATOM      2  O   UNL     1      83.629  29.207  64.306  1.00  0.00    -0.299 OA
ENDROOT
BRANCH   1   3
ATOM      3  C   UNL     1      85.960  28.964  64.614  1.00  0.00     0.053 C 
ATOM      4  C   UNL     1      85.629  27.496  64.905  1.00  0.00     0.016 C 
BRANCH   3   5
ATOM      5  C   UNL     1      86.841  29.581  65.735  1.00  0.00     0.015 C 
BRANCH   5   6
ATOM      6  C   UNL     1      88.125  30.270  65.241  1.00  0.00     0.028 C 
BRANCH   6   7
ATOM      7  C   UNL     1      87.955  31.681  64.720  1.00  0.00    -0.028 C 
ATOM      8  C   UNL     1      87.435  32.735  65.392  1.00  0.00    -0.070 CG0
ATOM      9  C   UNL     1      87.508  34.087  64.728  1.00  0.00     0.039 C 
ATOM     10  G   UNL     1      86.824  32.634  66.780  1.00  0.00     0.000 G0
ENDBRANCH   6   7
ENDBRANCH   5   6
ENDBRANCH   3   5
ENDBRANCH   1   3
BRANCH   1  11
ATOM     11  C   UNL     1      84.716  31.293  64.506  1.00  0.00     0.087 C 
BRANCH  11  12
ATOM     12  C   UNL     1      84.398  31.915  65.898  1.00  0.00     0.066 C 
BRANCH  12  13
ATOM     13  C   UNL     1      85.568  31.803  66.877  1.00  0.00     0.140 C 
ATOM     14  O   UNL     1      85.469  31.030  67.818  1.00  0.00    -0.299 OA
BRANCH  13  15
ATOM     15  C   UNL     1      86.851  32.616  66.767  1.00  0.00     0.106 CG0
ATOM     16  G   UNL     1      87.416  32.755  65.363  1.00  0.00     0.000 G0
ENDBRANCH  13  15
ENDBRANCH  12  13
BRANCH  12  17
ATOM     17  C   UNL     1      83.072  31.321  66.478  1.00  0.00    -0.006 C 
ATOM     18  C   UNL     1      81.943  31.337  65.440  1.00  0.00     0.008 C 
ATOM     19  C   UNL     1      82.584  32.000  67.773  1.00  0.00     0.008 C 
ENDBRANCH  12  17
ENDBRANCH  11  12
ENDBRANCH   1  11
TORSDOF 1
ENDMDL
