MODEL 1
REMARK VINA RESULT:    -2.444      0.000      0.000
REMARK INTER + INTRA:          -5.272
REMARK INTER:                  -3.873
REMARK INTRA:                  -1.399
REMARK UNBOUND:                -1.399
REMARK SMILES CCCCCCCCCCCC=O
REMARK SMILES IDX 7 1 6 2 5 3 4 4 3 5 2 6 1 7 8 8 9 9 10 10 11 11 12 12 13 13
REMARK H PARENT
REMARK Flexibility Score: inf
ROOT
ATOM      1  C   UNL     1     141.068 145.182 139.812  1.00  0.00     0.000 C 
ENDROOT
BRANCH   1   2
ATOM      2  C   UNL     1     139.687 145.266 140.482  1.00  0.00     0.000 C 
BRANCH   2   3
ATOM      3  C   UNL     1     139.685 146.166 141.726  1.00  0.00    -0.000 C 
BRANCH   3   4
ATOM      4  C   UNL     1     139.562 145.332 143.007  1.00  0.00    -0.000 C 
BRANCH   4   5
ATOM      5  C   UNL     1     140.926 145.161 143.687  1.00  0.00    -0.000 C 
BRANCH   5   6
ATOM      6  C   UNL     1     141.175 143.695 144.058  1.00  0.00    -0.003 C 
ATOM      7  C   UNL     1     140.255 142.763 143.274  1.00  0.00     0.004 C 
ENDBRANCH   5   6
ENDBRANCH   4   5
ENDBRANCH   3   4
ENDBRANCH   2   3
ENDBRANCH   1   2
BRANCH   1   8
ATOM      8  C   UNL     1     141.696 143.786 139.925  1.00  0.00     0.000 C 
BRANCH   8   9
ATOM      9  C   UNL     1     143.077 143.858 140.594  1.00  0.00     0.000 C 
BRANCH   9  10
ATOM     10  C   UNL     1     143.460 142.555 141.321  1.00  0.00     0.008 C 
BRANCH  10  11
ATOM     11  C   UNL     1     144.450 142.751 142.481  1.00  0.00     0.072 C 
BRANCH  11  12
ATOM     12  C   UNL     1     145.848 142.355 142.108  1.00  0.00     0.224 C 
ATOM     13  O   UNL     1     146.066 141.753 141.069  1.00  0.00    -0.303 OA
ENDBRANCH  11  12
ENDBRANCH  10  11
ENDBRANCH   9  10
ENDBRANCH   8   9
ENDBRANCH   1   8
TORSDOF 10
ENDMDL
MODEL 2
REMARK VINA RESULT:    -2.431      6.602      8.569
REMARK INTER + INTRA:          -5.252
REMARK INTER:                  -4.003
REMARK INTRA:                  -1.249
REMARK UNBOUND:                -1.399
REMARK SMILES CCCCCCCCCCCC=O
REMARK SMILES IDX 7 1 6 2 5 3 4 4 3 5 2 6 1 7 8 8 9 9 10 10 11 11 12 12 13 13
REMARK H PARENT
REMARK Flexibility Score: inf
ROOT
ATOM      1  C   UNL     1     139.600 136.969 139.385  1.00  0.00     0.000 C 
ENDROOT
BRANCH   1   2
ATOM      2  C   UNL     1     141.078 136.905 139.802  1.00  0.00     0.000 C 
BRANCH   2   3
ATOM      3  C   UNL     1     141.567 135.468 140.036  1.00  0.00    -0.000 C 
BRANCH   3   4
ATOM      4  C   UNL     1     141.913 135.239 141.512  1.00  0.00    -0.000 C 
BRANCH   4   5
ATOM      5  C   UNL     1     142.294 136.555 142.200  1.00  0.00    -0.000 C 
BRANCH   5   6
ATOM      6  C   UNL     1     141.914 136.529 143.685  1.00  0.00    -0.003 C 
ATOM      7  C   UNL     1     140.400 136.596 143.868  1.00  0.00     0.004 C 
ENDBRANCH   5   6
ENDBRANCH   4   5
ENDBRANCH   3   4
ENDBRANCH   2   3
ENDBRANCH   1   2
BRANCH   1   8
ATOM      8  C   UNL     1     138.704 137.588 140.468  1.00  0.00     0.000 C 
BRANCH   8   9
ATOM      9  C   UNL     1     139.349 138.853 141.054  1.00  0.00     0.000 C 
BRANCH   9  10
ATOM     10  C   UNL     1     138.569 139.420 142.255  1.00  0.00     0.008 C 
BRANCH  10  11
ATOM     11  C   UNL     1     137.299 138.629 142.609  1.00  0.00     0.072 C 
BRANCH  11  12
ATOM     12  C   UNL     1     136.060 139.470 142.518  1.00  0.00     0.224 C 
ATOM     13  O   UNL     1     135.385 139.472 141.501  1.00  0.00    -0.303 OA
ENDBRANCH  11  12
ENDBRANCH  10  11
ENDBRANCH   9  10
ENDBRANCH   8   9
ENDBRANCH   1   8
TORSDOF 10
ENDMDL
MODEL 3
REMARK VINA RESULT:    -2.419      3.989      6.799
REMARK INTER + INTRA:          -5.232
REMARK INTER:                  -4.377
REMARK INTRA:                  -0.855
REMARK UNBOUND:                -1.399
REMARK SMILES CCCCCCCCCCCC=O
REMARK SMILES IDX 7 1 6 2 5 3 4 4 3 5 2 6 1 7 8 8 9 9 10 10 11 11 12 12 13 13
REMARK H PARENT
REMARK Flexibility Score: inf
ROOT
ATOM      1  C   UNL     1     144.222 142.481 141.707  1.00  0.00     0.000 C 
ENDROOT
BRANCH   1   2
ATOM      2  C   UNL     1     145.677 142.424 142.199  1.00  0.00     0.000 C 
BRANCH   2   3
ATOM      3  C   UNL     1     146.630 141.810 141.163  1.00  0.00    -0.000 C 
BRANCH   3   4
ATOM      4  C   UNL     1     145.857 141.287 139.947  1.00  0.00    -0.000 C 
BRANCH   4   5
ATOM      5  C   UNL     1     146.750 140.412 139.060  1.00  0.00    -0.000 C 
BRANCH   5   6
ATOM      6  C   UNL     1     148.227 140.783 139.229  1.00  0.00    -0.003 C 
ATOM      7  C   UNL     1     149.136 139.746 138.575  1.00  0.00     0.004 C 
ENDBRANCH   5   6
ENDBRANCH   4   5
ENDBRANCH   3   4
ENDBRANCH   2   3
ENDBRANCH   1   2
BRANCH   1   8
ATOM      8  C   UNL     1     143.275 141.623 142.558  1.00  0.00     0.000 C 
BRANCH   8   9
ATOM      9  C   UNL     1     143.972 141.146 143.841  1.00  0.00     0.000 C 
BRANCH   9  10
ATOM     10  C   UNL     1     144.223 139.626 143.856  1.00  0.00     0.008 C 
BRANCH  10  11
ATOM     11  C   UNL     1     143.715 138.894 142.604  1.00  0.00     0.072 C 
BRANCH  11  12
ATOM     12  C   UNL     1     143.130 137.550 142.928  1.00  0.00     0.224 C 
ATOM     13  O   UNL     1     142.964 136.718 142.050  1.00  0.00    -0.303 OA
ENDBRANCH  11  12
ENDBRANCH  10  11
ENDBRANCH   9  10
ENDBRANCH   8   9
ENDBRANCH   1   8
TORSDOF 10
ENDMDL
MODEL 4
REMARK VINA RESULT:    -2.373      4.669      6.497
REMARK INTER + INTRA:          -5.159
REMARK INTER:                  -3.695
REMARK INTRA:                  -1.464
REMARK UNBOUND:                -1.399
REMARK SMILES CCCCCCCCCCCC=O
REMARK SMILES IDX 7 1 6 2 5 3 4 4 3 5 2 6 1 7 8 8 9 9 10 10 11 11 12 12 13 13
REMARK H PARENT
REMARK Flexibility Score: inf
ROOT
ATOM      1  C   UNL     1     136.988 140.673 144.122  1.00  0.00     0.000 C 
ENDROOT
BRANCH   1   2
ATOM      2  C   UNL     1     137.294 142.178 144.053  1.00  0.00     0.000 C 
BRANCH   2   3
ATOM      3  C   UNL     1     138.479 142.501 143.131  1.00  0.00    -0.000 C 
BRANCH   3   4
ATOM      4  C   UNL     1     137.994 143.043 141.781  1.00  0.00    -0.000 C 
BRANCH   4   5
ATOM      5  C   UNL     1     138.149 141.992 140.677  1.00  0.00    -0.000 C 
BRANCH   5   6
ATOM      6  C   UNL     1     136.851 141.840 139.876  1.00  0.00    -0.003 C 
ATOM      7  C   UNL     1     136.870 140.570 139.030  1.00  0.00     0.004 C 
ENDBRANCH   5   6
ENDBRANCH   4   5
ENDBRANCH   3   4
ENDBRANCH   2   3
ENDBRANCH   1   2
BRANCH   1   8
ATOM      8  C   UNL     1     135.872 140.251 143.156  1.00  0.00     0.000 C 
BRANCH   8   9
ATOM      9  C   UNL     1     136.285 139.010 142.350  1.00  0.00     0.000 C 
BRANCH   9  10
ATOM     10  C   UNL     1     137.699 138.512 142.701  1.00  0.00     0.008 C 
BRANCH  10  11
ATOM     11  C   UNL     1     138.620 138.326 141.484  1.00  0.00     0.072 C 
BRANCH  11  12
ATOM     12  C   UNL     1     139.878 137.584 141.830  1.00  0.00     0.224 C 
ATOM     13  O   UNL     1     140.714 138.090 142.561  1.00  0.00    -0.303 OA
ENDBRANCH  11  12
ENDBRANCH  10  11
ENDBRANCH   9  10
ENDBRANCH   8   9
ENDBRANCH   1   8
TORSDOF 10
ENDMDL
MODEL 5
REMARK VINA RESULT:    -2.371      4.448      6.333
REMARK INTER + INTRA:          -5.157
REMARK INTER:                  -3.803
REMARK INTRA:                  -1.353
REMARK UNBOUND:                -1.399
REMARK SMILES CCCCCCCCCCCC=O
REMARK SMILES IDX 7 1 6 2 5 3 4 4 3 5 2 6 1 7 8 8 9 9 10 10 11 11 12 12 13 13
REMARK H PARENT
REMARK Flexibility Score: inf
ROOT
ATOM      1  C   UNL     1     137.399 140.463 140.670  1.00  0.00     0.000 C 
ENDROOT
BRANCH   1   2
ATOM      2  C   UNL     1     135.998 139.916 140.983  1.00  0.00     0.000 C 
BRANCH   2   3
ATOM      3  C   UNL     1     135.942 139.158 142.318  1.00  0.00    -0.000 C 
BRANCH   3   4
ATOM      4  C   UNL     1     137.309 138.559 142.668  1.00  0.00    -0.000 C 
BRANCH   4   5
ATOM      5  C   UNL     1     137.737 138.951 144.086  1.00  0.00    -0.000 C 
BRANCH   5   6
ATOM      6  C   UNL     1     139.213 139.362 144.121  1.00  0.00    -0.003 C 
ATOM      7  C   UNL     1     139.910 139.033 142.804  1.00  0.00     0.004 C 
ENDBRANCH   5   6
ENDBRANCH   4   5
ENDBRANCH   3   4
ENDBRANCH   2   3
ENDBRANCH   1   2
BRANCH   1   8
ATOM      8  C   UNL     1     137.444 141.997 140.641  1.00  0.00     0.000 C 
BRANCH   8   9
ATOM      9  C   UNL     1     138.322 142.541 141.778  1.00  0.00     0.000 C 
BRANCH   9  10
ATOM     10  C   UNL     1     137.607 142.534 143.142  1.00  0.00     0.008 C 
BRANCH  10  11
ATOM     11  C   UNL     1     138.086 143.630 144.108  1.00  0.00     0.072 C 
BRANCH  11  12
ATOM     12  C   UNL     1     139.040 144.588 143.455  1.00  0.00     0.224 C 
ATOM     13  O   UNL     1     139.846 145.212 144.125  1.00  0.00    -0.303 OA
ENDBRANCH  11  12
ENDBRANCH  10  11
ENDBRANCH   9  10
ENDBRANCH   8   9
ENDBRANCH   1   8
TORSDOF 10
ENDMDL
MODEL 6
REMARK VINA RESULT:    -2.348      5.002      6.239
REMARK INTER + INTRA:          -5.120
REMARK INTER:                  -3.833
REMARK INTRA:                  -1.286
REMARK UNBOUND:                -1.399
REMARK SMILES CCCCCCCCCCCC=O
REMARK SMILES IDX 7 1 6 2 5 3 4 4 3 5 2 6 1 7 8 8 9 9 10 10 11 11 12 12 13 13
REMARK H PARENT
REMARK Flexibility Score: inf
ROOT
ATOM      1  C   UNL     1     137.744 138.875 140.418  1.00  0.00     0.000 C 
ENDROOT
BRANCH   1   2
ATOM      2  C   UNL     1     136.785 139.867 141.094  1.00  0.00     0.000 C 
BRANCH   2   3
ATOM      3  C   UNL     1     136.109 139.281 142.344  1.00  0.00    -0.000 C 
BRANCH   3   4
ATOM      4  C   UNL     1     136.110 140.295 143.495  1.00  0.00    -0.000 C 
BRANCH   4   5
ATOM      5  C   UNL     1     137.503 140.412 144.125  1.00  0.00    -0.000 C 
BRANCH   5   6
ATOM      6  C   UNL     1     138.057 141.833 143.974  1.00  0.00    -0.003 C 
ATOM      7  C   UNL     1     139.304 141.849 143.094  1.00  0.00     0.004 C 
ENDBRANCH   5   6
ENDBRANCH   4   5
ENDBRANCH   3   4
ENDBRANCH   2   3
ENDBRANCH   1   2
BRANCH   1   8
ATOM      8  C   UNL     1     138.447 137.952 141.424  1.00  0.00     0.000 C 
BRANCH   8   9
ATOM      9  C   UNL     1     139.896 138.405 141.663  1.00  0.00     0.000 C 
BRANCH   9  10
ATOM     10  C   UNL     1     140.334 138.255 143.132  1.00  0.00     0.008 C 
BRANCH  10  11
ATOM     11  C   UNL     1     140.638 136.808 143.552  1.00  0.00     0.072 C 
BRANCH  11  12
ATOM     12  C   UNL     1     141.543 136.110 142.580  1.00  0.00     0.224 C 
ATOM     13  O   UNL     1     142.706 136.458 142.456  1.00  0.00    -0.303 OA
ENDBRANCH  11  12
ENDBRANCH  10  11
ENDBRANCH   9  10
ENDBRANCH   8   9
ENDBRANCH   1   8
TORSDOF 10
ENDMDL
MODEL 7
REMARK VINA RESULT:    -2.346      7.696      9.064
REMARK INTER + INTRA:          -5.116
REMARK INTER:                  -4.190
REMARK INTRA:                  -0.926
REMARK UNBOUND:                -1.399
REMARK SMILES CCCCCCCCCCCC=O
REMARK SMILES IDX 7 1 6 2 5 3 4 4 3 5 2 6 1 7 8 8 9 9 10 10 11 11 12 12 13 13
REMARK H PARENT
REMARK Flexibility Score: inf
ROOT
ATOM      1  C   UNL     1     141.745 135.353 140.864  1.00  0.00     0.000 C 
ENDROOT
BRANCH   1   2
ATOM      2  C   UNL     1     141.907 135.741 142.342  1.00  0.00     0.000 C 
BRANCH   2   3
ATOM      3  C   UNL     1     141.243 137.084 142.679  1.00  0.00    -0.000 C 
BRANCH   3   4
ATOM      4  C   UNL     1     140.461 136.996 143.996  1.00  0.00    -0.000 C 
BRANCH   4   5
ATOM      5  C   UNL     1     138.974 137.294 143.775  1.00  0.00    -0.000 C 
BRANCH   5   6
ATOM      6  C   UNL     1     138.752 138.041 142.456  1.00  0.00    -0.003 C 
ATOM      7  C   UNL     1     137.311 138.527 142.332  1.00  0.00     0.004 C 
ENDBRANCH   5   6
ENDBRANCH   4   5
ENDBRANCH   3   4
ENDBRANCH   2   3
ENDBRANCH   1   2
BRANCH   1   8
ATOM      8  C   UNL     1     141.192 136.502 140.008  1.00  0.00     0.000 C 
BRANCH   8   9
ATOM      9  C   UNL     1     139.940 136.057 139.236  1.00  0.00     0.000 C 
BRANCH   9  10
ATOM     10  C   UNL     1     140.254 135.041 138.122  1.00  0.00     0.008 C 
BRANCH  10  11
ATOM     11  C   UNL     1     139.394 133.768 138.172  1.00  0.00     0.072 C 
BRANCH  11  12
ATOM     12  C   UNL     1     140.056 132.663 138.941  1.00  0.00     0.224 C 
ATOM     13  O   UNL     1     141.250 132.448 138.813  1.00  0.00    -0.303 OA
ENDBRANCH  11  12
ENDBRANCH  10  11
ENDBRANCH   9  10
ENDBRANCH   8   9
ENDBRANCH   1   8
TORSDOF 10
ENDMDL
MODEL 8
REMARK VINA RESULT:    -2.344      1.417      3.403
REMARK INTER + INTRA:          -5.113
REMARK INTER:                  -3.872
REMARK INTRA:                  -1.241
REMARK UNBOUND:                -1.399
REMARK SMILES CCCCCCCCCCCC=O
REMARK SMILES IDX 7 1 6 2 5 3 4 4 3 5 2 6 1 7 8 8 9 9 10 10 11 11 12 12 13 13
REMARK H PARENT
REMARK Flexibility Score: inf
ROOT
ATOM      1  C   UNL     1     141.573 141.986 144.029  1.00  0.00     0.000 C 
ENDROOT
BRANCH   1   2
ATOM      2  C   UNL     1     140.069 141.672 143.974  1.00  0.00     0.000 C 
BRANCH   2   3
ATOM      3  C   UNL     1     139.527 141.612 142.539  1.00  0.00    -0.000 C 
BRANCH   3   4
ATOM      4  C   UNL     1     138.226 142.413 142.408  1.00  0.00    -0.000 C 
BRANCH   4   5
ATOM      5  C   UNL     1     138.435 143.670 141.556  1.00  0.00    -0.000 C 
BRANCH   5   6
ATOM      6  C   UNL     1     138.885 144.852 142.421  1.00  0.00    -0.003 C 
ATOM      7  C   UNL     1     139.851 145.756 141.661  1.00  0.00     0.004 C 
ENDBRANCH   5   6
ENDBRANCH   4   5
ENDBRANCH   3   4
ENDBRANCH   2   3
ENDBRANCH   1   2
BRANCH   1   8
ATOM      8  C   UNL     1     141.860 143.491 144.125  1.00  0.00     0.000 C 
BRANCH   8   9
ATOM      9  C   UNL     1     143.120 143.860 143.327  1.00  0.00     0.000 C 
BRANCH   9  10
ATOM     10  C   UNL     1     142.938 143.687 141.808  1.00  0.00     0.008 C 
BRANCH  10  11
ATOM     11  C   UNL     1     143.830 142.599 141.188  1.00  0.00     0.072 C 
BRANCH  11  12
ATOM     12  C   UNL     1     144.931 142.171 142.113  1.00  0.00     0.224 C 
ATOM     13  O   UNL     1     146.098 142.389 141.831  1.00  0.00    -0.303 OA
ENDBRANCH  11  12
ENDBRANCH  10  11
ENDBRANCH   9  10
ENDBRANCH   8   9
ENDBRANCH   1   8
TORSDOF 10
ENDMDL
MODEL 9
REMARK VINA RESULT:    -2.290      4.996      6.044
REMARK INTER + INTRA:          -5.028
REMARK INTER:                  -3.559
REMARK INTRA:                  -1.469
REMARK UNBOUND:                -1.399
REMARK SMILES CCCCCCCCCCCC=O
REMARK SMILES IDX 7 1 6 2 5 3 4 4 3 5 2 6 1 7 8 8 9 9 10 10 11 11 12 12 13 13
REMARK H PARENT
REMARK Flexibility Score: inf
ROOT
ATOM      1  C   UNL     1     141.899 138.589 140.614  1.00  0.00     0.000 C 
ENDROOT
BRANCH   1   2
ATOM      2  C   UNL     1     140.837 137.557 140.204  1.00  0.00     0.000 C 
BRANCH   2   3
ATOM      3  C   UNL     1     139.457 137.854 140.810  1.00  0.00    -0.000 C 
BRANCH   3   4
ATOM      4  C   UNL     1     139.591 138.546 142.172  1.00  0.00    -0.000 C 
BRANCH   4   5
ATOM      5  C   UNL     1     139.295 137.571 143.317  1.00  0.00    -0.000 C 
BRANCH   5   6
ATOM      6  C   UNL     1     140.562 137.271 144.125  1.00  0.00    -0.003 C 
ATOM      7  C   UNL     1     141.216 135.971 143.663  1.00  0.00     0.004 C 
ENDBRANCH   5   6
ENDBRANCH   4   5
ENDBRANCH   3   4
ENDBRANCH   2   3
ENDBRANCH   1   2
BRANCH   1   8
ATOM      8  C   UNL     1     143.226 137.939 141.033  1.00  0.00     0.000 C 
BRANCH   8   9
ATOM      9  C   UNL     1     143.668 138.439 142.416  1.00  0.00     0.000 C 
BRANCH   9  10
ATOM     10  C   UNL     1     143.051 139.801 142.786  1.00  0.00     0.008 C 
BRANCH  10  11
ATOM     11  C   UNL     1     143.550 140.374 144.122  1.00  0.00     0.072 C 
BRANCH  11  12
ATOM     12  C   UNL     1     145.032 140.615 144.121  1.00  0.00     0.224 C 
ATOM     13  O   UNL     1     145.525 141.436 143.366  1.00  0.00    -0.303 OA
ENDBRANCH  11  12
ENDBRANCH  10  11
ENDBRANCH   9  10
ENDBRANCH   8   9
ENDBRANCH   1   8
TORSDOF 10
ENDMDL
