MODEL 1
REMARK VINA RESULT:    -6.290      0.000      0.000
REMARK INTER + INTRA:         -11.209
REMARK INTER:                  -9.599
REMARK INTRA:                  -1.610
REMARK UNBOUND:                -1.610
REMARK SMILES OC[C@@H]1O[C@H](O[C@]2(CO)O[C@H](CO)[C@H](O)[C@@H]2O)[C@H](O)[C@@H](O)[C@@H]1O
REMARK SMILES IDX 6 1 5 2 3 3 22 4 4 5 20 6 18 7 2 8 1 9 23 11 21 13 19 15
REMARK SMILES IDX 7 17 16 18 10 19 14 20 11 21 8 22 9 23 17 25 15 27 12 29
REMARK SMILES IDX 13 30
REMARK H PARENT 1 10 23 12 21 14 19 16 9 24 17 26 15 28 13 31
REMARK Flexibility Score: inf
ROOT
ATOM      1  O   UNL     1     -36.150  -5.016 -16.902  1.00  0.00    -0.313 OA
ENDROOT
BRANCH   1   2
ATOM      2  C   UNL     1     -35.457  -3.826 -16.546  1.00  0.00     0.285 C 
ATOM      3  C   UNL     1     -33.066  -3.960 -16.830  1.00  0.00     0.178 C 
ATOM      4  C   UNL     1     -33.341  -4.387 -18.294  1.00  0.00     0.177 C 
ATOM      5  O   UNL     1     -34.189  -4.171 -15.982  1.00  0.00    -0.341 OA
ATOM      6  C   UNL     1     -34.497  -3.540 -18.892  1.00  0.00     0.179 C 
ATOM      7  C   UNL     1     -35.368  -2.898 -17.782  1.00  0.00     0.202 C 
BRANCH   3   8
ATOM      8  C   UNL     1     -31.865  -4.715 -16.240  1.00  0.00     0.191 C 
BRANCH   8   9
ATOM      9  O   UNL     1     -30.986  -5.135 -17.250  1.00  0.00    -0.394 OA
ATOM     10  H   UNL     1     -31.401  -5.930 -17.676  1.00  0.00     0.210 HD
ENDBRANCH   8   9
ENDBRANCH   3   8
BRANCH   4  11
ATOM     11  O   UNL     1     -33.672  -5.752 -18.326  1.00  0.00    -0.387 OA
ATOM     12  H   UNL     1     -32.864  -6.252 -18.037  1.00  0.00     0.211 HD
ENDBRANCH   4  11
BRANCH   6  13
ATOM     13  O   UNL     1     -34.003  -2.548 -19.757  1.00  0.00    -0.387 OA
ATOM     14  H   UNL     1     -34.733  -1.893 -19.911  1.00  0.00     0.211 HD
ENDBRANCH   6  13
BRANCH   7  15
ATOM     15  O   UNL     1     -36.645  -2.556 -18.263  1.00  0.00    -0.385 OA
ATOM     16  H   UNL     1     -37.281  -2.603 -17.505  1.00  0.00     0.211 HD
ENDBRANCH   7  15
ENDBRANCH   1   2
BRANCH   1  17
ATOM     17  C   UNL     1     -37.243  -5.331 -16.039  1.00  0.00     0.224 C 
ATOM     18  C   UNL     1     -37.260  -6.855 -15.804  1.00  0.00     0.208 C 
ATOM     19  O   UNL     1     -37.122  -4.691 -14.773  1.00  0.00    -0.337 OA
ATOM     20  C   UNL     1     -37.736  -6.964 -14.378  1.00  0.00     0.180 C 
ATOM     21  C   UNL     1     -37.239  -5.660 -13.753  1.00  0.00     0.179 C 
BRANCH  17  22
ATOM     22  C   UNL     1     -38.572  -4.876 -16.689  1.00  0.00     0.225 C 
BRANCH  22  23
ATOM     23  O   UNL     1     -38.461  -4.828 -18.087  1.00  0.00    -0.391 OA
ATOM     24  H   UNL     1     -37.841  -5.556 -18.351  1.00  0.00     0.210 HD
ENDBRANCH  22  23
ENDBRANCH  17  22
BRANCH  18  25
ATOM     25  O   UNL     1     -35.963  -7.388 -15.935  1.00  0.00    -0.385 OA
ATOM     26  H   UNL     1     -35.869  -7.693 -16.875  1.00  0.00     0.211 HD
ENDBRANCH  18  25
BRANCH  20  27
ATOM     27  O   UNL     1     -37.241  -8.116 -13.743  1.00  0.00    -0.387 OA
ATOM     28  H   UNL     1     -36.727  -7.801 -12.954  1.00  0.00     0.211 HD
ENDBRANCH  20  27
BRANCH  21  29
ATOM     29  C   UNL     1     -35.886  -5.792 -13.028  1.00  0.00     0.191 C 
BRANCH  29  30
ATOM     30  O   UNL     1     -35.138  -4.615 -13.173  1.00  0.00    -0.394 OA
ATOM     31  H   UNL     1     -35.789  -3.884 -13.333  1.00  0.00     0.210 HD
ENDBRANCH  29  30
ENDBRANCH  21  29
ENDBRANCH   1  17
TORSDOF 13
ENDMDL
MODEL 2
REMARK VINA RESULT:    -6.151      1.871      3.138
REMARK INTER + INTRA:         -10.997
REMARK INTER:                  -9.334
REMARK INTRA:                  -1.663
REMARK UNBOUND:                -1.610
REMARK SMILES OC[C@@H]1O[C@H](O[C@]2(CO)O[C@H](CO)[C@H](O)[C@@H]2O)[C@H](O)[C@@H](O)[C@@H]1O
REMARK SMILES IDX 6 1 5 2 3 3 22 4 4 5 20 6 18 7 2 8 1 9 23 11 21 13 19 15
REMARK SMILES IDX 7 17 16 18 10 19 14 20 11 21 8 22 9 23 17 25 15 27 12 29
REMARK SMILES IDX 13 30
REMARK H PARENT 1 10 23 12 21 14 19 16 9 24 17 26 15 28 13 31
REMARK Flexibility Score: inf
ROOT
ATOM      1  O   UNL     1     -37.448  -5.074 -14.794  1.00  0.00    -0.313 OA
ENDROOT
BRANCH   1   2
ATOM      2  C   UNL     1     -36.163  -4.595 -14.419  1.00  0.00     0.285 C 
ATOM      3  C   UNL     1     -34.526  -4.684 -16.188  1.00  0.00     0.178 C 
ATOM      4  C   UNL     1     -35.526  -3.873 -17.050  1.00  0.00     0.177 C 
ATOM      5  O   UNL     1     -35.160  -5.351 -15.103  1.00  0.00    -0.341 OA
ATOM      6  C   UNL     1     -36.195  -2.764 -16.194  1.00  0.00     0.179 C 
ATOM      7  C   UNL     1     -36.090  -3.070 -14.679  1.00  0.00     0.202 C 
BRANCH   3   8
ATOM      8  C   UNL     1     -33.778  -5.731 -17.030  1.00  0.00     0.191 C 
BRANCH   8   9
ATOM      9  O   UNL     1     -33.736  -5.355 -18.380  1.00  0.00    -0.394 OA
ATOM     10  H   UNL     1     -33.528  -6.177 -18.898  1.00  0.00     0.210 HD
ENDBRANCH   8   9
ENDBRANCH   3   8
BRANCH   4  11
ATOM     11  O   UNL     1     -36.502  -4.740 -17.570  1.00  0.00    -0.387 OA
ATOM     12  H   UNL     1     -36.502  -4.617 -18.555  1.00  0.00     0.211 HD
ENDBRANCH   4  11
BRANCH   6  13
ATOM     13  O   UNL     1     -35.637  -1.503 -16.474  1.00  0.00    -0.387 OA
ATOM     14  H   UNL     1     -34.838  -1.393 -15.895  1.00  0.00     0.211 HD
ENDBRANCH   6  13
BRANCH   7  15
ATOM     15  O   UNL     1     -37.069  -2.376 -13.944  1.00  0.00    -0.385 OA
ATOM     16  H   UNL     1     -37.897  -2.920 -13.945  1.00  0.00     0.211 HD
ENDBRANCH   7  15
ENDBRANCH   1   2
BRANCH   1  17
ATOM     17  C   UNL     1     -38.031  -5.971 -13.849  1.00  0.00     0.224 C 
ATOM     18  C   UNL     1     -39.220  -6.688 -14.520  1.00  0.00     0.208 C 
ATOM     19  O   UNL     1     -37.106  -6.962 -13.415  1.00  0.00    -0.337 OA
ATOM     20  C   UNL     1     -39.167  -8.062 -13.904  1.00  0.00     0.180 C 
ATOM     21  C   UNL     1     -37.681  -8.240 -13.592  1.00  0.00     0.179 C 
BRANCH  17  22
ATOM     22  C   UNL     1     -38.515  -5.182 -12.608  1.00  0.00     0.225 C 
BRANCH  22  23
ATOM     23  O   UNL     1     -39.349  -4.116 -12.980  1.00  0.00    -0.391 OA
ATOM     24  H   UNL     1     -39.041  -3.320 -12.475  1.00  0.00     0.210 HD
ENDBRANCH  22  23
ENDBRANCH  17  22
BRANCH  18  25
ATOM     25  O   UNL     1     -39.026  -6.763 -15.913  1.00  0.00    -0.385 OA
ATOM     26  H   UNL     1     -38.057  -6.919 -16.062  1.00  0.00     0.211 HD
ENDBRANCH  18  25
BRANCH  20  27
ATOM     27  O   UNL     1     -39.682  -9.048 -14.764  1.00  0.00    -0.387 OA
ATOM     28  H   UNL     1     -40.671  -8.960 -14.729  1.00  0.00     0.211 HD
ENDBRANCH  20  27
BRANCH  21  29
ATOM     29  C   UNL     1     -36.900  -8.994 -14.685  1.00  0.00     0.191 C 
BRANCH  29  30
ATOM     30  O   UNL     1     -36.342  -8.089 -15.599  1.00  0.00    -0.394 OA
ATOM     31  H   UNL     1     -37.094  -7.554 -15.964  1.00  0.00     0.210 HD
ENDBRANCH  29  30
ENDBRANCH  21  29
ENDBRANCH   1  17
TORSDOF 13
ENDMDL
MODEL 3
REMARK VINA RESULT:    -6.149      1.572      2.517
REMARK INTER + INTRA:         -10.994
REMARK INTER:                  -9.832
REMARK INTRA:                  -1.162
REMARK UNBOUND:                -1.610
REMARK SMILES OC[C@@H]1O[C@H](O[C@]2(CO)O[C@H](CO)[C@H](O)[C@@H]2O)[C@H](O)[C@@H](O)[C@@H]1O
REMARK SMILES IDX 6 1 5 2 3 3 22 4 4 5 20 6 18 7 2 8 1 9 23 11 21 13 19 15
REMARK SMILES IDX 7 17 16 18 10 19 14 20 11 21 8 22 9 23 17 25 15 27 12 29
REMARK SMILES IDX 13 30
REMARK H PARENT 1 10 23 12 21 14 19 16 9 24 17 26 15 28 13 31
REMARK Flexibility Score: inf
ROOT
ATOM      1  O   UNL     1     -36.784  -4.732 -15.537  1.00  0.00    -0.313 OA
ENDROOT
BRANCH   1   2
ATOM      2  C   UNL     1     -35.763  -3.743 -15.573  1.00  0.00     0.285 C 
ATOM      3  C   UNL     1     -33.796  -4.407 -16.800  1.00  0.00     0.178 C 
ATOM      4  C   UNL     1     -34.737  -4.713 -17.993  1.00  0.00     0.177 C 
ATOM      5  O   UNL     1     -34.485  -4.384 -15.555  1.00  0.00    -0.341 OA
ATOM      6  C   UNL     1     -35.819  -3.607 -18.119  1.00  0.00     0.179 C 
ATOM      7  C   UNL     1     -35.990  -2.820 -16.795  1.00  0.00     0.202 C 
BRANCH   3   8
ATOM      8  C   UNL     1     -32.657  -5.435 -16.705  1.00  0.00     0.191 C 
BRANCH   8   9
ATOM      9  O   UNL     1     -32.660  -6.296 -17.811  1.00  0.00    -0.394 OA
ATOM     10  H   UNL     1     -32.877  -5.740 -18.605  1.00  0.00     0.210 HD
ENDBRANCH   8   9
ENDBRANCH   3   8
BRANCH   4  11
ATOM     11  O   UNL     1     -35.343  -5.966 -17.797  1.00  0.00    -0.387 OA
ATOM     12  H   UNL     1     -35.742  -6.232 -18.667  1.00  0.00     0.211 HD
ENDBRANCH   4  11
BRANCH   6  13
ATOM     13  O   UNL     1     -35.521  -2.725 -19.174  1.00  0.00    -0.387 OA
ATOM     14  H   UNL     1     -35.733  -3.191 -20.024  1.00  0.00     0.211 HD
ENDBRANCH   6  13
BRANCH   7  15
ATOM     15  O   UNL     1     -37.242  -2.182 -16.734  1.00  0.00    -0.385 OA
ATOM     16  H   UNL     1     -37.090  -1.230 -16.504  1.00  0.00     0.211 HD
ENDBRANCH   7  15
ENDBRANCH   1   2
BRANCH   1  17
ATOM     17  C   UNL     1     -36.990  -5.305 -14.245  1.00  0.00     0.224 C 
ATOM     18  C   UNL     1     -38.436  -5.835 -14.167  1.00  0.00     0.208 C 
ATOM     19  O   UNL     1     -36.107  -6.394 -14.000  1.00  0.00    -0.337 OA
ATOM     20  C   UNL     1     -38.291  -7.064 -13.308  1.00  0.00     0.180 C 
ATOM     21  C   UNL     1     -36.862  -7.520 -13.602  1.00  0.00     0.179 C 
BRANCH  17  22
ATOM     22  C   UNL     1     -36.755  -4.233 -13.153  1.00  0.00     0.225 C 
BRANCH  22  23
ATOM     23  O   UNL     1     -35.544  -4.455 -12.479  1.00  0.00    -0.391 OA
ATOM     24  H   UNL     1     -35.668  -5.269 -11.927  1.00  0.00     0.210 HD
ENDBRANCH  22  23
ENDBRANCH  17  22
BRANCH  18  25
ATOM     25  O   UNL     1     -38.903  -6.181 -15.450  1.00  0.00    -0.385 OA
ATOM     26  H   UNL     1     -39.770  -6.649 -15.327  1.00  0.00     0.211 HD
ENDBRANCH  18  25
BRANCH  20  27
ATOM     27  O   UNL     1     -39.263  -8.035 -13.607  1.00  0.00    -0.387 OA
ATOM     28  H   UNL     1     -39.928  -8.001 -12.870  1.00  0.00     0.211 HD
ENDBRANCH  20  27
BRANCH  21  29
ATOM     29  C   UNL     1     -36.764  -8.601 -14.695  1.00  0.00     0.191 C 
BRANCH  29  30
ATOM     30  O   UNL     1     -36.418  -8.022 -15.924  1.00  0.00    -0.394 OA
ATOM     31  H   UNL     1     -36.594  -7.049 -15.839  1.00  0.00     0.210 HD
ENDBRANCH  29  30
ENDBRANCH  21  29
ENDBRANCH   1  17
TORSDOF 13
ENDMDL
MODEL 4
REMARK VINA RESULT:    -6.114      1.682      3.498
REMARK INTER + INTRA:         -10.941
REMARK INTER:                  -9.717
REMARK INTRA:                  -1.224
REMARK UNBOUND:                -1.610
REMARK SMILES OC[C@@H]1O[C@H](O[C@]2(CO)O[C@H](CO)[C@H](O)[C@@H]2O)[C@H](O)[C@@H](O)[C@@H]1O
REMARK SMILES IDX 6 1 5 2 3 3 22 4 4 5 20 6 18 7 2 8 1 9 23 11 21 13 19 15
REMARK SMILES IDX 7 17 16 18 10 19 14 20 11 21 8 22 9 23 17 25 15 27 12 29
REMARK SMILES IDX 13 30
REMARK H PARENT 1 10 23 12 21 14 19 16 9 24 17 26 15 28 13 31
REMARK Flexibility Score: inf
ROOT
ATOM      1  O   UNL     1     -36.362  -4.466 -15.823  1.00  0.00    -0.313 OA
ENDROOT
BRANCH   1   2
ATOM      2  C   UNL     1     -35.415  -5.215 -16.574  1.00  0.00     0.285 C 
ATOM      3  C   UNL     1     -35.539  -4.848 -18.954  1.00  0.00     0.178 C 
ATOM      4  C   UNL     1     -35.390  -3.335 -18.652  1.00  0.00     0.177 C 
ATOM      5  O   UNL     1     -35.995  -5.586 -17.827  1.00  0.00    -0.341 OA
ATOM      6  C   UNL     1     -34.336  -3.112 -17.534  1.00  0.00     0.179 C 
ATOM      7  C   UNL     1     -34.105  -4.399 -16.701  1.00  0.00     0.202 C 
BRANCH   3   8
ATOM      8  C   UNL     1     -36.508  -5.095 -20.121  1.00  0.00     0.191 C 
BRANCH   8   9
ATOM      9  O   UNL     1     -35.830  -5.594 -21.243  1.00  0.00    -0.394 OA
ATOM     10  H   UNL     1     -34.977  -5.090 -21.308  1.00  0.00     0.210 HD
ENDBRANCH   8   9
ENDBRANCH   3   8
BRANCH   4  11
ATOM     11  O   UNL     1     -36.635  -2.817 -18.255  1.00  0.00    -0.387 OA
ATOM     12  H   UNL     1     -37.329  -3.435 -18.603  1.00  0.00     0.211 HD
ENDBRANCH   4  11
BRANCH   6  13
ATOM     13  O   UNL     1     -33.118  -2.657 -18.071  1.00  0.00    -0.387 OA
ATOM     14  H   UNL     1     -33.167  -1.667 -18.128  1.00  0.00     0.211 HD
ENDBRANCH   6  13
BRANCH   7  15
ATOM     15  O   UNL     1     -33.557  -4.104 -15.440  1.00  0.00    -0.385 OA
ATOM     16  H   UNL     1     -32.890  -4.804 -15.224  1.00  0.00     0.211 HD
ENDBRANCH   7  15
ENDBRANCH   1   2
BRANCH   1  17
ATOM     17  C   UNL     1     -36.802  -5.117 -14.631  1.00  0.00     0.224 C 
ATOM     18  C   UNL     1     -38.326  -5.340 -14.726  1.00  0.00     0.208 C 
ATOM     19  O   UNL     1     -36.181  -6.386 -14.457  1.00  0.00    -0.337 OA
ATOM     20  C   UNL     1     -38.511  -6.656 -14.017  1.00  0.00     0.180 C 
ATOM     21  C   UNL     1     -37.179  -7.365 -14.259  1.00  0.00     0.179 C 
BRANCH  17  22
ATOM     22  C   UNL     1     -36.467  -4.240 -13.400  1.00  0.00     0.225 C 
BRANCH  22  23
ATOM     23  O   UNL     1     -35.177  -4.514 -12.919  1.00  0.00    -0.391 OA
ATOM     24  H   UNL     1     -34.724  -3.641 -12.797  1.00  0.00     0.210 HD
ENDBRANCH  22  23
ENDBRANCH  17  22
BRANCH  18  25
ATOM     25  O   UNL     1     -38.724  -5.443 -16.072  1.00  0.00    -0.385 OA
ATOM     26  H   UNL     1     -39.710  -5.330 -16.092  1.00  0.00     0.211 HD
ENDBRANCH  18  25
BRANCH  20  27
ATOM     27  O   UNL     1     -39.622  -7.367 -14.503  1.00  0.00    -0.387 OA
ATOM     28  H   UNL     1     -39.499  -8.309 -14.216  1.00  0.00     0.211 HD
ENDBRANCH  20  27
BRANCH  21  29
ATOM     29  C   UNL     1     -37.192  -8.321 -15.467  1.00  0.00     0.191 C 
BRANCH  29  30
ATOM     30  O   UNL     1     -36.233  -9.331 -15.301  1.00  0.00    -0.394 OA
ATOM     31  H   UNL     1     -35.448  -9.070 -15.848  1.00  0.00     0.210 HD
ENDBRANCH  29  30
ENDBRANCH  21  29
ENDBRANCH   1  17
TORSDOF 13
ENDMDL
MODEL 5
REMARK VINA RESULT:    -6.079      1.808      5.781
REMARK INTER + INTRA:         -10.887
REMARK INTER:                  -9.404
REMARK INTRA:                  -1.483
REMARK UNBOUND:                -1.610
REMARK SMILES OC[C@@H]1O[C@H](O[C@]2(CO)O[C@H](CO)[C@H](O)[C@@H]2O)[C@H](O)[C@@H](O)[C@@H]1O
REMARK SMILES IDX 6 1 5 2 3 3 22 4 4 5 20 6 18 7 2 8 1 9 23 11 21 13 19 15
REMARK SMILES IDX 7 17 16 18 10 19 14 20 11 21 8 22 9 23 17 25 15 27 12 29
REMARK SMILES IDX 13 30
REMARK H PARENT 1 10 23 12 21 14 19 16 9 24 17 26 15 28 13 31
REMARK Flexibility Score: inf
ROOT
ATOM      1  O   UNL     1     -36.583  -6.208 -16.269  1.00  0.00    -0.313 OA
ENDROOT
BRANCH   1   2
ATOM      2  C   UNL     1     -36.359  -6.698 -14.953  1.00  0.00     0.285 C 
ATOM      3  C   UNL     1     -38.092  -6.115 -13.380  1.00  0.00     0.178 C 
ATOM      4  C   UNL     1     -39.100  -6.750 -14.372  1.00  0.00     0.177 C 
ATOM      5  O   UNL     1     -36.866  -5.754 -14.007  1.00  0.00    -0.341 OA
ATOM      6  C   UNL     1     -38.516  -8.061 -14.965  1.00  0.00     0.179 C 
ATOM      7  C   UNL     1     -36.974  -8.114 -14.825  1.00  0.00     0.202 C 
BRANCH   3   8
ATOM      8  C   UNL     1     -38.679  -4.865 -12.705  1.00  0.00     0.191 C 
BRANCH   8   9
ATOM      9  O   UNL     1     -38.421  -3.714 -13.464  1.00  0.00    -0.394 OA
ATOM     10  H   UNL     1     -39.077  -3.028 -13.173  1.00  0.00     0.210 HD
ENDBRANCH   8   9
ENDBRANCH   3   8
BRANCH   4  11
ATOM     11  O   UNL     1     -39.379  -5.834 -15.400  1.00  0.00    -0.387 OA
ATOM     12  H   UNL     1     -38.904  -4.992 -15.173  1.00  0.00     0.211 HD
ENDBRANCH   4  11
BRANCH   6  13
ATOM     13  O   UNL     1     -39.098  -9.191 -14.363  1.00  0.00    -0.387 OA
ATOM     14  H   UNL     1     -39.630  -8.877 -13.586  1.00  0.00     0.211 HD
ENDBRANCH   6  13
BRANCH   7  15
ATOM     15  O   UNL     1     -36.403  -9.008 -15.748  1.00  0.00    -0.385 OA
ATOM     16  H   UNL     1     -36.701  -8.744 -16.656  1.00  0.00     0.211 HD
ENDBRANCH   7  15
ENDBRANCH   1   2
BRANCH   1  17
ATOM     17  C   UNL     1     -35.655  -5.204 -16.680  1.00  0.00     0.224 C 
ATOM     18  C   UNL     1     -35.891  -4.897 -18.173  1.00  0.00     0.208 C 
ATOM     19  O   UNL     1     -35.820  -3.995 -15.949  1.00  0.00    -0.337 OA
ATOM     20  C   UNL     1     -35.601  -3.420 -18.255  1.00  0.00     0.180 C 
ATOM     21  C   UNL     1     -35.965  -2.923 -16.856  1.00  0.00     0.179 C 
BRANCH  17  22
ATOM     22  C   UNL     1     -34.208  -5.710 -16.462  1.00  0.00     0.225 C 
BRANCH  22  23
ATOM     23  O   UNL     1     -33.572  -5.968 -17.686  1.00  0.00    -0.391 OA
ATOM     24  H   UNL     1     -34.280  -6.238 -18.326  1.00  0.00     0.210 HD
ENDBRANCH  22  23
ENDBRANCH  17  22
BRANCH  18  25
ATOM     25  O   UNL     1     -37.230  -5.159 -18.522  1.00  0.00    -0.385 OA
ATOM     26  H   UNL     1     -37.796  -4.561 -17.967  1.00  0.00     0.211 HD
ENDBRANCH  18  25
BRANCH  20  27
ATOM     27  O   UNL     1     -36.331  -2.795 -19.281  1.00  0.00    -0.387 OA
ATOM     28  H   UNL     1     -37.095  -3.395 -19.486  1.00  0.00     0.211 HD
ENDBRANCH  20  27
BRANCH  21  29
ATOM     29  C   UNL     1     -37.396  -2.362 -16.746  1.00  0.00     0.191 C 
BRANCH  29  30
ATOM     30  O   UNL     1     -38.276  -3.355 -16.292  1.00  0.00    -0.394 OA
ATOM     31  H   UNL     1     -39.192  -2.985 -16.382  1.00  0.00     0.210 HD
ENDBRANCH  29  30
ENDBRANCH  21  29
ENDBRANCH   1  17
TORSDOF 13
ENDMDL
MODEL 6
REMARK VINA RESULT:    -6.073      1.769      3.198
REMARK INTER + INTRA:         -10.877
REMARK INTER:                  -9.735
REMARK INTRA:                  -1.142
REMARK UNBOUND:                -1.610
REMARK SMILES OC[C@@H]1O[C@H](O[C@]2(CO)O[C@H](CO)[C@H](O)[C@@H]2O)[C@H](O)[C@@H](O)[C@@H]1O
REMARK SMILES IDX 6 1 5 2 3 3 22 4 4 5 20 6 18 7 2 8 1 9 23 11 21 13 19 15
REMARK SMILES IDX 7 17 16 18 10 19 14 20 11 21 8 22 9 23 17 25 15 27 12 29
REMARK SMILES IDX 13 30
REMARK H PARENT 1 10 23 12 21 14 19 16 9 24 17 26 15 28 13 31
REMARK Flexibility Score: inf
ROOT
ATOM      1  O   UNL     1     -36.862  -5.390 -15.171  1.00  0.00    -0.313 OA
ENDROOT
BRANCH   1   2
ATOM      2  C   UNL     1     -35.986  -4.272 -15.106  1.00  0.00     0.285 C 
ATOM      3  C   UNL     1     -34.061  -4.447 -16.547  1.00  0.00     0.178 C 
ATOM      4  C   UNL     1     -35.051  -4.693 -17.714  1.00  0.00     0.177 C 
ATOM      5  O   UNL     1     -34.639  -4.719 -15.276  1.00  0.00    -0.341 OA
ATOM      6  C   UNL     1     -36.276  -3.747 -17.585  1.00  0.00     0.179 C 
ATOM      7  C   UNL     1     -36.435  -3.211 -16.140  1.00  0.00     0.202 C 
BRANCH   3   8
ATOM      8  C   UNL     1     -32.793  -5.303 -16.697  1.00  0.00     0.191 C 
BRANCH   8   9
ATOM      9  O   UNL     1     -32.813  -6.029 -17.896  1.00  0.00    -0.394 OA
ATOM     10  H   UNL     1     -32.783  -5.364 -18.633  1.00  0.00     0.210 HD
ENDBRANCH   8   9
ENDBRANCH   3   8
BRANCH   4  11
ATOM     11  O   UNL     1     -35.470  -6.034 -17.692  1.00  0.00    -0.387 OA
ATOM     12  H   UNL     1     -36.413  -6.037 -17.382  1.00  0.00     0.211 HD
ENDBRANCH   4  11
BRANCH   6  13
ATOM     13  O   UNL     1     -36.187  -2.677 -18.493  1.00  0.00    -0.387 OA
ATOM     14  H   UNL     1     -36.910  -2.791 -19.164  1.00  0.00     0.211 HD
ENDBRANCH   6  13
BRANCH   7  15
ATOM     15  O   UNL     1     -37.750  -2.775 -15.894  1.00  0.00    -0.385 OA
ATOM     16  H   UNL     1     -37.906  -2.810 -14.916  1.00  0.00     0.211 HD
ENDBRANCH   7  15
ENDBRANCH   1   2
BRANCH   1  17
ATOM     17  C   UNL     1     -37.457  -5.734 -13.920  1.00  0.00     0.224 C 
ATOM     18  C   UNL     1     -38.960  -5.391 -13.979  1.00  0.00     0.208 C 
ATOM     19  O   UNL     1     -37.333  -7.123 -13.637  1.00  0.00    -0.337 OA
ATOM     20  C   UNL     1     -39.580  -6.485 -13.149  1.00  0.00     0.180 C 
ATOM     21  C   UNL     1     -38.609  -7.650 -13.338  1.00  0.00     0.179 C 
BRANCH  17  22
ATOM     22  C   UNL     1     -36.773  -4.942 -12.779  1.00  0.00     0.225 C 
BRANCH  22  23
ATOM     23  O   UNL     1     -35.626  -5.607 -12.319  1.00  0.00    -0.391 OA
ATOM     24  H   UNL     1     -35.898  -6.134 -11.525  1.00  0.00     0.210 HD
ENDBRANCH  22  23
ENDBRANCH  17  22
BRANCH  18  25
ATOM     25  O   UNL     1     -39.426  -5.451 -15.306  1.00  0.00    -0.385 OA
ATOM     26  H   UNL     1     -39.138  -6.327 -15.675  1.00  0.00     0.211 HD
ENDBRANCH  18  25
BRANCH  20  27
ATOM     27  O   UNL     1     -40.894  -6.777 -13.557  1.00  0.00    -0.387 OA
ATOM     28  H   UNL     1     -41.366  -7.119 -12.753  1.00  0.00     0.211 HD
ENDBRANCH  20  27
BRANCH  21  29
ATOM     29  C   UNL     1     -39.020  -8.631 -14.453  1.00  0.00     0.191 C 
BRANCH  29  30
ATOM     30  O   UNL     1     -40.115  -9.405 -14.042  1.00  0.00    -0.394 OA
ATOM     31  H   UNL     1     -40.332  -9.119 -13.116  1.00  0.00     0.210 HD
ENDBRANCH  29  30
ENDBRANCH  21  29
ENDBRANCH   1  17
TORSDOF 13
ENDMDL
MODEL 7
REMARK VINA RESULT:    -6.020      2.339      4.013
REMARK INTER + INTRA:         -10.797
REMARK INTER:                  -9.885
REMARK INTRA:                  -0.912
REMARK UNBOUND:                -1.610
REMARK SMILES OC[C@@H]1O[C@H](O[C@]2(CO)O[C@H](CO)[C@H](O)[C@@H]2O)[C@H](O)[C@@H](O)[C@@H]1O
REMARK SMILES IDX 6 1 5 2 3 3 22 4 4 5 20 6 18 7 2 8 1 9 23 11 21 13 19 15
REMARK SMILES IDX 7 17 16 18 10 19 14 20 11 21 8 22 9 23 17 25 15 27 12 29
REMARK SMILES IDX 13 30
REMARK H PARENT 1 10 23 12 21 14 19 16 9 24 17 26 15 28 13 31
REMARK Flexibility Score: inf
ROOT
ATOM      1  O   UNL     1     -34.652  -3.074 -17.295  1.00  0.00    -0.313 OA
ENDROOT
BRANCH   1   2
ATOM      2  C   UNL     1     -34.215  -4.028 -18.254  1.00  0.00     0.285 C 
ATOM      3  C   UNL     1     -32.229  -3.375 -19.455  1.00  0.00     0.178 C 
ATOM      4  C   UNL     1     -31.552  -3.175 -18.075  1.00  0.00     0.177 C 
ATOM      5  O   UNL     1     -33.649  -3.345 -19.375  1.00  0.00    -0.341 OA
ATOM      6  C   UNL     1     -31.955  -4.322 -17.109  1.00  0.00     0.179 C 
ATOM      7  C   UNL     1     -33.252  -5.031 -17.573  1.00  0.00     0.202 C 
BRANCH   3   8
ATOM      8  C   UNL     1     -31.777  -2.306 -20.463  1.00  0.00     0.191 C 
BRANCH   8   9
ATOM      9  O   UNL     1     -32.856  -1.850 -21.233  1.00  0.00    -0.394 OA
ATOM     10  H   UNL     1     -33.398  -1.262 -20.644  1.00  0.00     0.210 HD
ENDBRANCH   8   9
ENDBRANCH   3   8
BRANCH   4  11
ATOM     11  O   UNL     1     -31.942  -1.933 -17.544  1.00  0.00    -0.387 OA
ATOM     12  H   UNL     1     -32.226  -1.368 -18.309  1.00  0.00     0.211 HD
ENDBRANCH   4  11
BRANCH   6  13
ATOM     13  O   UNL     1     -30.913  -5.256 -16.972  1.00  0.00    -0.387 OA
ATOM     14  H   UNL     1     -30.105  -4.763 -16.671  1.00  0.00     0.211 HD
ENDBRANCH   6  13
BRANCH   7  15
ATOM     15  O   UNL     1     -33.878  -5.706 -16.510  1.00  0.00    -0.385 OA
ATOM     16  H   UNL     1     -34.844  -5.780 -16.720  1.00  0.00     0.211 HD
ENDBRANCH   7  15
ENDBRANCH   1   2
BRANCH   1  17
ATOM     17  C   UNL     1     -36.071  -3.003 -17.152  1.00  0.00     0.224 C 
ATOM     18  C   UNL     1     -36.467  -3.691 -15.829  1.00  0.00     0.208 C 
ATOM     19  O   UNL     1     -36.535  -1.659 -17.106  1.00  0.00    -0.337 OA
ATOM     20  C   UNL     1     -37.636  -2.863 -15.364  1.00  0.00     0.180 C 
ATOM     21  C   UNL     1     -37.337  -1.486 -15.957  1.00  0.00     0.179 C 
BRANCH  17  22
ATOM     22  C   UNL     1     -36.754  -3.712 -18.347  1.00  0.00     0.225 C 
BRANCH  22  23
ATOM     23  O   UNL     1     -36.861  -2.853 -19.451  1.00  0.00    -0.391 OA
ATOM     24  H   UNL     1     -37.494  -3.278 -20.086  1.00  0.00     0.210 HD
ENDBRANCH  22  23
ENDBRANCH  17  22
BRANCH  18  25
ATOM     25  O   UNL     1     -35.409  -3.618 -14.902  1.00  0.00    -0.385 OA
ATOM     26  H   UNL     1     -34.592  -3.934 -15.370  1.00  0.00     0.211 HD
ENDBRANCH  18  25
BRANCH  20  27
ATOM     27  O   UNL     1     -37.757  -2.858 -13.964  1.00  0.00    -0.387 OA
ATOM     28  H   UNL     1     -38.647  -2.468 -13.761  1.00  0.00     0.211 HD
ENDBRANCH  20  27
BRANCH  21  29
ATOM     29  C   UNL     1     -36.619  -0.531 -14.983  1.00  0.00     0.191 C 
BRANCH  29  30
ATOM     30  O   UNL     1     -35.954   0.480 -15.692  1.00  0.00    -0.394 OA
ATOM     31  H   UNL     1     -36.267   0.419 -16.632  1.00  0.00     0.210 HD
ENDBRANCH  29  30
ENDBRANCH  21  29
ENDBRANCH   1  17
TORSDOF 13
ENDMDL
MODEL 8
REMARK VINA RESULT:    -5.900      1.956      5.624
REMARK INTER + INTRA:         -10.613
REMARK INTER:                  -9.124
REMARK INTRA:                  -1.489
REMARK UNBOUND:                -1.610
REMARK SMILES OC[C@@H]1O[C@H](O[C@]2(CO)O[C@H](CO)[C@H](O)[C@@H]2O)[C@H](O)[C@@H](O)[C@@H]1O
REMARK SMILES IDX 6 1 5 2 3 3 22 4 4 5 20 6 18 7 2 8 1 9 23 11 21 13 19 15
REMARK SMILES IDX 7 17 16 18 10 19 14 20 11 21 8 22 9 23 17 25 15 27 12 29
REMARK SMILES IDX 13 30
REMARK H PARENT 1 10 23 12 21 14 19 16 9 24 17 26 15 28 13 31
REMARK Flexibility Score: inf
ROOT
ATOM      1  O   UNL     1     -37.650  -4.032 -16.126  1.00  0.00    -0.313 OA
ENDROOT
BRANCH   1   2
ATOM      2  C   UNL     1     -37.250  -5.170 -15.374  1.00  0.00     0.285 C 
ATOM      3  C   UNL     1     -37.549  -4.929 -12.993  1.00  0.00     0.178 C 
ATOM      4  C   UNL     1     -39.028  -4.575 -13.292  1.00  0.00     0.177 C 
ATOM      5  O   UNL     1     -36.705  -4.741 -14.124  1.00  0.00    -0.341 OA
ATOM      6  C   UNL     1     -39.586  -5.501 -14.407  1.00  0.00     0.179 C 
ATOM      7  C   UNL     1     -38.449  -6.141 -15.241  1.00  0.00     0.202 C 
BRANCH   3   8
ATOM      8  C   UNL     1     -36.995  -4.091 -11.830  1.00  0.00     0.191 C 
BRANCH   8   9
ATOM      9  O   UNL     1     -38.033  -3.558 -11.052  1.00  0.00    -0.394 OA
ATOM     10  H   UNL     1     -38.767  -3.323 -11.679  1.00  0.00     0.210 HD
ENDBRANCH   8   9
ENDBRANCH   3   8
BRANCH   4  11
ATOM     11  O   UNL     1     -39.112  -3.230 -13.692  1.00  0.00    -0.387 OA
ATOM     12  H   UNL     1     -39.745  -2.784 -13.070  1.00  0.00     0.211 HD
ENDBRANCH   4  11
BRANCH   6  13
ATOM     13  O   UNL     1     -40.413  -6.502 -13.865  1.00  0.00    -0.387 OA
ATOM     14  H   UNL     1     -40.047  -6.746 -12.976  1.00  0.00     0.211 HD
ENDBRANCH   6  13
BRANCH   7  15
ATOM     15  O   UNL     1     -38.910  -6.565 -16.501  1.00  0.00    -0.385 OA
ATOM     16  H   UNL     1     -39.052  -7.545 -16.461  1.00  0.00     0.211 HD
ENDBRANCH   7  15
ENDBRANCH   1   2
BRANCH   1  17
ATOM     17  C   UNL     1     -37.028  -3.936 -17.408  1.00  0.00     0.224 C 
ATOM     18  C   UNL     1     -35.948  -2.836 -17.350  1.00  0.00     0.208 C 
ATOM     19  O   UNL     1     -36.396  -5.154 -17.785  1.00  0.00    -0.337 OA
ATOM     20  C   UNL     1     -34.878  -3.375 -18.263  1.00  0.00     0.180 C 
ATOM     21  C   UNL     1     -35.055  -4.888 -18.140  1.00  0.00     0.179 C 
BRANCH  17  22
ATOM     22  C   UNL     1     -38.089  -3.587 -18.480  1.00  0.00     0.225 C 
BRANCH  22  23
ATOM     23  O   UNL     1     -39.287  -4.280 -18.250  1.00  0.00    -0.391 OA
ATOM     24  H   UNL     1     -39.648  -3.951 -17.386  1.00  0.00     0.210 HD
ENDBRANCH  22  23
ENDBRANCH  17  22
BRANCH  18  25
ATOM     25  O   UNL     1     -35.456  -2.699 -16.038  1.00  0.00    -0.385 OA
ATOM     26  H   UNL     1     -34.530  -2.349 -16.111  1.00  0.00     0.211 HD
ENDBRANCH  18  25
BRANCH  20  27
ATOM     27  O   UNL     1     -33.597  -2.927 -17.898  1.00  0.00    -0.387 OA
ATOM     28  H   UNL     1     -33.454  -3.223 -16.961  1.00  0.00     0.211 HD
ENDBRANCH  20  27
BRANCH  21  29
ATOM     29  C   UNL     1     -34.122  -5.542 -17.103  1.00  0.00     0.191 C 
BRANCH  29  30
ATOM     30  O   UNL     1     -32.968  -6.036 -17.728  1.00  0.00    -0.394 OA
ATOM     31  H   UNL     1     -33.240  -6.854 -18.220  1.00  0.00     0.210 HD
ENDBRANCH  29  30
ENDBRANCH  21  29
ENDBRANCH   1  17
TORSDOF 13
ENDMDL
MODEL 9
REMARK VINA RESULT:    -5.830      1.749      5.469
REMARK INTER + INTRA:         -10.508
REMARK INTER:                  -9.374
REMARK INTRA:                  -1.134
REMARK UNBOUND:                -1.610
REMARK SMILES OC[C@@H]1O[C@H](O[C@]2(CO)O[C@H](CO)[C@H](O)[C@@H]2O)[C@H](O)[C@@H](O)[C@@H]1O
REMARK SMILES IDX 6 1 5 2 3 3 22 4 4 5 20 6 18 7 2 8 1 9 23 11 21 13 19 15
REMARK SMILES IDX 7 17 16 18 10 19 14 20 11 21 8 22 9 23 17 25 15 27 12 29
REMARK SMILES IDX 13 30
REMARK H PARENT 1 10 23 12 21 14 19 16 9 24 17 26 15 28 13 31
REMARK Flexibility Score: inf
ROOT
ATOM      1  O   UNL     1     -37.187  -4.890 -15.898  1.00  0.00    -0.313 OA
ENDROOT
BRANCH   1   2
ATOM      2  C   UNL     1     -38.384  -5.646 -16.023  1.00  0.00     0.285 C 
ATOM      3  C   UNL     1     -38.393  -7.689 -14.742  1.00  0.00     0.178 C 
ATOM      4  C   UNL     1     -38.052  -6.824 -13.502  1.00  0.00     0.177 C 
ATOM      5  O   UNL     1     -38.069  -7.040 -15.966  1.00  0.00    -0.341 OA
ATOM      6  C   UNL     1     -38.875  -5.508 -13.524  1.00  0.00     0.179 C 
ATOM      7  C   UNL     1     -39.396  -5.183 -14.947  1.00  0.00     0.202 C 
BRANCH   3   8
ATOM      8  C   UNL     1     -37.663  -9.041 -14.702  1.00  0.00     0.191 C 
BRANCH   8   9
ATOM      9  O   UNL     1     -36.458  -8.986 -15.418  1.00  0.00    -0.394 OA
ATOM     10  H   UNL     1     -35.979  -9.836 -15.235  1.00  0.00     0.210 HD
ENDBRANCH   8   9
ENDBRANCH   3   8
BRANCH   4  11
ATOM     11  O   UNL     1     -36.676  -6.536 -13.502  1.00  0.00    -0.387 OA
ATOM     12  H   UNL     1     -36.578  -5.600 -13.183  1.00  0.00     0.211 HD
ENDBRANCH   4  11
BRANCH   6  13
ATOM     13  O   UNL     1     -39.948  -5.568 -12.616  1.00  0.00    -0.387 OA
ATOM     14  H   UNL     1     -39.829  -4.831 -11.962  1.00  0.00     0.211 HD
ENDBRANCH   6  13
BRANCH   7  15
ATOM     15  O   UNL     1     -39.703  -3.817 -15.083  1.00  0.00    -0.385 OA
ATOM     16  H   UNL     1     -40.469  -3.735 -15.707  1.00  0.00     0.211 HD
ENDBRANCH   7  15
ENDBRANCH   1   2
BRANCH   1  17
ATOM     17  C   UNL     1     -36.596  -4.528 -17.146  1.00  0.00     0.224 C 
ATOM     18  C   UNL     1     -35.724  -3.274 -16.933  1.00  0.00     0.208 C 
ATOM     19  O   UNL     1     -35.763  -5.562 -17.659  1.00  0.00    -0.337 OA
ATOM     20  C   UNL     1     -34.580  -3.501 -17.886  1.00  0.00     0.180 C 
ATOM     21  C   UNL     1     -34.490  -5.026 -17.954  1.00  0.00     0.179 C 
BRANCH  17  22
ATOM     22  C   UNL     1     -37.705  -4.236 -18.186  1.00  0.00     0.225 C 
BRANCH  22  23
ATOM     23  O   UNL     1     -37.504  -4.976 -19.361  1.00  0.00    -0.391 OA
ATOM     24  H   UNL     1     -38.306  -5.547 -19.482  1.00  0.00     0.210 HD
ENDBRANCH  22  23
ENDBRANCH  17  22
BRANCH  18  25
ATOM     25  O   UNL     1     -35.258  -3.219 -15.605  1.00  0.00    -0.385 OA
ATOM     26  H   UNL     1     -35.315  -4.140 -15.240  1.00  0.00     0.211 HD
ENDBRANCH  18  25
BRANCH  20  27
ATOM     27  O   UNL     1     -33.394  -2.888 -17.445  1.00  0.00    -0.387 OA
ATOM     28  H   UNL     1     -32.832  -2.755 -18.252  1.00  0.00     0.211 HD
ENDBRANCH  20  27
BRANCH  21  29
ATOM     29  C   UNL     1     -33.454  -5.633 -16.989  1.00  0.00     0.191 C 
BRANCH  29  30
ATOM     30  O   UNL     1     -32.156  -5.437 -17.481  1.00  0.00    -0.394 OA
ATOM     31  H   UNL     1     -31.981  -4.461 -17.440  1.00  0.00     0.210 HD
ENDBRANCH  29  30
ENDBRANCH  21  29
ENDBRANCH   1  17
TORSDOF 13
ENDMDL
