MODEL 1
REMARK VINA RESULT:    -6.803      0.000      0.000
REMARK INTER + INTRA:          -7.423
REMARK INTER:                  -7.400
REMARK INTRA:                  -0.023
REMARK UNBOUND:                -0.023
REMARK SMILES CC1(C)[C@H]2CC=C(CO)[C@@H]1C2
REMARK SMILES IDX 8 1 7 2 1 3 2 4 4 5 3 6 10 7 5 8 11 9 6 10 9 11
REMARK H PARENT 9 12
REMARK Flexibility Score: inf
ROOT
ATOM      1  C   UNL     1      -3.496  45.898  16.169  1.00  0.00     0.187 C 
ENDROOT
BRANCH   1   2
ATOM      2  C   UNL     1      -3.616  45.618  14.700  1.00  0.00    -0.045 C 
ATOM      3  C   UNL     1      -5.153  43.331  13.627  1.00  0.00     0.012 C 
ATOM      4  C   UNL     1      -3.725  43.666  13.111  1.00  0.00    -0.026 C 
ATOM      5  C   UNL     1      -3.558  44.808  12.071  1.00  0.00    -0.000 C 
ATOM      6  C   UNL     1      -3.054  42.348  12.648  1.00  0.00     0.012 C 
ATOM      7  C   UNL     1      -2.794  44.513  14.018  1.00  0.00     0.023 C 
ATOM      8  C   UNL     1      -4.531  45.992  12.398  1.00  0.00     0.031 C 
ATOM      9  C   UNL     1      -2.220  45.167  12.747  1.00  0.00     0.013 C 
ATOM     10  C   UNL     1      -4.442  46.350  13.895  1.00  0.00    -0.025 C 
ENDBRANCH   1   2
BRANCH   1  11
ATOM     11  O   UNL     1      -3.526  47.281  16.384  1.00  0.00    -0.392 OA
ATOM     12  H   UNL     1      -2.659  47.513  16.806  1.00  0.00     0.211 HD
ENDBRANCH   1  11
TORSDOF 2
ENDMDL
MODEL 2
REMARK VINA RESULT:    -6.709      4.943      6.512
REMARK INTER + INTRA:          -7.321
REMARK INTER:                  -7.277
REMARK INTRA:                  -0.044
REMARK UNBOUND:                -0.023
REMARK SMILES CC1(C)[C@H]2CC=C(CO)[C@@H]1C2
REMARK SMILES IDX 8 1 7 2 1 3 2 4 4 5 3 6 10 7 5 8 11 9 6 10 9 11
REMARK H PARENT 9 12
REMARK Flexibility Score: inf
ROOT
ATOM      1  C   UNL     1       1.733  47.325  17.133  1.00  0.00     0.187 C 
ENDROOT
BRANCH   1   2
ATOM      2  C   UNL     1       0.455  47.753  17.790  1.00  0.00    -0.045 C 
ATOM      3  C   UNL     1      -1.165  45.940  19.473  1.00  0.00     0.012 C 
ATOM      4  C   UNL     1      -1.814  46.831  18.378  1.00  0.00    -0.026 C 
ATOM      5  C   UNL     1      -2.079  48.328  18.697  1.00  0.00    -0.000 C 
ATOM      6  C   UNL     1      -3.083  46.110  17.854  1.00  0.00     0.012 C 
ATOM      7  C   UNL     1      -0.917  47.354  17.226  1.00  0.00     0.023 C 
ATOM      8  C   UNL     1      -0.900  48.923  19.542  1.00  0.00     0.031 C 
ATOM      9  C   UNL     1      -1.745  48.654  17.227  1.00  0.00     0.013 C 
ATOM     10  C   UNL     1       0.451  48.540  18.908  1.00  0.00    -0.025 C 
ENDBRANCH   1   2
BRANCH   1  11
ATOM     11  O   UNL     1       1.575  47.351  15.743  1.00  0.00    -0.392 OA
ATOM     12  H   UNL     1       0.951  48.098  15.550  1.00  0.00     0.211 HD
ENDBRANCH   1  11
TORSDOF 2
ENDMDL
MODEL 3
REMARK VINA RESULT:    -6.551      2.588      4.052
REMARK INTER + INTRA:          -7.149
REMARK INTER:                  -7.124
REMARK INTRA:                  -0.025
REMARK UNBOUND:                -0.023
REMARK SMILES CC1(C)[C@H]2CC=C(CO)[C@@H]1C2
REMARK SMILES IDX 8 1 7 2 1 3 2 4 4 5 3 6 10 7 5 8 11 9 6 10 9 11
REMARK H PARENT 9 12
REMARK Flexibility Score: inf
ROOT
ATOM      1  C   UNL     1      -1.733  41.389  13.618  1.00  0.00     0.187 C 
ENDROOT
BRANCH   1   2
ATOM      2  C   UNL     1      -2.745  42.423  13.222  1.00  0.00    -0.045 C 
ATOM      3  C   UNL     1      -2.059  45.273  12.847  1.00  0.00     0.012 C 
ATOM      4  C   UNL     1      -3.309  44.838  13.660  1.00  0.00    -0.026 C 
ATOM      5  C   UNL     1      -4.595  44.432  12.889  1.00  0.00    -0.000 C 
ATOM      6  C   UNL     1      -3.588  45.916  14.738  1.00  0.00     0.012 C 
ATOM      7  C   UNL     1      -3.345  43.401  14.244  1.00  0.00     0.023 C 
ATOM      8  C   UNL     1      -4.226  43.625  11.597  1.00  0.00     0.031 C 
ATOM      9  C   UNL     1      -4.863  43.376  13.980  1.00  0.00     0.013 C 
ATOM     10  C   UNL     1      -3.202  42.524  11.937  1.00  0.00    -0.025 C 
ENDBRANCH   1   2
BRANCH   1  11
ATOM     11  O   UNL     1      -2.203  40.118  13.267  1.00  0.00    -0.392 OA
ATOM     12  H   UNL     1      -1.412  39.518  13.283  1.00  0.00     0.211 HD
ENDBRANCH   1  11
TORSDOF 2
ENDMDL
MODEL 4
REMARK VINA RESULT:    -6.458      1.741      2.888
REMARK INTER + INTRA:          -7.048
REMARK INTER:                  -7.003
REMARK INTRA:                  -0.045
REMARK UNBOUND:                -0.023
REMARK SMILES CC1(C)[C@H]2CC=C(CO)[C@@H]1C2
REMARK SMILES IDX 8 1 7 2 1 3 2 4 4 5 3 6 10 7 5 8 11 9 6 10 9 11
REMARK H PARENT 9 12
REMARK Flexibility Score: inf
ROOT
ATOM      1  C   UNL     1      -4.394  47.071  11.814  1.00  0.00     0.187 C 
ENDROOT
BRANCH   1   2
ATOM      2  C   UNL     1      -3.902  45.841  12.517  1.00  0.00    -0.045 C 
ATOM      3  C   UNL     1      -4.528  43.106  11.586  1.00  0.00     0.012 C 
ATOM      4  C   UNL     1      -4.663  43.507  13.082  1.00  0.00    -0.026 C 
ATOM      5  C   UNL     1      -3.381  43.556  13.958  1.00  0.00    -0.000 C 
ATOM      6  C   UNL     1      -5.777  42.639  13.719  1.00  0.00     0.012 C 
ATOM      7  C   UNL     1      -4.818  45.011  13.430  1.00  0.00     0.023 C 
ATOM      8  C   UNL     1      -2.178  44.132  13.135  1.00  0.00     0.031 C 
ATOM      9  C   UNL     1      -3.991  44.758  14.705  1.00  0.00     0.013 C 
ATOM     10  C   UNL     1      -2.608  45.417  12.401  1.00  0.00    -0.025 C 
ENDBRANCH   1   2
BRANCH   1  11
ATOM     11  O   UNL     1      -5.440  47.642  12.547  1.00  0.00    -0.392 OA
ATOM     12  H   UNL     1      -5.628  48.519  12.122  1.00  0.00     0.211 HD
ENDBRANCH   1  11
TORSDOF 2
ENDMDL
MODEL 5
REMARK VINA RESULT:    -6.383      6.000      7.545
REMARK INTER + INTRA:          -6.967
REMARK INTER:                  -6.908
REMARK INTRA:                  -0.059
REMARK UNBOUND:                -0.023
REMARK SMILES CC1(C)[C@H]2CC=C(CO)[C@@H]1C2
REMARK SMILES IDX 8 1 7 2 1 3 2 4 4 5 3 6 10 7 5 8 11 9 6 10 9 11
REMARK H PARENT 9 12
REMARK Flexibility Score: inf
ROOT
ATOM      1  C   UNL     1       1.860  47.032  17.135  1.00  0.00     0.187 C 
ENDROOT
BRANCH   1   2
ATOM      2  C   UNL     1       0.751  47.224  18.127  1.00  0.00    -0.045 C 
ATOM      3  C   UNL     1      -1.746  48.666  17.477  1.00  0.00     0.012 C 
ATOM      4  C   UNL     1      -0.966  48.942  18.792  1.00  0.00    -0.026 C 
ATOM      5  C   UNL     1      -1.142  47.960  19.983  1.00  0.00    -0.000 C 
ATOM      6  C   UNL     1      -1.216  50.415  19.205  1.00  0.00     0.012 C 
ATOM      7  C   UNL     1       0.537  48.562  18.851  1.00  0.00     0.023 C 
ATOM      8  C   UNL     1      -1.233  46.484  19.464  1.00  0.00     0.031 C 
ATOM      9  C   UNL     1       0.342  48.189  20.333  1.00  0.00     0.013 C 
ATOM     10  C   UNL     1      -0.103  46.209  18.453  1.00  0.00    -0.025 C 
ENDBRANCH   1   2
BRANCH   1  11
ATOM     11  O   UNL     1       1.420  47.416  15.863  1.00  0.00    -0.392 OA
ATOM     12  H   UNL     1       2.238  47.624  15.340  1.00  0.00     0.211 HD
ENDBRANCH   1  11
TORSDOF 2
ENDMDL
MODEL 6
REMARK VINA RESULT:    -6.291      2.173      3.514
REMARK INTER + INTRA:          -6.866
REMARK INTER:                  -6.841
REMARK INTRA:                  -0.025
REMARK UNBOUND:                -0.023
REMARK SMILES CC1(C)[C@H]2CC=C(CO)[C@@H]1C2
REMARK SMILES IDX 8 1 7 2 1 3 2 4 4 5 3 6 10 7 5 8 11 9 6 10 9 11
REMARK H PARENT 9 12
REMARK Flexibility Score: inf
ROOT
ATOM      1  C   UNL     1      -5.410  42.430  12.970  1.00  0.00     0.187 C 
ENDROOT
BRANCH   1   2
ATOM      2  C   UNL     1      -4.576  43.614  13.360  1.00  0.00    -0.045 C 
ATOM      3  C   UNL     1      -5.618  46.381  13.343  1.00  0.00     0.012 C 
ATOM      4  C   UNL     1      -4.236  46.027  12.725  1.00  0.00    -0.026 C 
ATOM      5  C   UNL     1      -3.017  45.860  13.673  1.00  0.00    -0.000 C 
ATOM      6  C   UNL     1      -3.950  47.024  11.573  1.00  0.00     0.012 C 
ATOM      7  C   UNL     1      -3.969  44.557  12.310  1.00  0.00     0.023 C 
ATOM      8  C   UNL     1      -3.450  45.140  14.997  1.00  0.00     0.031 C 
ATOM      9  C   UNL     1      -2.502  44.745  12.741  1.00  0.00     0.013 C 
ATOM     10  C   UNL     1      -4.295  43.894  14.668  1.00  0.00    -0.025 C 
ENDBRANCH   1   2
BRANCH   1  11
ATOM     11  O   UNL     1      -6.308  42.131  14.002  1.00  0.00    -0.392 OA
ATOM     12  H   UNL     1      -6.297  42.914  14.612  1.00  0.00     0.211 HD
ENDBRANCH   1  11
TORSDOF 2
ENDMDL
MODEL 7
REMARK VINA RESULT:    -6.249      6.396      8.055
REMARK INTER + INTRA:          -6.820
REMARK INTER:                  -6.794
REMARK INTRA:                  -0.026
REMARK UNBOUND:                -0.023
REMARK SMILES CC1(C)[C@H]2CC=C(CO)[C@@H]1C2
REMARK SMILES IDX 8 1 7 2 1 3 2 4 4 5 3 6 10 7 5 8 11 9 6 10 9 11
REMARK H PARENT 9 12
REMARK Flexibility Score: inf
ROOT
ATOM      1  C   UNL     1       1.770  47.610  17.109  1.00  0.00     0.187 C 
ENDROOT
BRANCH   1   2
ATOM      2  C   UNL     1       1.458  46.801  18.334  1.00  0.00    -0.045 C 
ATOM      3  C   UNL     1      -1.278  45.911  19.011  1.00  0.00     0.012 C 
ATOM      4  C   UNL     1      -0.344  46.553  20.075  1.00  0.00    -0.026 C 
ATOM      5  C   UNL     1       0.747  45.669  20.738  1.00  0.00    -0.000 C 
ATOM      6  C   UNL     1      -1.227  47.279  21.121  1.00  0.00     0.012 C 
ATOM      7  C   UNL     1       0.833  47.436  19.585  1.00  0.00     0.023 C 
ATOM      8  C   UNL     1       1.375  44.693  19.684  1.00  0.00     0.031 C 
ATOM      9  C   UNL     1       1.669  46.904  20.765  1.00  0.00     0.013 C 
ATOM     10  C   UNL     1       1.742  45.466  18.403  1.00  0.00    -0.025 C 
ENDBRANCH   1   2
BRANCH   1  11
ATOM     11  O   UNL     1       3.148  47.577  16.866  1.00  0.00    -0.392 OA
ATOM     12  H   UNL     1       3.537  48.331  17.383  1.00  0.00     0.211 HD
ENDBRANCH   1  11
TORSDOF 2
ENDMDL
MODEL 8
REMARK VINA RESULT:    -6.183      4.149      6.446
REMARK INTER + INTRA:          -6.749
REMARK INTER:                  -6.726
REMARK INTRA:                  -0.024
REMARK UNBOUND:                -0.023
REMARK SMILES CC1(C)[C@H]2CC=C(CO)[C@@H]1C2
REMARK SMILES IDX 8 1 7 2 1 3 2 4 4 5 3 6 10 7 5 8 11 9 6 10 9 11
REMARK H PARENT 9 12
REMARK Flexibility Score: inf
ROOT
ATOM      1  C   UNL     1      -2.906  46.376  17.031  1.00  0.00     0.187 C 
ENDROOT
BRANCH   1   2
ATOM      2  C   UNL     1      -1.780  46.935  17.850  1.00  0.00    -0.045 C 
ATOM      3  C   UNL     1       0.937  47.354  16.762  1.00  0.00     0.012 C 
ATOM      4  C   UNL     1       0.708  46.675  18.142  1.00  0.00    -0.026 C 
ATOM      5  C   UNL     1       0.419  47.573  19.375  1.00  0.00    -0.000 C 
ATOM      6  C   UNL     1       1.874  45.687  18.397  1.00  0.00     0.012 C 
ATOM      7  C   UNL     1      -0.677  46.036  18.428  1.00  0.00     0.023 C 
ATOM      8  C   UNL     1      -0.504  48.775  18.971  1.00  0.00     0.031 C 
ATOM      9  C   UNL     1      -0.530  46.476  19.897  1.00  0.00     0.013 C 
ATOM     10  C   UNL     1      -1.700  48.268  18.143  1.00  0.00    -0.025 C 
ENDBRANCH   1   2
BRANCH   1  11
ATOM     11  O   UNL     1      -3.505  47.405  16.296  1.00  0.00    -0.392 OA
ATOM     12  H   UNL     1      -2.816  47.725  15.657  1.00  0.00     0.211 HD
ENDBRANCH   1  11
TORSDOF 2
ENDMDL
MODEL 9
REMARK VINA RESULT:    -5.882      5.835      7.127
REMARK INTER + INTRA:          -6.421
REMARK INTER:                  -6.357
REMARK INTRA:                  -0.064
REMARK UNBOUND:                -0.023
REMARK SMILES CC1(C)[C@H]2CC=C(CO)[C@@H]1C2
REMARK SMILES IDX 8 1 7 2 1 3 2 4 4 5 3 6 10 7 5 8 11 9 6 10 9 11
REMARK H PARENT 9 12
REMARK Flexibility Score: inf
ROOT
ATOM      1  C   UNL     1       1.244  47.314  16.316  1.00  0.00     0.187 C 
ENDROOT
BRANCH   1   2
ATOM      2  C   UNL     1       0.183  47.345  17.376  1.00  0.00    -0.045 C 
ATOM      3  C   UNL     1       0.703  48.264  20.137  1.00  0.00     0.012 C 
ATOM      4  C   UNL     1      -0.086  46.956  19.849  1.00  0.00    -0.026 C 
ATOM      5  C   UNL     1      -1.587  47.061  19.463  1.00  0.00    -0.000 C 
ATOM      6  C   UNL     1       0.149  45.978  21.029  1.00  0.00     0.012 C 
ATOM      7  C   UNL     1       0.101  46.270  18.471  1.00  0.00     0.023 C 
ATOM      8  C   UNL     1      -1.825  48.299  18.530  1.00  0.00     0.031 C 
ATOM      9  C   UNL     1      -1.383  45.859  18.520  1.00  0.00     0.013 C 
ATOM     10  C   UNL     1      -0.778  48.316  17.399  1.00  0.00    -0.025 C 
ENDBRANCH   1   2
BRANCH   1  11
ATOM     11  O   UNL     1       2.475  47.675  16.877  1.00  0.00    -0.392 OA
ATOM     12  H   UNL     1       3.019  48.042  16.133  1.00  0.00     0.211 HD
ENDBRANCH   1  11
TORSDOF 2
ENDMDL
