MODEL 1
REMARK VINA RESULT:    -4.411      0.000      0.000
REMARK INTER + INTRA:          -5.146
REMARK INTER:                  -4.927
REMARK INTRA:                  -0.219
REMARK UNBOUND:                -0.219
REMARK SMILES CC(C)c1ccc(C(=O)[O-])cc1
REMARK SMILES IDX 7 1 6 2 11 3 5 4 12 5 4 6 8 7 9 8 10 9 2 10 1 11 3 12
REMARK H PARENT
REMARK Flexibility Score: inf
ROOT
ATOM      1  C   UNL     1      58.829  26.579  50.243  1.00  0.00    -0.003 A 
ATOM      2  C   UNL     1      58.433  27.903  50.489  1.00  0.00     0.010 A 
ATOM      3  C   UNL     1      57.850  25.570  50.212  1.00  0.00     0.010 A 
ATOM      4  C   UNL     1      57.087  28.215  50.699  1.00  0.00     0.004 A 
ATOM      5  C   UNL     1      56.504  25.882  50.422  1.00  0.00     0.004 A 
ATOM      6  C   UNL     1      56.106  27.206  50.669  1.00  0.00    -0.045 A 
ENDROOT
BRANCH   1   7
ATOM      7  C   UNL     1      60.255  26.254  50.021  1.00  0.00     0.071 C 
ATOM      8  O   UNL     1      61.051  27.129  49.585  1.00  0.00    -0.545 OA
ATOM      9  O   UNL     1      60.737  24.979  50.291  1.00  0.00    -0.545 OA
ENDBRANCH   1   7
BRANCH   6  10
ATOM     10  C   UNL     1      54.641  27.529  50.896  1.00  0.00     0.013 C 
ATOM     11  C   UNL     1      54.393  29.041  50.833  1.00  0.00     0.012 C 
ATOM     12  C   UNL     1      53.749  26.781  49.898  1.00  0.00     0.012 C 
ENDBRANCH   6  10
TORSDOF 2
ENDMDL
MODEL 2
REMARK VINA RESULT:    -4.403      0.095      1.400
REMARK INTER + INTRA:          -5.137
REMARK INTER:                  -4.918
REMARK INTRA:                  -0.219
REMARK UNBOUND:                -0.219
REMARK SMILES CC(C)c1ccc(C(=O)[O-])cc1
REMARK SMILES IDX 7 1 6 2 11 3 5 4 12 5 4 6 8 7 9 8 10 9 2 10 1 11 3 12
REMARK H PARENT
REMARK Flexibility Score: inf
ROOT
ATOM      1  C   UNL     1      58.881  26.613  50.256  1.00  0.00    -0.003 A 
ATOM      2  C   UNL     1      57.937  25.574  50.226  1.00  0.00     0.010 A 
ATOM      3  C   UNL     1      58.440  27.927  50.494  1.00  0.00     0.010 A 
ATOM      4  C   UNL     1      56.581  25.840  50.430  1.00  0.00     0.004 A 
ATOM      5  C   UNL     1      57.084  28.193  50.697  1.00  0.00     0.004 A 
ATOM      6  C   UNL     1      56.138  27.155  50.668  1.00  0.00    -0.045 A 
ENDROOT
BRANCH   1   7
ATOM      7  C   UNL     1      60.316  26.326  50.040  1.00  0.00     0.071 C 
ATOM      8  O   UNL     1      61.070  27.187  49.513  1.00  0.00    -0.545 OA
ATOM      9  O   UNL     1      60.854  25.100  50.416  1.00  0.00    -0.545 OA
ENDBRANCH   1   7
BRANCH   6  10
ATOM     10  C   UNL     1      54.669  27.459  50.890  1.00  0.00     0.013 C 
ATOM     11  C   UNL     1      54.397  28.966  50.809  1.00  0.00     0.012 C 
ATOM     12  C   UNL     1      53.788  26.686  49.902  1.00  0.00     0.012 C 
ENDBRANCH   6  10
TORSDOF 2
ENDMDL
MODEL 3
REMARK VINA RESULT:    -4.388     12.547     13.446
REMARK INTER + INTRA:          -5.120
REMARK INTER:                  -4.900
REMARK INTRA:                  -0.220
REMARK UNBOUND:                -0.219
REMARK SMILES CC(C)c1ccc(C(=O)[O-])cc1
REMARK SMILES IDX 7 1 6 2 11 3 5 4 12 5 4 6 8 7 9 8 10 9 2 10 1 11 3 12
REMARK H PARENT
REMARK Flexibility Score: inf
ROOT
ATOM      1  C   UNL     1      63.434  30.725  61.060  1.00  0.00    -0.003 A 
ATOM      2  C   UNL     1      62.118  31.185  60.896  1.00  0.00     0.010 A 
ATOM      3  C   UNL     1      64.490  31.651  61.013  1.00  0.00     0.010 A 
ATOM      4  C   UNL     1      61.861  32.543  60.689  1.00  0.00     0.004 A 
ATOM      5  C   UNL     1      64.233  33.009  60.806  1.00  0.00     0.004 A 
ATOM      6  C   UNL     1      62.917  33.471  60.641  1.00  0.00    -0.045 A 
ENDROOT
BRANCH   1   7
ATOM      7  C   UNL     1      63.702  29.286  61.279  1.00  0.00     0.071 C 
ATOM      8  O   UNL     1      64.872  28.829  61.178  1.00  0.00    -0.545 OA
ATOM      9  O   UNL     1      62.665  28.418  61.602  1.00  0.00    -0.545 OA
ENDBRANCH   1   7
BRANCH   6  10
ATOM     10  C   UNL     1      62.653  34.948  60.417  1.00  0.00     0.013 C 
ATOM     11  C   UNL     1      61.154  35.260  60.500  1.00  0.00     0.012 C 
ATOM     12  C   UNL     1      63.452  35.809  61.402  1.00  0.00     0.012 C 
ENDBRANCH   6  10
TORSDOF 2
ENDMDL
MODEL 4
REMARK VINA RESULT:    -4.383     12.547     13.411
REMARK INTER + INTRA:          -5.114
REMARK INTER:                  -4.894
REMARK INTRA:                  -0.220
REMARK UNBOUND:                -0.219
REMARK SMILES CC(C)c1ccc(C(=O)[O-])cc1
REMARK SMILES IDX 7 1 6 2 11 3 5 4 12 5 4 6 8 7 9 8 10 9 2 10 1 11 3 12
REMARK H PARENT
REMARK Flexibility Score: inf
ROOT
ATOM      1  C   UNL     1      63.435  30.734  61.061  1.00  0.00    -0.003 A 
ATOM      2  C   UNL     1      64.490  31.659  61.019  1.00  0.00     0.010 A 
ATOM      3  C   UNL     1      62.118  31.196  60.889  1.00  0.00     0.010 A 
ATOM      4  C   UNL     1      64.237  33.017  60.810  1.00  0.00     0.004 A 
ATOM      5  C   UNL     1      61.864  32.554  60.680  1.00  0.00     0.004 A 
ATOM      6  C   UNL     1      62.918  33.481  60.638  1.00  0.00    -0.045 A 
ENDROOT
BRANCH   1   7
ATOM      7  C   UNL     1      63.709  29.298  61.283  1.00  0.00     0.071 C 
ATOM      8  O   UNL     1      64.880  28.844  61.179  1.00  0.00    -0.545 OA
ATOM      9  O   UNL     1      62.676  28.426  61.611  1.00  0.00    -0.545 OA
ENDBRANCH   1   7
BRANCH   6  10
ATOM     10  C   UNL     1      62.628  34.952  60.410  1.00  0.00     0.013 C 
ATOM     11  C   UNL     1      61.123  35.235  60.477  1.00  0.00     0.012 C 
ATOM     12  C   UNL     1      63.400  35.828  61.404  1.00  0.00     0.012 C 
ENDBRANCH   6  10
TORSDOF 2
ENDMDL
MODEL 5
REMARK VINA RESULT:    -4.374      1.167      1.493
REMARK INTER + INTRA:          -5.105
REMARK INTER:                  -4.890
REMARK INTRA:                  -0.215
REMARK UNBOUND:                -0.219
REMARK SMILES CC(C)c1ccc(C(=O)[O-])cc1
REMARK SMILES IDX 7 1 6 2 11 3 5 4 12 5 4 6 8 7 9 8 10 9 2 10 1 11 3 12
REMARK H PARENT
REMARK Flexibility Score: inf
ROOT
ATOM      1  C   UNL     1      57.882  26.867  50.604  1.00  0.00    -0.003 A 
ATOM      2  C   UNL     1      57.094  28.008  50.825  1.00  0.00     0.010 A 
ATOM      3  C   UNL     1      57.249  25.654  50.283  1.00  0.00     0.010 A 
ATOM      4  C   UNL     1      55.702  27.939  50.727  1.00  0.00     0.004 A 
ATOM      5  C   UNL     1      55.857  25.585  50.185  1.00  0.00     0.004 A 
ATOM      6  C   UNL     1      55.066  26.725  50.406  1.00  0.00    -0.045 A 
ENDROOT
BRANCH   1   7
ATOM      7  C   UNL     1      59.355  26.945  50.709  1.00  0.00     0.071 C 
ATOM      8  O   UNL     1      59.902  27.368  51.764  1.00  0.00    -0.545 OA
ATOM      9  O   UNL     1      60.160  26.550  49.646  1.00  0.00    -0.545 OA
ENDBRANCH   1   7
BRANCH   6  10
ATOM     10  C   UNL     1      53.556  26.636  50.296  1.00  0.00     0.013 C 
ATOM     11  C   UNL     1      52.938  28.015  50.040  1.00  0.00     0.012 C 
ATOM     12  C   UNL     1      53.139  25.634  49.213  1.00  0.00     0.012 C 
ENDBRANCH   6  10
TORSDOF 2
ENDMDL
MODEL 6
REMARK VINA RESULT:    -4.285      3.445      5.127
REMARK INTER + INTRA:          -5.005
REMARK INTER:                  -4.797
REMARK INTRA:                  -0.209
REMARK UNBOUND:                -0.219
REMARK SMILES CC(C)c1ccc(C(=O)[O-])cc1
REMARK SMILES IDX 7 1 6 2 11 3 5 4 12 5 4 6 8 7 9 8 10 9 2 10 1 11 3 12
REMARK H PARENT
REMARK Flexibility Score: inf
ROOT
ATOM      1  C   UNL     1      55.078  27.941  50.646  1.00  0.00    -0.003 A 
ATOM      2  C   UNL     1      56.367  28.381  50.987  1.00  0.00     0.010 A 
ATOM      3  C   UNL     1      54.899  26.607  50.241  1.00  0.00     0.010 A 
ATOM      4  C   UNL     1      57.456  27.507  50.925  1.00  0.00     0.004 A 
ATOM      5  C   UNL     1      55.987  25.733  50.179  1.00  0.00     0.004 A 
ATOM      6  C   UNL     1      57.278  26.171  50.519  1.00  0.00    -0.045 A 
ENDROOT
BRANCH   1   7
ATOM      7  C   UNL     1      53.929  28.871  50.714  1.00  0.00     0.071 C 
ATOM      8  O   UNL     1      52.875  28.635  50.064  1.00  0.00    -0.545 OA
ATOM      9  O   UNL     1      53.996  30.018  51.496  1.00  0.00    -0.545 OA
ENDBRANCH   1   7
BRANCH   6  10
ATOM     10  C   UNL     1      58.450  25.211  50.447  1.00  0.00     0.013 C 
ATOM     11  C   UNL     1      59.699  25.904  49.889  1.00  0.00     0.012 C 
ATOM     12  C   UNL     1      58.734  24.581  51.816  1.00  0.00     0.012 C 
ENDBRANCH   6  10
TORSDOF 2
ENDMDL
MODEL 7
REMARK VINA RESULT:    -4.188      3.402      5.189
REMARK INTER + INTRA:          -4.897
REMARK INTER:                  -4.681
REMARK INTRA:                  -0.216
REMARK UNBOUND:                -0.219
REMARK SMILES CC(C)c1ccc(C(=O)[O-])cc1
REMARK SMILES IDX 7 1 6 2 11 3 5 4 12 5 4 6 8 7 9 8 10 9 2 10 1 11 3 12
REMARK H PARENT
REMARK Flexibility Score: inf
ROOT
ATOM      1  C   UNL     1      55.041  26.884  50.453  1.00  0.00    -0.003 A 
ATOM      2  C   UNL     1      55.767  28.055  50.724  1.00  0.00     0.010 A 
ATOM      3  C   UNL     1      55.741  25.691  50.208  1.00  0.00     0.010 A 
ATOM      4  C   UNL     1      57.163  28.035  50.751  1.00  0.00     0.004 A 
ATOM      5  C   UNL     1      57.138  25.670  50.235  1.00  0.00     0.004 A 
ATOM      6  C   UNL     1      57.866  26.840  50.505  1.00  0.00    -0.045 A 
ENDROOT
BRANCH   1   7
ATOM      7  C   UNL     1      53.562  26.911  50.425  1.00  0.00     0.071 C 
ATOM      8  O   UNL     1      52.895  25.928  50.846  1.00  0.00    -0.545 OA
ATOM      9  O   UNL     1      52.886  28.023  49.936  1.00  0.00    -0.545 OA
ENDBRANCH   1   7
BRANCH   6  10
ATOM     10  C   UNL     1      59.383  26.804  50.531  1.00  0.00     0.013 C 
ATOM     11  C   UNL     1      59.908  25.416  50.146  1.00  0.00     0.012 C 
ATOM     12  C   UNL     1      59.977  27.890  49.628  1.00  0.00     0.012 C 
ENDBRANCH   6  10
TORSDOF 2
ENDMDL
MODEL 8
REMARK VINA RESULT:    -4.185      3.441      5.017
REMARK INTER + INTRA:          -4.893
REMARK INTER:                  -4.693
REMARK INTRA:                  -0.199
REMARK UNBOUND:                -0.219
REMARK SMILES CC(C)c1ccc(C(=O)[O-])cc1
REMARK SMILES IDX 7 1 6 2 11 3 5 4 12 5 4 6 8 7 9 8 10 9 2 10 1 11 3 12
REMARK H PARENT
REMARK Flexibility Score: inf
ROOT
ATOM      1  C   UNL     1      54.863  26.164  50.252  1.00  0.00    -0.003 A 
ATOM      2  C   UNL     1      56.145  25.595  50.194  1.00  0.00     0.010 A 
ATOM      3  C   UNL     1      54.740  27.540  50.509  1.00  0.00     0.010 A 
ATOM      4  C   UNL     1      57.282  26.383  50.389  1.00  0.00     0.004 A 
ATOM      5  C   UNL     1      55.877  28.329  50.704  1.00  0.00     0.004 A 
ATOM      6  C   UNL     1      57.161  27.762  50.647  1.00  0.00    -0.045 A 
ENDROOT
BRANCH   1   7
ATOM      7  C   UNL     1      53.663  25.325  50.045  1.00  0.00     0.071 C 
ATOM      8  O   UNL     1      53.254  24.554  50.956  1.00  0.00    -0.545 OA
ATOM      9  O   UNL     1      52.966  25.375  48.843  1.00  0.00    -0.545 OA
ENDBRANCH   1   7
BRANCH   6  10
ATOM     10  C   UNL     1      58.386  28.630  50.860  1.00  0.00     0.013 C 
ATOM     11  C   UNL     1      59.095  28.273  52.172  1.00  0.00     0.012 C 
ATOM     12  C   UNL     1      59.347  28.532  49.669  1.00  0.00     0.012 C 
ENDBRANCH   6  10
TORSDOF 2
ENDMDL
MODEL 9
REMARK VINA RESULT:    -4.059     12.765     13.722
REMARK INTER + INTRA:          -4.753
REMARK INTER:                  -4.550
REMARK INTRA:                  -0.203
REMARK UNBOUND:                -0.219
REMARK SMILES CC(C)c1ccc(C(=O)[O-])cc1
REMARK SMILES IDX 7 1 6 2 11 3 5 4 12 5 4 6 8 7 9 8 10 9 2 10 1 11 3 12
REMARK H PARENT
REMARK Flexibility Score: inf
ROOT
ATOM      1  C   UNL     1      64.256  34.227  60.817  1.00  0.00    -0.003 A 
ATOM      2  C   UNL     1      62.920  34.644  60.706  1.00  0.00     0.010 A 
ATOM      3  C   UNL     1      64.540  32.851  60.835  1.00  0.00     0.010 A 
ATOM      4  C   UNL     1      61.888  33.707  60.616  1.00  0.00     0.004 A 
ATOM      5  C   UNL     1      63.508  31.913  60.745  1.00  0.00     0.004 A 
ATOM      6  C   UNL     1      62.171  32.328  60.634  1.00  0.00    -0.045 A 
ENDROOT
BRANCH   1   7
ATOM      7  C   UNL     1      65.345  35.224  60.913  1.00  0.00     0.071 C 
ATOM      8  O   UNL     1      65.778  35.595  62.037  1.00  0.00    -0.545 OA
ATOM      9  O   UNL     1      65.908  35.766  59.762  1.00  0.00    -0.545 OA
ENDBRANCH   1   7
BRANCH   6  10
ATOM     10  C   UNL     1      61.061  31.298  60.537  1.00  0.00     0.013 C 
ATOM     11  C   UNL     1      60.939  30.751  59.110  1.00  0.00     0.012 C 
ATOM     12  C   UNL     1      61.269  30.164  61.547  1.00  0.00     0.012 C 
ENDBRANCH   6  10
TORSDOF 2
ENDMDL
