MODEL 1
REMARK VINA RESULT:    -3.112      0.000      0.000
REMARK INTER + INTRA:          -4.672
REMARK INTER:                  -4.204
REMARK INTRA:                  -0.468
REMARK UNBOUND:                -0.468
REMARK SMILES CCCCCCCC(=O)[O-]
REMARK SMILES IDX 5 1 6 2 7 3 8 4 9 5 10 6 4 7 3 8 2 9 1 10
REMARK H PARENT
REMARK Flexibility Score: inf
ROOT
ATOM      1  C   UNL     1     -17.661  20.770  44.350  1.00  0.00     0.000 C 
ENDROOT
BRANCH   1   2
ATOM      2  C   UNL     1     -17.028  21.706  43.306  1.00  0.00     0.006 C 
BRANCH   2   3
ATOM      3  C   UNL     1     -18.071  22.451  42.463  1.00  0.00     0.053 C 
BRANCH   3   4
ATOM      4  C   UNL     1     -17.735  23.907  42.386  1.00  0.00     0.041 C 
ATOM      5  O   UNL     1     -18.617  24.743  42.053  1.00  0.00    -0.550 OA
ATOM      6  O   UNL     1     -16.438  24.336  42.635  1.00  0.00    -0.550 OA
ENDBRANCH   3   4
ENDBRANCH   2   3
ENDBRANCH   1   2
BRANCH   1   7
ATOM      7  C   UNL     1     -18.250  21.477  45.587  1.00  0.00     0.000 C 
BRANCH   7   8
ATOM      8  C   UNL     1     -19.710  21.109  45.918  1.00  0.00    -0.000 C 
BRANCH   8   9
ATOM      9  C   UNL     1     -20.683  22.301  45.958  1.00  0.00    -0.003 C 
ATOM     10  C   UNL     1     -20.089  23.574  45.358  1.00  0.00     0.004 C 
ENDBRANCH   8   9
ENDBRANCH   7   8
ENDBRANCH   1   7
TORSDOF 6
ENDMDL
MODEL 2
REMARK VINA RESULT:    -3.057      1.620      2.693
REMARK INTER + INTRA:          -4.596
REMARK INTER:                  -4.370
REMARK INTRA:                  -0.226
REMARK UNBOUND:                -0.468
REMARK SMILES CCCCCCCC(=O)[O-]
REMARK SMILES IDX 5 1 6 2 7 3 8 4 9 5 10 6 4 7 3 8 2 9 1 10
REMARK H PARENT
REMARK Flexibility Score: inf
ROOT
ATOM      1  C   UNL     1     -17.697  22.106  42.792  1.00  0.00     0.000 C 
ENDROOT
BRANCH   1   2
ATOM      2  C   UNL     1     -17.970  23.575  42.425  1.00  0.00     0.006 C 
BRANCH   2   3
ATOM      3  C   UNL     1     -18.847  24.293  43.459  1.00  0.00     0.053 C 
BRANCH   3   4
ATOM      4  C   UNL     1     -19.626  25.392  42.808  1.00  0.00     0.041 C 
ATOM      5  O   UNL     1     -19.229  25.893  41.723  1.00  0.00    -0.550 OA
ATOM      6  O   UNL     1     -20.764  25.898  43.425  1.00  0.00    -0.550 OA
ENDBRANCH   3   4
ENDBRANCH   2   3
ENDBRANCH   1   2
BRANCH   1   7
ATOM      7  C   UNL     1     -18.141  21.694  44.210  1.00  0.00     0.000 C 
BRANCH   7   8
ATOM      8  C   UNL     1     -17.803  20.243  44.607  1.00  0.00    -0.000 C 
BRANCH   8   9
ATOM      9  C   UNL     1     -18.722  19.636  45.681  1.00  0.00    -0.003 C 
ATOM     10  C   UNL     1     -19.816  20.598  46.141  1.00  0.00     0.004 C 
ENDBRANCH   8   9
ENDBRANCH   7   8
ENDBRANCH   1   7
TORSDOF 6
ENDMDL
MODEL 3
REMARK VINA RESULT:    -3.040      2.261      3.798
REMARK INTER + INTRA:          -4.574
REMARK INTER:                  -4.366
REMARK INTRA:                  -0.208
REMARK UNBOUND:                -0.468
REMARK SMILES CCCCCCCC(=O)[O-]
REMARK SMILES IDX 5 1 6 2 7 3 8 4 9 5 10 6 4 7 3 8 2 9 1 10
REMARK H PARENT
REMARK Flexibility Score: inf
ROOT
ATOM      1  C   UNL     1     -17.860  23.894  42.348  1.00  0.00     0.000 C 
ENDROOT
BRANCH   1   2
ATOM      2  C   UNL     1     -19.174  24.692  42.431  1.00  0.00     0.006 C 
BRANCH   2   3
ATOM      3  C   UNL     1     -19.004  26.160  42.023  1.00  0.00     0.053 C 
BRANCH   3   4
ATOM      4  C   UNL     1     -20.139  26.982  42.550  1.00  0.00     0.041 C 
ATOM      5  O   UNL     1     -21.069  26.434  43.199  1.00  0.00    -0.550 OA
ATOM      6  O   UNL     1     -20.194  28.344  42.284  1.00  0.00    -0.550 OA
ENDBRANCH   3   4
ENDBRANCH   2   3
ENDBRANCH   1   2
BRANCH   1   7
ATOM      7  C   UNL     1     -18.017  22.365  42.477  1.00  0.00     0.000 C 
BRANCH   7   8
ATOM      8  C   UNL     1     -17.022  21.683  43.438  1.00  0.00    -0.000 C 
BRANCH   8   9
ATOM      9  C   UNL     1     -17.651  20.664  44.403  1.00  0.00    -0.003 C 
ATOM     10  C   UNL     1     -18.856  21.224  45.157  1.00  0.00     0.004 C 
ENDBRANCH   8   9
ENDBRANCH   7   8
ENDBRANCH   1   7
TORSDOF 6
ENDMDL
MODEL 4
REMARK VINA RESULT:    -2.970      1.383      2.393
REMARK INTER + INTRA:          -4.480
REMARK INTER:                  -4.251
REMARK INTRA:                  -0.229
REMARK UNBOUND:                -0.468
REMARK SMILES CCCCCCCC(=O)[O-]
REMARK SMILES IDX 5 1 6 2 7 3 8 4 9 5 10 6 4 7 3 8 2 9 1 10
REMARK H PARENT
REMARK Flexibility Score: inf
ROOT
ATOM      1  C   UNL     1     -16.771  21.257  44.547  1.00  0.00     0.000 C 
ENDROOT
BRANCH   1   2
ATOM      2  C   UNL     1     -16.571  22.034  43.233  1.00  0.00     0.006 C 
BRANCH   2   3
ATOM      3  C   UNL     1     -17.894  22.488  42.603  1.00  0.00     0.053 C 
BRANCH   3   4
ATOM      4  C   UNL     1     -17.910  23.975  42.440  1.00  0.00     0.041 C 
ATOM      5  O   UNL     1     -16.863  24.646  42.641  1.00  0.00    -0.550 OA
ATOM      6  O   UNL     1     -19.093  24.626  42.115  1.00  0.00    -0.550 OA
ENDBRANCH   3   4
ENDBRANCH   2   3
ENDBRANCH   1   2
BRANCH   1   7
ATOM      7  C   UNL     1     -17.942  20.254  44.539  1.00  0.00     0.000 C 
BRANCH   7   8
ATOM      8  C   UNL     1     -19.104  20.596  45.494  1.00  0.00    -0.000 C 
BRANCH   8   9
ATOM      9  C   UNL     1     -19.486  19.473  46.474  1.00  0.00    -0.003 C 
ATOM     10  C   UNL     1     -18.777  18.154  46.174  1.00  0.00     0.004 C 
ENDBRANCH   8   9
ENDBRANCH   7   8
ENDBRANCH   1   7
TORSDOF 6
ENDMDL
MODEL 5
REMARK VINA RESULT:    -2.969      1.338      2.901
REMARK INTER + INTRA:          -4.479
REMARK INTER:                  -3.872
REMARK INTRA:                  -0.607
REMARK UNBOUND:                -0.468
REMARK SMILES CCCCCCCC(=O)[O-]
REMARK SMILES IDX 5 1 6 2 7 3 8 4 9 5 10 6 4 7 3 8 2 9 1 10
REMARK H PARENT
REMARK Flexibility Score: inf
ROOT
ATOM      1  C   UNL     1     -19.041  22.119  45.926  1.00  0.00     0.000 C 
ENDROOT
BRANCH   1   2
ATOM      2  C   UNL     1     -19.540  23.147  44.894  1.00  0.00     0.006 C 
BRANCH   2   3
ATOM      3  C   UNL     1     -18.399  23.931  44.235  1.00  0.00     0.053 C 
BRANCH   3   4
ATOM      4  C   UNL     1     -18.439  23.760  42.749  1.00  0.00     0.041 C 
ATOM      5  O   UNL     1     -18.754  24.729  42.008  1.00  0.00    -0.550 OA
ATOM      6  O   UNL     1     -18.178  22.518  42.184  1.00  0.00    -0.550 OA
ENDBRANCH   3   4
ENDBRANCH   2   3
ENDBRANCH   1   2
BRANCH   1   7
ATOM      7  C   UNL     1     -19.121  20.648  45.472  1.00  0.00     0.000 C 
BRANCH   7   8
ATOM      8  C   UNL     1     -17.880  20.126  44.721  1.00  0.00    -0.000 C 
BRANCH   8   9
ATOM      9  C   UNL     1     -16.534  20.643  45.259  1.00  0.00    -0.003 C 
ATOM     10  C   UNL     1     -15.640  21.224  44.165  1.00  0.00     0.004 C 
ENDBRANCH   8   9
ENDBRANCH   7   8
ENDBRANCH   1   7
TORSDOF 6
ENDMDL
MODEL 6
REMARK VINA RESULT:    -2.914      2.105      3.959
REMARK INTER + INTRA:          -4.404
REMARK INTER:                  -4.005
REMARK INTRA:                  -0.398
REMARK UNBOUND:                -0.468
REMARK SMILES CCCCCCCC(=O)[O-]
REMARK SMILES IDX 5 1 6 2 7 3 8 4 9 5 10 6 4 7 3 8 2 9 1 10
REMARK H PARENT
REMARK Flexibility Score: inf
ROOT
ATOM      1  C   UNL     1     -16.935  21.024  44.294  1.00  0.00     0.000 C 
ENDROOT
BRANCH   1   2
ATOM      2  C   UNL     1     -18.095  21.965  43.923  1.00  0.00     0.006 C 
BRANCH   2   3
ATOM      3  C   UNL     1     -17.996  22.494  42.487  1.00  0.00     0.053 C 
BRANCH   3   4
ATOM      4  C   UNL     1     -17.973  23.991  42.484  1.00  0.00     0.041 C 
ATOM      5  O   UNL     1     -18.979  24.638  42.091  1.00  0.00    -0.550 OA
ATOM      6  O   UNL     1     -16.823  24.669  42.867  1.00  0.00    -0.550 OA
ENDBRANCH   3   4
ENDBRANCH   2   3
ENDBRANCH   1   2
BRANCH   1   7
ATOM      7  C   UNL     1     -15.601  21.728  44.614  1.00  0.00     0.000 C 
BRANCH   7   8
ATOM      8  C   UNL     1     -14.444  21.411  43.646  1.00  0.00    -0.000 C 
BRANCH   8   9
ATOM      9  C   UNL     1     -14.005  22.587  42.757  1.00  0.00    -0.003 C 
ATOM     10  C   UNL     1     -12.761  23.300  43.284  1.00  0.00     0.004 C 
ENDBRANCH   8   9
ENDBRANCH   7   8
ENDBRANCH   1   7
TORSDOF 6
ENDMDL
MODEL 7
REMARK VINA RESULT:    -2.900      2.288      3.065
REMARK INTER + INTRA:          -4.385
REMARK INTER:                  -4.118
REMARK INTRA:                  -0.266
REMARK UNBOUND:                -0.468
REMARK SMILES CCCCCCCC(=O)[O-]
REMARK SMILES IDX 5 1 6 2 7 3 8 4 9 5 10 6 4 7 3 8 2 9 1 10
REMARK H PARENT
REMARK Flexibility Score: inf
ROOT
ATOM      1  C   UNL     1     -17.461  21.723  43.164  1.00  0.00     0.000 C 
ENDROOT
BRANCH   1   2
ATOM      2  C   UNL     1     -16.148  22.503  43.352  1.00  0.00     0.006 C 
BRANCH   2   3
ATOM      3  C   UNL     1     -14.951  21.592  43.649  1.00  0.00     0.053 C 
BRANCH   3   4
ATOM      4  C   UNL     1     -13.682  22.224  43.170  1.00  0.00     0.041 C 
ATOM      5  O   UNL     1     -13.703  23.029  42.201  1.00  0.00    -0.550 OA
ATOM      6  O   UNL     1     -12.472  21.888  43.761  1.00  0.00    -0.550 OA
ENDBRANCH   3   4
ENDBRANCH   2   3
ENDBRANCH   1   2
BRANCH   1   7
ATOM      7  C   UNL     1     -17.733  20.639  44.227  1.00  0.00     0.000 C 
BRANCH   7   8
ATOM      8  C   UNL     1     -18.708  21.050  45.348  1.00  0.00    -0.000 C 
BRANCH   8   9
ATOM      9  C   UNL     1     -19.453  22.374  45.103  1.00  0.00    -0.003 C 
ATOM     10  C   UNL     1     -20.745  22.488  45.910  1.00  0.00     0.004 C 
ENDBRANCH   8   9
ENDBRANCH   7   8
ENDBRANCH   1   7
TORSDOF 6
ENDMDL
MODEL 8
REMARK VINA RESULT:    -2.871      2.418      3.664
REMARK INTER + INTRA:          -4.345
REMARK INTER:                  -4.019
REMARK INTRA:                  -0.326
REMARK UNBOUND:                -0.468
REMARK SMILES CCCCCCCC(=O)[O-]
REMARK SMILES IDX 5 1 6 2 7 3 8 4 9 5 10 6 4 7 3 8 2 9 1 10
REMARK H PARENT
REMARK Flexibility Score: inf
ROOT
ATOM      1  C   UNL     1     -17.149  23.927  42.476  1.00  0.00     0.000 C 
ENDROOT
BRANCH   1   2
ATOM      2  C   UNL     1     -15.810  23.844  43.230  1.00  0.00     0.006 C 
BRANCH   2   3
ATOM      3  C   UNL     1     -14.730  24.751  42.627  1.00  0.00     0.053 C 
BRANCH   3   4
ATOM      4  C   UNL     1     -13.769  23.945  41.811  1.00  0.00     0.041 C 
ATOM      5  O   UNL     1     -13.224  22.921  42.302  1.00  0.00    -0.550 OA
ATOM      6  O   UNL     1     -13.438  24.351  40.525  1.00  0.00    -0.550 OA
ENDBRANCH   3   4
ENDBRANCH   2   3
ENDBRANCH   1   2
BRANCH   1   7
ATOM      7  C   UNL     1     -18.068  22.700  42.641  1.00  0.00     0.000 C 
BRANCH   7   8
ATOM      8  C   UNL     1     -17.413  21.478  43.315  1.00  0.00    -0.000 C 
BRANCH   8   9
ATOM      9  C   UNL     1     -18.055  21.053  44.647  1.00  0.00    -0.003 C 
ATOM     10  C   UNL     1     -19.142  22.018  45.118  1.00  0.00     0.004 C 
ENDBRANCH   8   9
ENDBRANCH   7   8
ENDBRANCH   1   7
TORSDOF 6
ENDMDL
MODEL 9
REMARK VINA RESULT:    -2.848      1.879      3.019
REMARK INTER + INTRA:          -4.314
REMARK INTER:                  -3.862
REMARK INTRA:                  -0.453
REMARK UNBOUND:                -0.468
REMARK SMILES CCCCCCCC(=O)[O-]
REMARK SMILES IDX 5 1 6 2 7 3 8 4 9 5 10 6 4 7 3 8 2 9 1 10
REMARK H PARENT
REMARK Flexibility Score: inf
ROOT
ATOM      1  C   UNL     1     -18.691  23.070  44.956  1.00  0.00     0.000 C 
ENDROOT
BRANCH   1   2
ATOM      2  C   UNL     1     -18.460  23.212  43.441  1.00  0.00     0.006 C 
BRANCH   2   3
ATOM      3  C   UNL     1     -17.654  22.048  42.850  1.00  0.00     0.053 C 
BRANCH   3   4
ATOM      4  C   UNL     1     -16.223  22.134  43.279  1.00  0.00     0.041 C 
ATOM      5  O   UNL     1     -15.526  23.134  42.963  1.00  0.00    -0.550 OA
ATOM      6  O   UNL     1     -15.645  21.087  43.985  1.00  0.00    -0.550 OA
ENDBRANCH   3   4
ENDBRANCH   2   3
ENDBRANCH   1   2
BRANCH   1   7
ATOM      7  C   UNL     1     -19.500  21.827  45.378  1.00  0.00     0.000 C 
BRANCH   7   8
ATOM      8  C   UNL     1     -18.711  20.772  46.180  1.00  0.00    -0.000 C 
BRANCH   8   9
ATOM      9  C   UNL     1     -18.418  19.468  45.419  1.00  0.00    -0.003 C 
ATOM     10  C   UNL     1     -18.815  18.219  46.204  1.00  0.00     0.004 C 
ENDBRANCH   8   9
ENDBRANCH   7   8
ENDBRANCH   1   7
TORSDOF 6
ENDMDL
