MODEL 1
REMARK VINA RESULT:    -5.925      0.000      0.000
REMARK INTER + INTRA:          -8.827
REMARK INTER:                  -8.003
REMARK INTRA:                  -0.823
REMARK UNBOUND:                -0.823
REMARK SMILES CC(=O)CCC=C(C)CCC=C(C)C
REMARK SMILES IDX 7 1 6 2 8 3 9 4 10 5 11 6 13 7 12 8 14 9 5 10 4 11 2 12 3 13
REMARK SMILES IDX 1 14
REMARK H PARENT
REMARK Flexibility Score: inf
ROOT
ATOM      1  C   UNL     1     -16.995 -37.425  -4.245  1.00  0.00    -0.077 C 
ATOM      2  C   UNL     1     -18.277 -37.855  -4.212  1.00  0.00    -0.028 C 
ATOM      3  C   UNL     1     -16.616 -36.014  -3.863  1.00  0.00     0.039 C 
ENDROOT
BRANCH   1   4
ATOM      4  C   UNL     1     -15.906 -38.393  -4.662  1.00  0.00     0.034 C 
BRANCH   4   5
ATOM      5  C   UNL     1     -16.485 -39.709  -5.203  1.00  0.00     0.032 C 
BRANCH   5   6
ATOM      6  C   UNL     1     -16.158 -39.909  -6.665  1.00  0.00    -0.028 C 
ATOM      7  C   UNL     1     -18.468 -39.330  -7.439  1.00  0.00     0.039 C 
ATOM      8  C   UNL     1     -17.043 -39.773  -7.675  1.00  0.00    -0.080 C 
ATOM      9  C   UNL     1     -16.578 -40.056  -9.080  1.00  0.00     0.039 C 
ENDBRANCH   5   6
ENDBRANCH   4   5
ENDBRANCH   1   4
BRANCH   2  10
ATOM     10  C   UNL     1     -19.465 -36.978  -3.896  1.00  0.00     0.035 C 
BRANCH  10  11
ATOM     11  C   UNL     1     -20.691 -37.344  -4.743  1.00  0.00     0.079 C 
BRANCH  11  12
ATOM     12  C   UNL     1     -21.209 -36.164  -5.523  1.00  0.00     0.130 C 
ATOM     13  O   UNL     1     -20.859 -35.033  -5.218  1.00  0.00    -0.300 OA
ATOM     14  C   UNL     1     -22.180 -36.363  -6.647  1.00  0.00     0.087 C 
ENDBRANCH  11  12
ENDBRANCH  10  11
ENDBRANCH   2  10
TORSDOF 6
ENDMDL
MODEL 2
REMARK VINA RESULT:    -5.724      3.095      6.113
REMARK INTER + INTRA:          -8.555
REMARK INTER:                  -8.136
REMARK INTRA:                  -0.419
REMARK UNBOUND:                -0.823
REMARK SMILES CC(=O)CCC=C(C)CCC=C(C)C
REMARK SMILES IDX 7 1 6 2 8 3 9 4 10 5 11 6 13 7 12 8 14 9 5 10 4 11 2 12 3 13
REMARK SMILES IDX 1 14
REMARK H PARENT
REMARK Flexibility Score: inf
ROOT
ATOM      1  C   UNL     1     -17.318 -37.565  -4.072  1.00  0.00    -0.077 C 
ATOM      2  C   UNL     1     -16.643 -38.506  -4.771  1.00  0.00    -0.028 C 
ATOM      3  C   UNL     1     -16.770 -36.171  -3.875  1.00  0.00     0.039 C 
ENDROOT
BRANCH   1   4
ATOM      4  C   UNL     1     -18.670 -37.915  -3.482  1.00  0.00     0.034 C 
BRANCH   4   5
ATOM      5  C   UNL     1     -19.683 -36.772  -3.653  1.00  0.00     0.032 C 
BRANCH   5   6
ATOM      6  C   UNL     1     -20.355 -36.813  -5.005  1.00  0.00    -0.028 C 
ATOM      7  C   UNL     1     -22.246 -35.329  -4.301  1.00  0.00     0.039 C 
ATOM      8  C   UNL     1     -21.520 -36.197  -5.302  1.00  0.00    -0.080 C 
ATOM      9  C   UNL     1     -22.092 -36.372  -6.685  1.00  0.00     0.039 C 
ENDBRANCH   5   6
ENDBRANCH   4   5
ENDBRANCH   1   4
BRANCH   2  10
ATOM     10  C   UNL     1     -15.258 -38.318  -5.339  1.00  0.00     0.035 C 
BRANCH  10  11
ATOM     11  C   UNL     1     -14.768 -39.568  -6.084  1.00  0.00     0.079 C 
BRANCH  11  12
ATOM     12  C   UNL     1     -13.278 -39.546  -6.301  1.00  0.00     0.130 C 
ATOM     13  O   UNL     1     -12.553 -40.256  -5.620  1.00  0.00    -0.300 OA
ATOM     14  C   UNL     1     -12.673 -38.629  -7.321  1.00  0.00     0.087 C 
ENDBRANCH  11  12
ENDBRANCH  10  11
ENDBRANCH   2  10
TORSDOF 6
ENDMDL
MODEL 3
REMARK VINA RESULT:    -5.680      2.440      5.280
REMARK INTER + INTRA:          -8.495
REMARK INTER:                  -7.824
REMARK INTRA:                  -0.672
REMARK UNBOUND:                -0.823
REMARK SMILES CC(=O)CCC=C(C)CCC=C(C)C
REMARK SMILES IDX 7 1 6 2 8 3 9 4 10 5 11 6 13 7 12 8 14 9 5 10 4 11 2 12 3 13
REMARK SMILES IDX 1 14
REMARK H PARENT
REMARK Flexibility Score: inf
ROOT
ATOM      1  C   UNL     1     -17.760 -37.174  -3.965  1.00  0.00    -0.077 C 
ATOM      2  C   UNL     1     -17.352 -38.363  -4.463  1.00  0.00    -0.028 C 
ATOM      3  C   UNL     1     -16.830 -35.987  -3.870  1.00  0.00     0.039 C 
ENDROOT
BRANCH   1   4
ATOM      4  C   UNL     1     -19.195 -37.024  -3.502  1.00  0.00     0.034 C 
BRANCH   4   5
ATOM      5  C   UNL     1     -20.065 -36.315  -4.551  1.00  0.00     0.032 C 
BRANCH   5   6
ATOM      6  C   UNL     1     -21.339 -37.075  -4.834  1.00  0.00    -0.028 C 
ATOM      7  C   UNL     1     -20.295 -38.512  -6.599  1.00  0.00     0.039 C 
ATOM      8  C   UNL     1     -21.465 -38.041  -5.770  1.00  0.00    -0.080 C 
ATOM      9  C   UNL     1     -22.818 -38.674  -5.969  1.00  0.00     0.039 C 
ENDBRANCH   5   6
ENDBRANCH   4   5
ENDBRANCH   1   4
BRANCH   2  10
ATOM     10  C   UNL     1     -15.936 -38.674  -4.882  1.00  0.00     0.035 C 
BRANCH  10  11
ATOM     11  C   UNL     1     -15.872 -39.851  -5.866  1.00  0.00     0.079 C 
BRANCH  11  12
ATOM     12  C   UNL     1     -15.193 -39.470  -7.156  1.00  0.00     0.130 C 
ATOM     13  O   UNL     1     -15.725 -39.735  -8.224  1.00  0.00    -0.300 OA
ATOM     14  C   UNL     1     -13.852 -38.803  -7.140  1.00  0.00     0.087 C 
ENDBRANCH  11  12
ENDBRANCH  10  11
ENDBRANCH   2  10
TORSDOF 6
ENDMDL
MODEL 4
REMARK VINA RESULT:    -5.673      1.840      2.995
REMARK INTER + INTRA:          -8.487
REMARK INTER:                  -7.462
REMARK INTRA:                  -1.025
REMARK UNBOUND:                -0.823
REMARK SMILES CC(=O)CCC=C(C)CCC=C(C)C
REMARK SMILES IDX 7 1 6 2 8 3 9 4 10 5 11 6 13 7 12 8 14 9 5 10 4 11 2 12 3 13
REMARK SMILES IDX 1 14
REMARK H PARENT
REMARK Flexibility Score: inf
ROOT
ATOM      1  C   UNL     1     -15.332 -39.577  -5.566  1.00  0.00    -0.077 C 
ATOM      2  C   UNL     1     -16.092 -38.792  -4.769  1.00  0.00    -0.028 C 
ATOM      3  C   UNL     1     -14.192 -39.017  -6.384  1.00  0.00     0.039 C 
ENDROOT
BRANCH   1   4
ATOM      4  C   UNL     1     -15.624 -41.063  -5.628  1.00  0.00     0.034 C 
BRANCH   4   5
ATOM      5  C   UNL     1     -17.040 -41.347  -6.151  1.00  0.00     0.032 C 
BRANCH   5   6
ATOM      6  C   UNL     1     -17.186 -40.980  -7.609  1.00  0.00    -0.028 C 
ATOM      7  C   UNL     1     -18.894 -39.203  -7.169  1.00  0.00     0.039 C 
ATOM      8  C   UNL     1     -18.035 -40.043  -8.084  1.00  0.00    -0.080 C 
ATOM      9  C   UNL     1     -18.103 -39.824  -9.573  1.00  0.00     0.039 C 
ENDBRANCH   5   6
ENDBRANCH   4   5
ENDBRANCH   1   4
BRANCH   2  10
ATOM     10  C   UNL     1     -15.965 -37.291  -4.675  1.00  0.00     0.035 C 
BRANCH  10  11
ATOM     11  C   UNL     1     -16.711 -36.725  -3.459  1.00  0.00     0.079 C 
BRANCH  11  12
ATOM     12  C   UNL     1     -17.974 -36.008  -3.858  1.00  0.00     0.130 C 
ATOM     13  O   UNL     1     -17.940 -34.814  -4.116  1.00  0.00    -0.300 OA
ATOM     14  C   UNL     1     -19.281 -36.740  -3.902  1.00  0.00     0.087 C 
ENDBRANCH  11  12
ENDBRANCH  10  11
ENDBRANCH   2  10
TORSDOF 6
ENDMDL
MODEL 5
REMARK VINA RESULT:    -5.558      1.349      3.586
REMARK INTER + INTRA:          -8.332
REMARK INTER:                  -7.379
REMARK INTRA:                  -0.953
REMARK UNBOUND:                -0.823
REMARK SMILES CC(=O)CCC=C(C)CCC=C(C)C
REMARK SMILES IDX 7 1 6 2 8 3 9 4 10 5 11 6 13 7 12 8 14 9 5 10 4 11 2 12 3 13
REMARK SMILES IDX 1 14
REMARK H PARENT
REMARK Flexibility Score: inf
ROOT
ATOM      1  C   UNL     1     -19.200 -39.656  -6.155  1.00  0.00    -0.077 C 
ATOM      2  C   UNL     1     -19.874 -38.530  -6.486  1.00  0.00    -0.028 C 
ATOM      3  C   UNL     1     -19.906 -40.878  -5.616  1.00  0.00     0.039 C 
ENDROOT
BRANCH   1   4
ATOM      4  C   UNL     1     -17.698 -39.697  -6.345  1.00  0.00     0.034 C 
BRANCH   4   5
ATOM      5  C   UNL     1     -16.949 -39.645  -5.005  1.00  0.00     0.032 C 
BRANCH   5   6
ATOM      6  C   UNL     1     -16.429 -38.259  -4.704  1.00  0.00    -0.028 C 
ATOM      7  C   UNL     1     -18.465 -37.587  -3.410  1.00  0.00     0.039 C 
ATOM      8  C   UNL     1     -17.109 -37.315  -4.017  1.00  0.00    -0.080 C 
ATOM      9  C   UNL     1     -16.476 -35.960  -3.841  1.00  0.00     0.039 C 
ENDBRANCH   5   6
ENDBRANCH   4   5
ENDBRANCH   1   4
BRANCH   2  10
ATOM     10  C   UNL     1     -21.354 -38.325  -6.272  1.00  0.00     0.035 C 
BRANCH  10  11
ATOM     11  C   UNL     1     -21.753 -36.848  -6.395  1.00  0.00     0.079 C 
BRANCH  11  12
ATOM     12  C   UNL     1     -21.517 -36.093  -5.114  1.00  0.00     0.130 C 
ATOM     13  O   UNL     1     -20.661 -35.222  -5.071  1.00  0.00    -0.300 OA
ATOM     14  C   UNL     1     -22.298 -36.428  -3.879  1.00  0.00     0.087 C 
ENDBRANCH  11  12
ENDBRANCH  10  11
ENDBRANCH   2  10
TORSDOF 6
ENDMDL
MODEL 6
REMARK VINA RESULT:    -5.543      3.142      5.355
REMARK INTER + INTRA:          -8.311
REMARK INTER:                  -7.618
REMARK INTRA:                  -0.692
REMARK UNBOUND:                -0.823
REMARK SMILES CC(=O)CCC=C(C)CCC=C(C)C
REMARK SMILES IDX 7 1 6 2 8 3 9 4 10 5 11 6 13 7 12 8 14 9 5 10 4 11 2 12 3 13
REMARK SMILES IDX 1 14
REMARK H PARENT
REMARK Flexibility Score: inf
ROOT
ATOM      1  C   UNL     1     -17.374 -37.334  -4.182  1.00  0.00    -0.077 C 
ATOM      2  C   UNL     1     -16.709 -38.334  -4.804  1.00  0.00    -0.028 C 
ATOM      3  C   UNL     1     -16.709 -36.018  -3.851  1.00  0.00     0.039 C 
ENDROOT
BRANCH   1   4
ATOM      4  C   UNL     1     -18.832 -37.533  -3.822  1.00  0.00     0.034 C 
BRANCH   4   5
ATOM      5  C   UNL     1     -19.710 -37.724  -5.069  1.00  0.00     0.032 C 
BRANCH   5   6
ATOM      6  C   UNL     1     -20.053 -39.178  -5.298  1.00  0.00    -0.028 C 
ATOM      7  C   UNL     1     -18.966 -39.257  -7.553  1.00  0.00     0.039 C 
ATOM      8  C   UNL     1     -19.753 -39.870  -6.419  1.00  0.00    -0.080 C 
ATOM      9  C   UNL     1     -20.207 -41.302  -6.521  1.00  0.00     0.039 C 
ENDBRANCH   5   6
ENDBRANCH   4   5
ENDBRANCH   1   4
BRANCH   2  10
ATOM     10  C   UNL     1     -15.239 -38.301  -5.144  1.00  0.00     0.035 C 
BRANCH  10  11
ATOM     11  C   UNL     1     -14.823 -39.493  -6.017  1.00  0.00     0.079 C 
BRANCH  11  12
ATOM     12  C   UNL     1     -13.338 -39.521  -6.263  1.00  0.00     0.130 C 
ATOM     13  O   UNL     1     -12.627 -40.266  -5.605  1.00  0.00    -0.300 OA
ATOM     14  C   UNL     1     -12.719 -38.612  -7.281  1.00  0.00     0.087 C 
ENDBRANCH  11  12
ENDBRANCH  10  11
ENDBRANCH   2  10
TORSDOF 6
ENDMDL
MODEL 7
REMARK VINA RESULT:    -5.528      1.749      3.836
REMARK INTER + INTRA:          -8.290
REMARK INTER:                  -6.980
REMARK INTRA:                  -1.310
REMARK UNBOUND:                -0.823
REMARK SMILES CC(=O)CCC=C(C)CCC=C(C)C
REMARK SMILES IDX 7 1 6 2 8 3 9 4 10 5 11 6 13 7 12 8 14 9 5 10 4 11 2 12 3 13
REMARK SMILES IDX 1 14
REMARK H PARENT
REMARK Flexibility Score: inf
ROOT
ATOM      1  C   UNL     1     -19.188 -39.781  -7.173  1.00  0.00    -0.077 C 
ATOM      2  C   UNL     1     -19.240 -38.620  -6.481  1.00  0.00    -0.028 C 
ATOM      3  C   UNL     1     -19.756 -41.066  -6.618  1.00  0.00     0.039 C 
ENDROOT
BRANCH   1   4
ATOM      4  C   UNL     1     -18.557 -39.789  -8.551  1.00  0.00     0.034 C 
BRANCH   4   5
ATOM      5  C   UNL     1     -17.238 -40.576  -8.572  1.00  0.00     0.032 C 
BRANCH   5   6
ATOM      6  C   UNL     1     -16.074 -39.737  -8.099  1.00  0.00    -0.028 C 
ATOM      7  C   UNL     1     -16.035 -40.767  -5.817  1.00  0.00     0.039 C 
ATOM      8  C   UNL     1     -15.543 -39.790  -6.858  1.00  0.00    -0.080 C 
ATOM      9  C   UNL     1     -14.414 -38.852  -6.520  1.00  0.00     0.039 C 
ENDBRANCH   5   6
ENDBRANCH   4   5
ENDBRANCH   1   4
BRANCH   2  10
ATOM     10  C   UNL     1     -19.764 -38.487  -5.072  1.00  0.00     0.035 C 
BRANCH  10  11
ATOM     11  C   UNL     1     -18.632 -38.485  -4.035  1.00  0.00     0.079 C 
BRANCH  11  12
ATOM     12  C   UNL     1     -17.956 -37.142  -3.943  1.00  0.00     0.130 C 
ATOM     13  O   UNL     1     -18.629 -36.122  -3.938  1.00  0.00    -0.300 OA
ATOM     14  C   UNL     1     -16.461 -37.046  -3.897  1.00  0.00     0.087 C 
ENDBRANCH  11  12
ENDBRANCH  10  11
ENDBRANCH   2  10
TORSDOF 6
ENDMDL
MODEL 8
REMARK VINA RESULT:    -5.511      3.060      6.342
REMARK INTER + INTRA:          -8.267
REMARK INTER:                  -7.552
REMARK INTRA:                  -0.715
REMARK UNBOUND:                -0.823
REMARK SMILES CC(=O)CCC=C(C)CCC=C(C)C
REMARK SMILES IDX 7 1 6 2 8 3 9 4 10 5 11 6 13 7 12 8 14 9 5 10 4 11 2 12 3 13
REMARK SMILES IDX 1 14
REMARK H PARENT
REMARK Flexibility Score: inf
ROOT
ATOM      1  C   UNL     1     -18.011 -39.693  -8.084  1.00  0.00    -0.077 C 
ATOM      2  C   UNL     1     -17.070 -39.573  -7.120  1.00  0.00    -0.028 C 
ATOM      3  C   UNL     1     -17.648 -39.974  -9.523  1.00  0.00     0.039 C 
ENDROOT
BRANCH   1   4
ATOM      4  C   UNL     1     -19.472 -39.558  -7.706  1.00  0.00     0.034 C 
BRANCH   4   5
ATOM      5  C   UNL     1     -19.666 -39.491  -6.183  1.00  0.00     0.032 C 
BRANCH   5   6
ATOM      6  C   UNL     1     -20.299 -38.188  -5.753  1.00  0.00    -0.028 C 
ATOM      7  C   UNL     1     -18.445 -37.610  -4.172  1.00  0.00     0.039 C 
ATOM      8  C   UNL     1     -19.779 -37.349  -4.831  1.00  0.00    -0.080 C 
ATOM      9  C   UNL     1     -20.554 -36.109  -4.470  1.00  0.00     0.039 C 
ENDBRANCH   5   6
ENDBRANCH   4   5
ENDBRANCH   1   4
BRANCH   2  10
ATOM     10  C   UNL     1     -15.582 -39.603  -7.370  1.00  0.00     0.035 C 
BRANCH  10  11
ATOM     11  C   UNL     1     -14.784 -39.116  -6.152  1.00  0.00     0.079 C 
BRANCH  11  12
ATOM     12  C   UNL     1     -13.302 -39.312  -6.335  1.00  0.00     0.130 C 
ATOM     13  O   UNL     1     -12.699 -40.096  -5.617  1.00  0.00    -0.300 OA
ATOM     14  C   UNL     1     -12.553 -38.525  -7.367  1.00  0.00     0.087 C 
ENDBRANCH  11  12
ENDBRANCH  10  11
ENDBRANCH   2  10
TORSDOF 6
ENDMDL
MODEL 9
REMARK VINA RESULT:    -5.467      1.303      3.690
REMARK INTER + INTRA:          -8.208
REMARK INTER:                  -7.383
REMARK INTRA:                  -0.825
REMARK UNBOUND:                -0.823
REMARK SMILES CC(=O)CCC=C(C)CCC=C(C)C
REMARK SMILES IDX 7 1 6 2 8 3 9 4 10 5 11 6 13 7 12 8 14 9 5 10 4 11 2 12 3 13
REMARK SMILES IDX 1 14
REMARK H PARENT
REMARK Flexibility Score: inf
ROOT
ATOM      1  C   UNL     1     -17.913 -39.613  -7.234  1.00  0.00    -0.077 C 
ATOM      2  C   UNL     1     -18.971 -39.343  -6.435  1.00  0.00    -0.028 C 
ATOM      3  C   UNL     1     -18.051 -39.702  -8.736  1.00  0.00     0.039 C 
ENDROOT
BRANCH   1   4
ATOM      4  C   UNL     1     -16.550 -39.818  -6.606  1.00  0.00     0.034 C 
BRANCH   4   5
ATOM      5  C   UNL     1     -16.576 -39.576  -5.089  1.00  0.00     0.032 C 
BRANCH   5   6
ATOM      6  C   UNL     1     -16.183 -38.160  -4.737  1.00  0.00    -0.028 C 
ATOM      7  C   UNL     1     -18.297 -37.702  -3.477  1.00  0.00     0.039 C 
ATOM      8  C   UNL     1     -16.956 -37.299  -4.042  1.00  0.00    -0.080 C 
ATOM      9  C   UNL     1     -16.446 -35.900  -3.813  1.00  0.00     0.039 C 
ENDBRANCH   5   6
ENDBRANCH   4   5
ENDBRANCH   1   4
BRANCH   2  10
ATOM     10  C   UNL     1     -20.393 -39.199  -6.918  1.00  0.00     0.035 C 
BRANCH  10  11
ATOM     11  C   UNL     1     -21.335 -38.727  -5.802  1.00  0.00     0.079 C 
BRANCH  11  12
ATOM     12  C   UNL     1     -21.796 -37.309  -6.016  1.00  0.00     0.130 C 
ATOM     13  O   UNL     1     -22.804 -37.090  -6.672  1.00  0.00    -0.300 OA
ATOM     14  C   UNL     1     -21.005 -36.162  -5.464  1.00  0.00     0.087 C 
ENDBRANCH  11  12
ENDBRANCH  10  11
ENDBRANCH   2  10
TORSDOF 6
ENDMDL
