MODEL 1
REMARK VINA RESULT:    -5.494      0.000      0.000
REMARK INTER + INTRA:          -7.473
REMARK INTER:                  -7.742
REMARK INTRA:                   0.269
REMARK UNBOUND:                 0.269
REMARK SMILES CC1=CCC(=C(C)C)C(=O)CC(C)=CCC1
REMARK SMILES IDX 12 1 14 2 13 3 15 4 16 5 2 6 1 7 3 8 11 10 9 11 10 12 5 13
REMARK SMILES IDX 6 14 7 15 8 16 4 17
REMARK H PARENT
REMARK Flexibility Score: 60.00
ROOT
ATOM      1  C   UNL     1     -12.338 -16.829  31.361  1.00  0.00    -0.070 C 
ATOM      2  C   UNL     1     -12.832 -18.068  31.578  1.00  0.00    -0.027 C 
ATOM      3  C   UNL     1     -13.255 -15.653  31.587  1.00  0.00     0.039 C 
ENDROOT
BRANCH   2   4
ATOM      4  C   UNL     1     -12.046 -19.358  31.501  1.00  0.00     0.032 C 
BRANCH   4   5
ATOM      5  C   UNL     1     -11.373 -19.626  30.138  1.00  0.00     0.034 C 
BRANCH   5   6
ATOM      6  C   UNL     1     -12.339 -19.545  28.969  1.00  0.00    -0.077 C 
ATOM      7  C   UNL     1     -13.486 -20.522  28.939  1.00  0.00     0.039 C 
ATOM      8  C   UNL     1     -12.275 -18.609  27.990  1.00  0.00    -0.023 CG0
ATOM      9  G   UNL     1     -11.210 -17.547  27.808  1.00  0.00     0.000 G0
ENDBRANCH   5   6
ENDBRANCH   4   5
ENDBRANCH   2   4
BRANCH   1  10
ATOM     10  C   UNL     1     -10.892 -16.563  30.995  1.00  0.00     0.111 C 
BRANCH  10  11
ATOM     11  C   UNL     1     -10.776 -15.834  29.682  1.00  0.00     0.163 C 
ATOM     12  O   UNL     1      -9.940 -14.894  29.596  1.00  0.00    -0.294 OA
BRANCH  11  13
ATOM     13  C   UNL     1     -11.564 -16.225  28.476  1.00  0.00    -0.002 C 
ATOM     14  C   UNL     1     -12.510 -15.384  27.956  1.00  0.00    -0.069 C 
ATOM     15  C   UNL     1     -12.899 -14.107  28.667  1.00  0.00     0.039 C 
ATOM     16  C   UNL     1     -13.211 -15.681  26.649  1.00  0.00     0.039 C 
BRANCH  13  17
ATOM     17  C   UNL     1     -11.205 -17.542  27.807  1.00  0.00     0.066 CG0
ATOM     18  G   UNL     1     -12.274 -18.599  28.003  1.00  0.00     0.000 G0
ENDBRANCH  13  17
ENDBRANCH  11  13
ENDBRANCH  10  11
ENDBRANCH   1  10
TORSDOF 0
ENDMDL
MODEL 2
REMARK VINA RESULT:    -5.172      1.327      3.560
REMARK INTER + INTRA:          -7.020
REMARK INTER:                  -7.940
REMARK INTRA:                   0.920
REMARK UNBOUND:                 0.269
REMARK SMILES CC1=CCC(=C(C)C)C(=O)CC(C)=CCC1
REMARK SMILES IDX 12 1 14 2 13 3 15 4 16 5 2 6 1 7 3 8 11 10 9 11 10 12 5 13
REMARK SMILES IDX 6 14 7 15 8 16 4 17
REMARK H PARENT
REMARK Flexibility Score: 60.00
ROOT
ATOM      1  C   UNL     1     -12.615 -15.776  31.178  1.00  0.00    -0.070 C 
ATOM      2  C   UNL     1     -13.397 -15.013  30.383  1.00  0.00    -0.027 C 
ATOM      3  C   UNL     1     -13.274 -16.512  32.319  1.00  0.00     0.039 C 
ENDROOT
BRANCH   2   4
ATOM      4  C   UNL     1     -12.942 -14.280  29.141  1.00  0.00     0.032 C 
BRANCH   4   5
ATOM      5  C   UNL     1     -11.849 -15.002  28.326  1.00  0.00     0.034 C 
BRANCH   5   6
ATOM      6  C   UNL     1     -12.389 -16.143  27.481  1.00  0.00    -0.077 C 
ATOM      7  C   UNL     1     -13.526 -15.839  26.538  1.00  0.00     0.039 C 
ATOM      8  C   UNL     1     -11.873 -17.396  27.471  1.00  0.00    -0.023 CG0
ATOM      9  G   UNL     1     -10.752 -17.931  28.340  1.00  0.00     0.000 G0
ENDBRANCH   5   6
ENDBRANCH   4   5
ENDBRANCH   2   4
BRANCH   1  10
ATOM     10  C   UNL     1     -11.138 -16.000  30.926  1.00  0.00     0.111 C 
BRANCH  10  11
ATOM     11  C   UNL     1     -10.799 -17.467  30.869  1.00  0.00     0.163 C 
ATOM     12  O   UNL     1     -10.185 -17.973  31.847  1.00  0.00    -0.294 OA
BRANCH  11  13
ATOM     13  C   UNL     1     -11.217 -18.342  29.734  1.00  0.00    -0.002 C 
ATOM     14  C   UNL     1     -12.055 -19.403  29.940  1.00  0.00    -0.069 C 
ATOM     15  C   UNL     1     -12.463 -19.820  31.336  1.00  0.00     0.039 C 
ATOM     16  C   UNL     1     -12.621 -20.210  28.793  1.00  0.00     0.039 C 
BRANCH  13  17
ATOM     17  C   UNL     1     -10.748 -17.947  28.342  1.00  0.00     0.066 CG0
ATOM     18  G   UNL     1     -11.874 -17.398  27.490  1.00  0.00     0.000 G0
ENDBRANCH  13  17
ENDBRANCH  11  13
ENDBRANCH  10  11
ENDBRANCH   1  10
TORSDOF 0
ENDMDL
MODEL 3
REMARK VINA RESULT:    -5.133      1.753      3.949
REMARK INTER + INTRA:          -6.966
REMARK INTER:                  -7.376
REMARK INTRA:                   0.411
REMARK UNBOUND:                 0.269
REMARK SMILES CC1=CCC(=C(C)C)C(=O)CC(C)=CCC1
REMARK SMILES IDX 12 1 14 2 13 3 15 4 16 5 2 6 1 7 3 8 11 10 9 11 10 12 5 13
REMARK SMILES IDX 6 14 7 15 8 16 4 17
REMARK H PARENT
REMARK Flexibility Score: 60.00
ROOT
ATOM      1  C   UNL     1     -13.359 -14.274  28.699  1.00  0.00    -0.070 C 
ATOM      2  C   UNL     1     -13.717 -14.643  27.449  1.00  0.00    -0.027 C 
ATOM      3  C   UNL     1     -14.320 -13.417  29.485  1.00  0.00     0.039 C 
ENDROOT
BRANCH   2   4
ATOM      4  C   UNL     1     -12.938 -15.573  26.546  1.00  0.00     0.032 C 
BRANCH   4   5
ATOM      5  C   UNL     1     -12.929 -17.051  26.989  1.00  0.00     0.034 C 
BRANCH   5   6
ATOM      6  C   UNL     1     -11.530 -17.607  27.184  1.00  0.00    -0.077 C 
ATOM      7  C   UNL     1     -10.598 -17.593  25.999  1.00  0.00     0.039 C 
ATOM      8  C   UNL     1     -11.043 -18.051  28.369  1.00  0.00    -0.023 CG0
ATOM      9  G   UNL     1     -11.796 -18.174  29.679  1.00  0.00     0.000 G0
ENDBRANCH   5   6
ENDBRANCH   4   5
ENDBRANCH   2   4
BRANCH   1  10
ATOM     10  C   UNL     1     -12.090 -14.752  29.375  1.00  0.00     0.111 C 
BRANCH  10  11
ATOM     11  C   UNL     1     -12.380 -15.783  30.435  1.00  0.00     0.163 C 
ATOM     12  O   UNL     1     -13.405 -15.627  31.151  1.00  0.00    -0.294 OA
BRANCH  11  13
ATOM     13  C   UNL     1     -11.536 -17.000  30.620  1.00  0.00    -0.002 C 
ATOM     14  C   UNL     1     -10.633 -17.076  31.646  1.00  0.00    -0.069 C 
ATOM     15  C   UNL     1     -10.347 -15.881  32.528  1.00  0.00     0.039 C 
ATOM     16  C   UNL     1      -9.879 -18.351  31.955  1.00  0.00     0.039 C 
BRANCH  13  17
ATOM     17  C   UNL     1     -11.790 -18.172  29.686  1.00  0.00     0.066 CG0
ATOM     18  G   UNL     1     -11.043 -18.037  28.375  1.00  0.00     0.000 G0
ENDBRANCH  13  17
ENDBRANCH  11  13
ENDBRANCH  10  11
ENDBRANCH   1  10
TORSDOF 0
ENDMDL
MODEL 4
REMARK VINA RESULT:    -4.619      1.719      3.480
REMARK INTER + INTRA:          -6.241
REMARK INTER:                  -6.912
REMARK INTRA:                   0.671
REMARK UNBOUND:                 0.269
REMARK SMILES CC1=CCC(=C(C)C)C(=O)CC(C)=CCC1
REMARK SMILES IDX 12 1 14 2 13 3 15 4 16 5 2 6 1 7 3 8 11 10 9 11 10 12 5 13
REMARK SMILES IDX 6 14 7 15 8 16 4 17
REMARK H PARENT
REMARK Flexibility Score: 60.00
ROOT
ATOM      1  C   UNL     1     -11.665 -17.404  27.342  1.00  0.00    -0.070 C 
ATOM      2  C   UNL     1     -11.881 -18.610  27.912  1.00  0.00    -0.027 C 
ATOM      3  C   UNL     1     -10.614 -17.312  26.263  1.00  0.00     0.039 C 
ENDROOT
BRANCH   2   4
ATOM      4  C   UNL     1     -12.950 -18.923  28.936  1.00  0.00     0.032 C 
BRANCH   4   5
ATOM      5  C   UNL     1     -12.418 -19.320  30.329  1.00  0.00     0.034 C 
BRANCH   5   6
ATOM      6  C   UNL     1     -11.272 -18.443  30.801  1.00  0.00    -0.077 C 
ATOM      7  C   UNL     1      -9.885 -19.034  30.787  1.00  0.00     0.039 C 
ATOM      8  C   UNL     1     -11.406 -17.145  31.170  1.00  0.00    -0.023 CG0
ATOM      9  G   UNL     1     -12.694 -16.353  31.278  1.00  0.00     0.000 G0
ENDBRANCH   5   6
ENDBRANCH   4   5
ENDBRANCH   2   4
BRANCH   1  10
ATOM     10  C   UNL     1     -12.484 -16.172  27.665  1.00  0.00     0.111 C 
BRANCH  10  11
ATOM     11  C   UNL     1     -12.020 -15.514  28.940  1.00  0.00     0.163 C 
ATOM     12  O   UNL     1     -10.856 -15.032  28.969  1.00  0.00    -0.294 OA
BRANCH  11  13
ATOM     13  C   UNL     1     -12.906 -15.364  30.131  1.00  0.00    -0.002 C 
ATOM     14  C   UNL     1     -13.913 -14.438  30.142  1.00  0.00    -0.069 C 
ATOM     15  C   UNL     1     -14.067 -13.434  29.021  1.00  0.00     0.039 C 
ATOM     16  C   UNL     1     -14.924 -14.368  31.266  1.00  0.00     0.039 C 
BRANCH  13  17
ATOM     17  C   UNL     1     -12.700 -16.339  31.280  1.00  0.00     0.066 CG0
ATOM     18  G   UNL     1     -11.420 -17.138  31.135  1.00  0.00     0.000 G0
ENDBRANCH  13  17
ENDBRANCH  11  13
ENDBRANCH  10  11
ENDBRANCH   1  10
TORSDOF 0
ENDMDL
MODEL 5
REMARK VINA RESULT:    -4.605      1.672      3.166
REMARK INTER + INTRA:          -6.221
REMARK INTER:                  -6.903
REMARK INTRA:                   0.682
REMARK UNBOUND:                 0.269
REMARK SMILES CC1=CCC(=C(C)C)C(=O)CC(C)=CCC1
REMARK SMILES IDX 12 1 14 2 13 3 15 4 16 5 2 6 1 7 3 8 11 10 9 11 10 12 5 13
REMARK SMILES IDX 6 14 7 15 8 16 4 17
REMARK H PARENT
REMARK Flexibility Score: 60.00
ROOT
ATOM      1  C   UNL     1     -12.129 -19.058  29.125  1.00  0.00    -0.070 C 
ATOM      2  C   UNL     1     -12.375 -19.385  30.413  1.00  0.00    -0.027 C 
ATOM      3  C   UNL     1     -13.244 -19.238  28.125  1.00  0.00     0.039 C 
ENDROOT
BRANCH   2   4
ATOM      4  C   UNL     1     -11.423 -19.186  31.571  1.00  0.00     0.032 C 
BRANCH   4   5
ATOM      5  C   UNL     1     -10.995 -17.723  31.815  1.00  0.00     0.034 C 
BRANCH   5   6
ATOM      6  C   UNL     1     -12.149 -16.741  31.719  1.00  0.00    -0.077 C 
ATOM      7  C   UNL     1     -13.244 -16.842  32.750  1.00  0.00     0.039 C 
ATOM      8  C   UNL     1     -12.222 -15.737  30.810  1.00  0.00    -0.023 CG0
ATOM      9  G   UNL     1     -11.255 -15.455  29.678  1.00  0.00     0.000 G0
ENDBRANCH   5   6
ENDBRANCH   4   5
ENDBRANCH   2   4
BRANCH   1  10
ATOM     10  C   UNL     1     -10.828 -18.438  28.658  1.00  0.00     0.111 C 
BRANCH  10  11
ATOM     11  C   UNL     1     -11.067 -17.220  27.804  1.00  0.00     0.163 C 
ATOM     12  O   UNL     1     -10.730 -17.270  26.590  1.00  0.00    -0.294 OA
BRANCH  11  13
ATOM     13  C   UNL     1     -11.738 -15.994  28.327  1.00  0.00    -0.002 C 
ATOM     14  C   UNL     1     -12.805 -15.445  27.670  1.00  0.00    -0.069 C 
ATOM     15  C   UNL     1     -13.242 -15.963  26.317  1.00  0.00     0.039 C 
ATOM     16  C   UNL     1     -13.603 -14.301  28.255  1.00  0.00     0.039 C 
BRANCH  13  17
ATOM     17  C   UNL     1     -11.247 -15.446  29.658  1.00  0.00     0.066 CG0
ATOM     18  G   UNL     1     -12.206 -15.743  30.793  1.00  0.00     0.000 G0
ENDBRANCH  13  17
ENDBRANCH  11  13
ENDBRANCH  10  11
ENDBRANCH   1  10
TORSDOF 0
ENDMDL
MODEL 6
REMARK VINA RESULT:    -4.359      1.220      1.508
REMARK INTER + INTRA:          -5.874
REMARK INTER:                  -7.158
REMARK INTRA:                   1.284
REMARK UNBOUND:                 0.269
REMARK SMILES CC1=CCC(=C(C)C)C(=O)CC(C)=CCC1
REMARK SMILES IDX 12 1 14 2 13 3 15 4 16 5 2 6 1 7 3 8 11 10 9 11 10 12 5 13
REMARK SMILES IDX 6 14 7 15 8 16 4 17
REMARK H PARENT
REMARK Flexibility Score: 60.00
ROOT
ATOM      1  C   UNL     1     -10.326 -16.558  31.912  1.00  0.00    -0.070 C 
ATOM      2  C   UNL     1     -10.523 -17.893  31.979  1.00  0.00    -0.027 C 
ATOM      3  C   UNL     1      -9.947 -15.835  33.180  1.00  0.00     0.039 C 
ENDROOT
BRANCH   2   4
ATOM      4  C   UNL     1     -10.812 -18.802  30.806  1.00  0.00     0.032 C 
BRANCH   4   5
ATOM      5  C   UNL     1     -12.300 -18.890  30.405  1.00  0.00     0.034 C 
BRANCH   5   6
ATOM      6  C   UNL     1     -12.504 -19.236  28.941  1.00  0.00    -0.077 C 
ATOM      7  C   UNL     1     -13.288 -20.483  28.617  1.00  0.00     0.039 C 
ATOM      8  C   UNL     1     -12.087 -18.462  27.909  1.00  0.00    -0.023 CG0
ATOM      9  G   UNL     1     -11.274 -17.186  27.992  1.00  0.00     0.000 G0
ENDBRANCH   5   6
ENDBRANCH   4   5
ENDBRANCH   2   4
BRANCH   1  10
ATOM     10  C   UNL     1     -10.377 -15.774  30.616  1.00  0.00     0.111 C 
BRANCH  10  11
ATOM     11  C   UNL     1     -11.772 -15.730  30.047  1.00  0.00     0.163 C 
ATOM     12  O   UNL     1     -12.713 -15.377  30.808  1.00  0.00    -0.294 OA
BRANCH  11  13
ATOM     13  C   UNL     1     -12.061 -16.028  28.613  1.00  0.00    -0.002 C 
ATOM     14  C   UNL     1     -12.931 -15.251  27.899  1.00  0.00    -0.069 C 
ATOM     15  C   UNL     1     -13.745 -14.166  28.570  1.00  0.00     0.039 C 
ATOM     16  C   UNL     1     -13.125 -15.429  26.409  1.00  0.00     0.039 C 
BRANCH  13  17
ATOM     17  C   UNL     1     -11.281 -17.162  27.967  1.00  0.00     0.066 CG0
ATOM     18  G   UNL     1     -12.089 -18.442  27.882  1.00  0.00     0.000 G0
ENDBRANCH  13  17
ENDBRANCH  11  13
ENDBRANCH  10  11
ENDBRANCH   1  10
TORSDOF 0
ENDMDL
MODEL 7
REMARK VINA RESULT:    -4.344      1.783      4.814
REMARK INTER + INTRA:          -5.853
REMARK INTER:                  -6.287
REMARK INTRA:                   0.434
REMARK UNBOUND:                 0.269
REMARK SMILES CC1=CCC(=C(C)C)C(=O)CC(C)=CCC1
REMARK SMILES IDX 12 1 14 2 13 3 15 4 16 5 2 6 1 7 3 8 11 10 9 11 10 12 5 13
REMARK SMILES IDX 6 14 7 15 8 16 4 17
REMARK H PARENT
REMARK Flexibility Score: 60.00
ROOT
ATOM      1  C   UNL     1     -11.846 -16.704  26.674  1.00  0.00    -0.070 C 
ATOM      2  C   UNL     1     -12.245 -15.444  26.951  1.00  0.00    -0.027 C 
ATOM      3  C   UNL     1     -11.002 -16.923  25.442  1.00  0.00     0.039 C 
ENDROOT
BRANCH   2   4
ATOM      4  C   UNL     1     -13.009 -15.011  28.183  1.00  0.00     0.032 C 
BRANCH   4   5
ATOM      5  C   UNL     1     -12.158 -14.888  29.464  1.00  0.00     0.034 C 
BRANCH   5   6
ATOM      6  C   UNL     1     -12.872 -15.391  30.706  1.00  0.00    -0.077 C 
ATOM      7  C   UNL     1     -14.121 -14.666  31.138  1.00  0.00     0.039 C 
ATOM      8  C   UNL     1     -12.498 -16.489  31.409  1.00  0.00    -0.023 CG0
ATOM      9  G   UNL     1     -11.278 -17.355  31.172  1.00  0.00     0.000 G0
ENDBRANCH   5   6
ENDBRANCH   4   5
ENDBRANCH   2   4
BRANCH   1  10
ATOM     10  C   UNL     1     -12.124 -17.884  27.583  1.00  0.00     0.111 C 
BRANCH  10  11
ATOM     11  C   UNL     1     -11.108 -17.985  28.691  1.00  0.00     0.163 C 
ATOM     12  O   UNL     1      -9.916 -17.664  28.434  1.00  0.00    -0.294 OA
BRANCH  11  13
ATOM     13  C   UNL     1     -11.475 -18.389  30.080  1.00  0.00    -0.002 C 
ATOM     14  C   UNL     1     -11.896 -19.662  30.350  1.00  0.00    -0.069 C 
ATOM     15  C   UNL     1     -12.153 -20.656  29.239  1.00  0.00     0.039 C 
ATOM     16  C   UNL     1     -12.122 -20.146  31.766  1.00  0.00     0.039 C 
BRANCH  13  17
ATOM     17  C   UNL     1     -11.271 -17.360  31.181  1.00  0.00     0.066 CG0
ATOM     18  G   UNL     1     -12.498 -16.497  31.397  1.00  0.00     0.000 G0
ENDBRANCH  13  17
ENDBRANCH  11  13
ENDBRANCH  10  11
ENDBRANCH   1  10
TORSDOF 0
ENDMDL
MODEL 8
REMARK VINA RESULT:    -4.274      1.583      3.490
REMARK INTER + INTRA:          -5.755
REMARK INTER:                  -6.849
REMARK INTRA:                   1.094
REMARK UNBOUND:                 0.269
REMARK SMILES CC1=CCC(=C(C)C)C(=O)CC(C)=CCC1
REMARK SMILES IDX 12 1 14 2 13 3 15 4 16 5 2 6 1 7 3 8 11 10 9 11 10 12 5 13
REMARK SMILES IDX 6 14 7 15 8 16 4 17
REMARK H PARENT
REMARK Flexibility Score: 60.00
ROOT
ATOM      1  C   UNL     1     -12.608 -15.003  29.569  1.00  0.00    -0.070 C 
ATOM      2  C   UNL     1     -13.332 -15.186  30.695  1.00  0.00    -0.027 C 
ATOM      3  C   UNL     1     -13.282 -14.333  28.397  1.00  0.00     0.039 C 
ENDROOT
BRANCH   2   4
ATOM      4  C   UNL     1     -12.809 -15.748  31.998  1.00  0.00     0.032 C 
BRANCH   4   5
ATOM      5  C   UNL     1     -12.212 -17.167  31.899  1.00  0.00     0.034 C 
BRANCH   5   6
ATOM      6  C   UNL     1     -10.694 -17.179  31.927  1.00  0.00    -0.077 C 
ATOM      7  C   UNL     1     -10.007 -16.429  33.041  1.00  0.00     0.039 C 
ATOM      8  C   UNL     1      -9.920 -17.875  31.058  1.00  0.00    -0.023 CG0
ATOM      9  G   UNL     1     -10.385 -18.678  29.860  1.00  0.00     0.000 G0
ENDBRANCH   5   6
ENDBRANCH   4   5
ENDBRANCH   2   4
BRANCH   1  10
ATOM     10  C   UNL     1     -11.138 -15.352  29.459  1.00  0.00     0.111 C 
BRANCH  10  11
ATOM     11  C   UNL     1     -10.913 -16.534  28.552  1.00  0.00     0.163 C 
ATOM     12  O   UNL     1     -10.310 -16.340  27.462  1.00  0.00    -0.294 OA
BRANCH  11  13
ATOM     13  C   UNL     1     -11.321 -17.920  28.926  1.00  0.00    -0.002 C 
ATOM     14  C   UNL     1     -12.446 -18.486  28.392  1.00  0.00    -0.069 C 
ATOM     15  C   UNL     1     -13.396 -17.682  27.533  1.00  0.00     0.039 C 
ATOM     16  C   UNL     1     -12.800 -19.939  28.628  1.00  0.00     0.039 C 
BRANCH  13  17
ATOM     17  C   UNL     1     -10.389 -18.697  29.842  1.00  0.00     0.066 CG0
ATOM     18  G   UNL     1      -9.932 -17.876  31.031  1.00  0.00     0.000 G0
ENDBRANCH  13  17
ENDBRANCH  11  13
ENDBRANCH  10  11
ENDBRANCH   1  10
TORSDOF 0
ENDMDL
MODEL 9
REMARK VINA RESULT:    -4.125      2.051      2.776
REMARK INTER + INTRA:          -5.545
REMARK INTER:                  -5.914
REMARK INTRA:                   0.369
REMARK UNBOUND:                 0.269
REMARK SMILES CC1=CCC(=C(C)C)C(=O)CC(C)=CCC1
REMARK SMILES IDX 12 1 14 2 13 3 15 4 16 5 2 6 1 7 3 8 11 10 9 11 10 12 5 13
REMARK SMILES IDX 6 14 7 15 8 16 4 17
REMARK H PARENT
REMARK Flexibility Score: 60.00
ROOT
ATOM      1  C   UNL     1     -13.513 -15.125  30.938  1.00  0.00    -0.070 C 
ATOM      2  C   UNL     1     -12.920 -15.368  32.128  1.00  0.00    -0.027 C 
ATOM      3  C   UNL     1     -14.344 -13.874  30.805  1.00  0.00     0.039 C 
ENDROOT
BRANCH   2   4
ATOM      4  C   UNL     1     -11.976 -16.511  32.426  1.00  0.00     0.032 C 
BRANCH   4   5
ATOM      5  C   UNL     1     -10.607 -16.423  31.720  1.00  0.00     0.034 C 
BRANCH   5   6
ATOM      6  C   UNL     1     -10.281 -17.654  30.893  1.00  0.00    -0.077 C 
ATOM      7  C   UNL     1     -10.258 -18.986  31.598  1.00  0.00     0.039 C 
ATOM      8  C   UNL     1     -10.078 -17.640  29.552  1.00  0.00    -0.023 CG0
ATOM      9  G   UNL     1     -10.037 -16.427  28.645  1.00  0.00     0.000 G0
ENDBRANCH   5   6
ENDBRANCH   4   5
ENDBRANCH   2   4
BRANCH   1  10
ATOM     10  C   UNL     1     -13.309 -15.995  29.714  1.00  0.00     0.111 C 
BRANCH  10  11
ATOM     11  C   UNL     1     -12.365 -15.357  28.729  1.00  0.00     0.163 C 
ATOM     12  O   UNL     1     -12.399 -14.103  28.600  1.00  0.00    -0.294 OA
BRANCH  11  13
ATOM     13  C   UNL     1     -11.361 -16.145  27.955  1.00  0.00    -0.002 C 
ATOM     14  C   UNL     1     -11.611 -16.523  26.665  1.00  0.00    -0.069 C 
ATOM     15  C   UNL     1     -12.966 -16.295  26.030  1.00  0.00     0.039 C 
ATOM     16  C   UNL     1     -10.555 -17.182  25.805  1.00  0.00     0.039 C 
BRANCH  13  17
ATOM     17  C   UNL     1     -10.025 -16.422  28.628  1.00  0.00     0.066 CG0
ATOM     18  G   UNL     1     -10.080 -17.629  29.543  1.00  0.00     0.000 G0
ENDBRANCH  13  17
ENDBRANCH  11  13
ENDBRANCH  10  11
ENDBRANCH   1  10
TORSDOF 0
ENDMDL
