MODEL 1
REMARK VINA RESULT:    -3.010      0.000      0.000
REMARK INTER + INTRA:          -9.871
REMARK INTER:                  -6.530
REMARK INTRA:                  -3.341
REMARK UNBOUND:                -3.341
REMARK SMILES CCCCCCCCCCCCCCCCCCCCCC(=O)[O-]
REMARK SMILES IDX 12 1 11 2 10 3 9 4 8 5 7 6 6 7 5 8 4 9 3 10 2 11 1 12 13 13
REMARK SMILES IDX 14 14 15 15 16 16 17 17 18 18 19 19 20 20 21 21 22 22 23 23
REMARK SMILES IDX 24 24
REMARK H PARENT
REMARK Flexibility Score: inf
ROOT
ATOM      1  C   UNL     1      -0.343   1.378   6.248  1.00  0.00     0.000 C 
ENDROOT
BRANCH   1   2
ATOM      2  C   UNL     1       0.448   0.089   6.540  1.00  0.00     0.000 C 
BRANCH   2   3
ATOM      3  C   UNL     1       0.738  -0.105   8.037  1.00  0.00     0.000 C 
BRANCH   3   4
ATOM      4  C   UNL     1       0.207  -1.444   8.582  1.00  0.00    -0.000 C 
BRANCH   4   5
ATOM      5  C   UNL     1       1.203  -2.622   8.527  1.00  0.00    -0.000 C 
BRANCH   5   6
ATOM      6  C   UNL     1       0.650  -3.924   7.918  1.00  0.00    -0.000 C 
BRANCH   6   7
ATOM      7  C   UNL     1      -0.563  -3.687   7.002  1.00  0.00    -0.000 C 
BRANCH   7   8
ATOM      8  C   UNL     1      -1.820  -4.429   7.485  1.00  0.00    -0.000 C 
BRANCH   8   9
ATOM      9  C   UNL     1      -3.114  -3.653   7.197  1.00  0.00    -0.000 C 
BRANCH   9  10
ATOM     10  C   UNL     1      -2.892  -2.615   6.087  1.00  0.00    -0.000 C 
BRANCH  10  11
ATOM     11  C   UNL     1      -3.184  -1.180   6.553  1.00  0.00    -0.003 C 
ATOM     12  C   UNL     1      -3.407  -1.082   8.063  1.00  0.00     0.004 C 
ENDBRANCH  10  11
ENDBRANCH   9  10
ENDBRANCH   8   9
ENDBRANCH   7   8
ENDBRANCH   6   7
ENDBRANCH   5   6
ENDBRANCH   4   5
ENDBRANCH   3   4
ENDBRANCH   2   3
ENDBRANCH   1   2
BRANCH   1  13
ATOM     13  C   UNL     1      -0.740   2.195   7.492  1.00  0.00     0.000 C 
BRANCH  13  14
ATOM     14  C   UNL     1      -2.251   2.477   7.566  1.00  0.00     0.000 C 
BRANCH  14  15
ATOM     15  C   UNL     1      -2.805   3.038   6.239  1.00  0.00     0.000 C 
BRANCH  15  16
ATOM     16  C   UNL     1      -3.897   2.156   5.608  1.00  0.00     0.000 C 
BRANCH  16  17
ATOM     17  C   UNL     1      -5.143   2.019   6.498  1.00  0.00     0.000 C 
BRANCH  17  18
ATOM     18  C   UNL     1      -6.391   1.598   5.706  1.00  0.00     0.000 C 
BRANCH  18  19
ATOM     19  C   UNL     1      -6.200   1.743   4.186  1.00  0.00     0.000 C 
BRANCH  19  20
ATOM     20  C   UNL     1      -6.817   0.579   3.388  1.00  0.00     0.006 C 
BRANCH  20  21
ATOM     21  C   UNL     1      -5.779  -0.321   2.696  1.00  0.00     0.053 C 
BRANCH  21  22
ATOM     22  C   UNL     1      -5.568  -1.619   3.415  1.00  0.00     0.041 C 
ATOM     23  O   UNL     1      -6.051  -1.794   4.566  1.00  0.00    -0.550 OA
ATOM     24  O   UNL     1      -4.807  -2.624   2.830  1.00  0.00    -0.550 OA
ENDBRANCH  21  22
ENDBRANCH  20  21
ENDBRANCH  19  20
ENDBRANCH  18  19
ENDBRANCH  17  18
ENDBRANCH  16  17
ENDBRANCH  15  16
ENDBRANCH  14  15
ENDBRANCH  13  14
ENDBRANCH   1  13
TORSDOF 20
ENDMDL
MODEL 2
REMARK VINA RESULT:    -2.998      1.279      4.311
REMARK INTER + INTRA:          -9.845
REMARK INTER:                  -6.432
REMARK INTRA:                  -3.413
REMARK UNBOUND:                -3.341
REMARK SMILES CCCCCCCCCCCCCCCCCCCCCC(=O)[O-]
REMARK SMILES IDX 12 1 11 2 10 3 9 4 8 5 7 6 6 7 5 8 4 9 3 10 2 11 1 12 13 13
REMARK SMILES IDX 14 14 15 15 16 16 17 17 18 18 19 19 20 20 21 21 22 22 23 23
REMARK SMILES IDX 24 24
REMARK H PARENT
REMARK Flexibility Score: inf
ROOT
ATOM      1  C   UNL     1      -4.723   3.295   6.197  1.00  0.00     0.000 C 
ENDROOT
BRANCH   1   2
ATOM      2  C   UNL     1      -3.254   3.714   6.386  1.00  0.00     0.000 C 
BRANCH   2   3
ATOM      3  C   UNL     1      -2.287   2.519   6.373  1.00  0.00     0.000 C 
BRANCH   3   4
ATOM      4  C   UNL     1      -1.408   2.443   7.635  1.00  0.00    -0.000 C 
BRANCH   4   5
ATOM      5  C   UNL     1       0.072   2.079   7.389  1.00  0.00    -0.000 C 
BRANCH   5   6
ATOM      6  C   UNL     1       0.327   1.119   6.211  1.00  0.00    -0.000 C 
BRANCH   6   7
ATOM      7  C   UNL     1       0.631  -0.318   6.667  1.00  0.00    -0.000 C 
BRANCH   7   8
ATOM      8  C   UNL     1       0.788  -0.431   8.193  1.00  0.00    -0.000 C 
BRANCH   8   9
ATOM      9  C   UNL     1       0.377  -1.810   8.730  1.00  0.00    -0.000 C 
BRANCH   9  10
ATOM     10  C   UNL     1       0.360  -2.853   7.602  1.00  0.00    -0.000 C 
BRANCH  10  11
ATOM     11  C   UNL     1       1.243  -4.072   7.912  1.00  0.00    -0.003 C 
ATOM     12  C   UNL     1       2.276  -3.791   9.003  1.00  0.00     0.004 C 
ENDBRANCH  10  11
ENDBRANCH   9  10
ENDBRANCH   8   9
ENDBRANCH   7   8
ENDBRANCH   6   7
ENDBRANCH   5   6
ENDBRANCH   4   5
ENDBRANCH   3   4
ENDBRANCH   2   3
ENDBRANCH   1   2
BRANCH   1  13
ATOM     13  C   UNL     1      -4.932   1.838   5.742  1.00  0.00     0.000 C 
BRANCH  13  14
ATOM     14  C   UNL     1      -5.829   1.034   6.698  1.00  0.00     0.000 C 
BRANCH  14  15
ATOM     15  C   UNL     1      -5.192   0.868   8.095  1.00  0.00     0.000 C 
BRANCH  15  16
ATOM     16  C   UNL     1      -4.659  -0.551   8.361  1.00  0.00     0.000 C 
BRANCH  16  17
ATOM     17  C   UNL     1      -3.152  -0.684   8.088  1.00  0.00     0.000 C 
BRANCH  17  18
ATOM     18  C   UNL     1      -2.850  -1.165   6.661  1.00  0.00     0.000 C 
BRANCH  18  19
ATOM     19  C   UNL     1      -3.186  -2.653   6.458  1.00  0.00     0.000 C 
BRANCH  19  20
ATOM     20  C   UNL     1      -3.915  -2.931   5.130  1.00  0.00     0.006 C 
BRANCH  20  21
ATOM     21  C   UNL     1      -4.995  -1.893   4.783  1.00  0.00     0.053 C 
BRANCH  21  22
ATOM     22  C   UNL     1      -5.830  -2.297   3.607  1.00  0.00     0.041 C 
ATOM     23  O   UNL     1      -7.069  -2.069   3.598  1.00  0.00    -0.550 OA
ATOM     24  O   UNL     1      -5.247  -2.959   2.533  1.00  0.00    -0.550 OA
ENDBRANCH  21  22
ENDBRANCH  20  21
ENDBRANCH  19  20
ENDBRANCH  18  19
ENDBRANCH  17  18
ENDBRANCH  16  17
ENDBRANCH  15  16
ENDBRANCH  14  15
ENDBRANCH  13  14
ENDBRANCH   1  13
TORSDOF 20
ENDMDL
MODEL 3
REMARK VINA RESULT:    -2.970      1.329      3.061
REMARK INTER + INTRA:          -9.783
REMARK INTER:                  -6.120
REMARK INTRA:                  -3.664
REMARK UNBOUND:                -3.341
REMARK SMILES CCCCCCCCCCCCCCCCCCCCCC(=O)[O-]
REMARK SMILES IDX 12 1 11 2 10 3 9 4 8 5 7 6 6 7 5 8 4 9 3 10 2 11 1 12 13 13
REMARK SMILES IDX 14 14 15 15 16 16 17 17 18 18 19 19 20 20 21 21 22 22 23 23
REMARK SMILES IDX 24 24
REMARK H PARENT
REMARK Flexibility Score: inf
ROOT
ATOM      1  C   UNL     1      -2.545   1.433   8.986  1.00  0.00     0.000 C 
ENDROOT
BRANCH   1   2
ATOM      2  C   UNL     1      -2.752   2.759   8.231  1.00  0.00     0.000 C 
BRANCH   2   3
ATOM      3  C   UNL     1      -1.936   2.837   6.930  1.00  0.00     0.000 C 
BRANCH   3   4
ATOM      4  C   UNL     1      -1.285   1.495   6.548  1.00  0.00    -0.000 C 
BRANCH   4   5
ATOM      5  C   UNL     1       0.235   1.549   6.284  1.00  0.00    -0.000 C 
BRANCH   5   6
ATOM      6  C   UNL     1       1.032   0.325   6.772  1.00  0.00    -0.000 C 
BRANCH   6   7
ATOM      7  C   UNL     1       0.721  -0.046   8.232  1.00  0.00    -0.000 C 
BRANCH   7   8
ATOM      8  C   UNL     1       0.251  -1.503   8.382  1.00  0.00    -0.000 C 
BRANCH   8   9
ATOM      9  C   UNL     1      -0.274  -2.094   7.064  1.00  0.00    -0.000 C 
BRANCH   9  10
ATOM     10  C   UNL     1      -1.810  -2.119   7.050  1.00  0.00    -0.000 C 
BRANCH  10  11
ATOM     11  C   UNL     1      -2.403  -2.669   8.358  1.00  0.00    -0.003 C 
ATOM     12  C   UNL     1      -3.867  -3.087   8.213  1.00  0.00     0.004 C 
ENDBRANCH  10  11
ENDBRANCH   9  10
ENDBRANCH   8   9
ENDBRANCH   7   8
ENDBRANCH   6   7
ENDBRANCH   5   6
ENDBRANCH   4   5
ENDBRANCH   3   4
ENDBRANCH   2   3
ENDBRANCH   1   2
BRANCH   1  13
ATOM     13  C   UNL     1      -3.817   0.588   9.180  1.00  0.00     0.000 C 
BRANCH  13  14
ATOM     14  C   UNL     1      -5.014   1.111   8.368  1.00  0.00     0.000 C 
BRANCH  14  15
ATOM     15  C   UNL     1      -5.491   0.093   7.310  1.00  0.00     0.000 C 
BRANCH  15  16
ATOM     16  C   UNL     1      -4.675   0.134   6.006  1.00  0.00     0.000 C 
BRANCH  16  17
ATOM     17  C   UNL     1      -4.816   1.466   5.254  1.00  0.00     0.000 C 
BRANCH  17  18
ATOM     18  C   UNL     1      -5.527   1.309   3.901  1.00  0.00     0.000 C 
BRANCH  18  19
ATOM     19  C   UNL     1      -6.840   0.513   4.015  1.00  0.00     0.000 C 
BRANCH  19  20
ATOM     20  C   UNL     1      -7.083  -0.422   2.816  1.00  0.00     0.006 C 
BRANCH  20  21
ATOM     21  C   UNL     1      -5.794  -0.976   2.186  1.00  0.00     0.053 C 
BRANCH  21  22
ATOM     22  C   UNL     1      -5.448  -2.346   2.684  1.00  0.00     0.041 C 
ATOM     23  O   UNL     1      -4.650  -2.489   3.649  1.00  0.00    -0.550 OA
ATOM     24  O   UNL     1      -5.979  -3.468   2.061  1.00  0.00    -0.550 OA
ENDBRANCH  21  22
ENDBRANCH  20  21
ENDBRANCH  19  20
ENDBRANCH  18  19
ENDBRANCH  17  18
ENDBRANCH  16  17
ENDBRANCH  15  16
ENDBRANCH  14  15
ENDBRANCH  13  14
ENDBRANCH   1  13
TORSDOF 20
ENDMDL
MODEL 4
REMARK VINA RESULT:    -2.939      1.081      3.538
REMARK INTER + INTRA:          -9.717
REMARK INTER:                  -6.336
REMARK INTRA:                  -3.381
REMARK UNBOUND:                -3.341
REMARK SMILES CCCCCCCCCCCCCCCCCCCCCC(=O)[O-]
REMARK SMILES IDX 12 1 11 2 10 3 9 4 8 5 7 6 6 7 5 8 4 9 3 10 2 11 1 12 13 13
REMARK SMILES IDX 14 14 15 15 16 16 17 17 18 18 19 19 20 20 21 21 22 22 23 23
REMARK SMILES IDX 24 24
REMARK H PARENT
REMARK Flexibility Score: inf
ROOT
ATOM      1  C   UNL     1      -2.655  -2.326   6.292  1.00  0.00     0.000 C 
ENDROOT
BRANCH   1   2
ATOM      2  C   UNL     1      -2.024  -3.141   7.435  1.00  0.00     0.000 C 
BRANCH   2   3
ATOM      3  C   UNL     1      -0.623  -3.669   7.086  1.00  0.00     0.000 C 
BRANCH   3   4
ATOM      4  C   UNL     1       0.496  -2.989   7.897  1.00  0.00    -0.000 C 
BRANCH   4   5
ATOM      5  C   UNL     1       0.099  -1.668   8.590  1.00  0.00    -0.000 C 
BRANCH   5   6
ATOM      6  C   UNL     1       0.778  -0.402   8.035  1.00  0.00    -0.000 C 
BRANCH   6   7
ATOM      7  C   UNL     1       0.678  -0.294   6.504  1.00  0.00    -0.000 C 
BRANCH   7   8
ATOM      8  C   UNL     1       0.195   1.092   6.043  1.00  0.00    -0.000 C 
BRANCH   8   9
ATOM      9  C   UNL     1      -0.047   2.055   7.215  1.00  0.00    -0.000 C 
BRANCH   9  10
ATOM     10  C   UNL     1      -1.469   2.635   7.161  1.00  0.00    -0.000 C 
BRANCH  10  11
ATOM     11  C   UNL     1      -2.097   2.792   8.555  1.00  0.00    -0.003 C 
ATOM     12  C   UNL     1      -2.153   1.475   9.330  1.00  0.00     0.004 C 
ENDBRANCH  10  11
ENDBRANCH   9  10
ENDBRANCH   8   9
ENDBRANCH   7   8
ENDBRANCH   6   7
ENDBRANCH   5   6
ENDBRANCH   4   5
ENDBRANCH   3   4
ENDBRANCH   2   3
ENDBRANCH   1   2
BRANCH   1  13
ATOM     13  C   UNL     1      -3.144  -0.919   6.686  1.00  0.00     0.000 C 
BRANCH  13  14
ATOM     14  C   UNL     1      -4.602  -0.907   7.177  1.00  0.00     0.000 C 
BRANCH  14  15
ATOM     15  C   UNL     1      -5.235   0.498   7.090  1.00  0.00     0.000 C 
BRANCH  15  16
ATOM     16  C   UNL     1      -4.573   1.406   6.038  1.00  0.00     0.000 C 
BRANCH  16  17
ATOM     17  C   UNL     1      -5.575   1.963   5.015  1.00  0.00     0.000 C 
BRANCH  17  18
ATOM     18  C   UNL     1      -5.501   1.241   3.661  1.00  0.00     0.000 C 
BRANCH  18  19
ATOM     19  C   UNL     1      -6.821   0.543   3.293  1.00  0.00     0.000 C 
BRANCH  19  20
ATOM     20  C   UNL     1      -6.627  -0.920   2.850  1.00  0.00     0.006 C 
BRANCH  20  21
ATOM     21  C   UNL     1      -5.467  -1.637   3.561  1.00  0.00     0.053 C 
BRANCH  21  22
ATOM     22  C   UNL     1      -5.474  -3.117   3.331  1.00  0.00     0.041 C 
ATOM     23  O   UNL     1      -5.935  -3.592   2.259  1.00  0.00    -0.550 OA
ATOM     24  O   UNL     1      -5.003  -3.977   4.316  1.00  0.00    -0.550 OA
ENDBRANCH  21  22
ENDBRANCH  20  21
ENDBRANCH  19  20
ENDBRANCH  18  19
ENDBRANCH  17  18
ENDBRANCH  16  17
ENDBRANCH  15  16
ENDBRANCH  14  15
ENDBRANCH  13  14
ENDBRANCH   1  13
TORSDOF 20
ENDMDL
MODEL 5
REMARK VINA RESULT:    -2.911      1.326      2.169
REMARK INTER + INTRA:          -9.655
REMARK INTER:                  -6.324
REMARK INTRA:                  -3.332
REMARK UNBOUND:                -3.341
REMARK SMILES CCCCCCCCCCCCCCCCCCCCCC(=O)[O-]
REMARK SMILES IDX 12 1 11 2 10 3 9 4 8 5 7 6 6 7 5 8 4 9 3 10 2 11 1 12 13 13
REMARK SMILES IDX 14 14 15 15 16 16 17 17 18 18 19 19 20 20 21 21 22 22 23 23
REMARK SMILES IDX 24 24
REMARK H PARENT
REMARK Flexibility Score: inf
ROOT
ATOM      1  C   UNL     1      -0.599   2.295   7.289  1.00  0.00     0.000 C 
ENDROOT
BRANCH   1   2
ATOM      2  C   UNL     1      -0.214   1.446   6.064  1.00  0.00     0.000 C 
BRANCH   2   3
ATOM      3  C   UNL     1       0.787   0.330   6.404  1.00  0.00     0.000 C 
BRANCH   3   4
ATOM      4  C   UNL     1       1.198   0.324   7.888  1.00  0.00    -0.000 C 
BRANCH   4   5
ATOM      5  C   UNL     1       0.774  -0.927   8.686  1.00  0.00    -0.000 C 
BRANCH   5   6
ATOM      6  C   UNL     1      -0.587  -1.531   8.292  1.00  0.00    -0.000 C 
BRANCH   6   7
ATOM      7  C   UNL     1      -1.767  -0.870   9.024  1.00  0.00    -0.000 C 
BRANCH   7   8
ATOM      8  C   UNL     1      -3.068  -0.917   8.205  1.00  0.00    -0.000 C 
BRANCH   8   9
ATOM      9  C   UNL     1      -2.813  -1.026   6.694  1.00  0.00    -0.000 C 
BRANCH   9  10
ATOM     10  C   UNL     1      -3.966  -1.766   5.999  1.00  0.00    -0.000 C 
BRANCH  10  11
ATOM     11  C   UNL     1      -3.544  -3.142   5.459  1.00  0.00    -0.003 C 
ATOM     12  C   UNL     1      -4.168  -4.300   6.238  1.00  0.00     0.004 C 
ENDBRANCH  10  11
ENDBRANCH   9  10
ENDBRANCH   8   9
ENDBRANCH   7   8
ENDBRANCH   6   7
ENDBRANCH   5   6
ENDBRANCH   4   5
ENDBRANCH   3   4
ENDBRANCH   2   3
ENDBRANCH   1   2
BRANCH   1  13
ATOM     13  C   UNL     1      -2.101   2.612   7.416  1.00  0.00     0.000 C 
BRANCH  13  14
ATOM     14  C   UNL     1      -2.854   2.496   6.079  1.00  0.00     0.000 C 
BRANCH  14  15
ATOM     15  C   UNL     1      -4.320   2.967   6.193  1.00  0.00     0.000 C 
BRANCH  15  16
ATOM     16  C   UNL     1      -5.345   1.860   5.892  1.00  0.00     0.000 C 
BRANCH  16  17
ATOM     17  C   UNL     1      -6.536   2.358   5.059  1.00  0.00     0.000 C 
BRANCH  17  18
ATOM     18  C   UNL     1      -6.888   1.407   3.904  1.00  0.00     0.000 C 
BRANCH  18  19
ATOM     19  C   UNL     1      -5.718   0.482   3.526  1.00  0.00     0.000 C 
BRANCH  19  20
ATOM     20  C   UNL     1      -6.056  -0.474   2.367  1.00  0.00     0.006 C 
BRANCH  20  21
ATOM     21  C   UNL     1      -5.408  -1.863   2.495  1.00  0.00     0.053 C 
BRANCH  21  22
ATOM     22  C   UNL     1      -6.334  -2.881   3.088  1.00  0.00     0.041 C 
ATOM     23  O   UNL     1      -7.421  -2.521   3.615  1.00  0.00    -0.550 OA
ATOM     24  O   UNL     1      -5.982  -4.225   3.090  1.00  0.00    -0.550 OA
ENDBRANCH  21  22
ENDBRANCH  20  21
ENDBRANCH  19  20
ENDBRANCH  18  19
ENDBRANCH  17  18
ENDBRANCH  16  17
ENDBRANCH  15  16
ENDBRANCH  14  15
ENDBRANCH  13  14
ENDBRANCH   1  13
TORSDOF 20
ENDMDL
MODEL 6
REMARK VINA RESULT:    -2.906      1.516      5.224
REMARK INTER + INTRA:          -9.645
REMARK INTER:                  -5.666
REMARK INTRA:                  -3.979
REMARK UNBOUND:                -3.341
REMARK SMILES CCCCCCCCCCCCCCCCCCCCCC(=O)[O-]
REMARK SMILES IDX 12 1 11 2 10 3 9 4 8 5 7 6 6 7 5 8 4 9 3 10 2 11 1 12 13 13
REMARK SMILES IDX 14 14 15 15 16 16 17 17 18 18 19 19 20 20 21 21 22 22 23 23
REMARK SMILES IDX 24 24
REMARK H PARENT
REMARK Flexibility Score: inf
ROOT
ATOM      1  C   UNL     1      -1.399   1.284   6.578  1.00  0.00     0.000 C 
ENDROOT
BRANCH   1   2
ATOM      2  C   UNL     1      -1.766   2.714   7.014  1.00  0.00     0.000 C 
BRANCH   2   3
ATOM      3  C   UNL     1      -2.014   2.830   8.527  1.00  0.00     0.000 C 
BRANCH   3   4
ATOM      4  C   UNL     1      -2.624   1.554   9.135  1.00  0.00    -0.000 C 
BRANCH   4   5
ATOM      5  C   UNL     1      -4.122   1.645   9.496  1.00  0.00    -0.000 C 
BRANCH   5   6
ATOM      6  C   UNL     1      -5.001   0.503   8.954  1.00  0.00    -0.000 C 
BRANCH   6   7
ATOM      7  C   UNL     1      -5.538   0.783   7.540  1.00  0.00    -0.000 C 
BRANCH   7   8
ATOM      8  C   UNL     1      -5.782   2.281   7.289  1.00  0.00    -0.000 C 
BRANCH   8   9
ATOM      9  C   UNL     1      -5.131   2.778   5.990  1.00  0.00    -0.000 C 
BRANCH   9  10
ATOM     10  C   UNL     1      -4.868   1.608   5.029  1.00  0.00    -0.000 C 
BRANCH  10  11
ATOM     11  C   UNL     1      -6.003   1.413   4.011  1.00  0.00    -0.003 C 
ATOM     12  C   UNL     1      -5.825   0.156   3.159  1.00  0.00     0.004 C 
ENDBRANCH  10  11
ENDBRANCH   9  10
ENDBRANCH   8   9
ENDBRANCH   7   8
ENDBRANCH   6   7
ENDBRANCH   5   6
ENDBRANCH   4   5
ENDBRANCH   3   4
ENDBRANCH   2   3
ENDBRANCH   1   2
BRANCH   1  13
ATOM     13  C   UNL     1       0.024   1.118   6.013  1.00  0.00     0.000 C 
BRANCH  13  14
ATOM     14  C   UNL     1       0.769  -0.087   6.611  1.00  0.00     0.000 C 
BRANCH  14  15
ATOM     15  C   UNL     1       0.476  -0.267   8.116  1.00  0.00     0.000 C 
BRANCH  15  16
ATOM     16  C   UNL     1      -0.281  -1.566   8.444  1.00  0.00     0.000 C 
BRANCH  16  17
ATOM     17  C   UNL     1      -0.075  -2.661   7.385  1.00  0.00     0.000 C 
BRANCH  17  18
ATOM     18  C   UNL     1      -1.401  -3.194   6.821  1.00  0.00     0.000 C 
BRANCH  18  19
ATOM     19  C   UNL     1      -2.608  -2.342   7.249  1.00  0.00     0.000 C 
BRANCH  19  20
ATOM     20  C   UNL     1      -3.377  -1.743   6.056  1.00  0.00     0.006 C 
BRANCH  20  21
ATOM     21  C   UNL     1      -4.772  -2.354   5.844  1.00  0.00     0.053 C 
BRANCH  21  22
ATOM     22  C   UNL     1      -4.748  -3.561   4.956  1.00  0.00     0.041 C 
ATOM     23  O   UNL     1      -5.019  -3.453   3.730  1.00  0.00    -0.550 OA
ATOM     24  O   UNL     1      -4.460  -4.811   5.488  1.00  0.00    -0.550 OA
ENDBRANCH  21  22
ENDBRANCH  20  21
ENDBRANCH  19  20
ENDBRANCH  18  19
ENDBRANCH  17  18
ENDBRANCH  16  17
ENDBRANCH  15  16
ENDBRANCH  14  15
ENDBRANCH  13  14
ENDBRANCH   1  13
TORSDOF 20
ENDMDL
MODEL 7
REMARK VINA RESULT:    -2.903      1.708      5.003
REMARK INTER + INTRA:          -9.638
REMARK INTER:                  -5.563
REMARK INTRA:                  -4.075
REMARK UNBOUND:                -3.341
REMARK SMILES CCCCCCCCCCCCCCCCCCCCCC(=O)[O-]
REMARK SMILES IDX 12 1 11 2 10 3 9 4 8 5 7 6 6 7 5 8 4 9 3 10 2 11 1 12 13 13
REMARK SMILES IDX 14 14 15 15 16 16 17 17 18 18 19 19 20 20 21 21 22 22 23 23
REMARK SMILES IDX 24 24
REMARK H PARENT
REMARK Flexibility Score: inf
ROOT
ATOM      1  C   UNL     1      -0.623   2.485   7.475  1.00  0.00     0.000 C 
ENDROOT
BRANCH   1   2
ATOM      2  C   UNL     1      -0.157   2.239   8.921  1.00  0.00     0.000 C 
BRANCH   2   3
ATOM      3  C   UNL     1      -1.236   1.570   9.788  1.00  0.00     0.000 C 
BRANCH   3   4
ATOM      4  C   UNL     1      -2.666   1.851   9.290  1.00  0.00    -0.000 C 
BRANCH   4   5
ATOM      5  C   UNL     1      -3.504   0.601   8.948  1.00  0.00    -0.000 C 
BRANCH   5   6
ATOM      6  C   UNL     1      -4.511   0.778   7.796  1.00  0.00    -0.000 C 
BRANCH   6   7
ATOM      7  C   UNL     1      -3.857   0.666   6.408  1.00  0.00    -0.000 C 
BRANCH   7   8
ATOM      8  C   UNL     1      -3.842   2.006   5.655  1.00  0.00    -0.000 C 
BRANCH   8   9
ATOM      9  C   UNL     1      -4.615   3.109   6.393  1.00  0.00    -0.000 C 
BRANCH   9  10
ATOM     10  C   UNL     1      -3.726   4.342   6.618  1.00  0.00    -0.000 C 
BRANCH  10  11
ATOM     11  C   UNL     1      -4.010   5.038   7.959  1.00  0.00    -0.003 C 
ATOM     12  C   UNL     1      -5.231   4.462   8.677  1.00  0.00     0.004 C 
ENDBRANCH  10  11
ENDBRANCH   9  10
ENDBRANCH   8   9
ENDBRANCH   7   8
ENDBRANCH   6   7
ENDBRANCH   5   6
ENDBRANCH   4   5
ENDBRANCH   3   4
ENDBRANCH   2   3
ENDBRANCH   1   2
BRANCH   1  13
ATOM     13  C   UNL     1      -0.099   1.472   6.440  1.00  0.00     0.000 C 
BRANCH  13  14
ATOM     14  C   UNL     1       1.072   0.626   6.969  1.00  0.00     0.000 C 
BRANCH  14  15
ATOM     15  C   UNL     1       0.644  -0.820   7.300  1.00  0.00     0.000 C 
BRANCH  15  16
ATOM     16  C   UNL     1      -0.853  -1.085   7.067  1.00  0.00     0.000 C 
BRANCH  16  17
ATOM     17  C   UNL     1      -1.356  -2.345   7.788  1.00  0.00     0.000 C 
BRANCH  17  18
ATOM     18  C   UNL     1      -2.332  -3.167   6.932  1.00  0.00     0.000 C 
BRANCH  18  19
ATOM     19  C   UNL     1      -3.771  -3.125   7.476  1.00  0.00     0.000 C 
BRANCH  19  20
ATOM     20  C   UNL     1      -4.821  -2.858   6.381  1.00  0.00     0.006 C 
BRANCH  20  21
ATOM     21  C   UNL     1      -4.302  -3.085   4.951  1.00  0.00     0.053 C 
BRANCH  21  22
ATOM     22  C   UNL     1      -5.073  -2.311   3.926  1.00  0.00     0.041 C 
ATOM     23  O   UNL     1      -6.001  -1.536   4.280  1.00  0.00    -0.550 OA
ATOM     24  O   UNL     1      -4.792  -2.473   2.575  1.00  0.00    -0.550 OA
ENDBRANCH  21  22
ENDBRANCH  20  21
ENDBRANCH  19  20
ENDBRANCH  18  19
ENDBRANCH  17  18
ENDBRANCH  16  17
ENDBRANCH  15  16
ENDBRANCH  14  15
ENDBRANCH  13  14
ENDBRANCH   1  13
TORSDOF 20
ENDMDL
MODEL 8
REMARK VINA RESULT:    -2.900      1.304      4.282
REMARK INTER + INTRA:          -9.632
REMARK INTER:                  -6.402
REMARK INTRA:                  -3.230
REMARK UNBOUND:                -3.341
REMARK SMILES CCCCCCCCCCCCCCCCCCCCCC(=O)[O-]
REMARK SMILES IDX 12 1 11 2 10 3 9 4 8 5 7 6 6 7 5 8 4 9 3 10 2 11 1 12 13 13
REMARK SMILES IDX 14 14 15 15 16 16 17 17 18 18 19 19 20 20 21 21 22 22 23 23
REMARK SMILES IDX 24 24
REMARK H PARENT
REMARK Flexibility Score: inf
ROOT
ATOM      1  C   UNL     1      -0.409  -3.721   7.086  1.00  0.00     0.000 C 
ENDROOT
BRANCH   1   2
ATOM      2  C   UNL     1       0.794  -4.105   7.968  1.00  0.00     0.000 C 
BRANCH   2   3
ATOM      3  C   UNL     1       1.414  -2.895   8.687  1.00  0.00     0.000 C 
BRANCH   3   4
ATOM      4  C   UNL     1       0.449  -1.700   8.795  1.00  0.00    -0.000 C 
BRANCH   4   5
ATOM      5  C   UNL     1       0.934  -0.397   8.127  1.00  0.00    -0.000 C 
BRANCH   5   6
ATOM      6  C   UNL     1       0.443  -0.173   6.684  1.00  0.00    -0.000 C 
BRANCH   6   7
ATOM      7  C   UNL     1       0.397   1.314   6.293  1.00  0.00    -0.000 C 
BRANCH   7   8
ATOM      8  C   UNL     1       0.038   2.224   7.480  1.00  0.00    -0.000 C 
BRANCH   8   9
ATOM      9  C   UNL     1      -1.475   2.292   7.738  1.00  0.00    -0.000 C 
BRANCH   9  10
ATOM     10  C   UNL     1      -2.242   2.523   6.427  1.00  0.00    -0.000 C 
BRANCH  10  11
ATOM     11  C   UNL     1      -3.467   3.433   6.612  1.00  0.00    -0.003 C 
ATOM     12  C   UNL     1      -3.472   4.150   7.962  1.00  0.00     0.004 C 
ENDBRANCH  10  11
ENDBRANCH   9  10
ENDBRANCH   8   9
ENDBRANCH   7   8
ENDBRANCH   6   7
ENDBRANCH   5   6
ENDBRANCH   4   5
ENDBRANCH   3   4
ENDBRANCH   2   3
ENDBRANCH   1   2
BRANCH   1  13
ATOM     13  C   UNL     1      -1.716  -4.469   7.406  1.00  0.00     0.000 C 
BRANCH  13  14
ATOM     14  C   UNL     1      -2.970  -3.606   7.182  1.00  0.00     0.000 C 
BRANCH  14  15
ATOM     15  C   UNL     1      -3.048  -2.423   8.172  1.00  0.00     0.000 C 
BRANCH  15  16
ATOM     16  C   UNL     1      -3.151  -1.051   7.482  1.00  0.00     0.000 C 
BRANCH  16  17
ATOM     17  C   UNL     1      -4.244  -0.158   8.088  1.00  0.00     0.000 C 
BRANCH  17  18
ATOM     18  C   UNL     1      -5.390   0.124   7.104  1.00  0.00     0.000 C 
BRANCH  18  19
ATOM     19  C   UNL     1      -4.919   0.132   5.639  1.00  0.00     0.000 C 
BRANCH  19  20
ATOM     20  C   UNL     1      -5.774  -0.766   4.726  1.00  0.00     0.006 C 
BRANCH  20  21
ATOM     21  C   UNL     1      -5.508  -2.270   4.907  1.00  0.00     0.053 C 
BRANCH  21  22
ATOM     22  C   UNL     1      -5.342  -2.990   3.604  1.00  0.00     0.041 C 
ATOM     23  O   UNL     1      -4.821  -2.405   2.617  1.00  0.00    -0.550 OA
ATOM     24  O   UNL     1      -5.795  -4.297   3.467  1.00  0.00    -0.550 OA
ENDBRANCH  21  22
ENDBRANCH  20  21
ENDBRANCH  19  20
ENDBRANCH  18  19
ENDBRANCH  17  18
ENDBRANCH  16  17
ENDBRANCH  15  16
ENDBRANCH  14  15
ENDBRANCH  13  14
ENDBRANCH   1  13
TORSDOF 20
ENDMDL
MODEL 9
REMARK VINA RESULT:    -2.886      1.368      2.708
REMARK INTER + INTRA:          -9.601
REMARK INTER:                  -5.823
REMARK INTRA:                  -3.778
REMARK UNBOUND:                -3.341
REMARK SMILES CCCCCCCCCCCCCCCCCCCCCC(=O)[O-]
REMARK SMILES IDX 12 1 11 2 10 3 9 4 8 5 7 6 6 7 5 8 4 9 3 10 2 11 1 12 13 13
REMARK SMILES IDX 14 14 15 15 16 16 17 17 18 18 19 19 20 20 21 21 22 22 23 23
REMARK SMILES IDX 24 24
REMARK H PARENT
REMARK Flexibility Score: inf
ROOT
ATOM      1  C   UNL     1       0.883   0.196   6.789  1.00  0.00     0.000 C 
ENDROOT
BRANCH   1   2
ATOM      2  C   UNL     1       1.052   0.249   8.319  1.00  0.00     0.000 C 
BRANCH   2   3
ATOM      3  C   UNL     1       1.024  -1.143   8.970  1.00  0.00     0.000 C 
BRANCH   3   4
ATOM      4  C   UNL     1      -0.218  -1.369   9.852  1.00  0.00    -0.000 C 
BRANCH   4   5
ATOM      5  C   UNL     1      -1.422  -0.454   9.545  1.00  0.00    -0.000 C 
BRANCH   5   6
ATOM      6  C   UNL     1      -2.611  -1.141   8.847  1.00  0.00    -0.000 C 
BRANCH   6   7
ATOM      7  C   UNL     1      -2.339  -1.444   7.364  1.00  0.00    -0.000 C 
BRANCH   7   8
ATOM      8  C   UNL     1      -2.186  -2.950   7.089  1.00  0.00    -0.000 C 
BRANCH   8   9
ATOM      9  C   UNL     1      -0.770  -3.327   6.628  1.00  0.00    -0.000 C 
BRANCH   9  10
ATOM     10  C   UNL     1      -0.175  -4.419   7.529  1.00  0.00    -0.000 C 
BRANCH  10  11
ATOM     11  C   UNL     1      -1.243  -5.138   8.370  1.00  0.00    -0.003 C 
ATOM     12  C   UNL     1      -1.553  -6.544   7.855  1.00  0.00     0.004 C 
ENDBRANCH  10  11
ENDBRANCH   9  10
ENDBRANCH   8   9
ENDBRANCH   7   8
ENDBRANCH   6   7
ENDBRANCH   5   6
ENDBRANCH   4   5
ENDBRANCH   3   4
ENDBRANCH   2   3
ENDBRANCH   1   2
BRANCH   1  13
ATOM     13  C   UNL     1      -0.133   1.198   6.210  1.00  0.00     0.000 C 
BRANCH  13  14
ATOM     14  C   UNL     1      -0.491   2.325   7.195  1.00  0.00     0.000 C 
BRANCH  14  15
ATOM     15  C   UNL     1      -2.018   2.499   7.350  1.00  0.00     0.000 C 
BRANCH  15  16
ATOM     16  C   UNL     1      -2.820   1.991   6.140  1.00  0.00     0.000 C 
BRANCH  16  17
ATOM     17  C   UNL     1      -4.149   2.738   5.948  1.00  0.00     0.000 C 
BRANCH  17  18
ATOM     18  C   UNL     1      -5.323   1.790   5.655  1.00  0.00     0.000 C 
BRANCH  18  19
ATOM     19  C   UNL     1      -4.904   0.310   5.676  1.00  0.00     0.000 C 
BRANCH  19  20
ATOM     20  C   UNL     1      -6.092  -0.650   5.874  1.00  0.00     0.006 C 
BRANCH  20  21
ATOM     21  C   UNL     1      -5.690  -2.133   5.938  1.00  0.00     0.053 C 
BRANCH  21  22
ATOM     22  C   UNL     1      -5.414  -2.717   4.586  1.00  0.00     0.041 C 
ATOM     23  O   UNL     1      -6.365  -3.084   3.847  1.00  0.00    -0.550 OA
ATOM     24  O   UNL     1      -4.104  -2.889   4.156  1.00  0.00    -0.550 OA
ENDBRANCH  21  22
ENDBRANCH  20  21
ENDBRANCH  19  20
ENDBRANCH  18  19
ENDBRANCH  17  18
ENDBRANCH  16  17
ENDBRANCH  15  16
ENDBRANCH  14  15
ENDBRANCH  13  14
ENDBRANCH   1  13
TORSDOF 20
ENDMDL
