MODEL 1
REMARK VINA RESULT:    -1.878      0.000      0.000
REMARK INTER + INTRA:          -2.128
REMARK INTER:                  -2.098
REMARK INTRA:                  -0.030
REMARK UNBOUND:                -0.030
REMARK SMILES CCCC(=O)[O-]
REMARK SMILES IDX 3 1 4 2 5 3 6 4 2 5 1 6
REMARK H PARENT
REMARK Flexibility Score: inf
ROOT
ATOM      1  C   UNL     1       0.478   5.064  -7.062  1.00  0.00     0.052 C 
ENDROOT
BRANCH   1   2
ATOM      2  C   UNL     1       0.229   6.204  -6.126  1.00  0.00     0.041 C 
ATOM      3  O   UNL     1      -0.871   6.815  -6.149  1.00  0.00    -0.550 OA
ATOM      4  O   UNL     1       1.195   6.562  -5.194  1.00  0.00    -0.550 OA
ENDBRANCH   1   2
BRANCH   1   5
ATOM      5  C   UNL     1      -0.804   4.254  -7.273  1.00  0.00     0.003 C 
ATOM      6  C   UNL     1      -0.738   2.917  -6.540  1.00  0.00     0.004 C 
ENDBRANCH   1   5
TORSDOF 2
ENDMDL
MODEL 2
REMARK VINA RESULT:    -1.859      7.863      8.663
REMARK INTER + INTRA:          -2.106
REMARK INTER:                  -2.100
REMARK INTRA:                  -0.006
REMARK UNBOUND:                -0.030
REMARK SMILES CCCC(=O)[O-]
REMARK SMILES IDX 3 1 4 2 5 3 6 4 2 5 1 6
REMARK H PARENT
REMARK Flexibility Score: inf
ROOT
ATOM      1  C   UNL     1       0.476  13.921  -5.279  1.00  0.00     0.052 C 
ENDROOT
BRANCH   1   2
ATOM      2  C   UNL     1       0.396  13.117  -6.539  1.00  0.00     0.041 C 
ATOM      3  O   UNL     1       1.332  12.337  -6.854  1.00  0.00    -0.550 OA
ATOM      4  O   UNL     1      -0.737  13.192  -7.340  1.00  0.00    -0.550 OA
ENDBRANCH   1   2
BRANCH   1   5
ATOM      5  C   UNL     1      -0.445  13.331  -4.208  1.00  0.00     0.003 C 
ATOM      6  C   UNL     1      -0.493  14.225  -2.971  1.00  0.00     0.004 C 
ENDBRANCH   1   5
TORSDOF 2
ENDMDL
MODEL 3
REMARK VINA RESULT:    -1.838      7.283      8.227
REMARK INTER + INTRA:          -2.083
REMARK INTER:                  -2.066
REMARK INTRA:                  -0.016
REMARK UNBOUND:                -0.030
REMARK SMILES CCCC(=O)[O-]
REMARK SMILES IDX 3 1 4 2 5 3 6 4 2 5 1 6
REMARK H PARENT
REMARK Flexibility Score: inf
ROOT
ATOM      1  C   UNL     1      -1.583  11.872 -10.186  1.00  0.00     0.052 C 
ENDROOT
BRANCH   1   2
ATOM      2  C   UNL     1      -1.365  11.788  -8.708  1.00  0.00     0.041 C 
ATOM      3  O   UNL     1      -1.440  10.678  -8.119  1.00  0.00    -0.550 OA
ATOM      4  O   UNL     1      -1.031  12.928  -7.988  1.00  0.00    -0.550 OA
ENDBRANCH   1   2
BRANCH   1   5
ATOM      5  C   UNL     1      -1.939  13.305 -10.593  1.00  0.00     0.003 C 
ATOM      6  C   UNL     1      -3.203  13.337 -11.448  1.00  0.00     0.004 C 
ENDBRANCH   1   5
TORSDOF 2
ENDMDL
MODEL 4
REMARK VINA RESULT:    -1.830      6.333      7.087
REMARK INTER + INTRA:          -2.074
REMARK INTER:                  -2.025
REMARK INTRA:                  -0.049
REMARK UNBOUND:                -0.030
REMARK SMILES CCCC(=O)[O-]
REMARK SMILES IDX 3 1 4 2 5 3 6 4 2 5 1 6
REMARK H PARENT
REMARK Flexibility Score: inf
ROOT
ATOM      1  C   UNL     1      -0.788  11.082  -9.078  1.00  0.00     0.052 C 
ENDROOT
BRANCH   1   2
ATOM      2  C   UNL     1      -1.127  12.510  -8.786  1.00  0.00     0.041 C 
ATOM      3  O   UNL     1      -0.815  13.022  -7.679  1.00  0.00    -0.550 OA
ATOM      4  O   UNL     1      -1.744  13.290  -9.756  1.00  0.00    -0.550 OA
ENDBRANCH   1   2
BRANCH   1   5
ATOM      5  C   UNL     1      -1.669  10.143  -8.248  1.00  0.00     0.003 C 
ATOM      6  C   UNL     1      -2.978   9.836  -8.970  1.00  0.00     0.004 C 
ENDBRANCH   1   5
TORSDOF 2
ENDMDL
MODEL 5
REMARK VINA RESULT:    -1.818      8.809      9.418
REMARK INTER + INTRA:          -2.061
REMARK INTER:                  -2.048
REMARK INTRA:                  -0.013
REMARK UNBOUND:                -0.030
REMARK SMILES CCCC(=O)[O-]
REMARK SMILES IDX 3 1 4 2 5 3 6 4 2 5 1 6
REMARK H PARENT
REMARK Flexibility Score: inf
ROOT
ATOM      1  C   UNL     1      -1.287  13.571 -11.102  1.00  0.00     0.052 C 
ENDROOT
BRANCH   1   2
ATOM      2  C   UNL     1      -0.667  13.509  -9.742  1.00  0.00     0.041 C 
ATOM      3  O   UNL     1      -1.270  12.936  -8.796  1.00  0.00    -0.550 OA
ATOM      4  O   UNL     1       0.598  14.042  -9.530  1.00  0.00    -0.550 OA
ENDBRANCH   1   2
BRANCH   1   5
ATOM      5  C   UNL     1      -2.760  13.156 -11.039  1.00  0.00     0.003 C 
ATOM      6  C   UNL     1      -3.531  13.677 -12.248  1.00  0.00     0.004 C 
ENDBRANCH   1   5
TORSDOF 2
ENDMDL
MODEL 6
REMARK VINA RESULT:    -1.756      7.373      8.202
REMARK INTER + INTRA:          -1.991
REMARK INTER:                  -1.980
REMARK INTRA:                  -0.012
REMARK UNBOUND:                -0.030
REMARK SMILES CCCC(=O)[O-]
REMARK SMILES IDX 3 1 4 2 5 3 6 4 2 5 1 6
REMARK H PARENT
REMARK Flexibility Score: inf
ROOT
ATOM      1  C   UNL     1       0.289  13.242  -7.331  1.00  0.00     0.052 C 
ENDROOT
BRANCH   1   2
ATOM      2  C   UNL     1      -0.686  12.520  -8.206  1.00  0.00     0.041 C 
ATOM      3  O   UNL     1      -0.961  11.312  -7.986  1.00  0.00    -0.550 OA
ATOM      4  O   UNL     1      -1.327  13.196  -9.237  1.00  0.00    -0.550 OA
ENDBRANCH   1   2
BRANCH   1   5
ATOM      5  C   UNL     1      -0.228  13.304  -5.891  1.00  0.00     0.003 C 
ATOM      6  C   UNL     1       0.919  13.486  -4.901  1.00  0.00     0.004 C 
ENDBRANCH   1   5
TORSDOF 2
ENDMDL
MODEL 7
REMARK VINA RESULT:    -1.670      7.969      8.649
REMARK INTER + INTRA:          -1.895
REMARK INTER:                  -1.841
REMARK INTRA:                  -0.053
REMARK UNBOUND:                -0.030
REMARK SMILES CCCC(=O)[O-]
REMARK SMILES IDX 3 1 4 2 5 3 6 4 2 5 1 6
REMARK H PARENT
REMARK Flexibility Score: inf
ROOT
ATOM      1  C   UNL     1       0.292  12.425  -8.854  1.00  0.00     0.052 C 
ENDROOT
BRANCH   1   2
ATOM      2  C   UNL     1      -0.394  13.416  -9.740  1.00  0.00     0.041 C 
ATOM      3  O   UNL     1       0.282  14.218 -10.437  1.00  0.00    -0.550 OA
ATOM      4  O   UNL     1      -1.780  13.423  -9.833  1.00  0.00    -0.550 OA
ENDBRANCH   1   2
BRANCH   1   5
ATOM      5  C   UNL     1      -0.465  12.275  -7.532  1.00  0.00     0.003 C 
ATOM      6  C   UNL     1      -0.054  13.356  -6.536  1.00  0.00     0.004 C 
ENDBRANCH   1   5
TORSDOF 2
ENDMDL
MODEL 8
REMARK VINA RESULT:    -1.586      7.805      8.608
REMARK INTER + INTRA:          -1.802
REMARK INTER:                  -1.735
REMARK INTRA:                  -0.067
REMARK UNBOUND:                -0.030
REMARK SMILES CCCC(=O)[O-]
REMARK SMILES IDX 3 1 4 2 5 3 6 4 2 5 1 6
REMARK H PARENT
REMARK Flexibility Score: inf
ROOT
ATOM      1  C   UNL     1       0.903  12.391  -8.711  1.00  0.00     0.052 C 
ENDROOT
BRANCH   1   2
ATOM      2  C   UNL     1      -0.429  12.850  -8.207  1.00  0.00     0.041 C 
ATOM      3  O   UNL     1      -1.449  12.756  -8.938  1.00  0.00    -0.550 OA
ATOM      4  O   UNL     1      -0.551  13.339  -6.913  1.00  0.00    -0.550 OA
ENDBRANCH   1   2
BRANCH   1   5
ATOM      5  C   UNL     1       1.299  13.173  -9.967  1.00  0.00     0.003 C 
ATOM      6  C   UNL     1       1.430  14.664  -9.668  1.00  0.00     0.004 C 
ENDBRANCH   1   5
TORSDOF 2
ENDMDL
MODEL 9
REMARK VINA RESULT:    -1.556      8.396      9.036
REMARK INTER + INTRA:          -1.767
REMARK INTER:                  -1.699
REMARK INTRA:                  -0.069
REMARK UNBOUND:                -0.030
REMARK SMILES CCCC(=O)[O-]
REMARK SMILES IDX 3 1 4 2 5 3 6 4 2 5 1 6
REMARK H PARENT
REMARK Flexibility Score: inf
ROOT
ATOM      1  C   UNL     1      -0.283  13.310  -3.634  1.00  0.00     0.052 C 
ENDROOT
BRANCH   1   2
ATOM      2  C   UNL     1       0.842  12.979  -2.705  1.00  0.00     0.041 C 
ATOM      3  O   UNL     1       1.669  12.079  -3.006  1.00  0.00    -0.550 OA
ATOM      4  O   UNL     1       1.004  13.697  -1.527  1.00  0.00    -0.550 OA
ENDBRANCH   1   2
BRANCH   1   5
ATOM      5  C   UNL     1       0.252  13.608  -5.037  1.00  0.00     0.003 C 
ATOM      6  C   UNL     1       1.017  14.929  -5.065  1.00  0.00     0.004 C 
ENDBRANCH   1   5
TORSDOF 2
ENDMDL
