MODEL 1
REMARK VINA RESULT:    -1.978      0.000      0.000
REMARK INTER + INTRA:          -1.978
REMARK INTER:                  -1.978
REMARK INTRA:                   0.000
REMARK UNBOUND:                 0.000
REMARK SMILES CC(=O)[O-]
REMARK SMILES IDX 1 1 2 2 3 3 4 4
REMARK H PARENT
REMARK Flexibility Score: inf
ROOT
ATOM      1  C   UNL     1      -4.878   0.293  -1.656  1.00  0.00     0.063 C 
ATOM      2  C   UNL     1      -4.451  -0.781  -0.715  1.00  0.00     0.038 C 
ATOM      3  O   UNL     1      -4.234  -1.946  -1.142  1.00  0.00    -0.550 OA
ATOM      4  O   UNL     1      -4.343  -0.515   0.644  1.00  0.00    -0.550 OA
ENDROOT
TORSDOF 0
ENDMDL
MODEL 2
REMARK VINA RESULT:    -1.970      1.649      1.978
REMARK INTER + INTRA:          -1.970
REMARK INTER:                  -1.970
REMARK INTRA:                   0.000
REMARK UNBOUND:                 0.000
REMARK SMILES CC(=O)[O-]
REMARK SMILES IDX 1 1 2 2 3 3 4 4
REMARK H PARENT
REMARK Flexibility Score: inf
ROOT
ATOM      1  C   UNL     1      -4.391  -1.861  -1.443  1.00  0.00     0.063 C 
ATOM      2  C   UNL     1      -4.762  -1.489  -0.048  1.00  0.00     0.038 C 
ATOM      3  O   UNL     1      -4.294  -0.442   0.472  1.00  0.00    -0.550 OA
ATOM      4  O   UNL     1      -5.581  -2.324   0.701  1.00  0.00    -0.550 OA
ENDROOT
TORSDOF 0
ENDMDL
MODEL 3
REMARK VINA RESULT:    -1.963      9.887     10.112
REMARK INTER + INTRA:          -1.963
REMARK INTER:                  -1.963
REMARK INTRA:                   0.000
REMARK UNBOUND:                 0.000
REMARK SMILES CC(=O)[O-]
REMARK SMILES IDX 1 1 2 2 3 3 4 4
REMARK H PARENT
REMARK Flexibility Score: inf
ROOT
ATOM      1  C   UNL     1       5.960  -2.323  -2.289  1.00  0.00     0.063 C 
ATOM      2  C   UNL     1       5.368  -1.095  -1.688  1.00  0.00     0.038 C 
ATOM      3  O   UNL     1       5.110  -1.055  -0.456  1.00  0.00    -0.550 OA
ATOM      4  O   UNL     1       5.048  -0.010  -2.495  1.00  0.00    -0.550 OA
ENDROOT
TORSDOF 0
ENDMDL
MODEL 4
REMARK VINA RESULT:    -1.891     10.208     10.378
REMARK INTER + INTRA:          -1.891
REMARK INTER:                  -1.891
REMARK INTRA:                   0.000
REMARK UNBOUND:                 0.000
REMARK SMILES CC(=O)[O-]
REMARK SMILES IDX 1 1 2 2 3 3 4 4
REMARK H PARENT
REMARK Flexibility Score: inf
ROOT
ATOM      1  C   UNL     1       5.226  -1.281  -0.614  1.00  0.00     0.063 C 
ATOM      2  C   UNL     1       5.668  -0.296  -1.642  1.00  0.00     0.038 C 
ATOM      3  O   UNL     1       4.972  -0.105  -2.674  1.00  0.00    -0.550 OA
ATOM      4  O   UNL     1       6.876   0.373  -1.492  1.00  0.00    -0.550 OA
ENDROOT
TORSDOF 0
ENDMDL
MODEL 5
REMARK VINA RESULT:    -1.827      7.994      8.317
REMARK INTER + INTRA:          -1.827
REMARK INTER:                  -1.827
REMARK INTRA:                   0.000
REMARK UNBOUND:                 0.000
REMARK SMILES CC(=O)[O-]
REMARK SMILES IDX 1 1 2 2 3 3 4 4
REMARK H PARENT
REMARK Flexibility Score: inf
ROOT
ATOM      1  C   UNL     1       0.745   5.641   0.076  1.00  0.00     0.063 C 
ATOM      2  C   UNL     1       0.664   5.314   1.528  1.00  0.00     0.038 C 
ATOM      3  O   UNL     1       1.715   5.103   2.188  1.00  0.00    -0.550 OA
ATOM      4  O   UNL     1      -0.574   5.186   2.145  1.00  0.00    -0.550 OA
ENDROOT
TORSDOF 0
ENDMDL
MODEL 6
REMARK VINA RESULT:    -1.827      7.702      7.861
REMARK INTER + INTRA:          -1.827
REMARK INTER:                  -1.827
REMARK INTRA:                   0.000
REMARK UNBOUND:                 0.000
REMARK SMILES CC(=O)[O-]
REMARK SMILES IDX 1 1 2 2 3 3 4 4
REMARK H PARENT
REMARK Flexibility Score: inf
ROOT
ATOM      1  C   UNL     1       1.821  -4.866   0.058  1.00  0.00     0.063 C 
ATOM      2  C   UNL     1       1.802  -4.597   1.524  1.00  0.00     0.038 C 
ATOM      3  O   UNL     1       2.552  -3.713   2.015  1.00  0.00    -0.550 OA
ATOM      4  O   UNL     1       0.998  -5.360   2.362  1.00  0.00    -0.550 OA
ENDROOT
TORSDOF 0
ENDMDL
MODEL 7
REMARK VINA RESULT:    -1.784     11.898     12.247
REMARK INTER + INTRA:          -1.784
REMARK INTER:                  -1.784
REMARK INTRA:                   0.000
REMARK UNBOUND:                 0.000
REMARK SMILES CC(=O)[O-]
REMARK SMILES IDX 1 1 2 2 3 3 4 4
REMARK H PARENT
REMARK Flexibility Score: inf
ROOT
ATOM      1  C   UNL     1       4.562   4.148  -6.559  1.00  0.00     0.063 C 
ATOM      2  C   UNL     1       3.923   4.153  -7.905  1.00  0.00     0.038 C 
ATOM      3  O   UNL     1       3.759   5.238  -8.524  1.00  0.00    -0.550 OA
ATOM      4  O   UNL     1       3.455   2.968  -8.459  1.00  0.00    -0.550 OA
ENDROOT
TORSDOF 0
ENDMDL
MODEL 8
REMARK VINA RESULT:    -1.764     10.922     11.460
REMARK INTER + INTRA:          -1.764
REMARK INTER:                  -1.764
REMARK INTRA:                   0.000
REMARK UNBOUND:                 0.000
REMARK SMILES CC(=O)[O-]
REMARK SMILES IDX 1 1 2 2 3 3 4 4
REMARK H PARENT
REMARK Flexibility Score: inf
ROOT
ATOM      1  C   UNL     1       5.124   4.131   5.856  1.00  0.00     0.063 C 
ATOM      2  C   UNL     1       3.755   3.587   5.632  1.00  0.00     0.038 C 
ATOM      3  O   UNL     1       3.013   3.318   6.614  1.00  0.00    -0.550 OA
ATOM      4  O   UNL     1       3.313   3.323   4.342  1.00  0.00    -0.550 OA
ENDROOT
TORSDOF 0
ENDMDL
MODEL 9
REMARK VINA RESULT:    -1.490     11.079     11.566
REMARK INTER + INTRA:          -1.490
REMARK INTER:                  -1.490
REMARK INTRA:                   0.000
REMARK UNBOUND:                 0.000
REMARK SMILES CC(=O)[O-]
REMARK SMILES IDX 1 1 2 2 3 3 4 4
REMARK H PARENT
REMARK Flexibility Score: inf
ROOT
ATOM      1  C   UNL     1       3.714  -4.151  -8.818  1.00  0.00     0.063 C 
ATOM      2  C   UNL     1       2.371  -3.757  -9.328  1.00  0.00     0.038 C 
ATOM      3  O   UNL     1       2.256  -2.789 -10.125  1.00  0.00    -0.550 OA
ATOM      4  O   UNL     1       1.234  -4.422  -8.884  1.00  0.00    -0.550 OA
ENDROOT
TORSDOF 0
ENDMDL
