MODEL 1
REMARK VINA RESULT:    -6.666      0.000      0.000
REMARK INTER + INTRA:          -6.979
REMARK INTER:                  -7.251
REMARK INTRA:                   0.272
REMARK UNBOUND:                 0.272
REMARK SMILES CC1(C)CC[C@]2(C(=O)[O-])CC[C@@]3(C)C(=CC[C@H]4[C@@]5(C)CC[C@H](O)C(C)(C)[C@H]5CC[C@]43C)[C@H]2C1
REMARK SMILES IDX 6 1 5 2 10 3 32 4 4 5 11 6 14 7 33 8 2 9 12 10 15 11 1 12
REMARK SMILES IDX 3 13 13 14 30 15 16 16 17 17 29 18 31 19 18 20 28 21 27 22
REMARK SMILES IDX 20 23 19 24 24 25 21 26 22 27 25 28 26 29 7 30 8 31 9 32
REMARK SMILES IDX 23 33
REMARK H PARENT 23 34
REMARK Flexibility Score: inf
ROOT
ATOM      1  C   UNL     1      71.356  53.994  18.314  1.00  0.00     0.017 C 
ATOM      2  C   UNL     1      70.878  52.835  17.395  1.00  0.00     0.014 C 
ATOM      3  C   UNL     1      72.910  54.134  18.173  1.00  0.00     0.014 C 
ATOM      4  C   UNL     1      70.969  53.645  19.789  1.00  0.00     0.028 C 
ATOM      5  C   UNL     1      69.370  52.578  17.507  1.00  0.00     0.007 C 
ATOM      6  C   UNL     1      73.695  54.250  19.500  1.00  0.00     0.013 C 
ATOM      7  C   UNL     1      71.533  54.710  20.744  1.00  0.00    -0.064 C 
ATOM      8  C   UNL     1      69.447  53.350  19.936  1.00  0.00     0.015 C 
ATOM      9  C   UNL     1      68.915  52.267  18.955  1.00  0.00    -0.035 C 
ATOM     10  C   UNL     1      72.999  55.131  20.612  1.00  0.00    -0.006 C 
ATOM     11  C   UNL     1      70.816  55.218  21.770  1.00  0.00    -0.027 C 
ATOM     12  C   UNL     1      67.372  52.275  18.994  1.00  0.00     0.011 C 
ATOM     13  C   UNL     1      69.388  50.857  19.389  1.00  0.00     0.011 C 
ATOM     14  C   UNL     1      73.051  56.620  20.113  1.00  0.00     0.017 C 
ATOM     15  C   UNL     1      73.683  54.986  22.072  1.00  0.00    -0.020 C 
ATOM     16  C   UNL     1      71.411  56.176  22.763  1.00  0.00     0.032 C 
ATOM     17  C   UNL     1      72.916  55.923  23.128  1.00  0.00     0.006 C 
ATOM     18  C   UNL     1      73.647  53.490  22.601  1.00  0.00     0.008 C 
ATOM     19  C   UNL     1      75.195  55.441  21.960  1.00  0.00     0.012 C 
ATOM     20  C   UNL     1      73.122  55.532  24.666  1.00  0.00    -0.025 C 
ATOM     21  C   UNL     1      72.571  53.178  23.648  1.00  0.00     0.005 C 
ATOM     22  C   UNL     1      72.700  54.013  24.952  1.00  0.00     0.003 C 
ATOM     23  C   UNL     1      72.443  56.621  25.600  1.00  0.00     0.010 C 
ATOM     24  C   UNL     1      74.649  55.662  24.992  1.00  0.00     0.012 C 
ATOM     25  C   UNL     1      71.514  53.712  25.978  1.00  0.00    -0.006 C 
ATOM     26  C   UNL     1      71.215  56.206  26.408  1.00  0.00     0.033 C 
ATOM     27  C   UNL     1      71.375  54.833  27.051  1.00  0.00     0.120 C 
ATOM     28  C   UNL     1      70.136  53.528  25.276  1.00  0.00     0.014 C 
ATOM     29  C   UNL     1      71.795  52.376  26.723  1.00  0.00     0.014 C 
ENDROOT
BRANCH   1  30
ATOM     30  C   UNL     1      70.714  55.297  17.831  1.00  0.00     0.048 C 
ATOM     31  O   UNL     1      69.784  55.856  18.471  1.00  0.00    -0.550 OA
ATOM     32  O   UNL     1      71.195  55.919  16.683  1.00  0.00    -0.550 OA
ENDBRANCH   1  30
BRANCH  27  33
ATOM     33  O   UNL     1      72.418  54.836  27.999  1.00  0.00    -0.393 OA
ATOM     34  H   UNL     1      73.270  54.999  27.527  1.00  0.00     0.210 HD
ENDBRANCH  27  33
TORSDOF 2
ENDMDL
MODEL 2
REMARK VINA RESULT:    -6.069      1.748      4.049
REMARK INTER + INTRA:          -6.329
REMARK INTER:                  -6.607
REMARK INTRA:                   0.278
REMARK UNBOUND:                 0.272
REMARK SMILES CC1(C)CC[C@]2(C(=O)[O-])CC[C@@]3(C)C(=CC[C@H]4[C@@]5(C)CC[C@H](O)C(C)(C)[C@H]5CC[C@]43C)[C@H]2C1
REMARK SMILES IDX 6 1 5 2 10 3 32 4 4 5 11 6 14 7 33 8 2 9 12 10 15 11 1 12
REMARK SMILES IDX 3 13 13 14 30 15 16 16 17 17 29 18 31 19 18 20 28 21 27 22
REMARK SMILES IDX 20 23 19 24 24 25 21 26 22 27 25 28 26 29 7 30 8 31 9 32
REMARK SMILES IDX 23 33
REMARK H PARENT 23 34
REMARK Flexibility Score: inf
ROOT
ATOM      1  C   UNL     1      71.111  54.836  18.223  1.00  0.00     0.017 C 
ATOM      2  C   UNL     1      71.970  55.393  17.053  1.00  0.00     0.014 C 
ATOM      3  C   UNL     1      69.802  55.691  18.330  1.00  0.00     0.014 C 
ATOM      4  C   UNL     1      71.945  54.942  19.541  1.00  0.00     0.028 C 
ATOM      5  C   UNL     1      73.308  54.656  16.902  1.00  0.00     0.007 C 
ATOM      6  C   UNL     1      69.424  56.160  19.755  1.00  0.00     0.013 C 
ATOM      7  C   UNL     1      71.084  54.515  20.741  1.00  0.00    -0.064 C 
ATOM      8  C   UNL     1      73.324  54.229  19.416  1.00  0.00     0.015 C 
ATOM      9  C   UNL     1      74.165  54.690  18.192  1.00  0.00    -0.035 C 
ATOM     10  C   UNL     1      69.676  55.096  20.896  1.00  0.00    -0.006 C 
ATOM     11  C   UNL     1      71.556  53.724  21.729  1.00  0.00    -0.027 C 
ATOM     12  C   UNL     1      75.353  53.721  18.013  1.00  0.00     0.011 C 
ATOM     13  C   UNL     1      74.745  56.105  18.430  1.00  0.00     0.011 C 
ATOM     14  C   UNL     1      68.630  53.943  20.682  1.00  0.00     0.017 C 
ATOM     15  C   UNL     1      69.562  55.712  22.388  1.00  0.00    -0.020 C 
ATOM     16  C   UNL     1      70.743  53.401  22.951  1.00  0.00     0.032 C 
ATOM     17  C   UNL     1      69.822  54.558  23.475  1.00  0.00     0.006 C 
ATOM     18  C   UNL     1      70.606  56.882  22.631  1.00  0.00     0.008 C 
ATOM     19  C   UNL     1      68.103  56.297  22.575  1.00  0.00     0.012 C 
ATOM     20  C   UNL     1      70.240  55.071  24.932  1.00  0.00    -0.025 C 
ATOM     21  C   UNL     1      71.853  56.507  23.443  1.00  0.00     0.005 C 
ATOM     22  C   UNL     1      71.541  56.004  24.880  1.00  0.00     0.003 C 
ATOM     23  C   UNL     1      70.314  53.845  25.939  1.00  0.00     0.010 C 
ATOM     24  C   UNL     1      69.063  55.940  25.489  1.00  0.00     0.012 C 
ATOM     25  C   UNL     1      72.860  55.551  25.657  1.00  0.00    -0.006 C 
ATOM     26  C   UNL     1      71.686  53.443  26.478  1.00  0.00     0.033 C 
ATOM     27  C   UNL     1      72.531  54.646  26.881  1.00  0.00     0.120 C 
ATOM     28  C   UNL     1      73.873  54.797  24.745  1.00  0.00     0.014 C 
ATOM     29  C   UNL     1      73.613  56.805  26.184  1.00  0.00     0.014 C 
ENDROOT
BRANCH   1  30
ATOM     30  C   UNL     1      70.713  53.395  17.893  1.00  0.00     0.048 C 
ATOM     31  O   UNL     1      71.212  52.413  18.504  1.00  0.00    -0.550 OA
ATOM     32  O   UNL     1      69.738  53.151  16.931  1.00  0.00    -0.550 OA
ENDBRANCH   1  30
BRANCH  27  33
ATOM     33  O   UNL     1      71.939  55.345  27.953  1.00  0.00    -0.393 OA
ATOM     34  H   UNL     1      71.570  56.194  27.608  1.00  0.00     0.210 HD
ENDBRANCH  27  33
TORSDOF 2
ENDMDL
MODEL 3
REMARK VINA RESULT:    -5.928      1.701      7.084
REMARK INTER + INTRA:          -6.176
REMARK INTER:                  -6.447
REMARK INTRA:                   0.271
REMARK UNBOUND:                 0.272
REMARK SMILES CC1(C)CC[C@]2(C(=O)[O-])CC[C@@]3(C)C(=CC[C@H]4[C@@]5(C)CC[C@H](O)C(C)(C)[C@H]5CC[C@]43C)[C@H]2C1
REMARK SMILES IDX 6 1 5 2 10 3 32 4 4 5 11 6 14 7 33 8 2 9 12 10 15 11 1 12
REMARK SMILES IDX 3 13 13 14 30 15 16 16 17 17 29 18 31 19 18 20 28 21 27 22
REMARK SMILES IDX 20 23 19 24 24 25 21 26 22 27 25 28 26 29 7 30 8 31 9 32
REMARK SMILES IDX 23 33
REMARK H PARENT 23 34
REMARK Flexibility Score: inf
ROOT
ATOM      1  C   UNL     1      72.356  56.552  25.103  1.00  0.00     0.017 C 
ATOM      2  C   UNL     1      71.858  56.554  26.575  1.00  0.00     0.014 C 
ATOM      3  C   UNL     1      72.102  57.971  24.489  1.00  0.00     0.014 C 
ATOM      4  C   UNL     1      71.560  55.462  24.314  1.00  0.00     0.028 C 
ATOM      5  C   UNL     1      72.010  55.185  27.251  1.00  0.00     0.007 C 
ATOM      6  C   UNL     1      71.442  57.986  23.090  1.00  0.00     0.013 C 
ATOM      7  C   UNL     1      71.938  55.512  22.824  1.00  0.00    -0.064 C 
ATOM      8  C   UNL     1      71.668  54.061  24.987  1.00  0.00     0.015 C 
ATOM      9  C   UNL     1      71.275  54.051  26.491  1.00  0.00    -0.035 C 
ATOM     10  C   UNL     1      71.948  56.862  22.101  1.00  0.00    -0.006 C 
ATOM     11  C   UNL     1      72.162  54.399  22.094  1.00  0.00    -0.027 C 
ATOM     12  C   UNL     1      71.697  52.700  27.106  1.00  0.00     0.011 C 
ATOM     13  C   UNL     1      69.741  54.183  26.656  1.00  0.00     0.011 C 
ATOM     14  C   UNL     1      73.432  57.220  21.727  1.00  0.00     0.017 C 
ATOM     15  C   UNL     1      71.036  56.712  20.773  1.00  0.00    -0.020 C 
ATOM     16  C   UNL     1      72.423  54.453  20.615  1.00  0.00     0.032 C 
ATOM     17  C   UNL     1      71.633  55.558  19.829  1.00  0.00     0.006 C 
ATOM     18  C   UNL     1      69.530  56.354  21.122  1.00  0.00     0.008 C 
ATOM     19  C   UNL     1      71.055  58.093  19.999  1.00  0.00     0.012 C 
ATOM     20  C   UNL     1      70.609  54.946  18.763  1.00  0.00    -0.025 C 
ATOM     21  C   UNL     1      69.132  54.885  20.930  1.00  0.00     0.005 C 
ATOM     22  C   UNL     1      69.290  54.375  19.471  1.00  0.00     0.003 C 
ATOM     23  C   UNL     1      71.365  53.936  17.800  1.00  0.00     0.010 C 
ATOM     24  C   UNL     1      70.162  56.106  17.809  1.00  0.00     0.012 C 
ATOM     25  C   UNL     1      68.941  52.823  19.336  1.00  0.00    -0.006 C 
ATOM     26  C   UNL     1      71.017  52.451  17.905  1.00  0.00     0.033 C 
ATOM     27  C   UNL     1      69.516  52.210  18.025  1.00  0.00     0.120 C 
ATOM     28  C   UNL     1      69.452  51.979  20.540  1.00  0.00     0.014 C 
ATOM     29  C   UNL     1      67.398  52.635  19.308  1.00  0.00     0.014 C 
ENDROOT
BRANCH   1  30
ATOM     30  C   UNL     1      73.866  56.295  25.099  1.00  0.00     0.048 C 
ATOM     31  O   UNL     1      74.344  55.159  24.841  1.00  0.00    -0.550 OA
ATOM     32  O   UNL     1      74.745  57.347  25.335  1.00  0.00    -0.550 OA
ENDBRANCH   1  30
BRANCH  27  33
ATOM     33  O   UNL     1      68.841  52.634  16.862  1.00  0.00    -0.393 OA
ATOM     34  H   UNL     1      69.508  52.976  16.219  1.00  0.00     0.210 HD
ENDBRANCH  27  33
TORSDOF 2
ENDMDL
MODEL 4
REMARK VINA RESULT:    -5.879      1.846      7.102
REMARK INTER + INTRA:          -6.122
REMARK INTER:                  -6.490
REMARK INTRA:                   0.368
REMARK UNBOUND:                 0.272
REMARK SMILES CC1(C)CC[C@]2(C(=O)[O-])CC[C@@]3(C)C(=CC[C@H]4[C@@]5(C)CC[C@H](O)C(C)(C)[C@H]5CC[C@]43C)[C@H]2C1
REMARK SMILES IDX 6 1 5 2 10 3 32 4 4 5 11 6 14 7 33 8 2 9 12 10 15 11 1 12
REMARK SMILES IDX 3 13 13 14 30 15 16 16 17 17 29 18 31 19 18 20 28 21 27 22
REMARK SMILES IDX 20 23 19 24 24 25 21 26 22 27 25 28 26 29 7 30 8 31 9 32
REMARK SMILES IDX 23 33
REMARK H PARENT 23 34
REMARK Flexibility Score: inf
ROOT
ATOM      1  C   UNL     1      72.097  54.378  25.443  1.00  0.00     0.017 C 
ATOM      2  C   UNL     1      71.703  55.265  26.657  1.00  0.00     0.014 C 
ATOM      3  C   UNL     1      73.660  54.331  25.347  1.00  0.00     0.014 C 
ATOM      4  C   UNL     1      71.486  55.013  24.150  1.00  0.00     0.028 C 
ATOM      5  C   UNL     1      70.184  55.424  26.804  1.00  0.00     0.007 C 
ATOM      6  C   UNL     1      74.251  54.571  23.937  1.00  0.00     0.013 C 
ATOM      7  C   UNL     1      71.955  54.232  22.912  1.00  0.00    -0.064 C 
ATOM      8  C   UNL     1      69.947  55.215  24.273  1.00  0.00     0.015 C 
ATOM      9  C   UNL     1      69.513  56.011  25.536  1.00  0.00    -0.035 C 
ATOM     10  C   UNL     1      73.443  53.906  22.753  1.00  0.00    -0.006 C 
ATOM     11  C   UNL     1      71.123  53.908  21.899  1.00  0.00    -0.027 C 
ATOM     12  C   UNL     1      67.982  55.893  25.697  1.00  0.00     0.011 C 
ATOM     13  C   UNL     1      69.854  57.513  25.380  1.00  0.00     0.011 C 
ATOM     14  C   UNL     1      73.634  52.352  22.887  1.00  0.00     0.017 C 
ATOM     15  C   UNL     1      73.903  54.422  21.289  1.00  0.00    -0.020 C 
ATOM     16  C   UNL     1      71.613  53.242  20.645  1.00  0.00     0.032 C 
ATOM     17  C   UNL     1      73.036  53.685  20.155  1.00  0.00     0.006 C 
ATOM     18  C   UNL     1      73.723  55.990  21.127  1.00  0.00     0.008 C 
ATOM     19  C   UNL     1      75.434  54.071  21.097  1.00  0.00     0.012 C 
ATOM     20  C   UNL     1      73.001  54.420  18.734  1.00  0.00    -0.025 C 
ATOM     21  C   UNL     1      72.494  56.442  20.327  1.00  0.00     0.005 C 
ATOM     22  C   UNL     1      72.473  55.927  18.861  1.00  0.00     0.003 C 
ATOM     23  C   UNL     1      72.246  53.514  17.672  1.00  0.00     0.010 C 
ATOM     24  C   UNL     1      74.469  54.483  18.192  1.00  0.00     0.012 C 
ATOM     25  C   UNL     1      71.140  56.355  18.094  1.00  0.00    -0.006 C 
ATOM     26  C   UNL     1      70.896  54.002  17.146  1.00  0.00     0.033 C 
ATOM     27  C   UNL     1      70.899  55.491  16.820  1.00  0.00     0.120 C 
ATOM     28  C   UNL     1      69.870  56.273  18.992  1.00  0.00     0.014 C 
ATOM     29  C   UNL     1      71.249  57.839  17.644  1.00  0.00     0.014 C 
ENDROOT
BRANCH   1  30
ATOM     30  C   UNL     1      71.591  52.955  25.694  1.00  0.00     0.048 C 
ATOM     31  O   UNL     1      70.853  52.358  24.867  1.00  0.00    -0.550 OA
ATOM     32  O   UNL     1      71.992  52.273  26.838  1.00  0.00    -0.550 OA
ENDBRANCH   1  30
BRANCH  27  33
ATOM     33  O   UNL     1      71.794  55.777  15.770  1.00  0.00    -0.393 OA
ATOM     34  H   UNL     1      71.376  56.445  15.174  1.00  0.00     0.210 HD
ENDBRANCH  27  33
TORSDOF 2
ENDMDL
MODEL 5
REMARK VINA RESULT:    -5.780      1.667      7.574
REMARK INTER + INTRA:          -6.015
REMARK INTER:                  -6.319
REMARK INTRA:                   0.304
REMARK UNBOUND:                 0.272
REMARK SMILES CC1(C)CC[C@]2(C(=O)[O-])CC[C@@]3(C)C(=CC[C@H]4[C@@]5(C)CC[C@H](O)C(C)(C)[C@H]5CC[C@]43C)[C@H]2C1
REMARK SMILES IDX 6 1 5 2 10 3 32 4 4 5 11 6 14 7 33 8 2 9 12 10 15 11 1 12
REMARK SMILES IDX 3 13 13 14 30 15 16 16 17 17 29 18 31 19 18 20 28 21 27 22
REMARK SMILES IDX 20 23 19 24 24 25 21 26 22 27 25 28 26 29 7 30 8 31 9 32
REMARK SMILES IDX 23 33
REMARK H PARENT 23 34
REMARK Flexibility Score: inf
ROOT
ATOM      1  C   UNL     1      73.318  55.291  26.149  1.00  0.00     0.017 C 
ATOM      2  C   UNL     1      74.685  55.827  26.658  1.00  0.00     0.014 C 
ATOM      3  C   UNL     1      73.218  53.768  26.498  1.00  0.00     0.014 C 
ATOM      4  C   UNL     1      73.251  55.505  24.601  1.00  0.00     0.028 C 
ATOM      5  C   UNL     1      74.906  57.305  26.311  1.00  0.00     0.007 C 
ATOM      6  C   UNL     1      72.741  52.848  25.350  1.00  0.00     0.013 C 
ATOM      7  C   UNL     1      71.964  54.878  24.041  1.00  0.00    -0.064 C 
ATOM      8  C   UNL     1      73.498  56.992  24.208  1.00  0.00     0.015 C 
ATOM      9  C   UNL     1      74.810  57.589  24.791  1.00  0.00    -0.035 C 
ATOM     10  C   UNL     1      71.591  53.449  24.447  1.00  0.00    -0.006 C 
ATOM     11  C   UNL     1      71.196  55.496  23.119  1.00  0.00    -0.027 C 
ATOM     12  C   UNL     1      74.796  59.119  24.582  1.00  0.00     0.011 C 
ATOM     13  C   UNL     1      76.046  57.025  24.047  1.00  0.00     0.011 C 
ATOM     14  C   UNL     1      70.296  53.501  25.336  1.00  0.00     0.017 C 
ATOM     15  C   UNL     1      71.328  52.607  23.091  1.00  0.00    -0.020 C 
ATOM     16  C   UNL     1      70.001  54.829  22.498  1.00  0.00     0.032 C 
ATOM     17  C   UNL     1      70.141  53.286  22.249  1.00  0.00     0.006 C 
ATOM     18  C   UNL     1      72.622  52.535  22.175  1.00  0.00     0.008 C 
ATOM     19  C   UNL     1      70.918  51.132  23.492  1.00  0.00     0.012 C 
ATOM     20  C   UNL     1      70.095  52.902  20.696  1.00  0.00    -0.025 C 
ATOM     21  C   UNL     1      72.639  53.481  20.967  1.00  0.00     0.005 C 
ATOM     22  C   UNL     1      71.478  53.240  19.962  1.00  0.00     0.003 C 
ATOM     23  C   UNL     1      68.793  53.512  20.024  1.00  0.00     0.010 C 
ATOM     24  C   UNL     1      69.877  51.355  20.593  1.00  0.00     0.012 C 
ATOM     25  C   UNL     1      71.490  54.297  18.767  1.00  0.00    -0.006 C 
ATOM     26  C   UNL     1      68.974  54.632  18.999  1.00  0.00     0.033 C 
ATOM     27  C   UNL     1      70.119  54.357  18.030  1.00  0.00     0.120 C 
ATOM     28  C   UNL     1      71.863  55.736  19.231  1.00  0.00     0.014 C 
ATOM     29  C   UNL     1      72.569  53.893  17.722  1.00  0.00     0.014 C 
ENDROOT
BRANCH   1  30
ATOM     30  C   UNL     1      72.198  56.025  26.893  1.00  0.00     0.048 C 
ATOM     31  O   UNL     1      71.762  57.140  26.501  1.00  0.00    -0.550 OA
ATOM     32  O   UNL     1      71.604  55.433  28.003  1.00  0.00    -0.550 OA
ENDBRANCH   1  30
BRANCH  27  33
ATOM     33  O   UNL     1      69.853  53.219  17.243  1.00  0.00    -0.393 OA
ATOM     34  H   UNL     1      70.597  53.099  16.603  1.00  0.00     0.210 HD
ENDBRANCH  27  33
TORSDOF 2
ENDMDL
MODEL 6
REMARK VINA RESULT:    -5.756      3.141      6.328
REMARK INTER + INTRA:          -5.989
REMARK INTER:                  -6.293
REMARK INTRA:                   0.304
REMARK UNBOUND:                 0.272
REMARK SMILES CC1(C)CC[C@]2(C(=O)[O-])CC[C@@]3(C)C(=CC[C@H]4[C@@]5(C)CC[C@H](O)C(C)(C)[C@H]5CC[C@]43C)[C@H]2C1
REMARK SMILES IDX 6 1 5 2 10 3 32 4 4 5 11 6 14 7 33 8 2 9 12 10 15 11 1 12
REMARK SMILES IDX 3 13 13 14 30 15 16 16 17 17 29 18 31 19 18 20 28 21 27 22
REMARK SMILES IDX 20 23 19 24 24 25 21 26 22 27 25 28 26 29 7 30 8 31 9 32
REMARK SMILES IDX 23 33
REMARK H PARENT 23 34
REMARK Flexibility Score: inf
ROOT
ATOM      1  C   UNL     1      66.574  56.386  22.493  1.00  0.00     0.017 C 
ATOM      2  C   UNL     1      65.769  56.239  23.815  1.00  0.00     0.014 C 
ATOM      3  C   UNL     1      65.985  55.389  21.438  1.00  0.00     0.014 C 
ATOM      4  C   UNL     1      68.073  56.049  22.789  1.00  0.00     0.028 C 
ATOM      5  C   UNL     1      66.309  57.136  24.936  1.00  0.00     0.007 C 
ATOM      6  C   UNL     1      67.023  54.540  20.667  1.00  0.00     0.013 C 
ATOM      7  C   UNL     1      68.880  56.065  21.481  1.00  0.00    -0.064 C 
ATOM      8  C   UNL     1      68.648  56.923  23.943  1.00  0.00     0.015 C 
ATOM      9  C   UNL     1      67.805  56.880  25.249  1.00  0.00    -0.035 C 
ATOM     10  C   UNL     1      68.344  55.308  20.263  1.00  0.00    -0.006 C 
ATOM     11  C   UNL     1      70.102  56.633  21.387  1.00  0.00    -0.027 C 
ATOM     12  C   UNL     1      68.302  57.990  26.198  1.00  0.00     0.011 C 
ATOM     13  C   UNL     1      67.990  55.524  25.974  1.00  0.00     0.011 C 
ATOM     14  C   UNL     1      67.944  56.352  19.158  1.00  0.00     0.017 C 
ATOM     15  C   UNL     1      69.522  54.331  19.736  1.00  0.00    -0.020 C 
ATOM     16  C   UNL     1      70.929  56.547  20.136  1.00  0.00     0.032 C 
ATOM     17  C   UNL     1      70.814  55.200  19.340  1.00  0.00     0.006 C 
ATOM     18  C   UNL     1      69.944  53.263  20.831  1.00  0.00     0.008 C 
ATOM     19  C   UNL     1      68.993  53.557  18.460  1.00  0.00     0.012 C 
ATOM     20  C   UNL     1      72.194  54.391  19.289  1.00  0.00    -0.025 C 
ATOM     21  C   UNL     1      71.244  53.563  21.590  1.00  0.00     0.005 C 
ATOM     22  C   UNL     1      72.499  53.653  20.678  1.00  0.00     0.003 C 
ATOM     23  C   UNL     1      73.352  55.327  18.739  1.00  0.00     0.010 C 
ATOM     24  C   UNL     1      72.058  53.282  18.191  1.00  0.00     0.012 C 
ATOM     25  C   UNL     1      73.810  54.045  21.499  1.00  0.00    -0.006 C 
ATOM     26  C   UNL     1      74.463  55.734  19.707  1.00  0.00     0.033 C 
ATOM     27  C   UNL     1      74.943  54.572  20.569  1.00  0.00     0.120 C 
ATOM     28  C   UNL     1      73.541  55.111  22.601  1.00  0.00     0.014 C 
ATOM     29  C   UNL     1      74.355  52.792  22.243  1.00  0.00     0.014 C 
ENDROOT
BRANCH   1  30
ATOM     30  C   UNL     1      66.384  57.809  21.962  1.00  0.00     0.048 C 
ATOM     31  O   UNL     1      67.104  58.765  22.356  1.00  0.00    -0.550 OA
ATOM     32  O   UNL     1      65.431  58.058  20.980  1.00  0.00    -0.550 OA
ENDBRANCH   1  30
BRANCH  27  33
ATOM     33  O   UNL     1      75.536  53.567  19.779  1.00  0.00    -0.393 OA
ATOM     34  H   UNL     1      75.650  53.915  18.862  1.00  0.00     0.210 HD
ENDBRANCH  27  33
TORSDOF 2
ENDMDL
MODEL 7
REMARK VINA RESULT:    -5.394      3.509      8.093
REMARK INTER + INTRA:          -5.595
REMARK INTER:                  -5.872
REMARK INTRA:                   0.277
REMARK UNBOUND:                 0.272
REMARK SMILES CC1(C)CC[C@]2(C(=O)[O-])CC[C@@]3(C)C(=CC[C@H]4[C@@]5(C)CC[C@H](O)C(C)(C)[C@H]5CC[C@]43C)[C@H]2C1
REMARK SMILES IDX 6 1 5 2 10 3 32 4 4 5 11 6 14 7 33 8 2 9 12 10 15 11 1 12
REMARK SMILES IDX 3 13 13 14 30 15 16 16 17 17 29 18 31 19 18 20 28 21 27 22
REMARK SMILES IDX 20 23 19 24 24 25 21 26 22 27 25 28 26 29 7 30 8 31 9 32
REMARK SMILES IDX 23 33
REMARK H PARENT 23 34
REMARK Flexibility Score: inf
ROOT
ATOM      1  C   UNL     1      67.774  56.243  25.437  1.00  0.00     0.017 C 
ATOM      2  C   UNL     1      68.004  55.112  26.479  1.00  0.00     0.014 C 
ATOM      3  C   UNL     1      66.302  56.144  24.911  1.00  0.00     0.014 C 
ATOM      4  C   UNL     1      68.790  56.046  24.264  1.00  0.00     0.028 C 
ATOM      5  C   UNL     1      69.442  55.087  27.013  1.00  0.00     0.007 C 
ATOM      6  C   UNL     1      66.132  56.225  23.376  1.00  0.00     0.013 C 
ATOM      7  C   UNL     1      68.513  57.073  23.154  1.00  0.00    -0.064 C 
ATOM      8  C   UNL     1      70.261  55.987  24.772  1.00  0.00     0.015 C 
ATOM      9  C   UNL     1      70.501  54.935  25.892  1.00  0.00    -0.035 C 
ATOM     10  C   UNL     1      67.079  57.265  22.654  1.00  0.00    -0.006 C 
ATOM     11  C   UNL     1      69.500  57.743  22.522  1.00  0.00    -0.027 C 
ATOM     12  C   UNL     1      71.897  55.172  26.506  1.00  0.00     0.011 C 
ATOM     13  C   UNL     1      70.482  53.501  25.309  1.00  0.00     0.011 C 
ATOM     14  C   UNL     1      66.587  58.697  23.077  1.00  0.00     0.017 C 
ATOM     15  C   UNL     1      67.097  57.112  21.043  1.00  0.00    -0.020 C 
ATOM     16  C   UNL     1      69.228  58.663  21.365  1.00  0.00     0.032 C 
ATOM     17  C   UNL     1      68.074  58.214  20.402  1.00  0.00     0.006 C 
ATOM     18  C   UNL     1      67.587  55.672  20.588  1.00  0.00     0.008 C 
ATOM     19  C   UNL     1      65.624  57.332  20.506  1.00  0.00     0.012 C 
ATOM     20  C   UNL     1      68.591  57.892  18.922  1.00  0.00    -0.025 C 
ATOM     21  C   UNL     1      69.036  55.587  20.092  1.00  0.00     0.005 C 
ATOM     22  C   UNL     1      69.330  56.472  18.850  1.00  0.00     0.003 C 
ATOM     23  C   UNL     1      69.414  59.125  18.354  1.00  0.00     0.010 C 
ATOM     24  C   UNL     1      67.340  57.816  17.984  1.00  0.00     0.012 C 
ATOM     25  C   UNL     1      70.866  56.412  18.420  1.00  0.00    -0.006 C 
ATOM     26  C   UNL     1      70.917  58.945  18.140  1.00  0.00     0.033 C 
ATOM     27  C   UNL     1      71.259  57.605  17.498  1.00  0.00     0.120 C 
ATOM     28  C   UNL     1      71.837  56.390  19.637  1.00  0.00     0.014 C 
ATOM     29  C   UNL     1      71.138  55.098  17.633  1.00  0.00     0.014 C 
ENDROOT
BRANCH   1  30
ATOM     30  C   UNL     1      67.940  57.594  26.138  1.00  0.00     0.048 C 
ATOM     31  O   UNL     1      69.030  58.225  26.111  1.00  0.00    -0.550 OA
ATOM     32  O   UNL     1      66.853  58.176  26.781  1.00  0.00    -0.550 OA
ENDBRANCH   1  30
BRANCH  27  33
ATOM     33  O   UNL     1      70.719  57.513  16.199  1.00  0.00    -0.393 OA
ATOM     34  H   UNL     1      69.748  57.687  16.250  1.00  0.00     0.210 HD
ENDBRANCH  27  33
TORSDOF 2
ENDMDL
MODEL 8
REMARK VINA RESULT:    -5.326      1.562      7.140
REMARK INTER + INTRA:          -5.521
REMARK INTER:                  -5.796
REMARK INTRA:                   0.275
REMARK UNBOUND:                 0.272
REMARK SMILES CC1(C)CC[C@]2(C(=O)[O-])CC[C@@]3(C)C(=CC[C@H]4[C@@]5(C)CC[C@H](O)C(C)(C)[C@H]5CC[C@]43C)[C@H]2C1
REMARK SMILES IDX 6 1 5 2 10 3 32 4 4 5 11 6 14 7 33 8 2 9 12 10 15 11 1 12
REMARK SMILES IDX 3 13 13 14 30 15 16 16 17 17 29 18 31 19 18 20 28 21 27 22
REMARK SMILES IDX 20 23 19 24 24 25 21 26 22 27 25 28 26 29 7 30 8 31 9 32
REMARK SMILES IDX 23 33
REMARK H PARENT 23 34
REMARK Flexibility Score: inf
ROOT
ATOM      1  C   UNL     1      72.885  56.365  25.633  1.00  0.00     0.017 C 
ATOM      2  C   UNL     1      72.168  56.188  27.001  1.00  0.00     0.014 C 
ATOM      3  C   UNL     1      72.753  57.862  25.192  1.00  0.00     0.014 C 
ATOM      4  C   UNL     1      72.198  55.423  24.590  1.00  0.00     0.028 C 
ATOM      5  C   UNL     1      72.190  54.735  27.494  1.00  0.00     0.007 C 
ATOM      6  C   UNL     1      72.315  58.092  23.726  1.00  0.00     0.013 C 
ATOM      7  C   UNL     1      72.799  55.659  23.195  1.00  0.00    -0.064 C 
ATOM      8  C   UNL     1      72.177  53.942  25.070  1.00  0.00     0.015 C 
ATOM      9  C   UNL     1      71.559  53.744  26.484  1.00  0.00    -0.035 C 
ATOM     10  C   UNL     1      72.945  57.092  22.677  1.00  0.00    -0.006 C 
ATOM     11  C   UNL     1      73.111  54.647  22.358  1.00  0.00    -0.027 C 
ATOM     12  C   UNL     1      71.858  52.307  26.960  1.00  0.00     0.011 C 
ATOM     13  C   UNL     1      70.021  53.913  26.437  1.00  0.00     0.011 C 
ATOM     14  C   UNL     1      74.474  57.439  22.580  1.00  0.00     0.017 C 
ATOM     15  C   UNL     1      72.243  57.159  21.220  1.00  0.00    -0.020 C 
ATOM     16  C   UNL     1      73.596  54.890  20.956  1.00  0.00     0.032 C 
ATOM     17  C   UNL     1      72.955  56.121  20.224  1.00  0.00     0.006 C 
ATOM     18  C   UNL     1      70.695  56.817  21.289  1.00  0.00     0.008 C 
ATOM     19  C   UNL     1      72.405  58.630  20.657  1.00  0.00     0.012 C 
ATOM     20  C   UNL     1      72.094  55.699  18.943  1.00  0.00    -0.025 C 
ATOM     21  C   UNL     1      70.303  55.404  20.837  1.00  0.00     0.005 C 
ATOM     22  C   UNL     1      70.672  55.089  19.361  1.00  0.00     0.003 C 
ATOM     23  C   UNL     1      72.969  54.799  17.971  1.00  0.00     0.010 C 
ATOM     24  C   UNL     1      71.819  56.993  18.104  1.00  0.00     0.012 C 
ATOM     25  C   UNL     1      70.319  53.585  18.961  1.00  0.00    -0.006 C 
ATOM     26  C   UNL     1      72.581  53.328  17.816  1.00  0.00     0.033 C 
ATOM     27  C   UNL     1      71.076  53.132  17.677  1.00  0.00     0.120 C 
ATOM     28  C   UNL     1      70.625  52.567  20.098  1.00  0.00     0.014 C 
ATOM     29  C   UNL     1      68.795  53.463  18.678  1.00  0.00     0.014 C 
ENDROOT
BRANCH   1  30
ATOM     30  C   UNL     1      74.373  56.052  25.817  1.00  0.00     0.048 C 
ATOM     31  O   UNL     1      74.872  54.959  25.439  1.00  0.00    -0.550 OA
ATOM     32  O   UNL     1      75.216  57.010  26.370  1.00  0.00    -0.550 OA
ENDBRANCH   1  30
BRANCH  27  33
ATOM     33  O   UNL     1      70.593  53.735  16.498  1.00  0.00    -0.393 OA
ATOM     34  H   UNL     1      69.607  53.679  16.497  1.00  0.00     0.210 HD
ENDBRANCH  27  33
TORSDOF 2
ENDMDL
MODEL 9
REMARK VINA RESULT:    -5.262      2.348      2.945
REMARK INTER + INTRA:          -5.451
REMARK INTER:                  -5.739
REMARK INTRA:                   0.287
REMARK UNBOUND:                 0.272
REMARK SMILES CC1(C)CC[C@]2(C(=O)[O-])CC[C@@]3(C)C(=CC[C@H]4[C@@]5(C)CC[C@H](O)C(C)(C)[C@H]5CC[C@]43C)[C@H]2C1
REMARK SMILES IDX 6 1 5 2 10 3 32 4 4 5 11 6 14 7 33 8 2 9 12 10 15 11 1 12
REMARK SMILES IDX 3 13 13 14 30 15 16 16 17 17 29 18 31 19 18 20 28 21 27 22
REMARK SMILES IDX 20 23 19 24 24 25 21 26 22 27 25 28 26 29 7 30 8 31 9 32
REMARK SMILES IDX 23 33
REMARK H PARENT 23 34
REMARK Flexibility Score: inf
ROOT
ATOM      1  C   UNL     1      71.193  53.742  18.842  1.00  0.00     0.017 C 
ATOM      2  C   UNL     1      71.026  52.283  18.332  1.00  0.00     0.014 C 
ATOM      3  C   UNL     1      72.655  53.918  19.376  1.00  0.00     0.014 C 
ATOM      4  C   UNL     1      70.157  53.985  19.989  1.00  0.00     0.028 C 
ATOM      5  C   UNL     1      69.602  51.991  17.840  1.00  0.00     0.007 C 
ATOM      6  C   UNL     1      72.786  54.608  20.755  1.00  0.00     0.013 C 
ATOM      7  C   UNL     1      70.374  55.378  20.603  1.00  0.00    -0.064 C 
ATOM      8  C   UNL     1      68.702  53.671  19.533  1.00  0.00     0.015 C 
ATOM      9  C   UNL     1      68.523  52.253  18.920  1.00  0.00    -0.035 C 
ATOM     10  C   UNL     1      71.789  55.809  20.997  1.00  0.00    -0.006 C 
ATOM     11  C   UNL     1      69.350  56.204  20.909  1.00  0.00    -0.027 C 
ATOM     12  C   UNL     1      67.134  52.172  18.252  1.00  0.00     0.011 C 
ATOM     13  C   UNL     1      68.577  51.169  20.025  1.00  0.00     0.011 C 
ATOM     14  C   UNL     1      72.242  56.975  20.045  1.00  0.00     0.017 C 
ATOM     15  C   UNL     1      71.739  56.306  22.536  1.00  0.00    -0.020 C 
ATOM     16  C   UNL     1      69.564  57.516  21.609  1.00  0.00     0.032 C 
ATOM     17  C   UNL     1      70.711  57.532  22.680  1.00  0.00     0.006 C 
ATOM     18  C   UNL     1      71.287  55.146  23.521  1.00  0.00     0.008 C 
ATOM     19  C   UNL     1      73.190  56.779  22.954  1.00  0.00     0.012 C 
ATOM     20  C   UNL     1      70.170  57.802  24.162  1.00  0.00    -0.025 C 
ATOM     21  C   UNL     1      69.830  55.206  23.999  1.00  0.00     0.005 C 
ATOM     22  C   UNL     1      69.477  56.499  24.786  1.00  0.00     0.003 C 
ATOM     23  C   UNL     1      69.293  59.125  24.188  1.00  0.00     0.010 C 
ATOM     24  C   UNL     1      71.401  58.154  25.064  1.00  0.00     0.012 C 
ATOM     25  C   UNL     1      67.935  56.552  25.192  1.00  0.00    -0.006 C 
ATOM     26  C   UNL     1      67.793  58.984  24.444  1.00  0.00     0.033 C 
ATOM     27  C   UNL     1      67.481  57.996  25.562  1.00  0.00     0.120 C 
ATOM     28  C   UNL     1      66.994  56.011  24.076  1.00  0.00     0.014 C 
ATOM     29  C   UNL     1      67.689  55.647  26.432  1.00  0.00     0.014 C 
ENDROOT
BRANCH   1  30
ATOM     30  C   UNL     1      70.998  54.698  17.661  1.00  0.00     0.048 C 
ATOM     31  O   UNL     1      70.010  55.476  17.595  1.00  0.00    -0.550 OA
ATOM     32  O   UNL     1      71.956  54.754  16.654  1.00  0.00    -0.550 OA
ENDBRANCH   1  30
BRANCH  27  33
ATOM     33  O   UNL     1      67.993  58.447  26.795  1.00  0.00    -0.393 OA
ATOM     34  H   UNL     1      67.287  58.959  27.259  1.00  0.00     0.210 HD
ENDBRANCH  27  33
TORSDOF 2
ENDMDL
