MODEL 1
REMARK VINA RESULT:    -5.449      0.000      0.000
REMARK INTER + INTRA:          -6.294
REMARK INTER:                  -6.245
REMARK INTRA:                  -0.049
REMARK UNBOUND:                -0.049
REMARK SMILES O=C([O-])c1cc(O)c(O)c(O)c1
REMARK SMILES IDX 4 1 5 2 12 3 6 4 10 5 8 6 2 7 1 8 3 9 7 10 11 12 9 14
REMARK H PARENT 7 11 11 13 9 15
REMARK Flexibility Score: inf
ROOT
ATOM      1  C   UNL     1      30.333 -91.477  37.276  1.00  0.00     0.005 A 
ATOM      2  C   UNL     1      31.311 -90.629  36.735  1.00  0.00     0.060 A 
ATOM      3  C   UNL     1      29.104 -90.930  37.676  1.00  0.00     0.060 A 
ATOM      4  C   UNL     1      31.077 -89.257  36.590  1.00  0.00     0.162 A 
ATOM      5  C   UNL     1      28.853 -89.562  37.539  1.00  0.00     0.162 A 
ATOM      6  C   UNL     1      29.834 -88.713  36.996  1.00  0.00     0.200 A 
ENDROOT
BRANCH   1   7
ATOM      7  C   UNL     1      30.597 -92.926  37.424  1.00  0.00     0.072 C 
ATOM      8  O   UNL     1      31.728 -93.338  37.793  1.00  0.00    -0.545 OA
ATOM      9  O   UNL     1      29.597 -93.854  37.156  1.00  0.00    -0.545 OA
ENDBRANCH   1   7
BRANCH   4  10
ATOM     10  O   UNL     1      32.099 -88.479  36.043  1.00  0.00    -0.504 OA
ATOM     11  H   UNL     1      32.096 -87.470  36.025  1.00  0.00     0.293 HD
ENDBRANCH   4  10
BRANCH   5  12
ATOM     12  O   UNL     1      27.617 -89.063  37.950  1.00  0.00    -0.504 OA
ATOM     13  H   UNL     1      27.319 -89.081  38.917  1.00  0.00     0.293 HD
ENDBRANCH   5  12
BRANCH   6  14
ATOM     14  O   UNL     1      29.543 -87.351  36.875  1.00  0.00    -0.502 OA
ATOM     15  H   UNL     1      29.030 -86.945  36.106  1.00  0.00     0.293 HD
ENDBRANCH   6  14
TORSDOF 4
ENDMDL
MODEL 2
REMARK VINA RESULT:    -5.396      0.086      2.617
REMARK INTER + INTRA:          -6.234
REMARK INTER:                  -6.185
REMARK INTRA:                  -0.049
REMARK UNBOUND:                -0.049
REMARK SMILES O=C([O-])c1cc(O)c(O)c(O)c1
REMARK SMILES IDX 4 1 5 2 12 3 6 4 10 5 8 6 2 7 1 8 3 9 7 10 11 12 9 14
REMARK H PARENT 7 11 11 13 9 15
REMARK Flexibility Score: inf
ROOT
ATOM      1  C   UNL     1      30.343 -91.434  37.251  1.00  0.00     0.005 A 
ATOM      2  C   UNL     1      29.121 -90.883  37.665  1.00  0.00     0.060 A 
ATOM      3  C   UNL     1      31.324 -90.586  36.713  1.00  0.00     0.060 A 
ATOM      4  C   UNL     1      28.873 -89.511  37.550  1.00  0.00     0.162 A 
ATOM      5  C   UNL     1      31.093 -89.214  36.591  1.00  0.00     0.162 A 
ATOM      6  C   UNL     1      29.868 -88.662  37.007  1.00  0.00     0.200 A 
ENDROOT
BRANCH   1   7
ATOM      7  C   UNL     1      30.591 -92.888  37.378  1.00  0.00     0.072 C 
ATOM      8  O   UNL     1      29.673 -93.718  37.145  1.00  0.00    -0.545 OA
ATOM      9  O   UNL     1      31.843 -93.358  37.759  1.00  0.00    -0.545 OA
ENDBRANCH   1   7
BRANCH   4  10
ATOM     10  O   UNL     1      27.633 -89.038  37.986  1.00  0.00    -0.504 OA
ATOM     11  H   UNL     1      27.269 -88.122  37.772  1.00  0.00     0.293 HD
ENDBRANCH   4  10
BRANCH   5  12
ATOM     12  O   UNL     1      32.097 -88.410  36.050  1.00  0.00    -0.504 OA
ATOM     13  H   UNL     1      32.308 -87.489  36.413  1.00  0.00     0.293 HD
ENDBRANCH   5  12
BRANCH   6  14
ATOM     14  O   UNL     1      29.677 -87.285  36.868  1.00  0.00    -0.502 OA
ATOM     15  H   UNL     1      30.161 -86.709  36.196  1.00  0.00     0.293 HD
ENDBRANCH   6  14
TORSDOF 4
ENDMDL
MODEL 3
REMARK VINA RESULT:    -4.619     13.701     15.961
REMARK INTER + INTRA:          -5.344
REMARK INTER:                  -5.291
REMARK INTRA:                  -0.053
REMARK UNBOUND:                -0.049
REMARK SMILES O=C([O-])c1cc(O)c(O)c(O)c1
REMARK SMILES IDX 4 1 5 2 12 3 6 4 10 5 8 6 2 7 1 8 3 9 7 10 11 12 9 14
REMARK H PARENT 7 11 11 13 9 15
REMARK Flexibility Score: inf
ROOT
ATOM      1  C   UNL     1      41.116 -78.800  39.913  1.00  0.00     0.005 A 
ATOM      2  C   UNL     1      40.125 -79.603  40.497  1.00  0.00     0.060 A 
ATOM      3  C   UNL     1      41.621 -79.152  38.652  1.00  0.00     0.060 A 
ATOM      4  C   UNL     1      39.638 -80.739  39.842  1.00  0.00     0.162 A 
ATOM      5  C   UNL     1      41.146 -80.284  37.984  1.00  0.00     0.162 A 
ATOM      6  C   UNL     1      40.152 -81.088  38.570  1.00  0.00     0.200 A 
ENDROOT
BRANCH   1   7
ATOM      7  C   UNL     1      41.621 -77.601  40.620  1.00  0.00     0.072 C 
ATOM      8  O   UNL     1      42.561 -76.918  40.133  1.00  0.00    -0.545 OA
ATOM      9  O   UNL     1      41.064 -77.212  41.833  1.00  0.00    -0.545 OA
ENDBRANCH   1   7
BRANCH   4  10
ATOM     10  O   UNL     1      38.650 -81.486  40.488  1.00  0.00    -0.504 OA
ATOM     11  H   UNL     1      37.668 -81.446  40.260  1.00  0.00     0.293 HD
ENDBRANCH   4  10
BRANCH   5  12
ATOM     12  O   UNL     1      41.677 -80.595  36.732  1.00  0.00    -0.504 OA
ATOM     13  H   UNL     1      41.101 -80.910  35.961  1.00  0.00     0.293 HD
ENDBRANCH   5  12
BRANCH   6  14
ATOM     14  O   UNL     1      39.704 -82.210  37.868  1.00  0.00    -0.502 OA
ATOM     15  H   UNL     1      39.131 -82.939  38.267  1.00  0.00     0.293 HD
ENDBRANCH   6  14
TORSDOF 4
ENDMDL
MODEL 4
REMARK VINA RESULT:    -4.588     10.687     13.257
REMARK INTER + INTRA:          -5.307
REMARK INTER:                  -5.259
REMARK INTRA:                  -0.049
REMARK UNBOUND:                -0.049
REMARK SMILES O=C([O-])c1cc(O)c(O)c(O)c1
REMARK SMILES IDX 4 1 5 2 12 3 6 4 10 5 8 6 2 7 1 8 3 9 7 10 11 12 9 14
REMARK H PARENT 7 11 11 13 9 15
REMARK Flexibility Score: inf
ROOT
ATOM      1  C   UNL     1      24.636 -78.977  41.477  1.00  0.00     0.005 A 
ATOM      2  C   UNL     1      23.871 -80.129  41.241  1.00  0.00     0.060 A 
ATOM      3  C   UNL     1      26.037 -79.075  41.465  1.00  0.00     0.060 A 
ATOM      4  C   UNL     1      24.483 -81.364  40.996  1.00  0.00     0.162 A 
ATOM      5  C   UNL     1      26.664 -80.300  41.222  1.00  0.00     0.162 A 
ATOM      6  C   UNL     1      25.896 -81.455  40.986  1.00  0.00     0.200 A 
ENDROOT
BRANCH   1   7
ATOM      7  C   UNL     1      23.974 -77.678  41.735  1.00  0.00     0.072 C 
ATOM      8  O   UNL     1      24.386 -76.919  42.652  1.00  0.00    -0.545 OA
ATOM      9  O   UNL     1      22.887 -77.278  40.966  1.00  0.00    -0.545 OA
ENDBRANCH   1   7
BRANCH   4  10
ATOM     10  O   UNL     1      23.654 -82.464  40.770  1.00  0.00    -0.504 OA
ATOM     11  H   UNL     1      23.167 -82.639  39.904  1.00  0.00     0.293 HD
ENDBRANCH   4  10
BRANCH   5  12
ATOM     12  O   UNL     1      28.058 -80.350  41.220  1.00  0.00    -0.504 OA
ATOM     13  H   UNL     1      28.609 -80.082  40.414  1.00  0.00     0.293 HD
ENDBRANCH   5  12
BRANCH   6  14
ATOM     14  O   UNL     1      26.563 -82.660  40.747  1.00  0.00    -0.502 OA
ATOM     15  H   UNL     1      26.110 -83.561  40.699  1.00  0.00     0.293 HD
ENDBRANCH   6  14
TORSDOF 4
ENDMDL
MODEL 5
REMARK VINA RESULT:    -4.576     13.332     15.172
REMARK INTER + INTRA:          -5.294
REMARK INTER:                  -5.241
REMARK INTRA:                  -0.053
REMARK UNBOUND:                -0.049
REMARK SMILES O=C([O-])c1cc(O)c(O)c(O)c1
REMARK SMILES IDX 4 1 5 2 12 3 6 4 10 5 8 6 2 7 1 8 3 9 7 10 11 12 9 14
REMARK H PARENT 7 11 11 13 9 15
REMARK Flexibility Score: inf
ROOT
ATOM      1  C   UNL     1      40.060 -79.786  40.146  1.00  0.00     0.005 A 
ATOM      2  C   UNL     1      41.079 -79.028  39.550  1.00  0.00     0.060 A 
ATOM      3  C   UNL     1      39.606 -80.945  39.498  1.00  0.00     0.060 A 
ATOM      4  C   UNL     1      41.642 -79.411  38.327  1.00  0.00     0.162 A 
ATOM      5  C   UNL     1      40.157 -81.342  38.276  1.00  0.00     0.162 A 
ATOM      6  C   UNL     1      41.178 -80.581  37.679  1.00  0.00     0.200 A 
ENDROOT
BRANCH   1   7
ATOM      7  C   UNL     1      39.475 -79.367  41.440  1.00  0.00     0.072 C 
ATOM      8  O   UNL     1      39.745 -78.239  41.931  1.00  0.00    -0.545 OA
ATOM      9  O   UNL     1      38.617 -80.215  42.132  1.00  0.00    -0.545 OA
ENDBRANCH   1   7
BRANCH   4  10
ATOM     10  O   UNL     1      42.652 -78.604  37.798  1.00  0.00    -0.504 OA
ATOM     11  H   UNL     1      42.929 -77.715  38.185  1.00  0.00     0.293 HD
ENDBRANCH   4  10
BRANCH   5  12
ATOM     12  O   UNL     1      39.673 -82.501  37.668  1.00  0.00    -0.504 OA
ATOM     13  H   UNL     1      39.204 -82.487  36.771  1.00  0.00     0.293 HD
ENDBRANCH   5  12
BRANCH   6  14
ATOM     14  O   UNL     1      41.702 -81.013  36.458  1.00  0.00    -0.502 OA
ATOM     15  H   UNL     1      41.212 -81.610  35.808  1.00  0.00     0.293 HD
ENDBRANCH   6  14
TORSDOF 4
ENDMDL
MODEL 6
REMARK VINA RESULT:    -4.566     13.304     15.309
REMARK INTER + INTRA:          -5.282
REMARK INTER:                  -5.230
REMARK INTRA:                  -0.052
REMARK UNBOUND:                -0.049
REMARK SMILES O=C([O-])c1cc(O)c(O)c(O)c1
REMARK SMILES IDX 4 1 5 2 12 3 6 4 10 5 8 6 2 7 1 8 3 9 7 10 11 12 9 14
REMARK H PARENT 7 11 11 13 9 15
REMARK Flexibility Score: inf
ROOT
ATOM      1  C   UNL     1      40.078 -79.771  40.137  1.00  0.00     0.005 A 
ATOM      2  C   UNL     1      39.606 -80.933  39.507  1.00  0.00     0.060 A 
ATOM      3  C   UNL     1      41.105 -79.035  39.525  1.00  0.00     0.060 A 
ATOM      4  C   UNL     1      40.144 -81.362  38.288  1.00  0.00     0.162 A 
ATOM      5  C   UNL     1      41.653 -79.449  38.309  1.00  0.00     0.162 A 
ATOM      6  C   UNL     1      41.179 -80.614  37.678  1.00  0.00     0.200 A 
ENDROOT
BRANCH   1   7
ATOM      7  C   UNL     1      39.499 -79.331  41.426  1.00  0.00     0.072 C 
ATOM      8  O   UNL     1      39.740 -78.181  41.878  1.00  0.00    -0.545 OA
ATOM      9  O   UNL     1      38.680 -80.184  42.158  1.00  0.00    -0.545 OA
ENDBRANCH   1   7
BRANCH   4  10
ATOM     10  O   UNL     1      39.621 -82.528  37.724  1.00  0.00    -0.504 OA
ATOM     11  H   UNL     1      40.060 -83.041  36.974  1.00  0.00     0.293 HD
ENDBRANCH   4  10
BRANCH   5  12
ATOM     12  O   UNL     1      42.672 -78.686  37.739  1.00  0.00    -0.504 OA
ATOM     13  H   UNL     1      43.229 -78.036  38.279  1.00  0.00     0.293 HD
ENDBRANCH   5  12
BRANCH   6  14
ATOM     14  O   UNL     1      41.754 -80.992  36.462  1.00  0.00    -0.502 OA
ATOM     15  H   UNL     1      42.748 -81.021  36.286  1.00  0.00     0.293 HD
ENDBRANCH   6  14
TORSDOF 4
ENDMDL
MODEL 7
REMARK VINA RESULT:    -4.559     13.592     15.692
REMARK INTER + INTRA:          -5.274
REMARK INTER:                  -5.222
REMARK INTRA:                  -0.052
REMARK UNBOUND:                -0.049
REMARK SMILES O=C([O-])c1cc(O)c(O)c(O)c1
REMARK SMILES IDX 4 1 5 2 12 3 6 4 10 5 8 6 2 7 1 8 3 9 7 10 11 12 9 14
REMARK H PARENT 7 11 11 13 9 15
REMARK Flexibility Score: inf
ROOT
ATOM      1  C   UNL     1      40.948 -78.849  39.917  1.00  0.00     0.005 A 
ATOM      2  C   UNL     1      41.498 -79.119  38.654  1.00  0.00     0.060 A 
ATOM      3  C   UNL     1      40.018 -79.749  40.460  1.00  0.00     0.060 A 
ATOM      4  C   UNL     1      41.133 -80.265  37.938  1.00  0.00     0.162 A 
ATOM      5  C   UNL     1      39.642 -80.897  39.759  1.00  0.00     0.162 A 
ATOM      6  C   UNL     1      40.194 -81.168  38.494  1.00  0.00     0.200 A 
ENDROOT
BRANCH   1   7
ATOM      7  C   UNL     1      41.344 -77.632  40.661  1.00  0.00     0.072 C 
ATOM      8  O   UNL     1      42.324 -76.939  40.282  1.00  0.00    -0.545 OA
ATOM      9  O   UNL     1      40.636 -77.237  41.791  1.00  0.00    -0.545 OA
ENDBRANCH   1   7
BRANCH   4  10
ATOM     10  O   UNL     1      41.724 -80.464  36.689  1.00  0.00    -0.504 OA
ATOM     11  H   UNL     1      41.976 -79.720  36.056  1.00  0.00     0.293 HD
ENDBRANCH   4  10
BRANCH   5  12
ATOM     12  O   UNL     1      38.714 -81.763  40.339  1.00  0.00    -0.504 OA
ATOM     13  H   UNL     1      38.243 -82.486  39.810  1.00  0.00     0.293 HD
ENDBRANCH   5  12
BRANCH   6  14
ATOM     14  O   UNL     1      39.792 -82.328  37.827  1.00  0.00    -0.502 OA
ATOM     15  H   UNL     1      39.840 -82.454  36.826  1.00  0.00     0.293 HD
ENDBRANCH   6  14
TORSDOF 4
ENDMDL
MODEL 8
REMARK VINA RESULT:    -4.553     11.174     13.035
REMARK INTER + INTRA:          -5.268
REMARK INTER:                  -5.216
REMARK INTRA:                  -0.052
REMARK UNBOUND:                -0.049
REMARK SMILES O=C([O-])c1cc(O)c(O)c(O)c1
REMARK SMILES IDX 4 1 5 2 12 3 6 4 10 5 8 6 2 7 1 8 3 9 7 10 11 12 9 14
REMARK H PARENT 7 11 11 13 9 15
REMARK Flexibility Score: inf
ROOT
ATOM      1  C   UNL     1      26.241 -80.306  42.007  1.00  0.00     0.005 A 
ATOM      2  C   UNL     1      26.004 -79.008  41.529  1.00  0.00     0.060 A 
ATOM      3  C   UNL     1      25.516 -80.765  43.117  1.00  0.00     0.060 A 
ATOM      4  C   UNL     1      25.061 -78.175  42.142  1.00  0.00     0.162 A 
ATOM      5  C   UNL     1      24.571 -79.947  43.741  1.00  0.00     0.162 A 
ATOM      6  C   UNL     1      24.333 -78.646  43.262  1.00  0.00     0.200 A 
ENDROOT
BRANCH   1   7
ATOM      7  C   UNL     1      27.243 -81.175  41.348  1.00  0.00     0.072 C 
ATOM      8  O   UNL     1      27.586 -80.966  40.154  1.00  0.00    -0.545 OA
ATOM      9  O   UNL     1      27.819 -82.235  42.039  1.00  0.00    -0.545 OA
ENDBRANCH   1   7
BRANCH   4  10
ATOM     10  O   UNL     1      24.881 -76.897  41.608  1.00  0.00    -0.504 OA
ATOM     11  H   UNL     1      25.630 -76.316  41.264  1.00  0.00     0.293 HD
ENDBRANCH   4  10
BRANCH   5  12
ATOM     12  O   UNL     1      23.875 -80.446  44.842  1.00  0.00    -0.504 OA
ATOM     13  H   UNL     1      23.374 -81.326  44.813  1.00  0.00     0.293 HD
ENDBRANCH   5  12
BRANCH   6  14
ATOM     14  O   UNL     1      23.379 -77.861  43.914  1.00  0.00    -0.502 OA
ATOM     15  H   UNL     1      22.463 -77.654  43.544  1.00  0.00     0.293 HD
ENDBRANCH   6  14
TORSDOF 4
ENDMDL
MODEL 9
REMARK VINA RESULT:    -4.418     15.827     16.529
REMARK INTER + INTRA:          -5.113
REMARK INTER:                  -5.061
REMARK INTRA:                  -0.052
REMARK UNBOUND:                -0.049
REMARK SMILES O=C([O-])c1cc(O)c(O)c(O)c1
REMARK SMILES IDX 4 1 5 2 12 3 6 4 10 5 8 6 2 7 1 8 3 9 7 10 11 12 9 14
REMARK H PARENT 7 11 11 13 9 15
REMARK Flexibility Score: inf
ROOT
ATOM      1  C   UNL     1      27.048 -77.938  27.347  1.00  0.00     0.005 A 
ATOM      2  C   UNL     1      26.642 -77.646  28.658  1.00  0.00     0.060 A 
ATOM      3  C   UNL     1      26.100 -78.424  26.433  1.00  0.00     0.060 A 
ATOM      4  C   UNL     1      25.314 -77.832  29.060  1.00  0.00     0.162 A 
ATOM      5  C   UNL     1      24.771 -78.616  26.818  1.00  0.00     0.162 A 
ATOM      6  C   UNL     1      24.364 -78.322  28.132  1.00  0.00     0.200 A 
ENDROOT
BRANCH   1   7
ATOM      7  C   UNL     1      28.457 -77.737  26.937  1.00  0.00     0.072 C 
ATOM      8  O   UNL     1      28.921 -78.326  25.926  1.00  0.00    -0.545 OA
ATOM      9  O   UNL     1      29.288 -76.892  27.665  1.00  0.00    -0.545 OA
ENDBRANCH   1   7
BRANCH   4  10
ATOM     10  O   UNL     1      24.988 -77.518  30.381  1.00  0.00    -0.504 OA
ATOM     11  H   UNL     1      25.538 -76.914  30.973  1.00  0.00     0.293 HD
ENDBRANCH   4  10
BRANCH   5  12
ATOM     12  O   UNL     1      23.864 -79.101  25.875  1.00  0.00    -0.504 OA
ATOM     13  H   UNL     1      23.252 -78.490  25.347  1.00  0.00     0.293 HD
ENDBRANCH   5  12
BRANCH   6  14
ATOM     14  O   UNL     1      23.025 -78.527  28.475  1.00  0.00    -0.502 OA
ATOM     15  H   UNL     1      22.306 -78.804  27.823  1.00  0.00     0.293 HD
ENDBRANCH   6  14
TORSDOF 4
ENDMDL
