MODEL 1
REMARK VINA RESULT:    -3.366      0.000      0.000
REMARK INTER + INTRA:          -4.332
REMARK INTER:                  -4.153
REMARK INTRA:                  -0.179
REMARK UNBOUND:                -0.179
REMARK SMILES CCCCCC(=O)[O-]
REMARK SMILES IDX 4 1 5 2 6 3 7 4 8 5 3 6 2 7 1 8
REMARK H PARENT
REMARK Flexibility Score: inf
ROOT
ATOM      1  C   UNL     1     -30.609 -20.859 -32.106  1.00  0.00     0.006 C 
ENDROOT
BRANCH   1   2
ATOM      2  C   UNL     1     -31.431 -19.613 -31.761  1.00  0.00     0.053 C 
BRANCH   2   3
ATOM      3  C   UNL     1     -31.198 -19.208 -30.339  1.00  0.00     0.041 C 
ATOM      4  O   UNL     1     -30.045 -18.882 -29.954  1.00  0.00    -0.550 OA
ATOM      5  O   UNL     1     -32.265 -19.145 -29.451  1.00  0.00    -0.550 OA
ENDBRANCH   2   3
ENDBRANCH   1   2
BRANCH   1   6
ATOM      6  C   UNL     1     -29.650 -20.580 -33.272  1.00  0.00     0.000 C 
BRANCH   6   7
ATOM      7  C   UNL     1     -29.203 -19.111 -33.331  1.00  0.00    -0.003 C 
ATOM      8  C   UNL     1     -27.856 -18.875 -32.647  1.00  0.00     0.004 C 
ENDBRANCH   6   7
ENDBRANCH   1   6
TORSDOF 4
ENDMDL
MODEL 2
REMARK VINA RESULT:    -3.279      1.503      2.013
REMARK INTER + INTRA:          -4.224
REMARK INTER:                  -4.079
REMARK INTRA:                  -0.146
REMARK UNBOUND:                -0.179
REMARK SMILES CCCCCC(=O)[O-]
REMARK SMILES IDX 4 1 5 2 6 3 7 4 8 5 3 6 2 7 1 8
REMARK H PARENT
REMARK Flexibility Score: inf
ROOT
ATOM      1  C   UNL     1     -29.595 -20.334 -33.659  1.00  0.00     0.006 C 
ENDROOT
BRANCH   1   2
ATOM      2  C   UNL     1     -31.036 -20.644 -33.244  1.00  0.00     0.053 C 
BRANCH   2   3
ATOM      3  C   UNL     1     -31.170 -20.615 -31.754  1.00  0.00     0.041 C 
ATOM      4  O   UNL     1     -30.796 -21.599 -31.065  1.00  0.00    -0.550 OA
ATOM      5  O   UNL     1     -31.665 -19.480 -31.123  1.00  0.00    -0.550 OA
ENDBRANCH   2   3
ENDBRANCH   1   2
BRANCH   1   6
ATOM      6  C   UNL     1     -29.189 -18.918 -33.224  1.00  0.00     0.000 C 
BRANCH   6   7
ATOM      7  C   UNL     1     -27.908 -18.905 -32.376  1.00  0.00    -0.003 C 
ATOM      8  C   UNL     1     -28.193 -18.875 -30.874  1.00  0.00     0.004 C 
ENDBRANCH   6   7
ENDBRANCH   1   6
TORSDOF 4
ENDMDL
MODEL 3
REMARK VINA RESULT:    -3.134      3.581      4.476
REMARK INTER + INTRA:          -4.046
REMARK INTER:                  -4.001
REMARK INTRA:                  -0.045
REMARK UNBOUND:                -0.179
REMARK SMILES CCCCCC(=O)[O-]
REMARK SMILES IDX 4 1 5 2 6 3 7 4 8 5 3 6 2 7 1 8
REMARK H PARENT
REMARK Flexibility Score: inf
ROOT
ATOM      1  C   UNL     1     -31.938 -21.801 -34.485  1.00  0.00     0.006 C 
ENDROOT
BRANCH   1   2
ATOM      2  C   UNL     1     -30.773 -21.064 -33.818  1.00  0.00     0.053 C 
BRANCH   2   3
ATOM      3  C   UNL     1     -31.133 -20.670 -32.420  1.00  0.00     0.041 C 
ATOM      4  O   UNL     1     -31.750 -19.594 -32.205  1.00  0.00    -0.550 OA
ATOM      5  O   UNL     1     -30.830 -21.514 -31.359  1.00  0.00    -0.550 OA
ENDBRANCH   2   3
ENDBRANCH   1   2
BRANCH   1   6
ATOM      6  C   UNL     1     -31.584 -22.201 -35.925  1.00  0.00     0.000 C 
BRANCH   6   7
ATOM      7  C   UNL     1     -32.423 -23.382 -36.434  1.00  0.00    -0.003 C 
ATOM      8  C   UNL     1     -31.762 -24.120 -37.599  1.00  0.00     0.004 C 
ENDBRANCH   6   7
ENDBRANCH   1   6
TORSDOF 4
ENDMDL
MODEL 4
REMARK VINA RESULT:    -3.134      1.342      2.332
REMARK INTER + INTRA:          -4.046
REMARK INTER:                  -3.785
REMARK INTRA:                  -0.260
REMARK UNBOUND:                -0.179
REMARK SMILES CCCCCC(=O)[O-]
REMARK SMILES IDX 4 1 5 2 6 3 7 4 8 5 3 6 2 7 1 8
REMARK H PARENT
REMARK Flexibility Score: inf
ROOT
ATOM      1  C   UNL     1     -28.804 -19.420 -31.536  1.00  0.00     0.006 C 
ENDROOT
BRANCH   1   2
ATOM      2  C   UNL     1     -29.662 -18.875 -30.390  1.00  0.00     0.053 C 
BRANCH   2   3
ATOM      3  C   UNL     1     -30.877 -19.726 -30.194  1.00  0.00     0.041 C 
ATOM      4  O   UNL     1     -32.025 -19.244 -30.381  1.00  0.00    -0.550 OA
ATOM      5  O   UNL     1     -30.740 -21.066 -29.852  1.00  0.00    -0.550 OA
ENDBRANCH   2   3
ENDBRANCH   1   2
BRANCH   1   6
ATOM      6  C   UNL     1     -29.536 -19.291 -32.880  1.00  0.00     0.000 C 
BRANCH   6   7
ATOM      7  C   UNL     1     -29.742 -20.646 -33.574  1.00  0.00    -0.003 C 
ATOM      8  C   UNL     1     -31.197 -21.115 -33.540  1.00  0.00     0.004 C 
ENDBRANCH   6   7
ENDBRANCH   1   6
TORSDOF 4
ENDMDL
MODEL 5
REMARK VINA RESULT:    -3.122      2.110      3.953
REMARK INTER + INTRA:          -4.030
REMARK INTER:                  -3.890
REMARK INTRA:                  -0.140
REMARK UNBOUND:                -0.179
REMARK SMILES CCCCCC(=O)[O-]
REMARK SMILES IDX 4 1 5 2 6 3 7 4 8 5 3 6 2 7 1 8
REMARK H PARENT
REMARK Flexibility Score: inf
ROOT
ATOM      1  C   UNL     1     -30.761 -20.661 -31.377  1.00  0.00     0.006 C 
ENDROOT
BRANCH   1   2
ATOM      2  C   UNL     1     -30.616 -19.424 -32.268  1.00  0.00     0.053 C 
BRANCH   2   3
ATOM      3  C   UNL     1     -29.190 -19.242 -32.685  1.00  0.00     0.041 C 
ATOM      4  O   UNL     1     -28.900 -19.093 -33.901  1.00  0.00    -0.550 OA
ATOM      5  O   UNL     1     -28.187 -19.189 -31.725  1.00  0.00    -0.550 OA
ENDBRANCH   2   3
ENDBRANCH   1   2
BRANCH   1   6
ATOM      6  C   UNL     1     -31.031 -20.261 -29.920  1.00  0.00     0.000 C 
BRANCH   6   7
ATOM      7  C   UNL     1     -31.940 -19.027 -29.805  1.00  0.00    -0.003 C 
ATOM      8  C   UNL     1     -32.988 -19.164 -28.701  1.00  0.00     0.004 C 
ENDBRANCH   6   7
ENDBRANCH   1   6
TORSDOF 4
ENDMDL
MODEL 6
REMARK VINA RESULT:    -3.055      2.789      3.878
REMARK INTER + INTRA:          -3.949
REMARK INTER:                  -3.902
REMARK INTRA:                  -0.047
REMARK UNBOUND:                -0.179
REMARK SMILES CCCCCC(=O)[O-]
REMARK SMILES IDX 4 1 5 2 6 3 7 4 8 5 3 6 2 7 1 8
REMARK H PARENT
REMARK Flexibility Score: inf
ROOT
ATOM      1  C   UNL     1     -30.843 -21.117 -33.855  1.00  0.00     0.006 C 
ENDROOT
BRANCH   1   2
ATOM      2  C   UNL     1     -31.041 -21.089 -32.337  1.00  0.00     0.053 C 
BRANCH   2   3
ATOM      3  C   UNL     1     -30.063 -20.153 -31.698  1.00  0.00     0.041 C 
ATOM      4  O   UNL     1     -30.238 -19.766 -30.513  1.00  0.00    -0.550 OA
ATOM      5  O   UNL     1     -28.932 -19.746 -32.396  1.00  0.00    -0.550 OA
ENDBRANCH   2   3
ENDBRANCH   1   2
BRANCH   1   6
ATOM      6  C   UNL     1     -32.000 -21.853 -34.547  1.00  0.00     0.000 C 
BRANCH   6   7
ATOM      7  C   UNL     1     -31.662 -22.266 -35.987  1.00  0.00    -0.003 C 
ATOM      8  C   UNL     1     -32.554 -23.394 -36.505  1.00  0.00     0.004 C 
ENDBRANCH   6   7
ENDBRANCH   1   6
TORSDOF 4
ENDMDL
MODEL 7
REMARK VINA RESULT:    -2.999      4.554      5.073
REMARK INTER + INTRA:          -3.879
REMARK INTER:                  -3.797
REMARK INTRA:                  -0.082
REMARK UNBOUND:                -0.179
REMARK SMILES CCCCCC(=O)[O-]
REMARK SMILES IDX 4 1 5 2 6 3 7 4 8 5 3 6 2 7 1 8
REMARK H PARENT
REMARK Flexibility Score: inf
ROOT
ATOM      1  C   UNL     1     -31.099 -21.389 -34.220  1.00  0.00     0.006 C 
ENDROOT
BRANCH   1   2
ATOM      2  C   UNL     1     -32.303 -22.248 -34.622  1.00  0.00     0.053 C 
BRANCH   2   3
ATOM      3  C   UNL     1     -32.185 -22.680 -36.050  1.00  0.00     0.041 C 
ATOM      4  O   UNL     1     -31.346 -22.131 -36.811  1.00  0.00    -0.550 OA
ATOM      5  O   UNL     1     -32.969 -23.723 -36.528  1.00  0.00    -0.550 OA
ENDBRANCH   2   3
ENDBRANCH   1   2
BRANCH   1   6
ATOM      6  C   UNL     1     -31.132 -21.066 -32.719  1.00  0.00     0.000 C 
BRANCH   6   7
ATOM      7  C   UNL     1     -29.920 -20.237 -32.267  1.00  0.00    -0.003 C 
ATOM      8  C   UNL     1     -29.217 -19.533 -33.428  1.00  0.00     0.004 C 
ENDBRANCH   6   7
ENDBRANCH   1   6
TORSDOF 4
ENDMDL
MODEL 8
REMARK VINA RESULT:    -2.986      2.438      4.290
REMARK INTER + INTRA:          -3.863
REMARK INTER:                  -3.807
REMARK INTRA:                  -0.056
REMARK UNBOUND:                -0.179
REMARK SMILES CCCCCC(=O)[O-]
REMARK SMILES IDX 4 1 5 2 6 3 7 4 8 5 3 6 2 7 1 8
REMARK H PARENT
REMARK Flexibility Score: inf
ROOT
ATOM      1  C   UNL     1     -30.362 -19.532 -30.223  1.00  0.00     0.006 C 
ENDROOT
BRANCH   1   2
ATOM      2  C   UNL     1     -29.919 -19.358 -31.679  1.00  0.00     0.053 C 
BRANCH   2   3
ATOM      3  C   UNL     1     -30.232 -20.587 -32.473  1.00  0.00     0.041 C 
ATOM      4  O   UNL     1     -29.697 -20.769 -33.598  1.00  0.00    -0.550 OA
ATOM      5  O   UNL     1     -31.079 -21.556 -31.949  1.00  0.00    -0.550 OA
ENDBRANCH   2   3
ENDBRANCH   1   2
BRANCH   1   6
ATOM      6  C   UNL     1     -31.735 -18.887 -29.985  1.00  0.00     0.000 C 
BRANCH   6   7
ATOM      7  C   UNL     1     -32.552 -19.618 -28.908  1.00  0.00    -0.003 C 
ATOM      8  C   UNL     1     -33.840 -18.880 -28.540  1.00  0.00     0.004 C 
ENDBRANCH   6   7
ENDBRANCH   1   6
TORSDOF 4
ENDMDL
MODEL 9
REMARK VINA RESULT:    -2.981      6.041      6.812
REMARK INTER + INTRA:          -3.857
REMARK INTER:                  -3.814
REMARK INTRA:                  -0.043
REMARK UNBOUND:                -0.179
REMARK SMILES CCCCCC(=O)[O-]
REMARK SMILES IDX 4 1 5 2 6 3 7 4 8 5 3 6 2 7 1 8
REMARK H PARENT
REMARK Flexibility Score: inf
ROOT
ATOM      1  C   UNL     1     -31.570 -22.202 -35.986  1.00  0.00     0.006 C 
ENDROOT
BRANCH   1   2
ATOM      2  C   UNL     1     -32.412 -23.382 -36.481  1.00  0.00     0.053 C 
BRANCH   2   3
ATOM      3  C   UNL     1     -31.966 -23.808 -37.844  1.00  0.00     0.041 C 
ATOM      4  O   UNL     1     -31.574 -24.988 -38.042  1.00  0.00    -0.550 OA
ATOM      5  O   UNL     1     -32.029 -22.916 -38.907  1.00  0.00    -0.550 OA
ENDBRANCH   2   3
ENDBRANCH   1   2
BRANCH   1   6
ATOM      6  C   UNL     1     -31.913 -21.855 -34.530  1.00  0.00     0.000 C 
BRANCH   6   7
ATOM      7  C   UNL     1     -30.806 -21.043 -33.839  1.00  0.00    -0.003 C 
ATOM      8  C   UNL     1     -31.038 -20.884 -32.336  1.00  0.00     0.004 C 
ENDBRANCH   6   7
ENDBRANCH   1   6
TORSDOF 4
ENDMDL
