MODEL 1
REMARK VINA RESULT:    -5.395      0.000      0.000
REMARK INTER + INTRA:          -9.460
REMARK INTER:                  -8.392
REMARK INTRA:                  -1.068
REMARK UNBOUND:                -1.068
REMARK SMILES C[C@@]12C[C@@]3(O)O[C@@H](O1)[C@]1(COC(=O)c4ccccc4)[C@H]3C[C@@]12O[C@@H]1O[C@H](CO)[C@H](O)[C@H](O)[C@H]1O
REMARK SMILES IDX 1 1 2 2 3 3 4 4 20 5 21 6 22 7 9 8 7 9 8 10 6 11 23 12 24 13
REMARK SMILES IDX 33 14 25 15 31 16 26 17 29 18 34 19 32 21 27 23 28 24 30 26
REMARK SMILES IDX 5 28 10 30 11 31 12 32 13 33 14 34 15 35 19 36 16 37 18 38
REMARK SMILES IDX 17 39
REMARK H PARENT 34 20 32 22 28 25 30 27 5 29
REMARK Flexibility Score: inf
ROOT
ATOM      1  C   UNL     1      19.895   4.579  29.651  1.00  0.00     0.046 C 
ATOM      2  C   UNL     1      21.145   3.813  30.085  1.00  0.00     0.104 C 
ATOM      3  C   UNL     1      21.649   4.293  31.497  1.00  0.00     0.104 C 
ATOM      4  C   UNL     1      22.956   3.450  31.729  1.00  0.00     0.175 C 
ATOM      5  C   UNL     1      23.891   3.523  30.478  1.00  0.00     0.070 C 
ATOM      6  C   UNL     1      23.551   4.703  29.554  1.00  0.00     0.050 C 
ATOM      7  C   UNL     1      22.351   3.858  29.069  1.00  0.00     0.115 C 
ATOM      8  C   UNL     1      23.088   2.612  29.562  1.00  0.00     0.096 C 
ATOM      9  C   UNL     1      22.123   1.846  30.447  1.00  0.00     0.267 C 
ATOM     10  O   UNL     1      20.852   2.437  30.233  1.00  0.00    -0.342 OA
ATOM     11  O   UNL     1      22.541   2.100  31.779  1.00  0.00    -0.320 OA
ENDROOT
BRANCH   7  12
ATOM     12  O   UNL     1      22.068   3.807  27.677  1.00  0.00    -0.339 OA
BRANCH  12  13
ATOM     13  C   UNL     1      22.502   4.971  26.988  1.00  0.00     0.282 C 
ATOM     14  C   UNL     1      23.476   4.550  25.854  1.00  0.00     0.202 C 
ATOM     15  O   UNL     1      21.343   5.695  26.578  1.00  0.00    -0.341 OA
ATOM     16  C   UNL     1      22.732   3.892  24.666  1.00  0.00     0.179 C 
ATOM     17  C   UNL     1      21.191   5.867  25.181  1.00  0.00     0.178 C 
ATOM     18  C   UNL     1      21.337   4.525  24.423  1.00  0.00     0.177 C 
BRANCH  14  19
ATOM     19  O   UNL     1      24.194   5.679  25.418  1.00  0.00    -0.385 OA
ATOM     20  H   UNL     1      24.296   6.276  26.203  1.00  0.00     0.211 HD
ENDBRANCH  14  19
BRANCH  16  21
ATOM     21  O   UNL     1      22.611   2.508  24.878  1.00  0.00    -0.387 OA
ATOM     22  H   UNL     1      22.204   2.122  24.057  1.00  0.00     0.211 HD
ENDBRANCH  16  21
BRANCH  17  23
ATOM     23  C   UNL     1      19.825   6.517  24.919  1.00  0.00     0.191 C 
BRANCH  23  24
ATOM     24  O   UNL     1      18.832   5.899  25.699  1.00  0.00    -0.394 OA
ATOM     25  H   UNL     1      18.797   4.943  25.434  1.00  0.00     0.210 HD
ENDBRANCH  23  24
ENDBRANCH  17  23
BRANCH  18  26
ATOM     26  O   UNL     1      20.293   3.637  24.751  1.00  0.00    -0.387 OA
ATOM     27  H   UNL     1      20.614   2.715  24.583  1.00  0.00     0.211 HD
ENDBRANCH  18  26
ENDBRANCH  12  13
ENDBRANCH   7  12
BRANCH   4  28
ATOM     28  O   UNL     1      23.633   3.827  32.897  1.00  0.00    -0.365 OA
ATOM     29  H   UNL     1      24.019   2.998  33.282  1.00  0.00     0.214 HD
ENDBRANCH   4  28
BRANCH   8  30
ATOM     30  C   UNL     1      23.877   1.762  28.546  1.00  0.00     0.249 C 
BRANCH  30  31
ATOM     31  O   UNL     1      23.276   0.481  28.370  1.00  0.00    -0.461 OA
BRANCH  31  32
ATOM     32  C   UNL     1      23.861  -0.727  28.772  1.00  0.00     0.338 C 
ATOM     33  O   UNL     1      24.888  -1.127  28.160  1.00  0.00    -0.246 OA
BRANCH  32  34
ATOM     34  C   UNL     1      23.329  -1.543  29.885  1.00  0.00     0.060 A 
ATOM     35  C   UNL     1      24.134  -1.873  30.989  1.00  0.00     0.015 A 
ATOM     36  C   UNL     1      21.977  -1.926  29.885  1.00  0.00     0.015 A 
ATOM     37  C   UNL     1      23.604  -2.603  32.057  1.00  0.00     0.001 A 
ATOM     38  C   UNL     1      21.450  -2.653  30.956  1.00  0.00     0.001 A 
ATOM     39  C   UNL     1      22.263  -2.994  32.041  1.00  0.00     0.000 A 
ENDBRANCH  32  34
ENDBRANCH  31  32
ENDBRANCH  30  31
ENDBRANCH   8  30
TORSDOF 12
ENDMDL
MODEL 2
REMARK VINA RESULT:    -5.141      2.053      2.805
REMARK INTER + INTRA:          -9.064
REMARK INTER:                  -7.599
REMARK INTRA:                  -1.466
REMARK UNBOUND:                -1.068
REMARK SMILES C[C@@]12C[C@@]3(O)O[C@@H](O1)[C@]1(COC(=O)c4ccccc4)[C@H]3C[C@@]12O[C@@H]1O[C@H](CO)[C@H](O)[C@H](O)[C@H]1O
REMARK SMILES IDX 1 1 2 2 3 3 4 4 20 5 21 6 22 7 9 8 7 9 8 10 6 11 23 12 24 13
REMARK SMILES IDX 33 14 25 15 31 16 26 17 29 18 34 19 32 21 27 23 28 24 30 26
REMARK SMILES IDX 5 28 10 30 11 31 12 32 13 33 14 34 15 35 19 36 16 37 18 38
REMARK SMILES IDX 17 39
REMARK H PARENT 34 20 32 22 28 25 30 27 5 29
REMARK Flexibility Score: inf
ROOT
ATOM      1  C   UNL     1      22.668   6.916  29.478  1.00  0.00     0.046 C 
ATOM      2  C   UNL     1      23.931   6.054  29.430  1.00  0.00     0.104 C 
ATOM      3  C   UNL     1      25.156   6.798  30.082  1.00  0.00     0.104 C 
ATOM      4  C   UNL     1      26.350   5.795  29.875  1.00  0.00     0.175 C 
ATOM      5  C   UNL     1      26.408   5.302  28.393  1.00  0.00     0.070 C 
ATOM      6  C   UNL     1      25.622   6.213  27.436  1.00  0.00     0.050 C 
ATOM      7  C   UNL     1      24.346   5.544  27.996  1.00  0.00     0.115 C 
ATOM      8  C   UNL     1      25.212   4.364  28.436  1.00  0.00     0.096 C 
ATOM      9  C   UNL     1      24.909   4.111  29.901  1.00  0.00     0.267 C 
ATOM     10  O   UNL     1      23.752   4.876  30.192  1.00  0.00    -0.342 OA
ATOM     11  O   UNL     1      26.015   4.639  30.617  1.00  0.00    -0.320 OA
ENDROOT
BRANCH   7  12
ATOM     12  O   UNL     1      23.320   5.160  27.090  1.00  0.00    -0.339 OA
BRANCH  12  13
ATOM     13  C   UNL     1      23.090   6.131  26.080  1.00  0.00     0.282 C 
ATOM     14  C   UNL     1      23.711   5.628  24.748  1.00  0.00     0.202 C 
ATOM     15  O   UNL     1      21.691   6.409  26.050  1.00  0.00    -0.341 OA
ATOM     16  C   UNL     1      22.875   4.491  24.112  1.00  0.00     0.179 C 
ATOM     17  C   UNL     1      21.035   6.115  24.830  1.00  0.00     0.178 C 
ATOM     18  C   UNL     1      21.353   4.680  24.344  1.00  0.00     0.177 C 
BRANCH  14  19
ATOM     19  O   UNL     1      23.828   6.709  23.855  1.00  0.00    -0.385 OA
ATOM     20  H   UNL     1      23.856   7.535  24.404  1.00  0.00     0.211 HD
ENDBRANCH  14  19
BRANCH  16  21
ATOM     21  O   UNL     1      23.295   3.245  24.609  1.00  0.00    -0.387 OA
ATOM     22  H   UNL     1      22.581   2.590  24.392  1.00  0.00     0.211 HD
ENDBRANCH  16  21
BRANCH  17  23
ATOM     23  C   UNL     1      19.526   6.321  25.032  1.00  0.00     0.191 C 
BRANCH  23  24
ATOM     24  O   UNL     1      19.069   5.556  26.119  1.00  0.00    -0.394 OA
ATOM     25  H   UNL     1      18.704   6.187  26.793  1.00  0.00     0.210 HD
ENDBRANCH  23  24
ENDBRANCH  17  23
BRANCH  18  26
ATOM     26  O   UNL     1      20.833   3.714  25.228  1.00  0.00    -0.387 OA
ATOM     27  H   UNL     1      19.872   3.596  25.017  1.00  0.00     0.211 HD
ENDBRANCH  18  26
ENDBRANCH  12  13
ENDBRANCH   7  12
BRANCH   4  28
ATOM     28  O   UNL     1      27.577   6.334  30.284  1.00  0.00    -0.365 OA
ATOM     29  H   UNL     1      27.967   5.693  30.932  1.00  0.00     0.214 HD
ENDBRANCH   4  28
BRANCH   8  30
ATOM     30  C   UNL     1      25.269   3.108  27.542  1.00  0.00     0.249 C 
BRANCH  30  31
ATOM     31  O   UNL     1      24.698   1.980  28.202  1.00  0.00    -0.461 OA
BRANCH  31  32
ATOM     32  C   UNL     1      23.403   1.501  27.965  1.00  0.00     0.338 C 
ATOM     33  O   UNL     1      22.740   2.012  27.022  1.00  0.00    -0.246 OA
BRANCH  32  34
ATOM     34  C   UNL     1      22.789   0.421  28.767  1.00  0.00     0.060 A 
ATOM     35  C   UNL     1      23.473  -0.785  29.003  1.00  0.00     0.015 A 
ATOM     36  C   UNL     1      21.539   0.628  29.375  1.00  0.00     0.015 A 
ATOM     37  C   UNL     1      22.901  -1.777  29.804  1.00  0.00     0.001 A 
ATOM     38  C   UNL     1      20.971  -0.366  30.177  1.00  0.00     0.001 A 
ATOM     39  C   UNL     1      21.651  -1.569  30.391  1.00  0.00     0.000 A 
ENDBRANCH  32  34
ENDBRANCH  31  32
ENDBRANCH  30  31
ENDBRANCH   8  30
TORSDOF 12
ENDMDL
MODEL 3
REMARK VINA RESULT:    -5.114      2.765      6.436
REMARK INTER + INTRA:          -9.022
REMARK INTER:                  -7.511
REMARK INTRA:                  -1.511
REMARK UNBOUND:                -1.068
REMARK SMILES C[C@@]12C[C@@]3(O)O[C@@H](O1)[C@]1(COC(=O)c4ccccc4)[C@H]3C[C@@]12O[C@@H]1O[C@H](CO)[C@H](O)[C@H](O)[C@H]1O
REMARK SMILES IDX 1 1 2 2 3 3 4 4 20 5 21 6 22 7 9 8 7 9 8 10 6 11 23 12 24 13
REMARK SMILES IDX 33 14 25 15 31 16 26 17 29 18 34 19 32 21 27 23 28 24 30 26
REMARK SMILES IDX 5 28 10 30 11 31 12 32 13 33 14 34 15 35 19 36 16 37 18 38
REMARK SMILES IDX 17 39
REMARK H PARENT 34 20 32 22 28 25 30 27 5 29
REMARK Flexibility Score: inf
ROOT
ATOM      1  C   UNL     1      21.543   5.877  26.234  1.00  0.00     0.046 C 
ATOM      2  C   UNL     1      22.852   5.263  25.736  1.00  0.00     0.104 C 
ATOM      3  C   UNL     1      22.799   4.982  24.187  1.00  0.00     0.104 C 
ATOM      4  C   UNL     1      24.185   4.302  23.888  1.00  0.00     0.175 C 
ATOM      5  C   UNL     1      24.465   3.147  24.903  1.00  0.00     0.070 C 
ATOM      6  C   UNL     1      23.192   2.669  25.620  1.00  0.00     0.050 C 
ATOM      7  C   UNL     1      23.307   3.949  26.479  1.00  0.00     0.115 C 
ATOM      8  C   UNL     1      24.791   4.005  26.115  1.00  0.00     0.096 C 
ATOM      9  C   UNL     1      25.070   5.403  25.596  1.00  0.00     0.267 C 
ATOM     10  O   UNL     1      23.922   6.170  25.922  1.00  0.00    -0.342 OA
ATOM     11  O   UNL     1      25.166   5.276  24.186  1.00  0.00    -0.320 OA
ENDROOT
BRANCH   7  12
ATOM     12  O   UNL     1      23.094   3.854  27.881  1.00  0.00    -0.339 OA
BRANCH  12  13
ATOM     13  C   UNL     1      22.158   2.842  28.225  1.00  0.00     0.282 C 
ATOM     14  C   UNL     1      22.781   1.932  29.318  1.00  0.00     0.202 C 
ATOM     15  O   UNL     1      20.930   3.480  28.570  1.00  0.00    -0.341 OA
ATOM     16  C   UNL     1      22.822   2.630  30.700  1.00  0.00     0.179 C 
ATOM     17  C   UNL     1      20.478   3.263  29.894  1.00  0.00     0.178 C 
ATOM     18  C   UNL     1      21.593   3.549  30.930  1.00  0.00     0.177 C 
BRANCH  14  19
ATOM     19  O   UNL     1      22.048   0.733  29.396  1.00  0.00    -0.385 OA
ATOM     20  H   UNL     1      21.118   0.947  29.124  1.00  0.00     0.211 HD
ENDBRANCH  14  19
BRANCH  16  21
ATOM     21  O   UNL     1      24.013   3.363  30.836  1.00  0.00    -0.387 OA
ATOM     22  H   UNL     1      23.801   4.162  31.388  1.00  0.00     0.211 HD
ENDBRANCH  16  21
BRANCH  17  23
ATOM     23  C   UNL     1      19.245   4.146  30.134  1.00  0.00     0.191 C 
BRANCH  23  24
ATOM     24  O   UNL     1      19.352   5.345  29.409  1.00  0.00    -0.394 OA
ATOM     25  H   UNL     1      18.868   6.045  29.919  1.00  0.00     0.210 HD
ENDBRANCH  23  24
ENDBRANCH  17  23
BRANCH  18  26
ATOM     26  O   UNL     1      21.949   4.912  30.933  1.00  0.00    -0.387 OA
ATOM     27  H   UNL     1      21.885   5.245  30.001  1.00  0.00     0.211 HD
ENDBRANCH  18  26
ENDBRANCH  12  13
ENDBRANCH   7  12
BRANCH   4  28
ATOM     28  O   UNL     1      24.285   3.856  22.563  1.00  0.00    -0.365 OA
ATOM     29  H   UNL     1      25.250   3.864  22.333  1.00  0.00     0.214 HD
ENDBRANCH   4  28
BRANCH   8  30
ATOM     30  C   UNL     1      25.825   3.448  27.115  1.00  0.00     0.249 C 
BRANCH  30  31
ATOM     31  O   UNL     1      26.595   4.498  27.697  1.00  0.00    -0.461 OA
BRANCH  31  32
ATOM     32  C   UNL     1      26.517   4.880  29.043  1.00  0.00     0.338 C 
ATOM     33  O   UNL     1      25.511   5.539  29.420  1.00  0.00    -0.246 OA
BRANCH  32  34
ATOM     34  C   UNL     1      27.559   4.535  30.035  1.00  0.00     0.060 A 
ATOM     35  C   UNL     1      27.416   4.890  31.388  1.00  0.00     0.015 A 
ATOM     36  C   UNL     1      28.670   3.771  29.642  1.00  0.00     0.015 A 
ATOM     37  C   UNL     1      28.384   4.514  32.323  1.00  0.00     0.001 A 
ATOM     38  C   UNL     1      29.635   3.395  30.581  1.00  0.00     0.001 A 
ATOM     39  C   UNL     1      29.494   3.768  31.921  1.00  0.00     0.000 A 
ENDBRANCH  32  34
ENDBRANCH  31  32
ENDBRANCH  30  31
ENDBRANCH   8  30
TORSDOF 12
ENDMDL
MODEL 4
REMARK VINA RESULT:    -5.018      1.269      1.673
REMARK INTER + INTRA:          -8.872
REMARK INTER:                  -8.043
REMARK INTRA:                  -0.829
REMARK UNBOUND:                -1.068
REMARK SMILES C[C@@]12C[C@@]3(O)O[C@@H](O1)[C@]1(COC(=O)c4ccccc4)[C@H]3C[C@@]12O[C@@H]1O[C@H](CO)[C@H](O)[C@H](O)[C@H]1O
REMARK SMILES IDX 1 1 2 2 3 3 4 4 20 5 21 6 22 7 9 8 7 9 8 10 6 11 23 12 24 13
REMARK SMILES IDX 33 14 25 15 31 16 26 17 29 18 34 19 32 21 27 23 28 24 30 26
REMARK SMILES IDX 5 28 10 30 11 31 12 32 13 33 14 34 15 35 19 36 16 37 18 38
REMARK SMILES IDX 17 39
REMARK H PARENT 34 20 32 22 28 25 30 27 5 29
REMARK Flexibility Score: inf
ROOT
ATOM      1  C   UNL     1      20.363   5.322  29.899  1.00  0.00     0.046 C 
ATOM      2  C   UNL     1      21.109   4.051  30.306  1.00  0.00     0.104 C 
ATOM      3  C   UNL     1      21.826   4.229  31.697  1.00  0.00     0.104 C 
ATOM      4  C   UNL     1      22.579   2.864  31.902  1.00  0.00     0.175 C 
ATOM      5  C   UNL     1      23.394   2.485  30.623  1.00  0.00     0.070 C 
ATOM      6  C   UNL     1      23.630   3.686  29.694  1.00  0.00     0.050 C 
ATOM      7  C   UNL     1      22.157   3.517  29.255  1.00  0.00     0.115 C 
ATOM      8  C   UNL     1      22.225   2.070  29.743  1.00  0.00     0.096 C 
ATOM      9  C   UNL     1      21.041   1.855  30.665  1.00  0.00     0.267 C 
ATOM     10  O   UNL     1      20.200   2.981  30.481  1.00  0.00    -0.342 OA
ATOM     11  O   UNL     1      21.571   1.875  31.981  1.00  0.00    -0.320 OA
ENDROOT
BRANCH   7  12
ATOM     12  O   UNL     1      21.840   3.611  27.873  1.00  0.00    -0.339 OA
BRANCH  12  13
ATOM     13  C   UNL     1      22.432   4.742  27.251  1.00  0.00     0.282 C 
ATOM     14  C   UNL     1      23.507   4.256  26.241  1.00  0.00     0.202 C 
ATOM     15  O   UNL     1      21.384   5.544  26.709  1.00  0.00    -0.341 OA
ATOM     16  C   UNL     1      22.871   3.650  24.966  1.00  0.00     0.179 C 
ATOM     17  C   UNL     1      21.416   5.726  25.306  1.00  0.00     0.178 C 
ATOM     18  C   UNL     1      21.562   4.377  24.559  1.00  0.00     0.177 C 
BRANCH  14  19
ATOM     19  O   UNL     1      24.348   5.332  25.905  1.00  0.00    -0.385 OA
ATOM     20  H   UNL     1      23.771   6.037  25.512  1.00  0.00     0.211 HD
ENDBRANCH  14  19
BRANCH  16  21
ATOM     21  O   UNL     1      22.631   2.277  25.150  1.00  0.00    -0.387 OA
ATOM     22  H   UNL     1      23.484   1.805  24.959  1.00  0.00     0.211 HD
ENDBRANCH  16  21
BRANCH  17  23
ATOM     23  C   UNL     1      20.139   6.468  24.885  1.00  0.00     0.191 C 
BRANCH  23  24
ATOM     24  O   UNL     1      19.012   5.882  25.487  1.00  0.00    -0.394 OA
ATOM     25  H   UNL     1      18.622   5.246  24.833  1.00  0.00     0.210 HD
ENDBRANCH  23  24
ENDBRANCH  17  23
BRANCH  18  26
ATOM     26  O   UNL     1      20.428   3.563  24.751  1.00  0.00    -0.387 OA
ATOM     27  H   UNL     1      19.733   3.854  24.106  1.00  0.00     0.211 HD
ENDBRANCH  18  26
ENDBRANCH  12  13
ENDBRANCH   7  12
BRANCH   4  28
ATOM     28  O   UNL     1      23.390   2.868  33.044  1.00  0.00    -0.365 OA
ATOM     29  H   UNL     1      22.914   2.339  33.734  1.00  0.00     0.214 HD
ENDBRANCH   4  28
BRANCH   8  30
ATOM     30  C   UNL     1      22.480   0.948  28.715  1.00  0.00     0.249 C 
BRANCH  30  31
ATOM     31  O   UNL     1      21.604  -0.156  28.931  1.00  0.00    -0.461 OA
BRANCH  31  32
ATOM     32  C   UNL     1      22.020  -1.416  29.381  1.00  0.00     0.338 C 
ATOM     33  O   UNL     1      23.245  -1.588  29.629  1.00  0.00    -0.246 OA
BRANCH  32  34
ATOM     34  C   UNL     1      21.085  -2.544  29.584  1.00  0.00     0.060 A 
ATOM     35  C   UNL     1      20.810  -3.034  30.872  1.00  0.00     0.015 A 
ATOM     36  C   UNL     1      20.396  -3.084  28.485  1.00  0.00     0.015 A 
ATOM     37  C   UNL     1      19.887  -4.067  31.053  1.00  0.00     0.001 A 
ATOM     38  C   UNL     1      19.471  -4.115  28.670  1.00  0.00     0.001 A 
ATOM     39  C   UNL     1      19.218  -4.609  29.953  1.00  0.00     0.000 A 
ENDBRANCH  32  34
ENDBRANCH  31  32
ENDBRANCH  30  31
ENDBRANCH   8  30
TORSDOF 12
ENDMDL
MODEL 5
REMARK VINA RESULT:    -4.872      1.375      1.670
REMARK INTER + INTRA:          -8.646
REMARK INTER:                  -7.748
REMARK INTRA:                  -0.898
REMARK UNBOUND:                -1.068
REMARK SMILES C[C@@]12C[C@@]3(O)O[C@@H](O1)[C@]1(COC(=O)c4ccccc4)[C@H]3C[C@@]12O[C@@H]1O[C@H](CO)[C@H](O)[C@H](O)[C@H]1O
REMARK SMILES IDX 1 1 2 2 3 3 4 4 20 5 21 6 22 7 9 8 7 9 8 10 6 11 23 12 24 13
REMARK SMILES IDX 33 14 25 15 31 16 26 17 29 18 34 19 32 21 27 23 28 24 30 26
REMARK SMILES IDX 5 28 10 30 11 31 12 32 13 33 14 34 15 35 19 36 16 37 18 38
REMARK SMILES IDX 17 39
REMARK H PARENT 34 20 32 22 28 25 30 27 5 29
REMARK Flexibility Score: inf
ROOT
ATOM      1  C   UNL     1      20.669   5.446  28.869  1.00  0.00     0.046 C 
ATOM      2  C   UNL     1      21.340   4.248  29.543  1.00  0.00     0.104 C 
ATOM      3  C   UNL     1      21.587   4.518  31.075  1.00  0.00     0.104 C 
ATOM      4  C   UNL     1      22.332   3.222  31.563  1.00  0.00     0.175 C 
ATOM      5  C   UNL     1      23.521   2.875  30.608  1.00  0.00     0.070 C 
ATOM      6  C   UNL     1      23.946   4.067  29.736  1.00  0.00     0.050 C 
ATOM      7  C   UNL     1      22.691   3.771  28.883  1.00  0.00     0.115 C 
ATOM      8  C   UNL     1      22.704   2.347  29.439  1.00  0.00     0.096 C 
ATOM      9  C   UNL     1      21.313   2.063  29.971  1.00  0.00     0.267 C 
ATOM     10  O   UNL     1      20.494   3.115  29.488  1.00  0.00    -0.342 OA
ATOM     11  O   UNL     1      21.416   2.159  31.383  1.00  0.00    -0.320 OA
ENDROOT
BRANCH   7  12
ATOM     12  O   UNL     1      22.802   3.805  27.467  1.00  0.00    -0.339 OA
BRANCH  12  13
ATOM     13  C   UNL     1      23.783   4.728  27.017  1.00  0.00     0.282 C 
ATOM     14  C   UNL     1      24.833   3.970  26.161  1.00  0.00     0.202 C 
ATOM     15  O   UNL     1      23.106   5.802  26.365  1.00  0.00    -0.341 OA
ATOM     16  C   UNL     1      24.279   3.587  24.767  1.00  0.00     0.179 C 
ATOM     17  C   UNL     1      23.425   5.987  24.998  1.00  0.00     0.178 C 
ATOM     18  C   UNL     1      23.312   4.662  24.204  1.00  0.00     0.177 C 
BRANCH  14  19
ATOM     19  O   UNL     1      25.985   4.767  26.028  1.00  0.00    -0.385 OA
ATOM     20  H   UNL     1      25.683   5.711  26.023  1.00  0.00     0.211 HD
ENDBRANCH  14  19
BRANCH  16  21
ATOM     21  O   UNL     1      23.639   2.338  24.827  1.00  0.00    -0.387 OA
ATOM     22  H   UNL     1      23.829   1.872  23.970  1.00  0.00     0.211 HD
ENDBRANCH  16  21
BRANCH  17  23
ATOM     23  C   UNL     1      22.495   7.068  24.427  1.00  0.00     0.191 C 
BRANCH  23  24
ATOM     24  O   UNL     1      21.156   6.777  24.742  1.00  0.00    -0.394 OA
ATOM     25  H   UNL     1      21.020   5.805  24.596  1.00  0.00     0.210 HD
ENDBRANCH  23  24
ENDBRANCH  17  23
BRANCH  18  26
ATOM     26  O   UNL     1      21.981   4.203  24.164  1.00  0.00    -0.387 OA
ATOM     27  H   UNL     1      21.906   3.553  23.420  1.00  0.00     0.211 HD
ENDBRANCH  18  26
ENDBRANCH  12  13
ENDBRANCH   7  12
BRANCH   4  28
ATOM     28  O   UNL     1      22.756   3.320  32.895  1.00  0.00    -0.365 OA
ATOM     29  H   UNL     1      21.991   3.682  33.411  1.00  0.00     0.214 HD
ENDBRANCH   4  28
BRANCH   8  30
ATOM     30  C   UNL     1      23.334   1.223  28.590  1.00  0.00     0.249 C 
BRANCH  30  31
ATOM     31  O   UNL     1      22.529   0.046  28.618  1.00  0.00    -0.461 OA
BRANCH  31  32
ATOM     32  C   UNL     1      22.846  -1.110  29.344  1.00  0.00     0.338 C 
ATOM     33  O   UNL     1      24.048  -1.295  29.676  1.00  0.00    -0.246 OA
BRANCH  32  34
ATOM     34  C   UNL     1      21.833  -2.111  29.740  1.00  0.00     0.060 A 
ATOM     35  C   UNL     1      21.702  -2.518  31.079  1.00  0.00     0.015 A 
ATOM     36  C   UNL     1      20.929  -2.605  28.784  1.00  0.00     0.015 A 
ATOM     37  C   UNL     1      20.707  -3.427  31.447  1.00  0.00     0.001 A 
ATOM     38  C   UNL     1      19.934  -3.512  29.156  1.00  0.00     0.001 A 
ATOM     39  C   UNL     1      19.823  -3.926  30.487  1.00  0.00     0.000 A 
ENDBRANCH  32  34
ENDBRANCH  31  32
ENDBRANCH  30  31
ENDBRANCH   8  30
TORSDOF 12
ENDMDL
MODEL 6
REMARK VINA RESULT:    -4.804      7.592     11.266
REMARK INTER + INTRA:          -8.541
REMARK INTER:                  -8.053
REMARK INTRA:                  -0.488
REMARK UNBOUND:                -1.068
REMARK SMILES C[C@@]12C[C@@]3(O)O[C@@H](O1)[C@]1(COC(=O)c4ccccc4)[C@H]3C[C@@]12O[C@@H]1O[C@H](CO)[C@H](O)[C@H](O)[C@H]1O
REMARK SMILES IDX 1 1 2 2 3 3 4 4 20 5 21 6 22 7 9 8 7 9 8 10 6 11 23 12 24 13
REMARK SMILES IDX 33 14 25 15 31 16 26 17 29 18 34 19 32 21 27 23 28 24 30 26
REMARK SMILES IDX 5 28 10 30 11 31 12 32 13 33 14 34 15 35 19 36 16 37 18 38
REMARK SMILES IDX 17 39
REMARK H PARENT 34 20 32 22 28 25 30 27 5 29
REMARK Flexibility Score: inf
ROOT
ATOM      1  C   UNL     1      19.765  -5.230  27.908  1.00  0.00     0.046 C 
ATOM      2  C   UNL     1      18.941  -4.297  28.797  1.00  0.00     0.104 C 
ATOM      3  C   UNL     1      19.723  -3.920  30.111  1.00  0.00     0.104 C 
ATOM      4  C   UNL     1      18.701  -3.028  30.906  1.00  0.00     0.175 C 
ATOM      5  C   UNL     1      17.302  -3.722  30.978  1.00  0.00     0.070 C 
ATOM      6  C   UNL     1      17.372  -5.227  30.676  1.00  0.00     0.050 C 
ATOM      7  C   UNL     1      17.509  -4.829  29.189  1.00  0.00     0.115 C 
ATOM      8  C   UNL     1      16.874  -3.483  29.539  1.00  0.00     0.096 C 
ATOM      9  C   UNL     1      17.786  -2.403  28.987  1.00  0.00     0.267 C 
ATOM     10  O   UNL     1      18.699  -3.072  28.133  1.00  0.00    -0.342 OA
ATOM     11  O   UNL     1      18.484  -1.882  30.107  1.00  0.00    -0.320 OA
ENDROOT
BRANCH   7  12
ATOM     12  O   UNL     1      16.762  -5.547  28.217  1.00  0.00    -0.339 OA
BRANCH  12  13
ATOM     13  C   UNL     1      17.368  -6.782  27.864  1.00  0.00     0.282 C 
ATOM     14  C   UNL     1      16.869  -7.884  28.838  1.00  0.00     0.202 C 
ATOM     15  O   UNL     1      17.117  -7.014  26.479  1.00  0.00    -0.341 OA
ATOM     16  C   UNL     1      15.407  -8.299  28.543  1.00  0.00     0.179 C 
ATOM     17  C   UNL     1      16.374  -8.181  26.179  1.00  0.00     0.178 C 
ATOM     18  C   UNL     1      15.082  -8.268  27.027  1.00  0.00     0.177 C 
BRANCH  14  19
ATOM     19  O   UNL     1      17.722  -8.999  28.752  1.00  0.00    -0.385 OA
ATOM     20  H   UNL     1      18.640  -8.675  28.941  1.00  0.00     0.211 HD
ENDBRANCH  14  19
BRANCH  16  21
ATOM     21  O   UNL     1      14.517  -7.473  29.252  1.00  0.00    -0.387 OA
ATOM     22  H   UNL     1      13.740  -7.305  28.656  1.00  0.00     0.211 HD
ENDBRANCH  16  21
BRANCH  17  23
ATOM     23  C   UNL     1      16.063  -8.183  24.675  1.00  0.00     0.191 C 
BRANCH  23  24
ATOM     24  O   UNL     1      15.640  -6.908  24.261  1.00  0.00    -0.394 OA
ATOM     25  H   UNL     1      15.730  -6.298  25.039  1.00  0.00     0.210 HD
ENDBRANCH  23  24
ENDBRANCH  17  23
BRANCH  18  26
ATOM     26  O   UNL     1      14.188  -7.228  26.702  1.00  0.00    -0.387 OA
ATOM     27  H   UNL     1      14.636  -6.368  26.906  1.00  0.00     0.211 HD
ENDBRANCH  18  26
ENDBRANCH  12  13
ENDBRANCH   7  12
BRANCH   4  28
ATOM     28  O   UNL     1      19.170  -2.688  32.182  1.00  0.00    -0.365 OA
ATOM     29  H   UNL     1      18.694  -3.273  32.825  1.00  0.00     0.214 HD
ENDBRANCH   4  28
BRANCH   8  30
ATOM     30  C   UNL     1      15.367  -3.279  29.276  1.00  0.00     0.249 C 
BRANCH  30  31
ATOM     31  O   UNL     1      15.119  -2.019  28.657  1.00  0.00    -0.461 OA
BRANCH  31  32
ATOM     32  C   UNL     1      14.193  -1.079  29.126  1.00  0.00     0.338 C 
ATOM     33  O   UNL     1      13.676  -1.264  30.262  1.00  0.00    -0.246 OA
BRANCH  32  34
ATOM     34  C   UNL     1      13.804   0.120  28.352  1.00  0.00     0.060 A 
ATOM     35  C   UNL     1      14.730   0.780  27.526  1.00  0.00     0.015 A 
ATOM     36  C   UNL     1      12.470   0.562  28.373  1.00  0.00     0.015 A 
ATOM     37  C   UNL     1      14.336   1.881  26.761  1.00  0.00     0.001 A 
ATOM     38  C   UNL     1      12.079   1.662  27.605  1.00  0.00     0.001 A 
ATOM     39  C   UNL     1      13.012   2.323  26.801  1.00  0.00     0.000 A 
ENDBRANCH  32  34
ENDBRANCH  31  32
ENDBRANCH  30  31
ENDBRANCH   8  30
TORSDOF 12
ENDMDL
MODEL 7
REMARK VINA RESULT:    -4.726      1.875      5.108
REMARK INTER + INTRA:          -8.418
REMARK INTER:                  -7.331
REMARK INTRA:                  -1.087
REMARK UNBOUND:                -1.068
REMARK SMILES C[C@@]12C[C@@]3(O)O[C@@H](O1)[C@]1(COC(=O)c4ccccc4)[C@H]3C[C@@]12O[C@@H]1O[C@H](CO)[C@H](O)[C@H](O)[C@H]1O
REMARK SMILES IDX 1 1 2 2 3 3 4 4 20 5 21 6 22 7 9 8 7 9 8 10 6 11 23 12 24 13
REMARK SMILES IDX 33 14 25 15 31 16 26 17 29 18 34 19 32 21 27 23 28 24 30 26
REMARK SMILES IDX 5 28 10 30 11 31 12 32 13 33 14 34 15 35 19 36 16 37 18 38
REMARK SMILES IDX 17 39
REMARK H PARENT 34 20 32 22 28 25 30 27 5 29
REMARK Flexibility Score: inf
ROOT
ATOM      1  C   UNL     1      24.309   6.245  27.927  1.00  0.00     0.046 C 
ATOM      2  C   UNL     1      24.031   4.983  27.110  1.00  0.00     0.104 C 
ATOM      3  C   UNL     1      23.774   5.326  25.595  1.00  0.00     0.104 C 
ATOM      4  C   UNL     1      23.446   3.930  24.950  1.00  0.00     0.175 C 
ATOM      5  C   UNL     1      22.371   3.170  25.793  1.00  0.00     0.070 C 
ATOM      6  C   UNL     1      21.593   4.101  26.737  1.00  0.00     0.050 C 
ATOM      7  C   UNL     1      22.848   4.083  27.638  1.00  0.00     0.115 C 
ATOM      8  C   UNL     1      23.260   2.775  26.961  1.00  0.00     0.096 C 
ATOM      9  C   UNL     1      24.693   2.947  26.496  1.00  0.00     0.267 C 
ATOM     10  O   UNL     1      25.161   4.131  27.120  1.00  0.00    -0.342 OA
ATOM     11  O   UNL     1      24.618   3.153  25.094  1.00  0.00    -0.320 OA
ENDROOT
BRANCH   7  12
ATOM     12  O   UNL     1      22.680   3.940  29.043  1.00  0.00    -0.339 OA
BRANCH  12  13
ATOM     13  C   UNL     1      21.443   4.464  29.502  1.00  0.00     0.282 C 
ATOM     14  C   UNL     1      20.551   3.292  29.994  1.00  0.00     0.202 C 
ATOM     15  O   UNL     1      21.727   5.478  30.464  1.00  0.00    -0.341 OA
ATOM     16  C   UNL     1      21.034   2.728  31.353  1.00  0.00     0.179 C 
ATOM     17  C   UNL     1      21.224   5.245  31.766  1.00  0.00     0.178 C 
ATOM     18  C   UNL     1      21.605   3.834  32.279  1.00  0.00     0.177 C 
BRANCH  14  19
ATOM     19  O   UNL     1      19.219   3.733  30.092  1.00  0.00    -0.385 OA
ATOM     20  H   UNL     1      19.022   3.842  31.058  1.00  0.00     0.211 HD
ENDBRANCH  14  19
BRANCH  16  21
ATOM     21  O   UNL     1      21.992   1.721  31.146  1.00  0.00    -0.387 OA
ATOM     22  H   UNL     1      22.483   1.606  32.002  1.00  0.00     0.211 HD
ENDBRANCH  16  21
BRANCH  17  23
ATOM     23  C   UNL     1      21.757   6.345  32.695  1.00  0.00     0.191 C 
BRANCH  23  24
ATOM     24  O   UNL     1      23.014   6.793  32.252  1.00  0.00    -0.394 OA
ATOM     25  H   UNL     1      23.355   7.437  32.926  1.00  0.00     0.210 HD
ENDBRANCH  23  24
ENDBRANCH  17  23
BRANCH  18  26
ATOM     26  O   UNL     1      22.998   3.711  32.447  1.00  0.00    -0.387 OA
ATOM     27  H   UNL     1      23.346   3.151  31.707  1.00  0.00     0.211 HD
ENDBRANCH  18  26
ENDBRANCH  12  13
ENDBRANCH   7  12
BRANCH   4  28
ATOM     28  O   UNL     1      23.060   4.041  23.607  1.00  0.00    -0.365 OA
ATOM     29  H   UNL     1      22.292   4.667  23.582  1.00  0.00     0.214 HD
ENDBRANCH   4  28
BRANCH   8  30
ATOM     30  C   UNL     1      22.945   1.440  27.667  1.00  0.00     0.249 C 
BRANCH  30  31
ATOM     31  O   UNL     1      24.129   0.847  28.197  1.00  0.00    -0.461 OA
BRANCH  31  32
ATOM     32  C   UNL     1      24.272  -0.519  28.470  1.00  0.00     0.338 C 
ATOM     33  O   UNL     1      25.164  -1.162  27.851  1.00  0.00    -0.246 OA
BRANCH  32  34
ATOM     34  C   UNL     1      23.429  -1.234  29.453  1.00  0.00     0.060 A 
ATOM     35  C   UNL     1      22.135  -1.667  29.118  1.00  0.00     0.015 A 
ATOM     36  C   UNL     1      23.955  -1.560  30.715  1.00  0.00     0.015 A 
ATOM     37  C   UNL     1      21.369  -2.385  30.041  1.00  0.00     0.001 A 
ATOM     38  C   UNL     1      23.187  -2.280  31.634  1.00  0.00     0.001 A 
ATOM     39  C   UNL     1      21.893  -2.690  31.299  1.00  0.00     0.000 A 
ENDBRANCH  32  34
ENDBRANCH  31  32
ENDBRANCH  30  31
ENDBRANCH   8  30
TORSDOF 12
ENDMDL
MODEL 8
REMARK VINA RESULT:    -4.716      2.278      5.050
REMARK INTER + INTRA:          -8.403
REMARK INTER:                  -6.358
REMARK INTRA:                  -2.044
REMARK UNBOUND:                -1.068
REMARK SMILES C[C@@]12C[C@@]3(O)O[C@@H](O1)[C@]1(COC(=O)c4ccccc4)[C@H]3C[C@@]12O[C@@H]1O[C@H](CO)[C@H](O)[C@H](O)[C@H]1O
REMARK SMILES IDX 1 1 2 2 3 3 4 4 20 5 21 6 22 7 9 8 7 9 8 10 6 11 23 12 24 13
REMARK SMILES IDX 33 14 25 15 31 16 26 17 29 18 34 19 32 21 27 23 28 24 30 26
REMARK SMILES IDX 5 28 10 30 11 31 12 32 13 33 14 34 15 35 19 36 16 37 18 38
REMARK SMILES IDX 17 39
REMARK H PARENT 34 20 32 22 28 25 30 27 5 29
REMARK Flexibility Score: inf
ROOT
ATOM      1  C   UNL     1      23.322   1.289  28.382  1.00  0.00     0.046 C 
ATOM      2  C   UNL     1      22.753   2.231  29.444  1.00  0.00     0.104 C 
ATOM      3  C   UNL     1      21.761   1.476  30.406  1.00  0.00     0.104 C 
ATOM      4  C   UNL     1      21.242   2.609  31.365  1.00  0.00     0.175 C 
ATOM      5  C   UNL     1      20.770   3.854  30.545  1.00  0.00     0.070 C 
ATOM      6  C   UNL     1      20.506   3.523  29.067  1.00  0.00     0.050 C 
ATOM      7  C   UNL     1      22.041   3.524  28.888  1.00  0.00     0.115 C 
ATOM      8  C   UNL     1      22.142   4.379  30.152  1.00  0.00     0.096 C 
ATOM      9  C   UNL     1      23.145   3.704  31.067  1.00  0.00     0.267 C 
ATOM     10  O   UNL     1      23.789   2.721  30.273  1.00  0.00    -0.342 OA
ATOM     11  O   UNL     1      22.376   3.065  32.074  1.00  0.00    -0.320 OA
ENDROOT
BRANCH   7  12
ATOM     12  O   UNL     1      22.596   4.168  27.749  1.00  0.00    -0.339 OA
BRANCH  12  13
ATOM     13  C   UNL     1      22.087   3.654  26.527  1.00  0.00     0.282 C 
ATOM     14  C   UNL     1      21.083   4.677  25.931  1.00  0.00     0.202 C 
ATOM     15  O   UNL     1      23.197   3.314  25.698  1.00  0.00    -0.341 OA
ATOM     16  C   UNL     1      21.800   5.912  25.333  1.00  0.00     0.179 C 
ATOM     17  C   UNL     1      23.281   4.014  24.471  1.00  0.00     0.178 C 
ATOM     18  C   UNL     1      23.157   5.544  24.678  1.00  0.00     0.177 C 
BRANCH  14  19
ATOM     19  O   UNL     1      20.302   4.040  24.949  1.00  0.00    -0.385 OA
ATOM     20  H   UNL     1      20.931   3.643  24.293  1.00  0.00     0.211 HD
ENDBRANCH  14  19
BRANCH  16  21
ATOM     21  O   UNL     1      21.985   6.891  26.324  1.00  0.00    -0.387 OA
ATOM     22  H   UNL     1      21.474   6.596  27.123  1.00  0.00     0.211 HD
ENDBRANCH  16  21
BRANCH  17  23
ATOM     23  C   UNL     1      24.609   3.643  23.792  1.00  0.00     0.191 C 
BRANCH  23  24
ATOM     24  O   UNL     1      25.553   3.240  24.753  1.00  0.00    -0.394 OA
ATOM     25  H   UNL     1      26.095   2.513  24.350  1.00  0.00     0.210 HD
ENDBRANCH  23  24
ENDBRANCH  17  23
BRANCH  18  26
ATOM     26  O   UNL     1      24.249   6.050  25.410  1.00  0.00    -0.387 OA
ATOM     27  H   UNL     1      24.978   6.251  24.769  1.00  0.00     0.211 HD
ENDBRANCH  18  26
ENDBRANCH  12  13
ENDBRANCH   7  12
BRANCH   4  28
ATOM     28  O   UNL     1      20.238   2.156  32.231  1.00  0.00    -0.365 OA
ATOM     29  H   UNL     1      20.455   2.514  33.130  1.00  0.00     0.214 HD
ENDBRANCH   4  28
BRANCH   8  30
ATOM     30  C   UNL     1      22.296   5.907  30.007  1.00  0.00     0.249 C 
BRANCH  30  31
ATOM     31  O   UNL     1      23.658   6.303  30.158  1.00  0.00    -0.461 OA
BRANCH  31  32
ATOM     32  C   UNL     1      24.601   6.294  29.122  1.00  0.00     0.338 C 
ATOM     33  O   UNL     1      24.435   7.085  28.155  1.00  0.00    -0.246 OA
BRANCH  32  34
ATOM     34  C   UNL     1      25.782   5.403  29.121  1.00  0.00     0.060 A 
ATOM     35  C   UNL     1      26.733   5.459  30.155  1.00  0.00     0.015 A 
ATOM     36  C   UNL     1      25.918   4.427  28.119  1.00  0.00     0.015 A 
ATOM     37  C   UNL     1      27.817   4.577  30.166  1.00  0.00     0.001 A 
ATOM     38  C   UNL     1      27.003   3.546  28.136  1.00  0.00     0.001 A 
ATOM     39  C   UNL     1      27.953   3.622  29.157  1.00  0.00     0.000 A 
ENDBRANCH  32  34
ENDBRANCH  31  32
ENDBRANCH  30  31
ENDBRANCH   8  30
TORSDOF 12
ENDMDL
MODEL 9
REMARK VINA RESULT:    -4.583      2.046      2.877
REMARK INTER + INTRA:          -8.196
REMARK INTER:                  -6.755
REMARK INTRA:                  -1.441
REMARK UNBOUND:                -1.068
REMARK SMILES C[C@@]12C[C@@]3(O)O[C@@H](O1)[C@]1(COC(=O)c4ccccc4)[C@H]3C[C@@]12O[C@@H]1O[C@H](CO)[C@H](O)[C@H](O)[C@H]1O
REMARK SMILES IDX 1 1 2 2 3 3 4 4 20 5 21 6 22 7 9 8 7 9 8 10 6 11 23 12 24 13
REMARK SMILES IDX 33 14 25 15 31 16 26 17 29 18 34 19 32 21 27 23 28 24 30 26
REMARK SMILES IDX 5 28 10 30 11 31 12 32 13 33 14 34 15 35 19 36 16 37 18 38
REMARK SMILES IDX 17 39
REMARK H PARENT 34 20 32 22 28 25 30 27 5 29
REMARK Flexibility Score: inf
ROOT
ATOM      1  C   UNL     1      20.438   5.382  27.696  1.00  0.00     0.046 C 
ATOM      2  C   UNL     1      20.893   5.003  29.106  1.00  0.00     0.104 C 
ATOM      3  C   UNL     1      20.413   6.064  30.167  1.00  0.00     0.104 C 
ATOM      4  C   UNL     1      21.027   5.541  31.516  1.00  0.00     0.175 C 
ATOM      5  C   UNL     1      22.546   5.213  31.342  1.00  0.00     0.070 C 
ATOM      6  C   UNL     1      23.155   5.877  30.097  1.00  0.00     0.050 C 
ATOM      7  C   UNL     1      22.445   4.776  29.277  1.00  0.00     0.115 C 
ATOM      8  C   UNL     1      22.394   3.926  30.547  1.00  0.00     0.096 C 
ATOM      9  C   UNL     1      20.957   3.473  30.722  1.00  0.00     0.267 C 
ATOM     10  O   UNL     1      20.306   3.778  29.500  1.00  0.00    -0.342 OA
ATOM     11  O   UNL     1      20.422   4.286  31.756  1.00  0.00    -0.320 OA
ENDROOT
BRANCH   7  12
ATOM     12  O   UNL     1      23.157   4.140  28.224  1.00  0.00    -0.339 OA
BRANCH  12  13
ATOM     13  C   UNL     1      23.994   5.037  27.510  1.00  0.00     0.282 C 
ATOM     14  C   UNL     1      25.473   4.600  27.695  1.00  0.00     0.202 C 
ATOM     15  O   UNL     1      23.526   5.096  26.164  1.00  0.00    -0.341 OA
ATOM     16  C   UNL     1      25.810   3.332  26.874  1.00  0.00     0.179 C 
ATOM     17  C   UNL     1      24.447   4.673  25.176  1.00  0.00     0.178 C 
ATOM     18  C   UNL     1      25.056   3.291  25.520  1.00  0.00     0.177 C 
BRANCH  14  19
ATOM     19  O   UNL     1      26.319   5.663  27.326  1.00  0.00    -0.385 OA
ATOM     20  H   UNL     1      27.249   5.323  27.384  1.00  0.00     0.211 HD
ENDBRANCH  14  19
BRANCH  16  21
ATOM     21  O   UNL     1      25.527   2.179  27.627  1.00  0.00    -0.387 OA
ATOM     22  H   UNL     1      26.395   1.726  27.803  1.00  0.00     0.211 HD
ENDBRANCH  16  21
BRANCH  17  23
ATOM     23  C   UNL     1      23.726   4.649  23.820  1.00  0.00     0.191 C 
BRANCH  23  24
ATOM     24  O   UNL     1      22.438   4.103  23.960  1.00  0.00    -0.394 OA
ATOM     25  H   UNL     1      22.095   3.913  23.049  1.00  0.00     0.210 HD
ENDBRANCH  23  24
ENDBRANCH  17  23
BRANCH  18  26
ATOM     26  O   UNL     1      24.074   2.281  25.495  1.00  0.00    -0.387 OA
ATOM     27  H   UNL     1      23.198   2.703  25.690  1.00  0.00     0.211 HD
ENDBRANCH  18  26
ENDBRANCH  12  13
ENDBRANCH   7  12
BRANCH   4  28
ATOM     28  O   UNL     1      20.813   6.429  32.579  1.00  0.00    -0.365 OA
ATOM     29  H   UNL     1      20.259   5.947  33.245  1.00  0.00     0.214 HD
ENDBRANCH   4  28
BRANCH   8  30
ATOM     30  C   UNL     1      23.466   2.837  30.758  1.00  0.00     0.249 C 
BRANCH  30  31
ATOM     31  O   UNL     1      22.870   1.546  30.880  1.00  0.00    -0.461 OA
BRANCH  31  32
ATOM     32  C   UNL     1      22.783   0.616  29.836  1.00  0.00     0.338 C 
ATOM     33  O   UNL     1      23.577   0.734  28.863  1.00  0.00    -0.246 OA
BRANCH  32  34
ATOM     34  C   UNL     1      21.808  -0.496  29.832  1.00  0.00     0.060 A 
ATOM     35  C   UNL     1      20.587  -0.391  30.521  1.00  0.00     0.015 A 
ATOM     36  C   UNL     1      22.062  -1.643  29.062  1.00  0.00     0.015 A 
ATOM     37  C   UNL     1      19.654  -1.430  30.467  1.00  0.00     0.001 A 
ATOM     38  C   UNL     1      21.125  -2.679  29.009  1.00  0.00     0.001 A 
ATOM     39  C   UNL     1      19.922  -2.574  29.713  1.00  0.00     0.000 A 
ENDBRANCH  32  34
ENDBRANCH  31  32
ENDBRANCH  30  31
ENDBRANCH   8  30
TORSDOF 12
ENDMDL
