MODEL 1
REMARK VINA RESULT:    -5.019      0.000      0.000
REMARK INTER + INTRA:         -14.498
REMARK INTER:                 -11.473
REMARK INTRA:                  -3.025
REMARK UNBOUND:                -3.025
REMARK SMILES CCCCCCCCCCCCCCCCCCCCCCCC(=O)[O-]
REMARK SMILES IDX 13 1 14 2 15 3 16 4 17 5 18 6 19 7 20 8 21 9 22 10 23 11
REMARK SMILES IDX 24 12 25 13 26 14 12 15 11 16 10 17 9 18 8 19 7 20 6 21 5 22
REMARK SMILES IDX 4 23 3 24 2 25 1 26
REMARK H PARENT
REMARK Flexibility Score: inf
ROOT
ATOM      1  C   UNL     1      13.379 -15.901  16.402  1.00  0.00     0.000 C 
ENDROOT
BRANCH   1   2
ATOM      2  C   UNL     1      12.159 -15.135  15.860  1.00  0.00     0.000 C 
BRANCH   2   3
ATOM      3  C   UNL     1      11.359 -15.952  14.833  1.00  0.00     0.000 C 
BRANCH   3   4
ATOM      4  C   UNL     1      11.221 -15.229  13.483  1.00  0.00     0.000 C 
BRANCH   4   5
ATOM      5  C   UNL     1      10.856 -16.185  12.336  1.00  0.00     0.000 C 
BRANCH   5   6
ATOM      6  C   UNL     1      10.989 -15.528  10.954  1.00  0.00     0.000 C 
BRANCH   6   7
ATOM      7  C   UNL     1      11.737 -16.444   9.978  1.00  0.00     0.000 C 
BRANCH   7   8
ATOM      8  C   UNL     1      10.762 -17.115   8.999  1.00  0.00     0.000 C 
BRANCH   8   9
ATOM      9  C   UNL     1      10.515 -16.274   7.737  1.00  0.00     0.000 C 
BRANCH   9  10
ATOM     10  C   UNL     1       9.331 -16.791   6.905  1.00  0.00     0.006 C 
BRANCH  10  11
ATOM     11  C   UNL     1       8.843 -15.720   5.925  1.00  0.00     0.053 C 
BRANCH  11  12
ATOM     12  C   UNL     1       8.773 -16.273   4.536  1.00  0.00     0.041 C 
ATOM     13  O   UNL     1       9.696 -16.037   3.713  1.00  0.00    -0.550 OA
ATOM     14  O   UNL     1       7.713 -17.092   4.166  1.00  0.00    -0.550 OA
ENDBRANCH  11  12
ENDBRANCH  10  11
ENDBRANCH   9  10
ENDBRANCH   8   9
ENDBRANCH   7   8
ENDBRANCH   6   7
ENDBRANCH   5   6
ENDBRANCH   4   5
ENDBRANCH   3   4
ENDBRANCH   2   3
ENDBRANCH   1   2
BRANCH   1  15
ATOM     15  C   UNL     1      13.638 -17.216  15.651  1.00  0.00     0.000 C 
BRANCH  15  16
ATOM     16  C   UNL     1      15.138 -17.500  15.456  1.00  0.00     0.000 C 
BRANCH  16  17
ATOM     17  C   UNL     1      15.491 -17.799  13.990  1.00  0.00     0.000 C 
BRANCH  17  18
ATOM     18  C   UNL     1      14.425 -17.285  13.012  1.00  0.00    -0.000 C 
BRANCH  18  19
ATOM     19  C   UNL     1      15.062 -16.413  11.919  1.00  0.00    -0.000 C 
BRANCH  19  20
ATOM     20  C   UNL     1      14.750 -14.917  12.090  1.00  0.00    -0.000 C 
BRANCH  20  21
ATOM     21  C   UNL     1      14.935 -14.375  13.522  1.00  0.00    -0.000 C 
BRANCH  21  22
ATOM     22  C   UNL     1      14.958 -12.835  13.608  1.00  0.00    -0.000 C 
BRANCH  22  23
ATOM     23  C   UNL     1      14.058 -12.301  14.737  1.00  0.00    -0.000 C 
BRANCH  23  24
ATOM     24  C   UNL     1      14.248 -10.797  14.987  1.00  0.00    -0.000 C 
BRANCH  24  25
ATOM     25  C   UNL     1      12.914 -10.041  15.089  1.00  0.00    -0.003 C 
ATOM     26  C   UNL     1      11.761 -10.997  15.381  1.00  0.00     0.004 C 
ENDBRANCH  24  25
ENDBRANCH  23  24
ENDBRANCH  22  23
ENDBRANCH  21  22
ENDBRANCH  20  21
ENDBRANCH  19  20
ENDBRANCH  18  19
ENDBRANCH  17  18
ENDBRANCH  16  17
ENDBRANCH  15  16
ENDBRANCH   1  15
TORSDOF 22
ENDMDL
MODEL 2
REMARK VINA RESULT:    -4.928      4.025     10.327
REMARK INTER + INTRA:         -14.290
REMARK INTER:                 -11.557
REMARK INTRA:                  -2.734
REMARK UNBOUND:                -3.025
REMARK SMILES CCCCCCCCCCCCCCCCCCCCCCCC(=O)[O-]
REMARK SMILES IDX 13 1 14 2 15 3 16 4 17 5 18 6 19 7 20 8 21 9 22 10 23 11
REMARK SMILES IDX 24 12 25 13 26 14 12 15 11 16 10 17 9 18 8 19 7 20 6 21 5 22
REMARK SMILES IDX 4 23 3 24 2 25 1 26
REMARK H PARENT
REMARK Flexibility Score: inf
ROOT
ATOM      1  C   UNL     1      10.829 -16.225   8.459  1.00  0.00     0.000 C 
ENDROOT
BRANCH   1   2
ATOM      2  C   UNL     1      11.159 -17.538   9.190  1.00  0.00     0.000 C 
BRANCH   2   3
ATOM      3  C   UNL     1      12.482 -17.462   9.970  1.00  0.00     0.000 C 
BRANCH   3   4
ATOM      4  C   UNL     1      12.595 -16.181  10.814  1.00  0.00     0.000 C 
BRANCH   4   5
ATOM      5  C   UNL     1      12.338 -16.434  12.309  1.00  0.00     0.000 C 
BRANCH   5   6
ATOM      6  C   UNL     1      10.993 -15.864  12.782  1.00  0.00     0.000 C 
BRANCH   6   7
ATOM      7  C   UNL     1      10.961 -15.721  14.309  1.00  0.00     0.000 C 
BRANCH   7   8
ATOM      8  C   UNL     1      11.780 -14.504  14.763  1.00  0.00     0.000 C 
BRANCH   8   9
ATOM      9  C   UNL     1      12.212 -14.595  16.235  1.00  0.00     0.000 C 
BRANCH   9  10
ATOM     10  C   UNL     1      13.112 -15.809  16.513  1.00  0.00     0.006 C 
BRANCH  10  11
ATOM     11  C   UNL     1      14.280 -15.862  15.524  1.00  0.00     0.053 C 
BRANCH  11  12
ATOM     12  C   UNL     1      14.570 -17.276  15.130  1.00  0.00     0.041 C 
ATOM     13  O   UNL     1      13.639 -18.120  15.070  1.00  0.00    -0.550 OA
ATOM     14  O   UNL     1      15.862 -17.650  14.780  1.00  0.00    -0.550 OA
ENDBRANCH  11  12
ENDBRANCH  10  11
ENDBRANCH   9  10
ENDBRANCH   8   9
ENDBRANCH   7   8
ENDBRANCH   6   7
ENDBRANCH   5   6
ENDBRANCH   4   5
ENDBRANCH   3   4
ENDBRANCH   2   3
ENDBRANCH   1   2
BRANCH   1  15
ATOM     15  C   UNL     1       9.636 -16.361   7.500  1.00  0.00     0.000 C 
BRANCH  15  16
ATOM     16  C   UNL     1       9.936 -15.797   6.100  1.00  0.00     0.000 C 
BRANCH  16  17
ATOM     17  C   UNL     1       8.728 -15.905   5.156  1.00  0.00     0.000 C 
BRANCH  17  18
ATOM     18  C   UNL     1       9.094 -16.522   3.798  1.00  0.00    -0.000 C 
BRANCH  18  19
ATOM     19  C   UNL     1       7.837 -17.009   3.062  1.00  0.00    -0.000 C 
BRANCH  19  20
ATOM     20  C   UNL     1       7.545 -18.500   3.299  1.00  0.00    -0.000 C 
BRANCH  20  21
ATOM     21  C   UNL     1       6.461 -18.789   4.358  1.00  0.00    -0.000 C 
BRANCH  21  22
ATOM     22  C   UNL     1       6.916 -19.758   5.469  1.00  0.00    -0.000 C 
BRANCH  22  23
ATOM     23  C   UNL     1       7.744 -19.051   6.557  1.00  0.00    -0.000 C 
BRANCH  23  24
ATOM     24  C   UNL     1       8.762 -19.984   7.229  1.00  0.00    -0.000 C 
BRANCH  24  25
ATOM     25  C   UNL     1       9.767 -20.581   6.232  1.00  0.00    -0.003 C 
ATOM     26  C   UNL     1      10.580 -19.485   5.548  1.00  0.00     0.004 C 
ENDBRANCH  24  25
ENDBRANCH  23  24
ENDBRANCH  22  23
ENDBRANCH  21  22
ENDBRANCH  20  21
ENDBRANCH  19  20
ENDBRANCH  18  19
ENDBRANCH  17  18
ENDBRANCH  16  17
ENDBRANCH  15  16
ENDBRANCH   1  15
TORSDOF 22
ENDMDL
MODEL 3
REMARK VINA RESULT:    -4.909      3.950     10.083
REMARK INTER + INTRA:         -14.247
REMARK INTER:                 -11.625
REMARK INTRA:                  -2.622
REMARK UNBOUND:                -3.025
REMARK SMILES CCCCCCCCCCCCCCCCCCCCCCCC(=O)[O-]
REMARK SMILES IDX 13 1 14 2 15 3 16 4 17 5 18 6 19 7 20 8 21 9 22 10 23 11
REMARK SMILES IDX 24 12 25 13 26 14 12 15 11 16 10 17 9 18 8 19 7 20 6 21 5 22
REMARK SMILES IDX 4 23 3 24 2 25 1 26
REMARK H PARENT
REMARK Flexibility Score: inf
ROOT
ATOM      1  C   UNL     1      10.383 -16.512   8.627  1.00  0.00     0.000 C 
ENDROOT
BRANCH   1   2
ATOM      2  C   UNL     1      11.471 -16.339   9.702  1.00  0.00     0.000 C 
BRANCH   2   3
ATOM      3  C   UNL     1      10.913 -15.779  11.020  1.00  0.00     0.000 C 
BRANCH   3   4
ATOM      4  C   UNL     1      11.766 -16.174  12.237  1.00  0.00     0.000 C 
BRANCH   4   5
ATOM      5  C   UNL     1      13.258 -16.310  11.893  1.00  0.00     0.000 C 
BRANCH   5   6
ATOM      6  C   UNL     1      13.927 -17.485  12.622  1.00  0.00     0.000 C 
BRANCH   6   7
ATOM      7  C   UNL     1      15.347 -17.119  13.071  1.00  0.00     0.000 C 
BRANCH   7   8
ATOM      8  C   UNL     1      15.620 -17.628  14.495  1.00  0.00     0.000 C 
BRANCH   8   9
ATOM      9  C   UNL     1      14.340 -17.756  15.335  1.00  0.00     0.000 C 
BRANCH   9  10
ATOM     10  C   UNL     1      14.081 -16.521  16.210  1.00  0.00     0.006 C 
BRANCH  10  11
ATOM     11  C   UNL     1      12.832 -15.769  15.740  1.00  0.00     0.053 C 
BRANCH  11  12
ATOM     12  C   UNL     1      13.164 -14.344  15.428  1.00  0.00     0.041 C 
ATOM     13  O   UNL     1      12.647 -13.412  16.096  1.00  0.00    -0.550 OA
ATOM     14  O   UNL     1      14.085 -14.047  14.431  1.00  0.00    -0.550 OA
ENDBRANCH  11  12
ENDBRANCH  10  11
ENDBRANCH   9  10
ENDBRANCH   8   9
ENDBRANCH   7   8
ENDBRANCH   6   7
ENDBRANCH   5   6
ENDBRANCH   4   5
ENDBRANCH   3   4
ENDBRANCH   2   3
ENDBRANCH   1   2
BRANCH   1  15
ATOM     15  C   UNL     1      10.567 -17.790   7.795  1.00  0.00     0.000 C 
BRANCH  15  16
ATOM     16  C   UNL     1       9.268 -18.232   7.096  1.00  0.00     0.000 C 
BRANCH  16  17
ATOM     17  C   UNL     1       9.479 -19.461   6.196  1.00  0.00     0.000 C 
BRANCH  17  18
ATOM     18  C   UNL     1       8.324 -20.467   6.294  1.00  0.00    -0.000 C 
BRANCH  18  19
ATOM     19  C   UNL     1       7.444 -20.413   5.036  1.00  0.00    -0.000 C 
BRANCH  19  20
ATOM     20  C   UNL     1       6.396 -19.288   5.087  1.00  0.00    -0.000 C 
BRANCH  20  21
ATOM     21  C   UNL     1       6.422 -18.323   3.885  1.00  0.00    -0.000 C 
BRANCH  21  22
ATOM     22  C   UNL     1       7.674 -18.467   2.995  1.00  0.00    -0.000 C 
BRANCH  22  23
ATOM     23  C   UNL     1       8.436 -17.139   2.840  1.00  0.00    -0.000 C 
BRANCH  23  24
ATOM     24  C   UNL     1       8.644 -16.413   4.177  1.00  0.00    -0.000 C 
BRANCH  24  25
ATOM     25  C   UNL     1      10.069 -15.862   4.337  1.00  0.00    -0.003 C 
ATOM     26  C   UNL     1      10.136 -14.828   5.458  1.00  0.00     0.004 C 
ENDBRANCH  24  25
ENDBRANCH  23  24
ENDBRANCH  22  23
ENDBRANCH  21  22
ENDBRANCH  20  21
ENDBRANCH  19  20
ENDBRANCH  18  19
ENDBRANCH  17  18
ENDBRANCH  16  17
ENDBRANCH  15  16
ENDBRANCH   1  15
TORSDOF 22
ENDMDL
MODEL 4
REMARK VINA RESULT:    -4.903      4.250      9.624
REMARK INTER + INTRA:         -14.234
REMARK INTER:                 -11.165
REMARK INTRA:                  -3.069
REMARK UNBOUND:                -3.025
REMARK SMILES CCCCCCCCCCCCCCCCCCCCCCCC(=O)[O-]
REMARK SMILES IDX 13 1 14 2 15 3 16 4 17 5 18 6 19 7 20 8 21 9 22 10 23 11
REMARK SMILES IDX 24 12 25 13 26 14 12 15 11 16 10 17 9 18 8 19 7 20 6 21 5 22
REMARK SMILES IDX 4 23 3 24 2 25 1 26
REMARK H PARENT
REMARK Flexibility Score: inf
ROOT
ATOM      1  C   UNL     1       9.146 -19.996   8.520  1.00  0.00     0.000 C 
ENDROOT
BRANCH   1   2
ATOM      2  C   UNL     1      10.565 -19.775   9.076  1.00  0.00     0.000 C 
BRANCH   2   3
ATOM      3  C   UNL     1      11.068 -18.340   8.853  1.00  0.00     0.000 C 
BRANCH   3   4
ATOM      4  C   UNL     1      12.340 -18.029   9.660  1.00  0.00     0.000 C 
BRANCH   4   5
ATOM      5  C   UNL     1      12.365 -16.586  10.188  1.00  0.00     0.000 C 
BRANCH   5   6
ATOM      6  C   UNL     1      10.977 -15.929  10.178  1.00  0.00     0.000 C 
BRANCH   6   7
ATOM      7  C   UNL     1      10.614 -15.385  11.565  1.00  0.00     0.000 C 
BRANCH   7   8
ATOM      8  C   UNL     1      11.007 -16.382  12.666  1.00  0.00     0.000 C 
BRANCH   8   9
ATOM      9  C   UNL     1      11.240 -15.704  14.025  1.00  0.00     0.000 C 
BRANCH   9  10
ATOM     10  C   UNL     1      12.659 -15.936  14.566  1.00  0.00     0.006 C 
BRANCH  10  11
ATOM     11  C   UNL     1      13.316 -17.139  13.881  1.00  0.00     0.053 C 
BRANCH  11  12
ATOM     12  C   UNL     1      14.566 -17.534  14.601  1.00  0.00     0.041 C 
ATOM     13  O   UNL     1      14.554 -17.696  15.849  1.00  0.00    -0.550 OA
ATOM     14  O   UNL     1      15.734 -17.772  13.888  1.00  0.00    -0.550 OA
ENDBRANCH  11  12
ENDBRANCH  10  11
ENDBRANCH   9  10
ENDBRANCH   8   9
ENDBRANCH   7   8
ENDBRANCH   6   7
ENDBRANCH   5   6
ENDBRANCH   4   5
ENDBRANCH   3   4
ENDBRANCH   2   3
ENDBRANCH   1   2
BRANCH   1  15
ATOM     15  C   UNL     1       8.862 -19.157   7.265  1.00  0.00     0.000 C 
BRANCH  15  16
ATOM     16  C   UNL     1       9.224 -19.898   5.964  1.00  0.00     0.000 C 
BRANCH  16  17
ATOM     17  C   UNL     1       7.986 -20.216   5.111  1.00  0.00     0.000 C 
BRANCH  17  18
ATOM     18  C   UNL     1       6.907 -19.128   5.208  1.00  0.00    -0.000 C 
BRANCH  18  19
ATOM     19  C   UNL     1       6.551 -18.585   3.815  1.00  0.00    -0.000 C 
BRANCH  19  20
ATOM     20  C   UNL     1       7.127 -17.183   3.555  1.00  0.00    -0.000 C 
BRANCH  20  21
ATOM     21  C   UNL     1       8.654 -17.137   3.347  1.00  0.00    -0.000 C 
BRANCH  21  22
ATOM     22  C   UNL     1       9.363 -16.040   4.170  1.00  0.00    -0.000 C 
BRANCH  22  23
ATOM     23  C   UNL     1       8.760 -15.885   5.577  1.00  0.00    -0.000 C 
BRANCH  23  24
ATOM     24  C   UNL     1       9.817 -15.571   6.646  1.00  0.00    -0.000 C 
BRANCH  24  25
ATOM     25  C   UNL     1      10.970 -14.713   6.104  1.00  0.00    -0.003 C 
ATOM     26  C   UNL     1      12.286 -15.060   6.795  1.00  0.00     0.004 C 
ENDBRANCH  24  25
ENDBRANCH  23  24
ENDBRANCH  22  23
ENDBRANCH  21  22
ENDBRANCH  20  21
ENDBRANCH  19  20
ENDBRANCH  18  19
ENDBRANCH  17  18
ENDBRANCH  16  17
ENDBRANCH  15  16
ENDBRANCH   1  15
TORSDOF 22
ENDMDL
MODEL 5
REMARK VINA RESULT:    -4.855      2.505      5.776
REMARK INTER + INTRA:         -14.125
REMARK INTER:                 -11.193
REMARK INTRA:                  -2.931
REMARK UNBOUND:                -3.025
REMARK SMILES CCCCCCCCCCCCCCCCCCCCCCCC(=O)[O-]
REMARK SMILES IDX 13 1 14 2 15 3 16 4 17 5 18 6 19 7 20 8 21 9 22 10 23 11
REMARK SMILES IDX 24 12 25 13 26 14 12 15 11 16 10 17 9 18 8 19 7 20 6 21 5 22
REMARK SMILES IDX 4 23 3 24 2 25 1 26
REMARK H PARENT
REMARK Flexibility Score: inf
ROOT
ATOM      1  C   UNL     1      10.574 -19.548   8.996  1.00  0.00     0.000 C 
ENDROOT
BRANCH   1   2
ATOM      2  C   UNL     1       9.621 -19.592   7.787  1.00  0.00     0.000 C 
BRANCH   2   3
ATOM      3  C   UNL     1       9.843 -18.419   6.820  1.00  0.00     0.000 C 
BRANCH   3   4
ATOM      4  C   UNL     1       9.069 -17.156   7.237  1.00  0.00     0.000 C 
BRANCH   4   5
ATOM      5  C   UNL     1       9.863 -15.866   6.979  1.00  0.00     0.000 C 
BRANCH   5   6
ATOM      6  C   UNL     1       9.483 -15.194   5.651  1.00  0.00     0.000 C 
BRANCH   6   7
ATOM      7  C   UNL     1      10.482 -15.555   4.545  1.00  0.00     0.000 C 
BRANCH   7   8
ATOM      8  C   UNL     1       9.798 -16.361   3.430  1.00  0.00     0.000 C 
BRANCH   8   9
ATOM      9  C   UNL     1       8.305 -16.601   3.701  1.00  0.00     0.000 C 
BRANCH   9  10
ATOM     10  C   UNL     1       7.707 -17.690   2.798  1.00  0.00     0.006 C 
BRANCH  10  11
ATOM     11  C   UNL     1       6.519 -18.375   3.480  1.00  0.00     0.053 C 
BRANCH  11  12
ATOM     12  C   UNL     1       6.995 -19.325   4.533  1.00  0.00     0.041 C 
ATOM     13  O   UNL     1       7.904 -20.157   4.271  1.00  0.00    -0.550 OA
ATOM     14  O   UNL     1       6.472 -19.260   5.818  1.00  0.00    -0.550 OA
ENDBRANCH  11  12
ENDBRANCH  10  11
ENDBRANCH   9  10
ENDBRANCH   8   9
ENDBRANCH   7   8
ENDBRANCH   6   7
ENDBRANCH   5   6
ENDBRANCH   4   5
ENDBRANCH   3   4
ENDBRANCH   2   3
ENDBRANCH   1   2
BRANCH   1  15
ATOM     15  C   UNL     1      12.024 -19.234   8.598  1.00  0.00     0.000 C 
BRANCH  15  16
ATOM     16  C   UNL     1      12.691 -18.220   9.546  1.00  0.00     0.000 C 
BRANCH  16  17
ATOM     17  C   UNL     1      12.868 -16.840   8.893  1.00  0.00     0.000 C 
BRANCH  17  18
ATOM     18  C   UNL     1      12.271 -15.707   9.739  1.00  0.00    -0.000 C 
BRANCH  18  19
ATOM     19  C   UNL     1      10.990 -16.172  10.448  1.00  0.00    -0.000 C 
BRANCH  19  20
ATOM     20  C   UNL     1      10.672 -15.349  11.708  1.00  0.00    -0.000 C 
BRANCH  20  21
ATOM     21  C   UNL     1      10.691 -16.149  13.026  1.00  0.00    -0.000 C 
BRANCH  21  22
ATOM     22  C   UNL     1      11.516 -15.485  14.148  1.00  0.00    -0.000 C 
BRANCH  22  23
ATOM     23  C   UNL     1      13.031 -15.597  13.903  1.00  0.00    -0.000 C 
BRANCH  23  24
ATOM     24  C   UNL     1      13.862 -15.277  15.154  1.00  0.00    -0.000 C 
BRANCH  24  25
ATOM     25  C   UNL     1      13.879 -16.433  16.166  1.00  0.00    -0.003 C 
ATOM     26  C   UNL     1      14.175 -17.762  15.477  1.00  0.00     0.004 C 
ENDBRANCH  24  25
ENDBRANCH  23  24
ENDBRANCH  22  23
ENDBRANCH  21  22
ENDBRANCH  20  21
ENDBRANCH  19  20
ENDBRANCH  18  19
ENDBRANCH  17  18
ENDBRANCH  16  17
ENDBRANCH  15  16
ENDBRANCH   1  15
TORSDOF 22
ENDMDL
MODEL 6
REMARK VINA RESULT:    -4.848      2.220      3.747
REMARK INTER + INTRA:         -14.108
REMARK INTER:                 -10.506
REMARK INTRA:                  -3.603
REMARK UNBOUND:                -3.025
REMARK SMILES CCCCCCCCCCCCCCCCCCCCCCCC(=O)[O-]
REMARK SMILES IDX 13 1 14 2 15 3 16 4 17 5 18 6 19 7 20 8 21 9 22 10 23 11
REMARK SMILES IDX 24 12 25 13 26 14 12 15 11 16 10 17 9 18 8 19 7 20 6 21 5 22
REMARK SMILES IDX 4 23 3 24 2 25 1 26
REMARK H PARENT
REMARK Flexibility Score: inf
ROOT
ATOM      1  C   UNL     1      15.744 -17.751  13.867  1.00  0.00     0.000 C 
ENDROOT
BRANCH   1   2
ATOM      2  C   UNL     1      15.098 -17.527  15.246  1.00  0.00     0.000 C 
BRANCH   2   3
ATOM      3  C   UNL     1      13.612 -17.148  15.145  1.00  0.00     0.000 C 
BRANCH   3   4
ATOM      4  C   UNL     1      13.232 -15.996  16.091  1.00  0.00     0.000 C 
BRANCH   4   5
ATOM      5  C   UNL     1      12.088 -15.131  15.537  1.00  0.00     0.000 C 
BRANCH   5   6
ATOM      6  C   UNL     1      12.045 -15.123  14.002  1.00  0.00     0.000 C 
BRANCH   6   7
ATOM      7  C   UNL     1      10.749 -15.758  13.483  1.00  0.00     0.000 C 
BRANCH   7   8
ATOM      8  C   UNL     1      11.004 -16.549  12.191  1.00  0.00     0.000 C 
BRANCH   8   9
ATOM      9  C   UNL     1      11.022 -15.654  10.942  1.00  0.00     0.000 C 
BRANCH   9  10
ATOM     10  C   UNL     1      12.229 -15.932  10.033  1.00  0.00     0.006 C 
BRANCH  10  11
ATOM     11  C   UNL     1      12.458 -17.438   9.873  1.00  0.00     0.053 C 
BRANCH  11  12
ATOM     12  C   UNL     1      11.547 -17.999   8.828  1.00  0.00     0.041 C 
ATOM     13  O   UNL     1      10.587 -18.744   9.159  1.00  0.00    -0.550 OA
ATOM     14  O   UNL     1      11.725 -17.658   7.493  1.00  0.00    -0.550 OA
ENDBRANCH  11  12
ENDBRANCH  10  11
ENDBRANCH   9  10
ENDBRANCH   8   9
ENDBRANCH   7   8
ENDBRANCH   6   7
ENDBRANCH   5   6
ENDBRANCH   4   5
ENDBRANCH   3   4
ENDBRANCH   2   3
ENDBRANCH   1   2
BRANCH   1  15
ATOM     15  C   UNL     1      14.841 -17.305  12.707  1.00  0.00     0.000 C 
BRANCH  15  16
ATOM     16  C   UNL     1      15.498 -16.227  11.827  1.00  0.00     0.000 C 
BRANCH  16  17
ATOM     17  C   UNL     1      15.044 -14.808  12.205  1.00  0.00     0.000 C 
BRANCH  17  18
ATOM     18  C   UNL     1      16.080 -14.068  13.064  1.00  0.00    -0.000 C 
BRANCH  18  19
ATOM     19  C   UNL     1      15.469 -13.638  14.406  1.00  0.00    -0.000 C 
BRANCH  19  20
ATOM     20  C   UNL     1      15.501 -12.115  14.617  1.00  0.00    -0.000 C 
BRANCH  20  21
ATOM     21  C   UNL     1      15.659 -11.285  13.328  1.00  0.00    -0.000 C 
BRANCH  21  22
ATOM     22  C   UNL     1      14.963  -9.909  13.382  1.00  0.00    -0.000 C 
BRANCH  22  23
ATOM     23  C   UNL     1      14.737  -9.426  14.826  1.00  0.00    -0.000 C 
BRANCH  23  24
ATOM     24  C   UNL     1      13.276  -9.040  15.101  1.00  0.00    -0.000 C 
BRANCH  24  25
ATOM     25  C   UNL     1      12.369 -10.263  15.309  1.00  0.00    -0.003 C 
ATOM     26  C   UNL     1      10.900  -9.899  15.111  1.00  0.00     0.004 C 
ENDBRANCH  24  25
ENDBRANCH  23  24
ENDBRANCH  22  23
ENDBRANCH  21  22
ENDBRANCH  20  21
ENDBRANCH  19  20
ENDBRANCH  18  19
ENDBRANCH  17  18
ENDBRANCH  16  17
ENDBRANCH  15  16
ENDBRANCH   1  15
TORSDOF 22
ENDMDL
MODEL 7
REMARK VINA RESULT:    -4.846      4.226      9.814
REMARK INTER + INTRA:         -14.105
REMARK INTER:                 -10.226
REMARK INTRA:                  -3.879
REMARK UNBOUND:                -3.025
REMARK SMILES CCCCCCCCCCCCCCCCCCCCCCCC(=O)[O-]
REMARK SMILES IDX 13 1 14 2 15 3 16 4 17 5 18 6 19 7 20 8 21 9 22 10 23 11
REMARK SMILES IDX 24 12 25 13 26 14 12 15 11 16 10 17 9 18 8 19 7 20 6 21 5 22
REMARK SMILES IDX 4 23 3 24 2 25 1 26
REMARK H PARENT
REMARK Flexibility Score: inf
ROOT
ATOM      1  C   UNL     1       9.732 -19.203   7.098  1.00  0.00     0.000 C 
ENDROOT
BRANCH   1   2
ATOM      2  C   UNL     1       9.997 -19.890   8.450  1.00  0.00     0.000 C 
BRANCH   2   3
ATOM      3  C   UNL     1      11.474 -19.816   8.868  1.00  0.00     0.000 C 
BRANCH   3   4
ATOM      4  C   UNL     1      12.388 -19.349   7.723  1.00  0.00     0.000 C 
BRANCH   4   5
ATOM      5  C   UNL     1      13.112 -18.032   8.046  1.00  0.00     0.000 C 
BRANCH   5   6
ATOM      6  C   UNL     1      12.683 -17.438   9.396  1.00  0.00     0.000 C 
BRANCH   6   7
ATOM      7  C   UNL     1      12.100 -16.031   9.219  1.00  0.00     0.000 C 
BRANCH   7   8
ATOM      8  C   UNL     1      11.038 -15.738  10.290  1.00  0.00     0.000 C 
BRANCH   8   9
ATOM      9  C   UNL     1      11.410 -16.311  11.666  1.00  0.00     0.000 C 
BRANCH   9  10
ATOM     10  C   UNL     1      10.623 -15.656  12.812  1.00  0.00     0.006 C 
BRANCH  10  11
ATOM     11  C   UNL     1      11.323 -15.882  14.155  1.00  0.00     0.053 C 
BRANCH  11  12
ATOM     12  C   UNL     1      12.084 -14.661  14.562  1.00  0.00     0.041 C 
ATOM     13  O   UNL     1      11.506 -13.733  15.187  1.00  0.00    -0.550 OA
ATOM     14  O   UNL     1      13.444 -14.568  14.297  1.00  0.00    -0.550 OA
ENDBRANCH  11  12
ENDBRANCH  10  11
ENDBRANCH   9  10
ENDBRANCH   8   9
ENDBRANCH   7   8
ENDBRANCH   6   7
ENDBRANCH   5   6
ENDBRANCH   4   5
ENDBRANCH   3   4
ENDBRANCH   2   3
ENDBRANCH   1   2
BRANCH   1  15
ATOM     15  C   UNL     1       8.589 -18.178   7.165  1.00  0.00     0.000 C 
BRANCH  15  16
ATOM     16  C   UNL     1       9.098 -16.729   7.262  1.00  0.00     0.000 C 
BRANCH  16  17
ATOM     17  C   UNL     1       8.778 -15.912   5.999  1.00  0.00     0.000 C 
BRANCH  17  18
ATOM     18  C   UNL     1       9.828 -14.828   5.717  1.00  0.00    -0.000 C 
BRANCH  18  19
ATOM     19  C   UNL     1      11.249 -15.408   5.801  1.00  0.00    -0.000 C 
BRANCH  19  20
ATOM     20  C   UNL     1      11.716 -16.037   4.477  1.00  0.00    -0.000 C 
BRANCH  20  21
ATOM     21  C   UNL     1      11.615 -17.574   4.419  1.00  0.00    -0.000 C 
BRANCH  21  22
ATOM     22  C   UNL     1      10.525 -18.092   3.456  1.00  0.00    -0.000 C 
BRANCH  22  23
ATOM     23  C   UNL     1       9.950 -16.973   2.569  1.00  0.00    -0.000 C 
BRANCH  23  24
ATOM     24  C   UNL     1       8.424 -16.849   2.683  1.00  0.00    -0.000 C 
BRANCH  24  25
ATOM     25  C   UNL     1       7.720 -18.214   2.712  1.00  0.00    -0.003 C 
ATOM     26  C   UNL     1       6.493 -18.181   3.620  1.00  0.00     0.004 C 
ENDBRANCH  24  25
ENDBRANCH  23  24
ENDBRANCH  22  23
ENDBRANCH  21  22
ENDBRANCH  20  21
ENDBRANCH  19  20
ENDBRANCH  18  19
ENDBRANCH  17  18
ENDBRANCH  16  17
ENDBRANCH  15  16
ENDBRANCH   1  15
TORSDOF 22
ENDMDL
MODEL 8
REMARK VINA RESULT:    -4.846      4.670      9.614
REMARK INTER + INTRA:         -14.104
REMARK INTER:                 -11.177
REMARK INTRA:                  -2.926
REMARK UNBOUND:                -3.025
REMARK SMILES CCCCCCCCCCCCCCCCCCCCCCCC(=O)[O-]
REMARK SMILES IDX 13 1 14 2 15 3 16 4 17 5 18 6 19 7 20 8 21 9 22 10 23 11
REMARK SMILES IDX 24 12 25 13 26 14 12 15 11 16 10 17 9 18 8 19 7 20 6 21 5 22
REMARK SMILES IDX 4 23 3 24 2 25 1 26
REMARK H PARENT
REMARK Flexibility Score: inf
ROOT
ATOM      1  C   UNL     1       9.036 -19.670   6.771  1.00  0.00     0.000 C 
ENDROOT
BRANCH   1   2
ATOM      2  C   UNL     1       9.039 -20.468   8.088  1.00  0.00     0.000 C 
BRANCH   2   3
ATOM      3  C   UNL     1      10.386 -20.385   8.823  1.00  0.00     0.000 C 
BRANCH   3   4
ATOM      4  C   UNL     1      10.810 -18.936   9.115  1.00  0.00     0.000 C 
BRANCH   4   5
ATOM      5  C   UNL     1      12.329 -18.730   8.996  1.00  0.00     0.000 C 
BRANCH   5   6
ATOM      6  C   UNL     1      12.882 -17.784  10.072  1.00  0.00     0.000 C 
BRANCH   6   7
ATOM      7  C   UNL     1      11.828 -16.753  10.495  1.00  0.00     0.000 C 
BRANCH   7   8
ATOM      8  C   UNL     1      12.229 -16.067  11.810  1.00  0.00     0.000 C 
BRANCH   8   9
ATOM      9  C   UNL     1      11.095 -16.065  12.848  1.00  0.00     0.000 C 
BRANCH   9  10
ATOM     10  C   UNL     1      11.589 -16.397  14.264  1.00  0.00     0.006 C 
BRANCH  10  11
ATOM     11  C   UNL     1      12.935 -17.128  14.217  1.00  0.00     0.053 C 
BRANCH  11  12
ATOM     12  C   UNL     1      13.652 -16.990  15.522  1.00  0.00     0.041 C 
ATOM     13  O   UNL     1      13.276 -16.133  16.364  1.00  0.00    -0.550 OA
ATOM     14  O   UNL     1      14.706 -17.841  15.831  1.00  0.00    -0.550 OA
ENDBRANCH  11  12
ENDBRANCH  10  11
ENDBRANCH   9  10
ENDBRANCH   8   9
ENDBRANCH   7   8
ENDBRANCH   6   7
ENDBRANCH   5   6
ENDBRANCH   4   5
ENDBRANCH   3   4
ENDBRANCH   2   3
ENDBRANCH   1   2
BRANCH   1  15
ATOM     15  C   UNL     1       7.694 -18.972   6.501  1.00  0.00     0.000 C 
BRANCH  15  16
ATOM     16  C   UNL     1       6.890 -19.651   5.377  1.00  0.00     0.000 C 
BRANCH  16  17
ATOM     17  C   UNL     1       6.531 -18.674   4.245  1.00  0.00     0.000 C 
BRANCH  17  18
ATOM     18  C   UNL     1       7.772 -18.120   3.530  1.00  0.00    -0.000 C 
BRANCH  18  19
ATOM     19  C   UNL     1       7.915 -16.610   3.776  1.00  0.00    -0.000 C 
BRANCH  19  20
ATOM     20  C   UNL     1       9.203 -16.247   4.533  1.00  0.00    -0.000 C 
BRANCH  20  21
ATOM     21  C   UNL     1       8.985 -15.496   5.862  1.00  0.00    -0.000 C 
BRANCH  21  22
ATOM     22  C   UNL     1       9.836 -16.034   7.031  1.00  0.00    -0.000 C 
BRANCH  22  23
ATOM     23  C   UNL     1      11.337 -16.065   6.694  1.00  0.00    -0.000 C 
BRANCH  23  24
ATOM     24  C   UNL     1      12.109 -14.889   7.310  1.00  0.00    -0.000 C 
BRANCH  24  25
ATOM     25  C   UNL     1      12.947 -14.123   6.274  1.00  0.00    -0.003 C 
ATOM     26  C   UNL     1      12.338 -14.241   4.879  1.00  0.00     0.004 C 
ENDBRANCH  24  25
ENDBRANCH  23  24
ENDBRANCH  22  23
ENDBRANCH  21  22
ENDBRANCH  20  21
ENDBRANCH  19  20
ENDBRANCH  18  19
ENDBRANCH  17  18
ENDBRANCH  16  17
ENDBRANCH  15  16
ENDBRANCH   1  15
TORSDOF 22
ENDMDL
MODEL 9
REMARK VINA RESULT:    -4.837      2.353      5.428
REMARK INTER + INTRA:         -14.083
REMARK INTER:                 -10.847
REMARK INTRA:                  -3.236
REMARK UNBOUND:                -3.025
REMARK SMILES CCCCCCCCCCCCCCCCCCCCCCCC(=O)[O-]
REMARK SMILES IDX 13 1 14 2 15 3 16 4 17 5 18 6 19 7 20 8 21 9 22 10 23 11
REMARK SMILES IDX 24 12 25 13 26 14 12 15 11 16 10 17 9 18 8 19 7 20 6 21 5 22
REMARK SMILES IDX 4 23 3 24 2 25 1 26
REMARK H PARENT
REMARK Flexibility Score: inf
ROOT
ATOM      1  C   UNL     1      10.875 -16.369   9.021  1.00  0.00     0.000 C 
ENDROOT
BRANCH   1   2
ATOM      2  C   UNL     1      11.755 -17.348   8.224  1.00  0.00     0.000 C 
BRANCH   2   3
ATOM      3  C   UNL     1      12.064 -18.634   9.008  1.00  0.00     0.000 C 
BRANCH   3   4
ATOM      4  C   UNL     1      11.000 -19.724   8.796  1.00  0.00     0.000 C 
BRANCH   4   5
ATOM      5  C   UNL     1      10.199 -19.523   7.500  1.00  0.00     0.000 C 
BRANCH   5   6
ATOM      6  C   UNL     1       8.682 -19.495   7.741  1.00  0.00     0.000 C 
BRANCH   6   7
ATOM      7  C   UNL     1       7.977 -18.597   6.718  1.00  0.00     0.000 C 
BRANCH   7   8
ATOM      8  C   UNL     1       8.999 -17.813   5.880  1.00  0.00     0.000 C 
BRANCH   8   9
ATOM      9  C   UNL     1       8.848 -16.291   6.031  1.00  0.00     0.000 C 
BRANCH   9  10
ATOM     10  C   UNL     1       9.783 -15.509   5.097  1.00  0.00     0.006 C 
BRANCH  10  11
ATOM     11  C   UNL     1      10.332 -14.260   5.793  1.00  0.00     0.053 C 
BRANCH  11  12
ATOM     12  C   UNL     1      11.814 -14.364   5.965  1.00  0.00     0.041 C 
ATOM     13  O   UNL     1      12.463 -15.249   5.347  1.00  0.00    -0.550 OA
ATOM     14  O   UNL     1      12.488 -13.453   6.768  1.00  0.00    -0.550 OA
ENDBRANCH  11  12
ENDBRANCH  10  11
ENDBRANCH   9  10
ENDBRANCH   8   9
ENDBRANCH   7   8
ENDBRANCH   6   7
ENDBRANCH   5   6
ENDBRANCH   4   5
ENDBRANCH   3   4
ENDBRANCH   2   3
ENDBRANCH   1   2
BRANCH   1  15
ATOM     15  C   UNL     1      11.629 -15.701  10.181  1.00  0.00     0.000 C 
BRANCH  15  16
ATOM     16  C   UNL     1      10.762 -15.558  11.446  1.00  0.00     0.000 C 
BRANCH  16  17
ATOM     17  C   UNL     1      11.352 -16.314  12.647  1.00  0.00     0.000 C 
BRANCH  17  18
ATOM     18  C   UNL     1      11.038 -15.631  13.985  1.00  0.00    -0.000 C 
BRANCH  18  19
ATOM     19  C   UNL     1      12.309 -15.026  14.601  1.00  0.00    -0.000 C 
BRANCH  19  20
ATOM     20  C   UNL     1      12.588 -15.543  16.023  1.00  0.00    -0.000 C 
BRANCH  20  21
ATOM     21  C   UNL     1      13.887 -16.361  16.171  1.00  0.00    -0.000 C 
BRANCH  21  22
ATOM     22  C   UNL     1      13.851 -17.726  15.451  1.00  0.00    -0.000 C 
BRANCH  22  23
ATOM     23  C   UNL     1      14.990 -17.874  14.426  1.00  0.00    -0.000 C 
BRANCH  23  24
ATOM     24  C   UNL     1      15.681 -16.540  14.108  1.00  0.00    -0.000 C 
BRANCH  24  25
ATOM     25  C   UNL     1      15.398 -16.052  12.679  1.00  0.00    -0.003 C 
ATOM     26  C   UNL     1      14.767 -17.157  11.835  1.00  0.00     0.004 C 
ENDBRANCH  24  25
ENDBRANCH  23  24
ENDBRANCH  22  23
ENDBRANCH  21  22
ENDBRANCH  20  21
ENDBRANCH  19  20
ENDBRANCH  18  19
ENDBRANCH  17  18
ENDBRANCH  16  17
ENDBRANCH  15  16
ENDBRANCH   1  15
TORSDOF 22
ENDMDL
