MODEL 1
REMARK VINA RESULT:    62.506      0.000      0.000
REMARK INTER + INTRA:         100.647
REMARK INTER:                  97.220
REMARK INTRA:                   3.427
REMARK UNBOUND:                 3.427
REMARK SMILES C[C@@]12C[C@@]3(O)O[C@@H](O1)[C@]1(COC(=O)c4ccccc4)[C@H]3C[C@@]12O[C@H]1O[C@@H](CO)[C@@H](O)[C@@H](O)[C@@H]1O
REMARK SMILES IDX 1 1 2 2 3 3 4 4 20 5 21 6 22 7 9 8 7 9 8 10 6 11 23 12 24 13
REMARK SMILES IDX 33 14 25 15 31 16 26 17 29 18 34 19 32 21 27 23 28 24 30 26
REMARK SMILES IDX 5 28 10 30 11 31 12 32 13 33 14 34 15 35 19 36 16 37 18 38
REMARK SMILES IDX 17 39
REMARK H PARENT 34 20 32 22 28 25 30 27 5 29
REMARK Flexibility Score: inf
ROOT
ATOM      1  C   UNL     1      13.146  96.955   1.559  1.00  0.00     0.046 C 
ATOM      2  C   UNL     1      11.918  97.028   0.652  1.00  0.00     0.104 C 
ATOM      3  C   UNL     1      10.643  96.430   1.357  1.00  0.00     0.104 C 
ATOM      4  C   UNL     1       9.528  96.541   0.259  1.00  0.00     0.175 C 
ATOM      5  C   UNL     1      10.040  95.947  -1.093  1.00  0.00     0.070 C 
ATOM      6  C   UNL     1      11.274  95.049  -0.948  1.00  0.00     0.050 C 
ATOM      7  C   UNL     1      12.090  96.345  -0.753  1.00  0.00     0.115 C 
ATOM      8  C   UNL     1      10.965  97.089  -1.484  1.00  0.00     0.096 C 
ATOM      9  C   UNL     1      10.583  98.279  -0.621  1.00  0.00     0.267 C 
ATOM     10  O   UNL     1      11.597  98.375   0.365  1.00  0.00    -0.342 OA
ATOM     11  O   UNL     1       9.360  97.924   0.002  1.00  0.00    -0.320 OA
ENDROOT
BRANCH   7  12
ATOM     12  O   UNL     1      13.330  96.503  -1.427  1.00  0.00    -0.339 OA
BRANCH  12  13
ATOM     13  C   UNL     1      13.648  95.510  -2.398  1.00  0.00     0.282 C 
ATOM     14  C   UNL     1      13.978  94.177  -1.649  1.00  0.00     0.202 C 
ATOM     15  O   UNL     1      14.667  95.916  -3.306  1.00  0.00    -0.341 OA
ATOM     16  C   UNL     1      15.427  93.668  -1.875  1.00  0.00     0.179 C 
ATOM     17  C   UNL     1      15.039  94.844  -4.145  1.00  0.00     0.178 C 
ATOM     18  C   UNL     1      15.930  93.861  -3.342  1.00  0.00     0.177 C 
BRANCH  14  19
ATOM     19  O   UNL     1      13.037  93.183  -1.980  1.00  0.00    -0.385 OA
ATOM     20  H   UNL     1      13.065  92.487  -1.269  1.00  0.00     0.211 HD
ENDBRANCH  14  19
BRANCH  16  21
ATOM     21  O   UNL     1      16.272  94.305  -0.950  1.00  0.00    -0.387 OA
ATOM     22  H   UNL     1      16.803  94.970  -1.463  1.00  0.00     0.211 HD
ENDBRANCH  16  21
BRANCH  17  23
ATOM     23  C   UNL     1      15.753  95.397  -5.395  1.00  0.00     0.191 C 
BRANCH  23  24
ATOM     24  O   UNL     1      14.930  96.331  -6.047  1.00  0.00    -0.394 OA
ATOM     25  H   UNL     1      14.974  97.169  -5.509  1.00  0.00     0.210 HD
ENDBRANCH  23  24
ENDBRANCH  17  23
BRANCH  18  26
ATOM     26  O   UNL     1      17.288  94.240  -3.368  1.00  0.00    -0.387 OA
ATOM     27  H   UNL     1      17.364  95.035  -3.956  1.00  0.00     0.211 HD
ENDBRANCH  18  26
ENDBRANCH  12  13
ENDBRANCH   7  12
BRANCH   4  28
ATOM     28  O   UNL     1       8.323  95.945   0.651  1.00  0.00    -0.365 OA
ATOM     29  H   UNL     1       8.425  95.698   1.606  1.00  0.00     0.214 HD
ENDBRANCH   4  28
BRANCH   8  30
ATOM     30  C   UNL     1      11.122  97.340  -3.005  1.00  0.00     0.249 C 
BRANCH  30  31
ATOM     31  O   UNL     1      11.673  98.633  -3.227  1.00  0.00    -0.461 OA
BRANCH  31  32
ATOM     32  C   UNL     1      12.866  99.066  -2.644  1.00  0.00     0.338 C 
ATOM     33  O   UNL     1      13.952  98.463  -2.896  1.00  0.00    -0.246 OA
BRANCH  32  34
ATOM     34  C   UNL     1      12.850 100.238  -1.740  1.00  0.00     0.060 A 
ATOM     35  C   UNL     1      13.891 100.427  -0.811  1.00  0.00     0.015 A 
ATOM     36  C   UNL     1      11.786 101.165  -1.771  1.00  0.00     0.015 A 
ATOM     37  C   UNL     1      13.869 101.509   0.073  1.00  0.00     0.001 A 
ATOM     38  C   UNL     1      11.769 102.247  -0.882  1.00  0.00     0.001 A 
ATOM     39  C   UNL     1      12.805 102.413   0.042  1.00  0.00     0.000 A 
ENDBRANCH  32  34
ENDBRANCH  31  32
ENDBRANCH  30  31
ENDBRANCH   8  30
TORSDOF 12
ENDMDL
MODEL 2
REMARK VINA RESULT:    62.834      1.140      1.824
REMARK INTER + INTRA:         101.158
REMARK INTER:                  99.278
REMARK INTRA:                   1.880
REMARK UNBOUND:                 3.427
REMARK SMILES C[C@@]12C[C@@]3(O)O[C@@H](O1)[C@]1(COC(=O)c4ccccc4)[C@H]3C[C@@]12O[C@H]1O[C@@H](CO)[C@@H](O)[C@@H](O)[C@@H]1O
REMARK SMILES IDX 1 1 2 2 3 3 4 4 20 5 21 6 22 7 9 8 7 9 8 10 6 11 23 12 24 13
REMARK SMILES IDX 33 14 25 15 31 16 26 17 29 18 34 19 32 21 27 23 28 24 30 26
REMARK SMILES IDX 5 28 10 30 11 31 12 32 13 33 14 34 15 35 19 36 16 37 18 38
REMARK SMILES IDX 17 39
REMARK H PARENT 34 20 32 22 28 25 30 27 5 29
REMARK Flexibility Score: inf
ROOT
ATOM      1  C   UNL     1      13.232  96.621   1.424  1.00  0.00     0.046 C 
ATOM      2  C   UNL     1      12.003  96.867   0.550  1.00  0.00     0.104 C 
ATOM      3  C   UNL     1      10.671  96.508   1.310  1.00  0.00     0.104 C 
ATOM      4  C   UNL     1       9.554  96.769   0.241  1.00  0.00     0.175 C 
ATOM      5  C   UNL     1       9.916  96.059  -1.103  1.00  0.00     0.070 C 
ATOM      6  C   UNL     1      10.991  94.974  -0.962  1.00  0.00     0.050 C 
ATOM      7  C   UNL     1      12.014  96.124  -0.834  1.00  0.00     0.115 C 
ATOM      8  C   UNL     1      11.003  97.021  -1.560  1.00  0.00     0.096 C 
ATOM      9  C   UNL     1      10.850  98.282  -0.728  1.00  0.00     0.267 C 
ATOM     10  O   UNL     1      11.897  98.240   0.226  1.00  0.00    -0.342 OA
ATOM     11  O   UNL     1       9.606  98.152  -0.060  1.00  0.00    -0.320 OA
ENDROOT
BRANCH   7  12
ATOM     12  O   UNL     1      13.240  96.055  -1.548  1.00  0.00    -0.339 OA
BRANCH  12  13
ATOM     13  C   UNL     1      13.991  94.854  -1.394  1.00  0.00     0.282 C 
ATOM     14  C   UNL     1      15.469  95.236  -1.058  1.00  0.00     0.202 C 
ATOM     15  O   UNL     1      13.873  93.971  -2.505  1.00  0.00    -0.341 OA
ATOM     16  C   UNL     1      16.501  94.758  -2.114  1.00  0.00     0.179 C 
ATOM     17  C   UNL     1      14.748  92.873  -2.359  1.00  0.00     0.178 C 
ATOM     18  C   UNL     1      16.193  93.334  -2.681  1.00  0.00     0.177 C 
BRANCH  14  19
ATOM     19  O   UNL     1      15.814  94.776   0.228  1.00  0.00    -0.385 OA
ATOM     20  H   UNL     1      16.788  94.573   0.228  1.00  0.00     0.211 HD
ENDBRANCH  14  19
BRANCH  16  21
ATOM     21  O   UNL     1      16.568  95.719  -3.137  1.00  0.00    -0.387 OA
ATOM     22  H   UNL     1      16.997  95.273  -3.916  1.00  0.00     0.211 HD
ENDBRANCH  16  21
BRANCH  17  23
ATOM     23  C   UNL     1      14.280  91.722  -3.274  1.00  0.00     0.191 C 
BRANCH  23  24
ATOM     24  O   UNL     1      14.285  90.509  -2.565  1.00  0.00    -0.394 OA
ATOM     25  H   UNL     1      15.205  90.136  -2.652  1.00  0.00     0.210 HD
ENDBRANCH  23  24
ENDBRANCH  17  23
BRANCH  18  26
ATOM     26  O   UNL     1      16.473  93.264  -4.061  1.00  0.00    -0.387 OA
ATOM     27  H   UNL     1      16.171  92.376  -4.381  1.00  0.00     0.211 HD
ENDBRANCH  18  26
ENDBRANCH  12  13
ENDBRANCH   7  12
BRANCH   4  28
ATOM     28  O   UNL     1       8.281  96.392   0.686  1.00  0.00    -0.365 OA
ATOM     29  H   UNL     1       8.307  95.411   0.823  1.00  0.00     0.214 HD
ENDBRANCH   4  28
BRANCH   8  30
ATOM     30  C   UNL     1      11.149  97.197  -3.092  1.00  0.00     0.249 C 
BRANCH  30  31
ATOM     31  O   UNL     1      11.831  98.413  -3.376  1.00  0.00    -0.461 OA
BRANCH  31  32
ATOM     32  C   UNL     1      12.964  98.834  -2.677  1.00  0.00     0.338 C 
ATOM     33  O   UNL     1      14.047  98.182  -2.769  1.00  0.00    -0.246 OA
BRANCH  32  34
ATOM     34  C   UNL     1      12.890 100.052  -1.839  1.00  0.00     0.060 A 
ATOM     35  C   UNL     1      13.896 100.320  -0.892  1.00  0.00     0.015 A 
ATOM     36  C   UNL     1      11.804 100.947  -1.952  1.00  0.00     0.015 A 
ATOM     37  C   UNL     1      13.819 101.446  -0.069  1.00  0.00     0.001 A 
ATOM     38  C   UNL     1      11.732 102.074  -1.125  1.00  0.00     0.001 A 
ATOM     39  C   UNL     1      12.734 102.318  -0.181  1.00  0.00     0.000 A 
ENDBRANCH  32  34
ENDBRANCH  31  32
ENDBRANCH  30  31
ENDBRANCH   8  30
TORSDOF 12
ENDMDL
MODEL 3
REMARK VINA RESULT:    63.118      2.087      6.341
REMARK INTER + INTRA:         101.598
REMARK INTER:                  99.120
REMARK INTRA:                   2.478
REMARK UNBOUND:                 3.427
REMARK SMILES C[C@@]12C[C@@]3(O)O[C@@H](O1)[C@]1(COC(=O)c4ccccc4)[C@H]3C[C@@]12O[C@H]1O[C@@H](CO)[C@@H](O)[C@@H](O)[C@@H]1O
REMARK SMILES IDX 1 1 2 2 3 3 4 4 20 5 21 6 22 7 9 8 7 9 8 10 6 11 23 12 24 13
REMARK SMILES IDX 33 14 25 15 31 16 26 17 29 18 34 19 32 21 27 23 28 24 30 26
REMARK SMILES IDX 5 28 10 30 11 31 12 32 13 33 14 34 15 35 19 36 16 37 18 38
REMARK SMILES IDX 17 39
REMARK H PARENT 34 20 32 22 28 25 30 27 5 29
REMARK Flexibility Score: inf
ROOT
ATOM      1  C   UNL     1      13.577  97.275   1.353  1.00  0.00     0.046 C 
ATOM      2  C   UNL     1      13.177  96.673   0.006  1.00  0.00     0.104 C 
ATOM      3  C   UNL     1      14.292  95.709  -0.549  1.00  0.00     0.104 C 
ATOM      4  C   UNL     1      13.725  95.251  -1.938  1.00  0.00     0.175 C 
ATOM      5  C   UNL     1      13.264  96.492  -2.768  1.00  0.00     0.070 C 
ATOM      6  C   UNL     1      13.830  97.823  -2.261  1.00  0.00     0.050 C 
ATOM      7  C   UNL     1      12.811  97.721  -1.106  1.00  0.00     0.115 C 
ATOM      8  C   UNL     1      11.984  96.790  -2.003  1.00  0.00     0.096 C 
ATOM      9  C   UNL     1      11.664  95.551  -1.184  1.00  0.00     0.267 C 
ATOM     10  O   UNL     1      12.020  95.873   0.150  1.00  0.00    -0.342 OA
ATOM     11  O   UNL     1      12.532  94.539  -1.665  1.00  0.00    -0.320 OA
ENDROOT
BRANCH   7  12
ATOM     12  O   UNL     1      12.060  98.865  -0.727  1.00  0.00    -0.339 OA
BRANCH  12  13
ATOM     13  C   UNL     1      12.385 100.080  -1.398  1.00  0.00     0.282 C 
ATOM     14  C   UNL     1      13.767 100.582  -0.865  1.00  0.00     0.202 C 
ATOM     15  O   UNL     1      11.356 101.060  -1.316  1.00  0.00    -0.341 OA
ATOM     16  C   UNL     1      13.707 101.964  -0.160  1.00  0.00     0.179 C 
ATOM     17  C   UNL     1      11.792 102.283  -1.869  1.00  0.00     0.178 C 
ATOM     18  C   UNL     1      12.748 102.978  -0.864  1.00  0.00     0.177 C 
BRANCH  14  19
ATOM     19  O   UNL     1      14.720 100.586  -1.902  1.00  0.00    -0.385 OA
ATOM     20  H   UNL     1      14.233 100.478  -2.764  1.00  0.00     0.211 HD
ENDBRANCH  14  19
BRANCH  16  21
ATOM     21  O   UNL     1      13.351 101.763   1.184  1.00  0.00    -0.387 OA
ATOM     22  H   UNL     1      14.198 101.764   1.705  1.00  0.00     0.211 HD
ENDBRANCH  16  21
BRANCH  17  23
ATOM     23  C   UNL     1      10.567 103.154  -2.213  1.00  0.00     0.191 C 
BRANCH  23  24
ATOM     24  O   UNL     1       9.623 102.399  -2.929  1.00  0.00    -0.394 OA
ATOM     25  H   UNL     1       9.752 101.451  -2.651  1.00  0.00     0.210 HD
ENDBRANCH  23  24
ENDBRANCH  17  23
BRANCH  18  26
ATOM     26  O   UNL     1      12.046 103.754   0.080  1.00  0.00    -0.387 OA
ATOM     27  H   UNL     1      12.650 104.481   0.377  1.00  0.00     0.211 HD
ENDBRANCH  18  26
ENDBRANCH  12  13
ENDBRANCH   7  12
BRANCH   4  28
ATOM     28  O   UNL     1      14.633  94.467  -2.660  1.00  0.00    -0.365 OA
ATOM     29  H   UNL     1      14.144  93.652  -2.942  1.00  0.00     0.214 HD
ENDBRANCH   4  28
BRANCH   8  30
ATOM     30  C   UNL     1      10.829  97.408  -2.831  1.00  0.00     0.249 C 
BRANCH  30  31
ATOM     31  O   UNL     1       9.594  97.228  -2.147  1.00  0.00    -0.461 OA
BRANCH  31  32
ATOM     32  C   UNL     1       9.403  97.580  -0.809  1.00  0.00     0.338 C 
ATOM     33  O   UNL     1       9.707  98.743  -0.408  1.00  0.00    -0.246 OA
BRANCH  32  34
ATOM     34  C   UNL     1       8.834  96.586   0.129  1.00  0.00     0.060 A 
ATOM     35  C   UNL     1       8.744  96.883   1.502  1.00  0.00     0.015 A 
ATOM     36  C   UNL     1       8.400  95.323  -0.326  1.00  0.00     0.015 A 
ATOM     37  C   UNL     1       8.244  95.941   2.404  1.00  0.00     0.001 A 
ATOM     38  C   UNL     1       7.899  94.382   0.582  1.00  0.00     0.001 A 
ATOM     39  C   UNL     1       7.829  94.689   1.944  1.00  0.00     0.000 A 
ENDBRANCH  32  34
ENDBRANCH  31  32
ENDBRANCH  30  31
ENDBRANCH   8  30
TORSDOF 12
ENDMDL
MODEL 4
REMARK VINA RESULT:    63.135      2.061      6.281
REMARK INTER + INTRA:         101.625
REMARK INTER:                  97.224
REMARK INTRA:                   4.402
REMARK UNBOUND:                 3.427
REMARK SMILES C[C@@]12C[C@@]3(O)O[C@@H](O1)[C@]1(COC(=O)c4ccccc4)[C@H]3C[C@@]12O[C@H]1O[C@@H](CO)[C@@H](O)[C@@H](O)[C@@H]1O
REMARK SMILES IDX 1 1 2 2 3 3 4 4 20 5 21 6 22 7 9 8 7 9 8 10 6 11 23 12 24 13
REMARK SMILES IDX 33 14 25 15 31 16 26 17 29 18 34 19 32 21 27 23 28 24 30 26
REMARK SMILES IDX 5 28 10 30 11 31 12 32 13 33 14 34 15 35 19 36 16 37 18 38
REMARK SMILES IDX 17 39
REMARK H PARENT 34 20 32 22 28 25 30 27 5 29
REMARK Flexibility Score: inf
ROOT
ATOM      1  C   UNL     1      13.181  97.236   1.626  1.00  0.00     0.046 C 
ATOM      2  C   UNL     1      12.917  97.979   0.317  1.00  0.00     0.104 C 
ATOM      3  C   UNL     1      13.187  99.524   0.466  1.00  0.00     0.104 C 
ATOM      4  C   UNL     1      12.808 100.102  -0.942  1.00  0.00     0.175 C 
ATOM      5  C   UNL     1      11.401  99.581  -1.379  1.00  0.00     0.070 C 
ATOM      6  C   UNL     1      10.565  99.011  -0.226  1.00  0.00     0.050 C 
ATOM      7  C   UNL     1      11.482  97.770  -0.287  1.00  0.00     0.115 C 
ATOM      8  C   UNL     1      11.807  98.159  -1.735  1.00  0.00     0.096 C 
ATOM      9  C   UNL     1      13.320  98.155  -1.868  1.00  0.00     0.267 C 
ATOM     10  O   UNL     1      13.805  97.533  -0.689  1.00  0.00    -0.342 OA
ATOM     11  O   UNL     1      13.709  99.519  -1.867  1.00  0.00    -0.320 OA
ENDROOT
BRANCH   7  12
ATOM     12  O   UNL     1      10.911  96.472  -0.223  1.00  0.00    -0.339 OA
BRANCH  12  13
ATOM     13  C   UNL     1       9.487  96.410  -0.229  1.00  0.00     0.282 C 
ATOM     14  C   UNL     1       8.959  97.107   1.067  1.00  0.00     0.202 C 
ATOM     15  O   UNL     1       8.982  95.091  -0.409  1.00  0.00    -0.341 OA
ATOM     16  C   UNL     1       8.162  96.166   2.011  1.00  0.00     0.179 C 
ATOM     17  C   UNL     1       7.579  95.074  -0.260  1.00  0.00     0.178 C 
ATOM     18  C   UNL     1       7.231  95.168   1.248  1.00  0.00     0.177 C 
BRANCH  14  19
ATOM     19  O   UNL     1       8.202  98.247   0.737  1.00  0.00    -0.385 OA
ATOM     20  H   UNL     1       8.832  98.953   0.427  1.00  0.00     0.211 HD
ENDBRANCH  14  19
BRANCH  16  21
ATOM     21  O   UNL     1       9.074  95.490   2.840  1.00  0.00    -0.387 OA
ATOM     22  H   UNL     1       9.980  95.813   2.586  1.00  0.00     0.211 HD
ENDBRANCH  16  21
BRANCH  17  23
ATOM     23  C   UNL     1       7.011  93.799  -0.916  1.00  0.00     0.191 C 
BRANCH  23  24
ATOM     24  O   UNL     1       7.207  93.842  -2.306  1.00  0.00    -0.394 OA
ATOM     25  H   UNL     1       6.653  94.598  -2.645  1.00  0.00     0.210 HD
ENDBRANCH  23  24
ENDBRANCH  17  23
BRANCH  18  26
ATOM     26  O   UNL     1       7.226  93.902   1.867  1.00  0.00    -0.387 OA
ATOM     27  H   UNL     1       8.166  93.593   1.922  1.00  0.00     0.211 HD
ENDBRANCH  18  26
ENDBRANCH  12  13
ENDBRANCH   7  12
BRANCH   4  28
ATOM     28  O   UNL     1      12.867 101.501  -0.986  1.00  0.00    -0.365 OA
ATOM     29  H   UNL     1      12.003 101.810  -1.361  1.00  0.00     0.214 HD
ENDBRANCH   4  28
BRANCH   8  30
ATOM     30  C   UNL     1      10.996  97.489  -2.872  1.00  0.00     0.249 C 
BRANCH  30  31
ATOM     31  O   UNL     1      11.695  96.349  -3.358  1.00  0.00    -0.461 OA
BRANCH  31  32
ATOM     32  C   UNL     1      12.114  95.302  -2.534  1.00  0.00     0.338 C 
ATOM     33  O   UNL     1      11.270  94.666  -1.836  1.00  0.00    -0.246 OA
BRANCH  32  34
ATOM     34  C   UNL     1      13.549  94.939  -2.494  1.00  0.00     0.060 A 
ATOM     35  C   UNL     1      13.961  93.763  -1.839  1.00  0.00     0.015 A 
ATOM     36  C   UNL     1      14.526  95.769  -3.083  1.00  0.00     0.015 A 
ATOM     37  C   UNL     1      15.315  93.427  -1.761  1.00  0.00     0.001 A 
ATOM     38  C   UNL     1      15.881  95.428  -3.003  1.00  0.00     0.001 A 
ATOM     39  C   UNL     1      16.274  94.263  -2.337  1.00  0.00     0.000 A 
ENDBRANCH  32  34
ENDBRANCH  31  32
ENDBRANCH  30  31
ENDBRANCH   8  30
TORSDOF 12
ENDMDL
MODEL 5
REMARK VINA RESULT:    63.330      2.055      6.265
REMARK INTER + INTRA:         101.929
REMARK INTER:                  96.614
REMARK INTRA:                   5.315
REMARK UNBOUND:                 3.427
REMARK SMILES C[C@@]12C[C@@]3(O)O[C@@H](O1)[C@]1(COC(=O)c4ccccc4)[C@H]3C[C@@]12O[C@H]1O[C@@H](CO)[C@@H](O)[C@@H](O)[C@@H]1O
REMARK SMILES IDX 1 1 2 2 3 3 4 4 20 5 21 6 22 7 9 8 7 9 8 10 6 11 23 12 24 13
REMARK SMILES IDX 33 14 25 15 31 16 26 17 29 18 34 19 32 21 27 23 28 24 30 26
REMARK SMILES IDX 5 28 10 30 11 31 12 32 13 33 14 34 15 35 19 36 16 37 18 38
REMARK SMILES IDX 17 39
REMARK H PARENT 34 20 32 22 28 25 30 27 5 29
REMARK Flexibility Score: inf
ROOT
ATOM      1  C   UNL     1      14.382  97.972  -3.959  1.00  0.00     0.046 C 
ATOM      2  C   UNL     1      14.036  96.917  -2.908  1.00  0.00     0.104 C 
ATOM      3  C   UNL     1      14.247  95.459  -3.464  1.00  0.00     0.104 C 
ATOM      4  C   UNL     1      13.789  94.541  -2.276  1.00  0.00     0.175 C 
ATOM      5  C   UNL     1      12.389  94.996  -1.752  1.00  0.00     0.070 C 
ATOM      6  C   UNL     1      11.624  95.897  -2.728  1.00  0.00     0.050 C 
ATOM      7  C   UNL     1      12.588  97.028  -2.309  1.00  0.00     0.115 C 
ATOM      8  C   UNL     1      12.840  96.246  -1.013  1.00  0.00     0.096 C 
ATOM      9  C   UNL     1      14.345  96.137  -0.844  1.00  0.00     0.267 C 
ATOM     10  O   UNL     1      14.901  97.029  -1.796  1.00  0.00    -0.342 OA
ATOM     11  O   UNL     1      14.676  94.807  -1.204  1.00  0.00    -0.320 OA
ENDROOT
BRANCH   7  12
ATOM     12  O   UNL     1      12.075  98.323  -2.033  1.00  0.00    -0.339 OA
BRANCH  12  13
ATOM     13  C   UNL     1      12.956  99.219  -1.362  1.00  0.00     0.282 C 
ATOM     14  C   UNL     1      12.389  99.489   0.070  1.00  0.00     0.202 C 
ATOM     15  O   UNL     1      13.220 100.407  -2.100  1.00  0.00    -0.341 OA
ATOM     16  C   UNL     1      12.024 100.974   0.335  1.00  0.00     0.179 C 
ATOM     17  C   UNL     1      13.977 101.313  -1.327  1.00  0.00     0.178 C 
ATOM     18  C   UNL     1      13.047 101.983  -0.282  1.00  0.00     0.177 C 
BRANCH  14  19
ATOM     19  O   UNL     1      13.279  99.006   1.049  1.00  0.00    -0.385 OA
ATOM     20  H   UNL     1      14.206  99.168   0.725  1.00  0.00     0.211 HD
ENDBRANCH  14  19
BRANCH  16  21
ATOM     21  O   UNL     1      10.721 101.204  -0.139  1.00  0.00    -0.387 OA
ATOM     22  H   UNL     1      10.200 101.564   0.627  1.00  0.00     0.211 HD
ENDBRANCH  16  21
BRANCH  17  23
ATOM     23  C   UNL     1      14.651 102.341  -2.258  1.00  0.00     0.191 C 
BRANCH  23  24
ATOM     24  O   UNL     1      16.048 102.270  -2.125  1.00  0.00    -0.394 OA
ATOM     25  H   UNL     1      16.273 101.304  -2.028  1.00  0.00     0.210 HD
ENDBRANCH  23  24
ENDBRANCH  17  23
BRANCH  18  26
ATOM     26  O   UNL     1      12.392 103.114  -0.809  1.00  0.00    -0.387 OA
ATOM     27  H   UNL     1      12.701 103.228  -1.744  1.00  0.00     0.211 HD
ENDBRANCH  18  26
ENDBRANCH  12  13
ENDBRANCH   7  12
BRANCH   4  28
ATOM     28  O   UNL     1      13.788  93.182  -2.613  1.00  0.00    -0.365 OA
ATOM     29  H   UNL     1      12.871  92.967  -2.922  1.00  0.00     0.214 HD
ENDBRANCH   4  28
BRANCH   8  30
ATOM     30  C   UNL     1      12.013  96.624   0.242  1.00  0.00     0.249 C 
BRANCH  30  31
ATOM     31  O   UNL     1      11.082  97.650  -0.083  1.00  0.00    -0.461 OA
BRANCH  31  32
ATOM     32  C   UNL     1       9.749  97.396  -0.414  1.00  0.00     0.338 C 
ATOM     33  O   UNL     1       9.199  98.026  -1.366  1.00  0.00    -0.246 OA
BRANCH  32  34
ATOM     34  C   UNL     1       8.993  96.378   0.349  1.00  0.00     0.060 A 
ATOM     35  C   UNL     1       8.229  96.759   1.469  1.00  0.00     0.015 A 
ATOM     36  C   UNL     1       9.045  95.013  -0.009  1.00  0.00     0.015 A 
ATOM     37  C   UNL     1       7.540  95.803   2.220  1.00  0.00     0.001 A 
ATOM     38  C   UNL     1       8.353  94.060   0.748  1.00  0.00     0.001 A 
ATOM     39  C   UNL     1       7.609  94.455   1.864  1.00  0.00     0.000 A 
ENDBRANCH  32  34
ENDBRANCH  31  32
ENDBRANCH  30  31
ENDBRANCH   8  30
TORSDOF 12
ENDMDL
MODEL 6
REMARK VINA RESULT:    63.556      2.078      6.338
REMARK INTER + INTRA:         102.280
REMARK INTER:                  98.638
REMARK INTRA:                   3.643
REMARK UNBOUND:                 3.427
REMARK SMILES C[C@@]12C[C@@]3(O)O[C@@H](O1)[C@]1(COC(=O)c4ccccc4)[C@H]3C[C@@]12O[C@H]1O[C@@H](CO)[C@@H](O)[C@@H](O)[C@@H]1O
REMARK SMILES IDX 1 1 2 2 3 3 4 4 20 5 21 6 22 7 9 8 7 9 8 10 6 11 23 12 24 13
REMARK SMILES IDX 33 14 25 15 31 16 26 17 29 18 34 19 32 21 27 23 28 24 30 26
REMARK SMILES IDX 5 28 10 30 11 31 12 32 13 33 14 34 15 35 19 36 16 37 18 38
REMARK SMILES IDX 17 39
REMARK H PARENT 34 20 32 22 28 25 30 27 5 29
REMARK Flexibility Score: inf
ROOT
ATOM      1  C   UNL     1      13.659  97.142   1.372  1.00  0.00     0.046 C 
ATOM      2  C   UNL     1      13.101  97.966   0.213  1.00  0.00     0.104 C 
ATOM      3  C   UNL     1      13.000  99.493   0.586  1.00  0.00     0.104 C 
ATOM      4  C   UNL     1      12.362 100.143  -0.691  1.00  0.00     0.175 C 
ATOM      5  C   UNL     1      11.089  99.346  -1.124  1.00  0.00     0.070 C 
ATOM      6  C   UNL     1      10.528  98.430  -0.029  1.00  0.00     0.050 C 
ATOM      7  C   UNL     1      11.710  97.483  -0.335  1.00  0.00     0.115 C 
ATOM      8  C   UNL     1      11.794  98.137  -1.720  1.00  0.00     0.096 C 
ATOM      9  C   UNL     1      13.243  98.537  -1.936  1.00  0.00     0.267 C 
ATOM     10  O   UNL     1      13.973  97.903  -0.899  1.00  0.00    -0.342 OA
ATOM     11  O   UNL     1      13.286  99.941  -1.744  1.00  0.00    -0.320 OA
ENDROOT
BRANCH   7  12
ATOM     12  O   UNL     1      11.481  96.086  -0.443  1.00  0.00    -0.339 OA
BRANCH  12  13
ATOM     13  C   UNL     1      10.379  95.570   0.300  1.00  0.00     0.282 C 
ATOM     14  C   UNL     1       9.144  95.473  -0.655  1.00  0.00     0.202 C 
ATOM     15  O   UNL     1      10.115  96.298   1.494  1.00  0.00    -0.341 OA
ATOM     16  C   UNL     1       7.942  96.356  -0.226  1.00  0.00     0.179 C 
ATOM     17  C   UNL     1       8.931  95.833   2.106  1.00  0.00     0.178 C 
ATOM     18  C   UNL     1       7.710  96.377   1.320  1.00  0.00     0.177 C 
BRANCH  14  19
ATOM     19  O   UNL     1       8.751  94.129  -0.812  1.00  0.00    -0.385 OA
ATOM     20  H   UNL     1       7.821  94.123  -1.165  1.00  0.00     0.211 HD
ENDBRANCH  14  19
BRANCH  16  21
ATOM     21  O   UNL     1       8.136  97.651  -0.737  1.00  0.00    -0.387 OA
ATOM     22  H   UNL     1       7.267  97.934  -1.129  1.00  0.00     0.211 HD
ENDBRANCH  16  21
BRANCH  17  23
ATOM     23  C   UNL     1       8.918  96.266   3.586  1.00  0.00     0.191 C 
BRANCH  23  24
ATOM     24  O   UNL     1       9.914  95.579   4.300  1.00  0.00    -0.394 OA
ATOM     25  H   UNL     1       9.731  94.607   4.175  1.00  0.00     0.210 HD
ENDBRANCH  23  24
ENDBRANCH  17  23
BRANCH  18  26
ATOM     26  O   UNL     1       7.331  97.662   1.760  1.00  0.00    -0.387 OA
ATOM     27  H   UNL     1       8.153  98.211   1.820  1.00  0.00     0.211 HD
ENDBRANCH  18  26
ENDBRANCH  12  13
ENDBRANCH   7  12
BRANCH   4  28
ATOM     28  O   UNL     1      12.074 101.503  -0.519  1.00  0.00    -0.365 OA
ATOM     29  H   UNL     1      11.235 101.681  -1.016  1.00  0.00     0.214 HD
ENDBRANCH   4  28
BRANCH   8  30
ATOM     30  C   UNL     1      11.067  97.446  -2.901  1.00  0.00     0.249 C 
BRANCH  30  31
ATOM     31  O   UNL     1      11.884  96.408  -3.430  1.00  0.00    -0.461 OA
BRANCH  31  32
ATOM     32  C   UNL     1      12.231  95.264  -2.706  1.00  0.00     0.338 C 
ATOM     33  O   UNL     1      11.328  94.547  -2.181  1.00  0.00    -0.246 OA
BRANCH  32  34
ATOM     34  C   UNL     1      13.658  94.896  -2.569  1.00  0.00     0.060 A 
ATOM     35  C   UNL     1      14.027  93.770  -1.809  1.00  0.00     0.015 A 
ATOM     36  C   UNL     1      14.671  95.675  -3.170  1.00  0.00     0.015 A 
ATOM     37  C   UNL     1      15.372  93.433  -1.641  1.00  0.00     0.001 A 
ATOM     38  C   UNL     1      16.017  95.332  -2.998  1.00  0.00     0.001 A 
ATOM     39  C   UNL     1      16.365  94.218  -2.229  1.00  0.00     0.000 A 
ENDBRANCH  32  34
ENDBRANCH  31  32
ENDBRANCH  30  31
ENDBRANCH   8  30
TORSDOF 12
ENDMDL
MODEL 7
REMARK VINA RESULT:    63.680      1.935      6.232
REMARK INTER + INTRA:         102.472
REMARK INTER:                  99.334
REMARK INTRA:                   3.138
REMARK UNBOUND:                 3.427
REMARK SMILES C[C@@]12C[C@@]3(O)O[C@@H](O1)[C@]1(COC(=O)c4ccccc4)[C@H]3C[C@@]12O[C@H]1O[C@@H](CO)[C@@H](O)[C@@H](O)[C@@H]1O
REMARK SMILES IDX 1 1 2 2 3 3 4 4 20 5 21 6 22 7 9 8 7 9 8 10 6 11 23 12 24 13
REMARK SMILES IDX 33 14 25 15 31 16 26 17 29 18 34 19 32 21 27 23 28 24 30 26
REMARK SMILES IDX 5 28 10 30 11 31 12 32 13 33 14 34 15 35 19 36 16 37 18 38
REMARK SMILES IDX 17 39
REMARK H PARENT 34 20 32 22 28 25 30 27 5 29
REMARK Flexibility Score: inf
ROOT
ATOM      1  C   UNL     1      13.306  96.980   1.468  1.00  0.00     0.046 C 
ATOM      2  C   UNL     1      13.063  96.559   0.019  1.00  0.00     0.104 C 
ATOM      3  C   UNL     1      14.380  96.015  -0.652  1.00  0.00     0.104 C 
ATOM      4  C   UNL     1      13.940  95.698  -2.124  1.00  0.00     0.175 C 
ATOM      5  C   UNL     1      13.184  96.922  -2.736  1.00  0.00     0.070 C 
ATOM      6  C   UNL     1      13.406  98.233  -1.973  1.00  0.00     0.050 C 
ATOM      7  C   UNL     1      12.446  97.673  -0.901  1.00  0.00     0.115 C 
ATOM      8  C   UNL     1      11.872  96.752  -1.985  1.00  0.00     0.096 C 
ATOM      9  C   UNL     1      11.870  95.343  -1.418  1.00  0.00     0.267 C 
ATOM     10  O   UNL     1      12.139  95.489  -0.033  1.00  0.00    -0.342 OA
ATOM     11  O   UNL     1      12.960  94.679  -2.036  1.00  0.00    -0.320 OA
ENDROOT
BRANCH   7  12
ATOM     12  O   UNL     1      11.438  98.510  -0.355  1.00  0.00    -0.339 OA
BRANCH  12  13
ATOM     13  C   UNL     1      11.780  99.884  -0.193  1.00  0.00     0.282 C 
ATOM     14  C   UNL     1      11.454 100.633  -1.526  1.00  0.00     0.202 C 
ATOM     15  O   UNL     1      13.116 100.082   0.256  1.00  0.00    -0.341 OA
ATOM     16  C   UNL     1      12.693 101.270  -2.211  1.00  0.00     0.179 C 
ATOM     17  C   UNL     1      13.440 101.455   0.258  1.00  0.00     0.178 C 
ATOM     18  C   UNL     1      13.697 101.914  -1.201  1.00  0.00     0.177 C 
BRANCH  14  19
ATOM     19  O   UNL     1      10.446 101.594  -1.314  1.00  0.00    -0.385 OA
ATOM     20  H   UNL     1      10.839 102.335  -0.776  1.00  0.00     0.211 HD
ENDBRANCH  14  19
BRANCH  16  21
ATOM     21  O   UNL     1      13.314 100.291  -3.006  1.00  0.00    -0.387 OA
ATOM     22  H   UNL     1      14.114 100.720  -3.410  1.00  0.00     0.211 HD
ENDBRANCH  16  21
BRANCH  17  23
ATOM     23  C   UNL     1      14.659 101.692   1.172  1.00  0.00     0.191 C 
BRANCH  23  24
ATOM     24  O   UNL     1      14.438 101.112   2.432  1.00  0.00    -0.394 OA
ATOM     25  H   UNL     1      15.302 100.700   2.708  1.00  0.00     0.210 HD
ENDBRANCH  23  24
ENDBRANCH  17  23
BRANCH  18  26
ATOM     26  O   UNL     1      15.032 101.688  -1.597  1.00  0.00    -0.387 OA
ATOM     27  H   UNL     1      15.012 101.328  -2.520  1.00  0.00     0.211 HD
ENDBRANCH  18  26
ENDBRANCH  12  13
ENDBRANCH   7  12
BRANCH   4  28
ATOM     28  O   UNL     1      15.011  95.306  -2.936  1.00  0.00    -0.365 OA
ATOM     29  H   UNL     1      15.331  94.436  -2.584  1.00  0.00     0.214 HD
ENDBRANCH   4  28
BRANCH   8  30
ATOM     30  C   UNL     1      10.599  97.213  -2.737  1.00  0.00     0.249 C 
BRANCH  30  31
ATOM     31  O   UNL     1       9.439  96.801  -2.023  1.00  0.00    -0.461 OA
BRANCH  31  32
ATOM     32  C   UNL     1       9.095  97.307  -0.767  1.00  0.00     0.338 C 
ATOM     33  O   UNL     1       9.095  98.558  -0.565  1.00  0.00    -0.246 OA
BRANCH  32  34
ATOM     34  C   UNL     1       8.723  96.371   0.317  1.00  0.00     0.060 A 
ATOM     35  C   UNL     1       7.940  95.236   0.030  1.00  0.00     0.015 A 
ATOM     36  C   UNL     1       9.117  96.608   1.651  1.00  0.00     0.015 A 
ATOM     37  C   UNL     1       7.550  94.363   1.049  1.00  0.00     0.001 A 
ATOM     38  C   UNL     1       8.723  95.731   2.668  1.00  0.00     0.001 A 
ATOM     39  C   UNL     1       7.936  94.616   2.368  1.00  0.00     0.000 A 
ENDBRANCH  32  34
ENDBRANCH  31  32
ENDBRANCH  30  31
ENDBRANCH   8  30
TORSDOF 12
ENDMDL
MODEL 8
REMARK VINA RESULT:    63.737      1.612      2.732
REMARK INTER + INTRA:         102.561
REMARK INTER:                  95.390
REMARK INTRA:                   7.171
REMARK UNBOUND:                 3.427
REMARK SMILES C[C@@]12C[C@@]3(O)O[C@@H](O1)[C@]1(COC(=O)c4ccccc4)[C@H]3C[C@@]12O[C@H]1O[C@@H](CO)[C@@H](O)[C@@H](O)[C@@H]1O
REMARK SMILES IDX 1 1 2 2 3 3 4 4 20 5 21 6 22 7 9 8 7 9 8 10 6 11 23 12 24 13
REMARK SMILES IDX 33 14 25 15 31 16 26 17 29 18 34 19 32 21 27 23 28 24 30 26
REMARK SMILES IDX 5 28 10 30 11 31 12 32 13 33 14 34 15 35 19 36 16 37 18 38
REMARK SMILES IDX 17 39
REMARK H PARENT 34 20 32 22 28 25 30 27 5 29
REMARK Flexibility Score: inf
ROOT
ATOM      1  C   UNL     1       9.589  93.877  -1.421  1.00  0.00     0.046 C 
ATOM      2  C   UNL     1       9.616  95.119  -0.531  1.00  0.00     0.104 C 
ATOM      3  C   UNL     1       8.200  95.414   0.092  1.00  0.00     0.104 C 
ATOM      4  C   UNL     1       8.423  96.735   0.906  1.00  0.00     0.175 C 
ATOM      5  C   UNL     1       9.137  97.804   0.017  1.00  0.00     0.070 C 
ATOM      6  C   UNL     1       9.073  97.503  -1.485  1.00  0.00     0.050 C 
ATOM      7  C   UNL     1      10.146  96.423  -1.230  1.00  0.00     0.115 C 
ATOM      8  C   UNL     1      10.531  97.195   0.039  1.00  0.00     0.096 C 
ATOM      9  C   UNL     1      10.554  96.193   1.180  1.00  0.00     0.267 C 
ATOM     10  O   UNL     1      10.481  94.916   0.569  1.00  0.00    -0.342 OA
ATOM     11  O   UNL     1       9.365  96.425   1.918  1.00  0.00    -0.320 OA
ENDROOT
BRANCH   7  12
ATOM     12  O   UNL     1      11.252  96.308  -2.113  1.00  0.00    -0.339 OA
BRANCH  12  13
ATOM     13  C   UNL     1      12.379  95.590  -1.618  1.00  0.00     0.282 C 
ATOM     14  C   UNL     1      13.475  96.622  -1.198  1.00  0.00     0.202 C 
ATOM     15  O   UNL     1      12.853  94.596  -2.521  1.00  0.00    -0.341 OA
ATOM     16  C   UNL     1      14.800  96.498  -1.997  1.00  0.00     0.179 C 
ATOM     17  C   UNL     1      14.051  94.023  -2.042  1.00  0.00     0.178 C 
ATOM     18  C   UNL     1      15.216  95.018  -2.281  1.00  0.00     0.177 C 
BRANCH  14  19
ATOM     19  O   UNL     1      13.714  96.546   0.188  1.00  0.00    -0.385 OA
ATOM     20  H   UNL     1      12.989  95.998   0.593  1.00  0.00     0.211 HD
ENDBRANCH  14  19
BRANCH  16  21
ATOM     21  O   UNL     1      14.673  97.236  -3.186  1.00  0.00    -0.387 OA
ATOM     22  H   UNL     1      14.710  98.196  -2.930  1.00  0.00     0.211 HD
ENDBRANCH  16  21
BRANCH  17  23
ATOM     23  C   UNL     1      14.283  92.668  -2.740  1.00  0.00     0.191 C 
BRANCH  23  24
ATOM     24  O   UNL     1      14.175  91.620  -1.809  1.00  0.00    -0.394 OA
ATOM     25  H   UNL     1      14.191  90.774  -2.335  1.00  0.00     0.210 HD
ENDBRANCH  23  24
ENDBRANCH  17  23
BRANCH  18  26
ATOM     26  O   UNL     1      15.768  94.883  -3.571  1.00  0.00    -0.387 OA
ATOM     27  H   UNL     1      15.027  94.968  -4.222  1.00  0.00     0.211 HD
ENDBRANCH  18  26
ENDBRANCH  12  13
ENDBRANCH   7  12
BRANCH   4  28
ATOM     28  O   UNL     1       7.237  97.241   1.452  1.00  0.00    -0.365 OA
ATOM     29  H   UNL     1       6.555  96.527   1.360  1.00  0.00     0.214 HD
ENDBRANCH   4  28
BRANCH   8  30
ATOM     30  C   UNL     1      11.708  98.199  -0.044  1.00  0.00     0.249 C 
BRANCH  30  31
ATOM     31  O   UNL     1      12.220  98.235  -1.372  1.00  0.00    -0.461 OA
BRANCH  31  32
ATOM     32  C   UNL     1      12.687  99.402  -1.980  1.00  0.00     0.338 C 
ATOM     33  O   UNL     1      13.024  99.392  -3.201  1.00  0.00    -0.246 OA
BRANCH  32  34
ATOM     34  C   UNL     1      12.772 100.649  -1.187  1.00  0.00     0.060 A 
ATOM     35  C   UNL     1      13.649 100.728  -0.087  1.00  0.00     0.015 A 
ATOM     36  C   UNL     1      11.965 101.765  -1.497  1.00  0.00     0.015 A 
ATOM     37  C   UNL     1      13.713 101.885   0.692  1.00  0.00     0.001 A 
ATOM     38  C   UNL     1      12.033 102.923  -0.712  1.00  0.00     0.001 A 
ATOM     39  C   UNL     1      12.900 102.978   0.383  1.00  0.00     0.000 A 
ENDBRANCH  32  34
ENDBRANCH  31  32
ENDBRANCH  30  31
ENDBRANCH   8  30
TORSDOF 12
ENDMDL
MODEL 9
REMARK VINA RESULT:    63.756      1.068      2.367
REMARK INTER + INTRA:         102.591
REMARK INTER:                  97.804
REMARK INTRA:                   4.787
REMARK UNBOUND:                 3.427
REMARK SMILES C[C@@]12C[C@@]3(O)O[C@@H](O1)[C@]1(COC(=O)c4ccccc4)[C@H]3C[C@@]12O[C@H]1O[C@@H](CO)[C@@H](O)[C@@H](O)[C@@H]1O
REMARK SMILES IDX 1 1 2 2 3 3 4 4 20 5 21 6 22 7 9 8 7 9 8 10 6 11 23 12 24 13
REMARK SMILES IDX 33 14 25 15 31 16 26 17 29 18 34 19 32 21 27 23 28 24 30 26
REMARK SMILES IDX 5 28 10 30 11 31 12 32 13 33 14 34 15 35 19 36 16 37 18 38
REMARK SMILES IDX 17 39
REMARK H PARENT 34 20 32 22 28 25 30 27 5 29
REMARK Flexibility Score: inf
ROOT
ATOM      1  C   UNL     1      13.103  97.432   1.549  1.00  0.00     0.046 C 
ATOM      2  C   UNL     1      11.927  97.212   0.598  1.00  0.00     0.104 C 
ATOM      3  C   UNL     1      10.869  96.220   1.209  1.00  0.00     0.104 C 
ATOM      4  C   UNL     1       9.793  96.084   0.076  1.00  0.00     0.175 C 
ATOM      5  C   UNL     1      10.485  95.765  -1.289  1.00  0.00     0.070 C 
ATOM      6  C   UNL     1      11.924  95.255  -1.151  1.00  0.00     0.050 C 
ATOM      7  C   UNL     1      12.322  96.714  -0.839  1.00  0.00     0.115 C 
ATOM      8  C   UNL     1      11.045  97.151  -1.568  1.00  0.00     0.096 C 
ATOM      9  C   UNL     1      10.313  98.113  -0.647  1.00  0.00     0.267 C 
ATOM     10  O   UNL     1      11.233  98.426   0.386  1.00  0.00    -0.342 OA
ATOM     11  O   UNL     1       9.234  97.373  -0.099  1.00  0.00    -0.320 OA
ENDROOT
BRANCH   7  12
ATOM     12  O   UNL     1      13.475  97.274  -1.449  1.00  0.00    -0.339 OA
BRANCH  12  13
ATOM     13  C   UNL     1      14.468  96.349  -1.885  1.00  0.00     0.282 C 
ATOM     14  C   UNL     1      14.086  95.855  -3.319  1.00  0.00     0.202 C 
ATOM     15  O   UNL     1      14.692  95.288  -0.962  1.00  0.00    -0.341 OA
ATOM     16  C   UNL     1      13.819  94.329  -3.411  1.00  0.00     0.179 C 
ATOM     17  C   UNL     1      15.574  94.333  -1.511  1.00  0.00     0.178 C 
ATOM     18  C   UNL     1      14.804  93.474  -2.548  1.00  0.00     0.177 C 
BRANCH  14  19
ATOM     19  O   UNL     1      15.065  96.253  -4.250  1.00  0.00    -0.385 OA
ATOM     20  H   UNL     1      15.957  96.126  -3.828  1.00  0.00     0.211 HD
ENDBRANCH  14  19
BRANCH  16  21
ATOM     21  O   UNL     1      12.480  94.089  -3.058  1.00  0.00    -0.387 OA
ATOM     22  H   UNL     1      12.481  93.284  -2.474  1.00  0.00     0.211 HD
ENDBRANCH  16  21
BRANCH  17  23
ATOM     23  C   UNL     1      16.176  93.481  -0.375  1.00  0.00     0.191 C 
BRANCH  23  24
ATOM     24  O   UNL     1      16.464  94.292   0.736  1.00  0.00    -0.394 OA
ATOM     25  H   UNL     1      17.046  93.750   1.336  1.00  0.00     0.210 HD
ENDBRANCH  23  24
ENDBRANCH  17  23
BRANCH  18  26
ATOM     26  O   UNL     1      14.140  92.388  -1.944  1.00  0.00    -0.387 OA
ATOM     27  H   UNL     1      14.671  91.573  -2.130  1.00  0.00     0.211 HD
ENDBRANCH  18  26
ENDBRANCH  12  13
ENDBRANCH   7  12
BRANCH   4  28
ATOM     28  O   UNL     1       8.806  95.137   0.377  1.00  0.00    -0.365 OA
ATOM     29  H   UNL     1       8.054  95.633   0.792  1.00  0.00     0.214 HD
ENDBRANCH   4  28
BRANCH   8  30
ATOM     30  C   UNL     1      11.154  97.549  -3.061  1.00  0.00     0.249 C 
BRANCH  30  31
ATOM     31  O   UNL     1      11.595  98.897  -3.172  1.00  0.00    -0.461 OA
BRANCH  31  32
ATOM     32  C   UNL     1      12.814  99.346  -2.658  1.00  0.00     0.338 C 
ATOM     33  O   UNL     1      13.900  98.829  -3.055  1.00  0.00    -0.246 OA
BRANCH  32  34
ATOM     34  C   UNL     1      12.822 100.436  -1.656  1.00  0.00     0.060 A 
ATOM     35  C   UNL     1      11.734 101.326  -1.573  1.00  0.00     0.015 A 
ATOM     36  C   UNL     1      13.922 100.620  -0.791  1.00  0.00     0.015 A 
ATOM     37  C   UNL     1      11.745 102.381  -0.657  1.00  0.00     0.001 A 
ATOM     38  C   UNL     1      13.928 101.679   0.124  1.00  0.00     0.001 A 
ATOM     39  C   UNL     1      12.845 102.561   0.185  1.00  0.00     0.000 A 
ENDBRANCH  32  34
ENDBRANCH  31  32
ENDBRANCH  30  31
ENDBRANCH   8  30
TORSDOF 12
ENDMDL
