MODEL 1
REMARK VINA RESULT:    -4.008      0.000      0.000
REMARK INTER + INTRA:          -7.862
REMARK INTER:                  -6.820
REMARK INTRA:                  -1.042
REMARK UNBOUND:                -1.042
REMARK SMILES CCCCCCCCCCCCCC(=O)[O-]
REMARK SMILES IDX 8 1 9 2 10 3 11 4 12 5 13 6 14 7 15 8 16 9 7 10 6 11 5 12
REMARK SMILES IDX 4 13 3 14 2 15 1 16
REMARK H PARENT
REMARK Flexibility Score: inf
ROOT
ATOM      1  C   UNL     1      13.054 -11.758  12.997  1.00  0.00     0.000 C 
ENDROOT
BRANCH   1   2
ATOM      2  C   UNL     1      13.765 -12.733  12.040  1.00  0.00     0.000 C 
BRANCH   2   3
ATOM      3  C   UNL     1      15.204 -13.055  12.471  1.00  0.00     0.000 C 
BRANCH   3   4
ATOM      4  C   UNL     1      16.189 -12.018  11.911  1.00  0.00     0.000 C 
BRANCH   4   5
ATOM      5  C   UNL     1      16.696 -11.043  12.985  1.00  0.00     0.006 C 
BRANCH   5   6
ATOM      6  C   UNL     1      17.418  -9.829  12.387  1.00  0.00     0.053 C 
BRANCH   6   7
ATOM      7  C   UNL     1      18.040  -9.006  13.470  1.00  0.00     0.041 C 
ATOM      8  O   UNL     1      18.527  -9.562  14.489  1.00  0.00    -0.550 OA
ATOM      9  O   UNL     1      18.128  -7.626  13.331  1.00  0.00    -0.550 OA
ENDBRANCH   6   7
ENDBRANCH   5   6
ENDBRANCH   4   5
ENDBRANCH   3   4
ENDBRANCH   2   3
ENDBRANCH   1   2
BRANCH   1  10
ATOM     10  C   UNL     1      12.160 -10.711  12.308  1.00  0.00     0.000 C 
BRANCH  10  11
ATOM     11  C   UNL     1      12.507  -9.269  12.717  1.00  0.00    -0.000 C 
BRANCH  11  12
ATOM     12  C   UNL     1      14.001  -8.951  12.545  1.00  0.00    -0.000 C 
BRANCH  12  13
ATOM     13  C   UNL     1      14.266  -7.450  12.350  1.00  0.00    -0.000 C 
BRANCH  13  14
ATOM     14  C   UNL     1      14.429  -6.742  13.699  1.00  0.00    -0.000 C 
BRANCH  14  15
ATOM     15  C   UNL     1      13.609  -5.446  13.743  1.00  0.00    -0.003 C 
ATOM     16  C   UNL     1      13.620  -4.834  15.140  1.00  0.00     0.004 C 
ENDBRANCH  14  15
ENDBRANCH  13  14
ENDBRANCH  12  13
ENDBRANCH  11  12
ENDBRANCH  10  11
ENDBRANCH   1  10
TORSDOF 12
ENDMDL
MODEL 2
REMARK VINA RESULT:    -4.001      1.310      4.593
REMARK INTER + INTRA:          -7.849
REMARK INTER:                  -6.619
REMARK INTRA:                  -1.230
REMARK UNBOUND:                -1.042
REMARK SMILES CCCCCCCCCCCCCC(=O)[O-]
REMARK SMILES IDX 8 1 9 2 10 3 11 4 12 5 13 6 14 7 15 8 16 9 7 10 6 11 5 12
REMARK SMILES IDX 4 13 3 14 2 15 1 16
REMARK H PARENT
REMARK Flexibility Score: inf
ROOT
ATOM      1  C   UNL     1      12.558  -9.569  12.886  1.00  0.00     0.000 C 
ENDROOT
BRANCH   1   2
ATOM      2  C   UNL     1      13.830  -8.745  12.619  1.00  0.00     0.000 C 
BRANCH   2   3
ATOM      3  C   UNL     1      13.746  -7.315  13.176  1.00  0.00     0.000 C 
BRANCH   3   4
ATOM      4  C   UNL     1      14.416  -6.315  12.222  1.00  0.00     0.000 C 
BRANCH   4   5
ATOM      5  C   UNL     1      15.661  -5.656  12.833  1.00  0.00     0.006 C 
BRANCH   5   6
ATOM      6  C   UNL     1      15.793  -5.924  14.338  1.00  0.00     0.053 C 
BRANCH   6   7
ATOM      7  C   UNL     1      17.182  -6.370  14.669  1.00  0.00     0.041 C 
ATOM      8  O   UNL     1      17.441  -6.845  15.806  1.00  0.00    -0.550 OA
ATOM      9  O   UNL     1      18.181  -6.309  13.705  1.00  0.00    -0.550 OA
ENDBRANCH   6   7
ENDBRANCH   5   6
ENDBRANCH   4   5
ENDBRANCH   3   4
ENDBRANCH   2   3
ENDBRANCH   1   2
BRANCH   1  10
ATOM     10  C   UNL     1      12.478 -10.904  12.122  1.00  0.00     0.000 C 
BRANCH  10  11
ATOM     11  C   UNL     1      13.012 -12.092  12.940  1.00  0.00    -0.000 C 
BRANCH  11  12
ATOM     12  C   UNL     1      13.919 -13.018  12.114  1.00  0.00    -0.000 C 
BRANCH  12  13
ATOM     13  C   UNL     1      15.395 -12.922  12.527  1.00  0.00    -0.000 C 
BRANCH  13  14
ATOM     14  C   UNL     1      16.044 -11.657  11.954  1.00  0.00    -0.000 C 
BRANCH  14  15
ATOM     15  C   UNL     1      16.993 -11.015  12.973  1.00  0.00    -0.003 C 
ATOM     16  C   UNL     1      17.309  -9.570  12.598  1.00  0.00     0.004 C 
ENDBRANCH  14  15
ENDBRANCH  13  14
ENDBRANCH  12  13
ENDBRANCH  11  12
ENDBRANCH  10  11
ENDBRANCH   1  10
TORSDOF 12
ENDMDL
MODEL 3
REMARK VINA RESULT:    -4.000      2.523      5.207
REMARK INTER + INTRA:          -7.848
REMARK INTER:                  -6.940
REMARK INTRA:                  -0.908
REMARK UNBOUND:                -1.042
REMARK SMILES CCCCCCCCCCCCCC(=O)[O-]
REMARK SMILES IDX 8 1 9 2 10 3 11 4 12 5 13 6 14 7 15 8 16 9 7 10 6 11 5 12
REMARK SMILES IDX 4 13 3 14 2 15 1 16
REMARK H PARENT
REMARK Flexibility Score: inf
ROOT
ATOM      1  C   UNL     1      16.799  -9.911  13.189  1.00  0.00     0.000 C 
ENDROOT
BRANCH   1   2
ATOM      2  C   UNL     1      18.022  -8.975  13.168  1.00  0.00     0.000 C 
BRANCH   2   3
ATOM      3  C   UNL     1      17.681  -7.552  12.702  1.00  0.00     0.000 C 
BRANCH   3   4
ATOM      4  C   UNL     1      16.675  -6.889  13.654  1.00  0.00     0.000 C 
BRANCH   4   5
ATOM      5  C   UNL     1      17.351  -5.979  14.690  1.00  0.00     0.006 C 
BRANCH   5   6
ATOM      6  C   UNL     1      17.393  -6.606  16.090  1.00  0.00     0.053 C 
BRANCH   6   7
ATOM      7  C   UNL     1      16.548  -5.819  17.040  1.00  0.00     0.041 C 
ATOM      8  O   UNL     1      15.360  -5.526  16.740  1.00  0.00    -0.550 OA
ATOM      9  O   UNL     1      17.055  -5.450  18.280  1.00  0.00    -0.550 OA
ENDBRANCH   6   7
ENDBRANCH   5   6
ENDBRANCH   4   5
ENDBRANCH   3   4
ENDBRANCH   2   3
ENDBRANCH   1   2
BRANCH   1  10
ATOM     10  C   UNL     1      17.067 -11.340  12.683  1.00  0.00     0.000 C 
BRANCH  10  11
ATOM     11  C   UNL     1      15.892 -11.916  11.875  1.00  0.00    -0.000 C 
BRANCH  11  12
ATOM     12  C   UNL     1      15.205 -13.092  12.590  1.00  0.00    -0.000 C 
BRANCH  12  13
ATOM     13  C   UNL     1      13.696 -12.872  12.769  1.00  0.00    -0.000 C 
BRANCH  13  14
ATOM     14  C   UNL     1      13.242 -11.584  12.076  1.00  0.00    -0.000 C 
BRANCH  14  15
ATOM     15  C   UNL     1      12.254 -10.804  12.952  1.00  0.00    -0.003 C 
ATOM     16  C   UNL     1      12.598  -9.319  12.984  1.00  0.00     0.004 C 
ENDBRANCH  14  15
ENDBRANCH  13  14
ENDBRANCH  12  13
ENDBRANCH  11  12
ENDBRANCH  10  11
ENDBRANCH   1  10
TORSDOF 12
ENDMDL
MODEL 4
REMARK VINA RESULT:    -3.997      2.892      5.678
REMARK INTER + INTRA:          -7.842
REMARK INTER:                  -6.861
REMARK INTRA:                  -0.982
REMARK UNBOUND:                -1.042
REMARK SMILES CCCCCCCCCCCCCC(=O)[O-]
REMARK SMILES IDX 8 1 9 2 10 3 11 4 12 5 13 6 14 7 15 8 16 9 7 10 6 11 5 12
REMARK SMILES IDX 4 13 3 14 2 15 1 16
REMARK H PARENT
REMARK Flexibility Score: inf
ROOT
ATOM      1  C   UNL     1      17.966  -7.937  12.464  1.00  0.00     0.000 C 
ENDROOT
BRANCH   1   2
ATOM      2  C   UNL     1      18.441  -6.475  12.559  1.00  0.00     0.000 C 
BRANCH   2   3
ATOM      3  C   UNL     1      17.564  -5.618  13.485  1.00  0.00     0.000 C 
BRANCH   3   4
ATOM      4  C   UNL     1      16.323  -6.399  13.942  1.00  0.00     0.000 C 
BRANCH   4   5
ATOM      5  C   UNL     1      15.927  -6.084  15.393  1.00  0.00     0.006 C 
BRANCH   5   6
ATOM      6  C   UNL     1      17.127  -6.088  16.348  1.00  0.00     0.053 C 
BRANCH   6   7
ATOM      7  C   UNL     1      16.667  -5.969  17.766  1.00  0.00     0.041 C 
ATOM      8  O   UNL     1      15.922  -6.853  18.267  1.00  0.00    -0.550 OA
ATOM      9  O   UNL     1      17.101  -4.908  18.551  1.00  0.00    -0.550 OA
ENDBRANCH   6   7
ENDBRANCH   5   6
ENDBRANCH   4   5
ENDBRANCH   3   4
ENDBRANCH   2   3
ENDBRANCH   1   2
BRANCH   1  10
ATOM     10  C   UNL     1      18.413  -8.840  13.628  1.00  0.00     0.000 C 
BRANCH  10  11
ATOM     11  C   UNL     1      17.670 -10.187  13.657  1.00  0.00    -0.000 C 
BRANCH  11  12
ATOM     12  C   UNL     1      16.962 -10.498  12.329  1.00  0.00    -0.000 C 
BRANCH  12  13
ATOM     13  C   UNL     1      15.782 -11.467  12.502  1.00  0.00    -0.000 C 
BRANCH  13  14
ATOM     14  C   UNL     1      14.473 -10.828  12.025  1.00  0.00    -0.000 C 
BRANCH  14  15
ATOM     15  C   UNL     1      14.294  -9.427  12.622  1.00  0.00    -0.003 C 
ATOM     16  C   UNL     1      12.821  -9.121  12.877  1.00  0.00     0.004 C 
ENDBRANCH  14  15
ENDBRANCH  13  14
ENDBRANCH  12  13
ENDBRANCH  11  12
ENDBRANCH  10  11
ENDBRANCH   1  10
TORSDOF 12
ENDMDL
MODEL 5
REMARK VINA RESULT:    -3.955      1.415      3.010
REMARK INTER + INTRA:          -7.771
REMARK INTER:                  -6.675
REMARK INTRA:                  -1.095
REMARK UNBOUND:                -1.042
REMARK SMILES CCCCCCCCCCCCCC(=O)[O-]
REMARK SMILES IDX 8 1 9 2 10 3 11 4 12 5 13 6 14 7 15 8 16 9 7 10 6 11 5 12
REMARK SMILES IDX 4 13 3 14 2 15 1 16
REMARK H PARENT
REMARK Flexibility Score: inf
ROOT
ATOM      1  C   UNL     1      15.610 -12.843  12.966  1.00  0.00     0.000 C 
ENDROOT
BRANCH   1   2
ATOM      2  C   UNL     1      16.101 -11.841  11.905  1.00  0.00     0.000 C 
BRANCH   2   3
ATOM      3  C   UNL     1      16.276 -10.419  12.459  1.00  0.00     0.000 C 
BRANCH   3   4
ATOM      4  C   UNL     1      17.742 -10.153  12.833  1.00  0.00     0.000 C 
BRANCH   4   5
ATOM      5  C   UNL     1      17.915  -8.884  13.681  1.00  0.00     0.006 C 
BRANCH   5   6
ATOM      6  C   UNL     1      17.605  -7.603  12.898  1.00  0.00     0.053 C 
BRANCH   6   7
ATOM      7  C   UNL     1      17.663  -6.411  13.800  1.00  0.00     0.041 C 
ATOM      8  O   UNL     1      18.175  -5.334  13.396  1.00  0.00    -0.550 OA
ATOM      9  O   UNL     1      17.106  -6.474  15.071  1.00  0.00    -0.550 OA
ENDBRANCH   6   7
ENDBRANCH   5   6
ENDBRANCH   4   5
ENDBRANCH   3   4
ENDBRANCH   2   3
ENDBRANCH   1   2
BRANCH   1  10
ATOM     10  C   UNL     1      14.334 -13.616  12.586  1.00  0.00     0.000 C 
BRANCH  10  11
ATOM     11  C   UNL     1      13.290 -12.733  11.880  1.00  0.00    -0.000 C 
BRANCH  11  12
ATOM     12  C   UNL     1      12.728 -11.635  12.798  1.00  0.00    -0.000 C 
BRANCH  12  13
ATOM     13  C   UNL     1      12.526 -10.300  12.066  1.00  0.00    -0.000 C 
BRANCH  13  14
ATOM     14  C   UNL     1      12.770  -9.116  13.007  1.00  0.00    -0.000 C 
BRANCH  14  15
ATOM     15  C   UNL     1      13.864  -8.192  12.458  1.00  0.00    -0.003 C 
ATOM     16  C   UNL     1      13.971  -6.913  13.282  1.00  0.00     0.004 C 
ENDBRANCH  14  15
ENDBRANCH  13  14
ENDBRANCH  12  13
ENDBRANCH  11  12
ENDBRANCH  10  11
ENDBRANCH   1  10
TORSDOF 12
ENDMDL
MODEL 6
REMARK VINA RESULT:    -3.909      2.776      4.577
REMARK INTER + INTRA:          -7.693
REMARK INTER:                  -6.590
REMARK INTRA:                  -1.103
REMARK UNBOUND:                -1.042
REMARK SMILES CCCCCCCCCCCCCC(=O)[O-]
REMARK SMILES IDX 8 1 9 2 10 3 11 4 12 5 13 6 14 7 15 8 16 9 7 10 6 11 5 12
REMARK SMILES IDX 4 13 3 14 2 15 1 16
REMARK H PARENT
REMARK Flexibility Score: inf
ROOT
ATOM      1  C   UNL     1      17.679  -8.305  14.179  1.00  0.00     0.000 C 
ENDROOT
BRANCH   1   2
ATOM      2  C   UNL     1      17.867  -9.037  12.838  1.00  0.00     0.000 C 
BRANCH   2   3
ATOM      3  C   UNL     1      16.755 -10.057  12.550  1.00  0.00     0.000 C 
BRANCH   3   4
ATOM      4  C   UNL     1      15.378  -9.376  12.526  1.00  0.00     0.000 C 
BRANCH   4   5
ATOM      5  C   UNL     1      14.224 -10.379  12.380  1.00  0.00     0.006 C 
BRANCH   5   6
ATOM      6  C   UNL     1      14.713 -11.820  12.189  1.00  0.00     0.053 C 
BRANCH   6   7
ATOM      7  C   UNL     1      13.728 -12.787  12.765  1.00  0.00     0.041 C 
ATOM      8  O   UNL     1      14.000 -14.016  12.813  1.00  0.00    -0.550 OA
ATOM      9  O   UNL     1      12.529 -12.326  13.295  1.00  0.00    -0.550 OA
ENDBRANCH   6   7
ENDBRANCH   5   6
ENDBRANCH   4   5
ENDBRANCH   3   4
ENDBRANCH   2   3
ENDBRANCH   1   2
BRANCH   1  10
ATOM     10  C   UNL     1      17.776  -6.770  14.099  1.00  0.00     0.000 C 
BRANCH  10  11
ATOM     11  C   UNL     1      16.402  -6.093  13.953  1.00  0.00    -0.000 C 
BRANCH  11  12
ATOM     12  C   UNL     1      16.068  -5.744  12.494  1.00  0.00    -0.000 C 
BRANCH  12  13
ATOM     13  C   UNL     1      14.710  -5.042  12.351  1.00  0.00    -0.000 C 
BRANCH  13  14
ATOM     14  C   UNL     1      13.718  -5.545  13.406  1.00  0.00    -0.000 C 
BRANCH  14  15
ATOM     15  C   UNL     1      13.035  -4.373  14.123  1.00  0.00    -0.003 C 
ATOM     16  C   UNL     1      13.393  -4.349  15.606  1.00  0.00     0.004 C 
ENDBRANCH  14  15
ENDBRANCH  13  14
ENDBRANCH  12  13
ENDBRANCH  11  12
ENDBRANCH  10  11
ENDBRANCH   1  10
TORSDOF 12
ENDMDL
MODEL 7
REMARK VINA RESULT:    -3.793      2.432      5.122
REMARK INTER + INTRA:          -7.496
REMARK INTER:                  -6.604
REMARK INTRA:                  -0.892
REMARK UNBOUND:                -1.042
REMARK SMILES CCCCCCCCCCCCCC(=O)[O-]
REMARK SMILES IDX 8 1 9 2 10 3 11 4 12 5 13 6 14 7 15 8 16 9 7 10 6 11 5 12
REMARK SMILES IDX 4 13 3 14 2 15 1 16
REMARK H PARENT
REMARK Flexibility Score: inf
ROOT
ATOM      1  C   UNL     1      15.522  -9.245  12.604  1.00  0.00     0.000 C 
ENDROOT
BRANCH   1   2
ATOM      2  C   UNL     1      16.838  -8.736  11.987  1.00  0.00     0.000 C 
BRANCH   2   3
ATOM      3  C   UNL     1      17.964  -8.578  13.021  1.00  0.00     0.000 C 
BRANCH   3   4
ATOM      4  C   UNL     1      18.221  -7.095  13.328  1.00  0.00     0.000 C 
BRANCH   4   5
ATOM      5  C   UNL     1      17.197  -6.508  14.312  1.00  0.00     0.006 C 
BRANCH   5   6
ATOM      6  C   UNL     1      17.466  -6.925  15.763  1.00  0.00     0.053 C 
BRANCH   6   7
ATOM      7  C   UNL     1      16.696  -6.057  16.707  1.00  0.00     0.041 C 
ATOM      8  O   UNL     1      17.210  -5.694  17.798  1.00  0.00    -0.550 OA
ATOM      9  O   UNL     1      15.428  -5.606  16.360  1.00  0.00    -0.550 OA
ENDBRANCH   6   7
ENDBRANCH   5   6
ENDBRANCH   4   5
ENDBRANCH   3   4
ENDBRANCH   2   3
ENDBRANCH   1   2
BRANCH   1  10
ATOM     10  C   UNL     1      14.269  -8.442  12.209  1.00  0.00     0.000 C 
BRANCH  10  11
ATOM     11  C   UNL     1      12.986  -8.977  12.870  1.00  0.00    -0.000 C 
BRANCH  11  12
ATOM     12  C   UNL     1      12.115  -9.787  11.897  1.00  0.00    -0.000 C 
BRANCH  12  13
ATOM     13  C   UNL     1      11.997 -11.265  12.301  1.00  0.00    -0.000 C 
BRANCH  13  14
ATOM     14  C   UNL     1      13.242 -12.051  11.875  1.00  0.00    -0.000 C 
BRANCH  14  15
ATOM     15  C   UNL     1      13.570 -13.154  12.889  1.00  0.00    -0.003 C 
ATOM     16  C   UNL     1      15.025 -13.598  12.770  1.00  0.00     0.004 C 
ENDBRANCH  14  15
ENDBRANCH  13  14
ENDBRANCH  12  13
ENDBRANCH  11  12
ENDBRANCH  10  11
ENDBRANCH   1  10
TORSDOF 12
ENDMDL
MODEL 8
REMARK VINA RESULT:    -3.718      2.695      5.902
REMARK INTER + INTRA:          -7.369
REMARK INTER:                  -6.228
REMARK INTRA:                  -1.141
REMARK UNBOUND:                -1.042
REMARK SMILES CCCCCCCCCCCCCC(=O)[O-]
REMARK SMILES IDX 8 1 9 2 10 3 11 4 12 5 13 6 14 7 15 8 16 9 7 10 6 11 5 12
REMARK SMILES IDX 4 13 3 14 2 15 1 16
REMARK H PARENT
REMARK Flexibility Score: inf
ROOT
ATOM      1  C   UNL     1      17.619  -8.009  12.846  1.00  0.00     0.000 C 
ENDROOT
BRANCH   1   2
ATOM      2  C   UNL     1      18.428  -6.703  12.947  1.00  0.00     0.000 C 
BRANCH   2   3
ATOM      3  C   UNL     1      17.580  -5.450  12.678  1.00  0.00     0.000 C 
BRANCH   3   4
ATOM      4  C   UNL     1      16.241  -5.824  12.027  1.00  0.00     0.000 C 
BRANCH   4   5
ATOM      5  C   UNL     1      15.061  -5.020  12.596  1.00  0.00     0.006 C 
BRANCH   5   6
ATOM      6  C   UNL     1      14.317  -5.770  13.707  1.00  0.00     0.053 C 
BRANCH   6   7
ATOM      7  C   UNL     1      13.434  -4.833  14.469  1.00  0.00     0.041 C 
ATOM      8  O   UNL     1      13.679  -4.571  15.676  1.00  0.00    -0.550 OA
ATOM      9  O   UNL     1      12.369  -4.209  13.832  1.00  0.00    -0.550 OA
ENDBRANCH   6   7
ENDBRANCH   5   6
ENDBRANCH   4   5
ENDBRANCH   3   4
ENDBRANCH   2   3
ENDBRANCH   1   2
BRANCH   1  10
ATOM     10  C   UNL     1      18.163  -9.175  13.692  1.00  0.00     0.000 C 
BRANCH  10  11
ATOM     11  C   UNL     1      17.520 -10.525  13.329  1.00  0.00    -0.000 C 
BRANCH  11  12
ATOM     12  C   UNL     1      16.553 -10.418  12.140  1.00  0.00    -0.000 C 
BRANCH  12  13
ATOM     13  C   UNL     1      15.566 -11.593  12.074  1.00  0.00    -0.000 C 
BRANCH  13  14
ATOM     14  C   UNL     1      14.164 -11.158  12.515  1.00  0.00    -0.000 C 
BRANCH  14  15
ATOM     15  C   UNL     1      14.046  -9.630  12.549  1.00  0.00    -0.003 C 
ATOM     16  C   UNL     1      12.630  -9.193  12.911  1.00  0.00     0.004 C 
ENDBRANCH  14  15
ENDBRANCH  13  14
ENDBRANCH  12  13
ENDBRANCH  11  12
ENDBRANCH  10  11
ENDBRANCH   1  10
TORSDOF 12
ENDMDL
