MODEL 1
REMARK VINA RESULT:    -4.280      0.000      0.000
REMARK INTER + INTRA:         -10.329
REMARK INTER:                  -8.033
REMARK INTRA:                  -2.297
REMARK UNBOUND:                -2.297
REMARK SMILES CCCCCCCCC=CCCCCCCCC(=O)[O-]
REMARK SMILES IDX 10 1 9 2 11 3 12 4 13 5 14 6 15 7 16 8 17 9 18 10 19 11
REMARK SMILES IDX 20 12 8 13 7 14 6 15 5 16 4 17 3 18 2 19 1 20
REMARK H PARENT
REMARK Flexibility Score: inf
ROOT
ATOM      1  C   UNL     1     -47.229 -52.277  37.603  1.00  0.00    -0.031 C 
ATOM      2  C   UNL     1     -46.144 -53.050  37.759  1.00  0.00    -0.031 C 
ENDROOT
BRANCH   1   3
ATOM      3  C   UNL     1     -47.119 -50.850  37.133  1.00  0.00     0.027 C 
BRANCH   3   4
ATOM      4  C   UNL     1     -45.681 -50.474  36.750  1.00  0.00     0.004 C 
BRANCH   4   5
ATOM      5  C   UNL     1     -45.351 -49.018  37.111  1.00  0.00     0.000 C 
BRANCH   5   6
ATOM      6  C   UNL     1     -43.870 -48.712  36.866  1.00  0.00     0.000 C 
BRANCH   6   7
ATOM      7  C   UNL     1     -43.122 -48.506  38.188  1.00  0.00     0.000 C 
BRANCH   7   8
ATOM      8  C   UNL     1     -44.034 -47.873  39.246  1.00  0.00     0.006 C 
BRANCH   8   9
ATOM      9  C   UNL     1     -43.210 -47.228  40.366  1.00  0.00     0.053 C 
BRANCH   9  10
ATOM     10  C   UNL     1     -43.479 -45.757  40.439  1.00  0.00     0.041 C 
ATOM     11  O   UNL     1     -42.523 -44.938  40.488  1.00  0.00    -0.550 OA
ATOM     12  O   UNL     1     -44.787 -45.289  40.472  1.00  0.00    -0.550 OA
ENDBRANCH   9  10
ENDBRANCH   8   9
ENDBRANCH   7   8
ENDBRANCH   6   7
ENDBRANCH   5   6
ENDBRANCH   4   5
ENDBRANCH   3   4
ENDBRANCH   1   3
BRANCH   2  13
ATOM     13  C   UNL     1     -46.246 -54.473  38.242  1.00  0.00     0.027 C 
BRANCH  13  14
ATOM     14  C   UNL     1     -47.663 -54.831  38.718  1.00  0.00     0.004 C 
BRANCH  14  15
ATOM     15  C   UNL     1     -47.664 -55.422  40.139  1.00  0.00     0.000 C 
BRANCH  15  16
ATOM     16  C   UNL     1     -47.648 -54.337  41.227  1.00  0.00     0.000 C 
BRANCH  16  17
ATOM     17  C   UNL     1     -48.702 -53.242  40.985  1.00  0.00    -0.000 C 
BRANCH  17  18
ATOM     18  C   UNL     1     -48.144 -51.829  41.218  1.00  0.00    -0.000 C 
BRANCH  18  19
ATOM     19  C   UNL     1     -46.625 -51.824  41.440  1.00  0.00    -0.003 C 
ATOM     20  C   UNL     1     -45.964 -50.653  40.716  1.00  0.00     0.004 C 
ENDBRANCH  18  19
ENDBRANCH  17  18
ENDBRANCH  16  17
ENDBRANCH  15  16
ENDBRANCH  14  15
ENDBRANCH  13  14
ENDBRANCH   2  13
TORSDOF 15
ENDMDL
MODEL 2
REMARK VINA RESULT:    -4.164      1.371      3.462
REMARK INTER + INTRA:         -10.111
REMARK INTER:                  -7.319
REMARK INTRA:                  -2.793
REMARK UNBOUND:                -2.297
REMARK SMILES CCCCCCCCC=CCCCCCCCC(=O)[O-]
REMARK SMILES IDX 10 1 9 2 11 3 12 4 13 5 14 6 15 7 16 8 17 9 18 10 19 11
REMARK SMILES IDX 20 12 8 13 7 14 6 15 5 16 4 17 3 18 2 19 1 20
REMARK H PARENT
REMARK Flexibility Score: inf
ROOT
ATOM      1  C   UNL     1     -47.084 -54.451  39.917  1.00  0.00    -0.031 C 
ATOM      2  C   UNL     1     -47.973 -54.314  40.912  1.00  0.00    -0.031 C 
ENDROOT
BRANCH   1   3
ATOM      3  C   UNL     1     -47.520 -54.583  38.482  1.00  0.00     0.027 C 
BRANCH   3   4
ATOM      4  C   UNL     1     -47.899 -53.229  37.864  1.00  0.00     0.004 C 
BRANCH   4   5
ATOM      5  C   UNL     1     -46.676 -52.489  37.305  1.00  0.00     0.000 C 
BRANCH   5   6
ATOM      6  C   UNL     1     -46.957 -50.989  37.162  1.00  0.00     0.000 C 
BRANCH   6   7
ATOM      7  C   UNL     1     -45.694 -50.226  36.749  1.00  0.00     0.000 C 
BRANCH   7   8
ATOM      8  C   UNL     1     -45.486 -48.986  37.629  1.00  0.00     0.006 C 
BRANCH   8   9
ATOM      9  C   UNL     1     -43.994 -48.735  37.877  1.00  0.00     0.053 C 
BRANCH   9  10
ATOM     10  C   UNL     1     -43.796 -47.926  39.122  1.00  0.00     0.041 C 
ATOM     11  O   UNL     1     -44.743 -47.241  39.592  1.00  0.00    -0.550 OA
ATOM     12  O   UNL     1     -42.558 -47.913  39.754  1.00  0.00    -0.550 OA
ENDBRANCH   9  10
ENDBRANCH   8   9
ENDBRANCH   7   8
ENDBRANCH   6   7
ENDBRANCH   5   6
ENDBRANCH   4   5
ENDBRANCH   3   4
ENDBRANCH   1   3
BRANCH   2  13
ATOM     13  C   UNL     1     -47.542 -54.196  42.350  1.00  0.00     0.027 C 
BRANCH  13  14
ATOM     14  C   UNL     1     -48.025 -52.891  43.002  1.00  0.00     0.004 C 
BRANCH  14  15
ATOM     15  C   UNL     1     -48.799 -52.002  42.013  1.00  0.00     0.000 C 
BRANCH  15  16
ATOM     16  C   UNL     1     -48.073 -50.680  41.719  1.00  0.00     0.000 C 
BRANCH  16  17
ATOM     17  C   UNL     1     -47.069 -50.802  40.559  1.00  0.00    -0.000 C 
BRANCH  17  18
ATOM     18  C   UNL     1     -45.621 -50.552  41.008  1.00  0.00    -0.000 C 
BRANCH  18  19
ATOM     19  C   UNL     1     -44.725 -51.785  40.822  1.00  0.00    -0.003 C 
ATOM     20  C   UNL     1     -44.335 -52.393  42.167  1.00  0.00     0.004 C 
ENDBRANCH  18  19
ENDBRANCH  17  18
ENDBRANCH  16  17
ENDBRANCH  15  16
ENDBRANCH  14  15
ENDBRANCH  13  14
ENDBRANCH   2  13
TORSDOF 15
ENDMDL
MODEL 3
REMARK VINA RESULT:    -4.072      2.569      6.050
REMARK INTER + INTRA:          -9.939
REMARK INTER:                  -7.617
REMARK INTRA:                  -2.322
REMARK UNBOUND:                -2.297
REMARK SMILES CCCCCCCCC=CCCCCCCCC(=O)[O-]
REMARK SMILES IDX 10 1 9 2 11 3 12 4 13 5 14 6 15 7 16 8 17 9 18 10 19 11
REMARK SMILES IDX 20 12 8 13 7 14 6 15 5 16 4 17 3 18 2 19 1 20
REMARK H PARENT
REMARK Flexibility Score: inf
ROOT
ATOM      1  C   UNL     1     -47.853 -53.290  38.628  1.00  0.00    -0.031 C 
ATOM      2  C   UNL     1     -46.795 -52.639  38.122  1.00  0.00    -0.031 C 
ENDROOT
BRANCH   1   3
ATOM      3  C   UNL     1     -47.686 -54.460  39.562  1.00  0.00     0.027 C 
BRANCH   3   4
ATOM      4  C   UNL     1     -48.409 -54.242  40.899  1.00  0.00     0.004 C 
BRANCH   4   5
ATOM      5  C   UNL     1     -49.161 -52.905  40.936  1.00  0.00     0.000 C 
BRANCH   5   6
ATOM      6  C   UNL     1     -48.638 -52.009  42.065  1.00  0.00     0.000 C 
BRANCH   6   7
ATOM      7  C   UNL     1     -47.635 -50.979  41.533  1.00  0.00     0.000 C 
BRANCH   7   8
ATOM      8  C   UNL     1     -46.196 -51.500  41.646  1.00  0.00     0.006 C 
BRANCH   8   9
ATOM      9  C   UNL     1     -45.217 -50.563  40.931  1.00  0.00     0.053 C 
BRANCH   9  10
ATOM     10  C   UNL     1     -43.982 -51.304  40.520  1.00  0.00     0.041 C 
ATOM     11  O   UNL     1     -43.212 -51.789  41.392  1.00  0.00    -0.550 OA
ATOM     12  O   UNL     1     -43.670 -51.445  39.173  1.00  0.00    -0.550 OA
ENDBRANCH   9  10
ENDBRANCH   8   9
ENDBRANCH   7   8
ENDBRANCH   6   7
ENDBRANCH   5   6
ENDBRANCH   4   5
ENDBRANCH   3   4
ENDBRANCH   1   3
BRANCH   2  13
ATOM     13  C   UNL     1     -46.956 -51.478  37.177  1.00  0.00     0.027 C 
BRANCH  13  14
ATOM     14  C   UNL     1     -47.093 -50.136  37.913  1.00  0.00     0.004 C 
BRANCH  14  15
ATOM     15  C   UNL     1     -46.365 -48.995  37.179  1.00  0.00     0.000 C 
BRANCH  15  16
ATOM     16  C   UNL     1     -45.249 -48.367  38.027  1.00  0.00     0.000 C 
BRANCH  16  17
ATOM     17  C   UNL     1     -43.862 -48.506  37.375  1.00  0.00    -0.000 C 
BRANCH  17  18
ATOM     18  C   UNL     1     -43.898 -49.354  36.094  1.00  0.00    -0.000 C 
BRANCH  18  19
ATOM     19  C   UNL     1     -43.010 -48.779  34.981  1.00  0.00    -0.003 C 
ATOM     20  C   UNL     1     -43.278 -49.471  33.647  1.00  0.00     0.004 C 
ENDBRANCH  18  19
ENDBRANCH  17  18
ENDBRANCH  16  17
ENDBRANCH  15  16
ENDBRANCH  14  15
ENDBRANCH  13  14
ENDBRANCH   2  13
TORSDOF 15
ENDMDL
MODEL 4
REMARK VINA RESULT:    -4.062      4.956      8.360
REMARK INTER + INTRA:          -9.921
REMARK INTER:                  -7.731
REMARK INTRA:                  -2.190
REMARK UNBOUND:                -2.297
REMARK SMILES CCCCCCCCC=CCCCCCCCC(=O)[O-]
REMARK SMILES IDX 10 1 9 2 11 3 12 4 13 5 14 6 15 7 16 8 17 9 18 10 19 11
REMARK SMILES IDX 20 12 8 13 7 14 6 15 5 16 4 17 3 18 2 19 1 20
REMARK H PARENT
REMARK Flexibility Score: inf
ROOT
ATOM      1  C   UNL     1     -46.328 -51.208  40.737  1.00  0.00    -0.031 C 
ATOM      2  C   UNL     1     -45.361 -50.286  40.845  1.00  0.00    -0.031 C 
ENDROOT
BRANCH   1   3
ATOM      3  C   UNL     1     -47.700 -50.983  41.317  1.00  0.00     0.027 C 
BRANCH   3   4
ATOM      4  C   UNL     1     -48.458 -52.299  41.542  1.00  0.00     0.004 C 
BRANCH   4   5
ATOM      5  C   UNL     1     -48.540 -53.143  40.263  1.00  0.00     0.000 C 
BRANCH   5   6
ATOM      6  C   UNL     1     -47.731 -54.437  40.403  1.00  0.00     0.000 C 
BRANCH   6   7
ATOM      7  C   UNL     1     -47.631 -55.175  39.064  1.00  0.00     0.000 C 
BRANCH   7   8
ATOM      8  C   UNL     1     -47.230 -56.642  39.270  1.00  0.00     0.006 C 
BRANCH   8   9
ATOM      9  C   UNL     1     -48.073 -57.569  38.387  1.00  0.00     0.053 C 
BRANCH   9  10
ATOM     10  C   UNL     1     -47.626 -58.991  38.538  1.00  0.00     0.041 C 
ATOM     11  O   UNL     1     -47.934 -59.648  39.567  1.00  0.00    -0.550 OA
ATOM     12  O   UNL     1     -46.851 -59.586  37.549  1.00  0.00    -0.550 OA
ENDBRANCH   9  10
ENDBRANCH   8   9
ENDBRANCH   7   8
ENDBRANCH   6   7
ENDBRANCH   5   6
ENDBRANCH   4   5
ENDBRANCH   3   4
ENDBRANCH   1   3
BRANCH   2  13
ATOM     13  C   UNL     1     -43.983 -50.511  40.279  1.00  0.00     0.027 C 
BRANCH  13  14
ATOM     14  C   UNL     1     -43.724 -49.677  39.015  1.00  0.00     0.004 C 
BRANCH  14  15
ATOM     15  C   UNL     1     -44.558 -48.384  38.993  1.00  0.00     0.000 C 
BRANCH  15  16
ATOM     16  C   UNL     1     -45.475 -48.296  37.763  1.00  0.00     0.000 C 
BRANCH  16  17
ATOM     17  C   UNL     1     -45.617 -49.644  37.034  1.00  0.00    -0.000 C 
BRANCH  17  18
ATOM     18  C   UNL     1     -47.053 -50.190  37.086  1.00  0.00    -0.000 C 
BRANCH  18  19
ATOM     19  C   UNL     1     -47.098 -51.716  37.252  1.00  0.00    -0.003 C 
ATOM     20  C   UNL     1     -45.692 -52.311  37.272  1.00  0.00     0.004 C 
ENDBRANCH  18  19
ENDBRANCH  17  18
ENDBRANCH  16  17
ENDBRANCH  15  16
ENDBRANCH  14  15
ENDBRANCH  13  14
ENDBRANCH   2  13
TORSDOF 15
ENDMDL
MODEL 5
REMARK VINA RESULT:    -4.049      2.529      4.148
REMARK INTER + INTRA:          -9.897
REMARK INTER:                  -7.671
REMARK INTRA:                  -2.226
REMARK UNBOUND:                -2.297
REMARK SMILES CCCCCCCCC=CCCCCCCCC(=O)[O-]
REMARK SMILES IDX 10 1 9 2 11 3 12 4 13 5 14 6 15 7 16 8 17 9 18 10 19 11
REMARK SMILES IDX 20 12 8 13 7 14 6 15 5 16 4 17 3 18 2 19 1 20
REMARK H PARENT
REMARK Flexibility Score: inf
ROOT
ATOM      1  C   UNL     1     -44.548 -51.045  39.702  1.00  0.00    -0.031 C 
ATOM      2  C   UNL     1     -45.559 -50.485  40.383  1.00  0.00    -0.031 C 
ENDROOT
BRANCH   1   3
ATOM      3  C   UNL     1     -43.836 -50.308  38.599  1.00  0.00     0.027 C 
BRANCH   3   4
ATOM      4  C   UNL     1     -44.522 -48.978  38.252  1.00  0.00     0.004 C 
BRANCH   4   5
ATOM      5  C   UNL     1     -44.511 -48.701  36.742  1.00  0.00     0.000 C 
BRANCH   5   6
ATOM      6  C   UNL     1     -44.287 -49.992  35.947  1.00  0.00     0.000 C 
BRANCH   6   7
ATOM      7  C   UNL     1     -43.370 -49.748  34.744  1.00  0.00     0.000 C 
BRANCH   7   8
ATOM      8  C   UNL     1     -42.814 -48.318  34.755  1.00  0.00     0.006 C 
BRANCH   8   9
ATOM      9  C   UNL     1     -41.281 -48.327  34.729  1.00  0.00     0.053 C 
BRANCH   9  10
ATOM     10  C   UNL     1     -40.734 -48.862  36.016  1.00  0.00     0.041 C 
ATOM     11  O   UNL     1     -39.945 -49.844  36.011  1.00  0.00    -0.550 OA
ATOM     12  O   UNL     1     -41.111 -48.288  37.225  1.00  0.00    -0.550 OA
ENDBRANCH   9  10
ENDBRANCH   8   9
ENDBRANCH   7   8
ENDBRANCH   6   7
ENDBRANCH   5   6
ENDBRANCH   4   5
ENDBRANCH   3   4
ENDBRANCH   1   3
BRANCH   2  13
ATOM     13  C   UNL     1     -46.283 -51.222  41.478  1.00  0.00     0.027 C 
BRANCH  13  14
ATOM     14  C   UNL     1     -47.808 -51.062  41.386  1.00  0.00     0.004 C 
BRANCH  14  15
ATOM     15  C   UNL     1     -48.554 -52.297  41.921  1.00  0.00     0.000 C 
BRANCH  15  16
ATOM     16  C   UNL     1     -49.125 -53.174  40.795  1.00  0.00     0.000 C 
BRANCH  16  17
ATOM     17  C   UNL     1     -48.025 -53.837  39.947  1.00  0.00    -0.000 C 
BRANCH  17  18
ATOM     18  C   UNL     1     -48.225 -53.605  38.442  1.00  0.00    -0.000 C 
BRANCH  18  19
ATOM     19  C   UNL     1     -46.969 -53.045  37.759  1.00  0.00    -0.003 C 
ATOM     20  C   UNL     1     -47.189 -51.609  37.289  1.00  0.00     0.004 C 
ENDBRANCH  18  19
ENDBRANCH  17  18
ENDBRANCH  16  17
ENDBRANCH  15  16
ENDBRANCH  14  15
ENDBRANCH  13  14
ENDBRANCH   2  13
TORSDOF 15
ENDMDL
MODEL 6
REMARK VINA RESULT:    -4.019      4.071      7.365
REMARK INTER + INTRA:          -9.839
REMARK INTER:                  -7.295
REMARK INTRA:                  -2.544
REMARK UNBOUND:                -2.297
REMARK SMILES CCCCCCCCC=CCCCCCCCC(=O)[O-]
REMARK SMILES IDX 10 1 9 2 11 3 12 4 13 5 14 6 15 7 16 8 17 9 18 10 19 11
REMARK SMILES IDX 20 12 8 13 7 14 6 15 5 16 4 17 3 18 2 19 1 20
REMARK H PARENT
REMARK Flexibility Score: inf
ROOT
ATOM      1  C   UNL     1     -45.952 -51.082  39.780  1.00  0.00    -0.031 C 
ATOM      2  C   UNL     1     -46.862 -50.727  38.860  1.00  0.00    -0.031 C 
ENDROOT
BRANCH   1   3
ATOM      3  C   UNL     1     -46.202 -50.889  41.252  1.00  0.00     0.027 C 
BRANCH   3   4
ATOM      4  C   UNL     1     -47.697 -50.951  41.600  1.00  0.00     0.004 C 
BRANCH   4   5
ATOM      5  C   UNL     1     -48.011 -52.078  42.594  1.00  0.00     0.000 C 
BRANCH   5   6
ATOM      6  C   UNL     1     -48.208 -53.414  41.868  1.00  0.00     0.000 C 
BRANCH   6   7
ATOM      7  C   UNL     1     -49.033 -53.232  40.589  1.00  0.00     0.000 C 
BRANCH   7   8
ATOM      8  C   UNL     1     -48.323 -53.856  39.381  1.00  0.00     0.006 C 
BRANCH   8   9
ATOM      9  C   UNL     1     -47.154 -54.739  39.828  1.00  0.00     0.053 C 
BRANCH   9  10
ATOM     10  C   UNL     1     -47.442 -56.181  39.544  1.00  0.00     0.041 C 
ATOM     11  O   UNL     1     -48.046 -56.512  38.488  1.00  0.00    -0.550 OA
ATOM     12  O   UNL     1     -47.062 -57.160  40.453  1.00  0.00    -0.550 OA
ENDBRANCH   9  10
ENDBRANCH   8   9
ENDBRANCH   7   8
ENDBRANCH   6   7
ENDBRANCH   5   6
ENDBRANCH   4   5
ENDBRANCH   3   4
ENDBRANCH   1   3
BRANCH   2  13
ATOM     13  C   UNL     1     -46.611 -50.905  37.386  1.00  0.00     0.027 C 
BRANCH  13  14
ATOM     14  C   UNL     1     -45.475 -51.899  37.100  1.00  0.00     0.004 C 
BRANCH  14  15
ATOM     15  C   UNL     1     -44.279 -51.227  36.402  1.00  0.00     0.000 C 
BRANCH  15  16
ATOM     16  C   UNL     1     -44.600 -49.800  35.931  1.00  0.00     0.000 C 
BRANCH  16  17
ATOM     17  C   UNL     1     -43.661 -48.748  36.549  1.00  0.00    -0.000 C 
BRANCH  17  18
ATOM     18  C   UNL     1     -43.400 -49.001  38.042  1.00  0.00    -0.000 C 
BRANCH  18  19
ATOM     19  C   UNL     1     -44.212 -48.066  38.950  1.00  0.00    -0.003 C 
ATOM     20  C   UNL     1     -43.297 -47.185  39.797  1.00  0.00     0.004 C 
ENDBRANCH  18  19
ENDBRANCH  17  18
ENDBRANCH  16  17
ENDBRANCH  15  16
ENDBRANCH  14  15
ENDBRANCH  13  14
ENDBRANCH   2  13
TORSDOF 15
ENDMDL
MODEL 7
REMARK VINA RESULT:    -3.986      2.719      3.658
REMARK INTER + INTRA:          -9.778
REMARK INTER:                  -7.149
REMARK INTRA:                  -2.628
REMARK UNBOUND:                -2.297
REMARK SMILES CCCCCCCCC=CCCCCCCCC(=O)[O-]
REMARK SMILES IDX 10 1 9 2 11 3 12 4 13 5 14 6 15 7 16 8 17 9 18 10 19 11
REMARK SMILES IDX 20 12 8 13 7 14 6 15 5 16 4 17 3 18 2 19 1 20
REMARK H PARENT
REMARK Flexibility Score: inf
ROOT
ATOM      1  C   UNL     1     -46.270 -53.216  38.072  1.00  0.00    -0.031 C 
ATOM      2  C   UNL     1     -47.438 -53.447  38.691  1.00  0.00    -0.031 C 
ENDROOT
BRANCH   1   3
ATOM      3  C   UNL     1     -46.076 -52.021  37.176  1.00  0.00     0.027 C 
BRANCH   3   4
ATOM      4  C   UNL     1     -47.086 -50.903  37.472  1.00  0.00     0.004 C 
BRANCH   4   5
ATOM      5  C   UNL     1     -46.444 -49.511  37.394  1.00  0.00     0.000 C 
BRANCH   5   6
ATOM      6  C   UNL     1     -44.952 -49.572  37.741  1.00  0.00     0.000 C 
BRANCH   6   7
ATOM      7  C   UNL     1     -44.123 -48.730  36.766  1.00  0.00     0.000 C 
BRANCH   7   8
ATOM      8  C   UNL     1     -43.906 -49.473  35.441  1.00  0.00     0.006 C 
BRANCH   8   9
ATOM      9  C   UNL     1     -42.936 -48.706  34.535  1.00  0.00     0.053 C 
BRANCH   9  10
ATOM     10  C   UNL     1     -41.520 -48.938  34.963  1.00  0.00     0.041 C 
ATOM     11  O   UNL     1     -40.781 -47.964  35.269  1.00  0.00    -0.550 OA
ATOM     12  O   UNL     1     -41.007 -50.229  35.005  1.00  0.00    -0.550 OA
ENDBRANCH   9  10
ENDBRANCH   8   9
ENDBRANCH   7   8
ENDBRANCH   6   7
ENDBRANCH   5   6
ENDBRANCH   4   5
ENDBRANCH   3   4
ENDBRANCH   1   3
BRANCH   2  13
ATOM     13  C   UNL     1     -47.641 -54.648  39.577  1.00  0.00     0.027 C 
BRANCH  13  14
ATOM     14  C   UNL     1     -48.357 -54.294  40.889  1.00  0.00     0.004 C 
BRANCH  14  15
ATOM     15  C   UNL     1     -48.923 -52.863  40.873  1.00  0.00     0.000 C 
BRANCH  15  16
ATOM     16  C   UNL     1     -48.255 -51.953  41.915  1.00  0.00     0.000 C 
BRANCH  16  17
ATOM     17  C   UNL     1     -47.649 -50.684  41.290  1.00  0.00    -0.000 C 
BRANCH  17  18
ATOM     18  C   UNL     1     -46.127 -50.790  41.106  1.00  0.00    -0.000 C 
BRANCH  18  19
ATOM     19  C   UNL     1     -45.528 -52.004  41.832  1.00  0.00    -0.003 C 
ATOM     20  C   UNL     1     -44.319 -52.556  41.081  1.00  0.00     0.004 C 
ENDBRANCH  18  19
ENDBRANCH  17  18
ENDBRANCH  16  17
ENDBRANCH  15  16
ENDBRANCH  14  15
ENDBRANCH  13  14
ENDBRANCH   2  13
TORSDOF 15
ENDMDL
MODEL 8
REMARK VINA RESULT:    -3.968      1.094      2.693
REMARK INTER + INTRA:          -9.744
REMARK INTER:                  -7.238
REMARK INTRA:                  -2.506
REMARK UNBOUND:                -2.297
REMARK SMILES CCCCCCCCC=CCCCCCCCC(=O)[O-]
REMARK SMILES IDX 10 1 9 2 11 3 12 4 13 5 14 6 15 7 16 8 17 9 18 10 19 11
REMARK SMILES IDX 20 12 8 13 7 14 6 15 5 16 4 17 3 18 2 19 1 20
REMARK H PARENT
REMARK Flexibility Score: inf
ROOT
ATOM      1  C   UNL     1     -46.870 -51.082  38.632  1.00  0.00    -0.031 C 
ATOM      2  C   UNL     1     -45.957 -51.167  39.612  1.00  0.00    -0.031 C 
ENDROOT
BRANCH   1   3
ATOM      3  C   UNL     1     -46.580 -51.577  37.240  1.00  0.00     0.027 C 
BRANCH   3   4
ATOM      4  C   UNL     1     -45.123 -51.323  36.826  1.00  0.00     0.004 C 
BRANCH   4   5
ATOM      5  C   UNL     1     -44.944 -49.953  36.156  1.00  0.00     0.000 C 
BRANCH   5   6
ATOM      6  C   UNL     1     -44.146 -49.002  37.054  1.00  0.00     0.000 C 
BRANCH   6   7
ATOM      7  C   UNL     1     -45.076 -48.069  37.837  1.00  0.00     0.000 C 
BRANCH   7   8
ATOM      8  C   UNL     1     -44.538 -47.813  39.251  1.00  0.00     0.006 C 
BRANCH   8   9
ATOM      9  C   UNL     1     -43.008 -47.724  39.247  1.00  0.00     0.053 C 
BRANCH   9  10
ATOM     10  C   UNL     1     -42.544 -46.582  40.098  1.00  0.00     0.041 C 
ATOM     11  O   UNL     1     -43.290 -45.585  40.285  1.00  0.00    -0.550 OA
ATOM     12  O   UNL     1     -41.278 -46.610  40.672  1.00  0.00    -0.550 OA
ENDBRANCH   9  10
ENDBRANCH   8   9
ENDBRANCH   7   8
ENDBRANCH   6   7
ENDBRANCH   5   6
ENDBRANCH   4   5
ENDBRANCH   3   4
ENDBRANCH   1   3
BRANCH   2  13
ATOM     13  C   UNL     1     -46.237 -50.662  41.003  1.00  0.00     0.027 C 
BRANCH  13  14
ATOM     14  C   UNL     1     -47.518 -51.266  41.600  1.00  0.00     0.004 C 
BRANCH  14  15
ATOM     15  C   UNL     1     -47.225 -52.505  42.464  1.00  0.00     0.000 C 
BRANCH  15  16
ATOM     16  C   UNL     1     -48.129 -53.696  42.109  1.00  0.00     0.000 C 
BRANCH  16  17
ATOM     17  C   UNL     1     -48.441 -53.773  40.604  1.00  0.00    -0.000 C 
BRANCH  17  18
ATOM     18  C   UNL     1     -47.843 -55.026  39.944  1.00  0.00    -0.000 C 
BRANCH  18  19
ATOM     19  C   UNL     1     -46.317 -54.942  39.796  1.00  0.00    -0.003 C 
ATOM     20  C   UNL     1     -45.898 -55.049  38.331  1.00  0.00     0.004 C 
ENDBRANCH  18  19
ENDBRANCH  17  18
ENDBRANCH  16  17
ENDBRANCH  15  16
ENDBRANCH  14  15
ENDBRANCH  13  14
ENDBRANCH   2  13
TORSDOF 15
ENDMDL
MODEL 9
REMARK VINA RESULT:    -3.948      2.449      3.066
REMARK INTER + INTRA:          -9.706
REMARK INTER:                  -7.013
REMARK INTRA:                  -2.693
REMARK UNBOUND:                -2.297
REMARK SMILES CCCCCCCCC=CCCCCCCCC(=O)[O-]
REMARK SMILES IDX 10 1 9 2 11 3 12 4 13 5 14 6 15 7 16 8 17 9 18 10 19 11
REMARK SMILES IDX 20 12 8 13 7 14 6 15 5 16 4 17 3 18 2 19 1 20
REMARK H PARENT
REMARK Flexibility Score: inf
ROOT
ATOM      1  C   UNL     1     -47.245 -50.926  37.486  1.00  0.00    -0.031 C 
ATOM      2  C   UNL     1     -46.230 -51.803  37.490  1.00  0.00    -0.031 C 
ENDROOT
BRANCH   1   3
ATOM      3  C   UNL     1     -47.014 -49.453  37.281  1.00  0.00     0.027 C 
BRANCH   3   4
ATOM      4  C   UNL     1     -45.523 -49.111  37.155  1.00  0.00     0.004 C 
BRANCH   4   5
ATOM      5  C   UNL     1     -45.120 -47.942  38.065  1.00  0.00     0.000 C 
BRANCH   5   6
ATOM      6  C   UNL     1     -44.121 -48.396  39.135  1.00  0.00     0.000 C 
BRANCH   6   7
ATOM      7  C   UNL     1     -43.125 -49.413  38.566  1.00  0.00     0.000 C 
BRANCH   7   8
ATOM      8  C   UNL     1     -42.018 -48.714  37.767  1.00  0.00     0.006 C 
BRANCH   8   9
ATOM      9  C   UNL     1     -41.678 -49.502  36.497  1.00  0.00     0.053 C 
BRANCH   9  10
ATOM     10  C   UNL     1     -41.828 -48.638  35.283  1.00  0.00     0.041 C 
ATOM     11  O   UNL     1     -40.811 -48.151  34.721  1.00  0.00    -0.550 OA
ATOM     12  O   UNL     1     -43.092 -48.354  34.782  1.00  0.00    -0.550 OA
ENDBRANCH   9  10
ENDBRANCH   8   9
ENDBRANCH   7   8
ENDBRANCH   6   7
ENDBRANCH   5   6
ENDBRANCH   4   5
ENDBRANCH   3   4
ENDBRANCH   1   3
BRANCH   2  13
ATOM     13  C   UNL     1     -46.454 -53.276  37.707  1.00  0.00     0.027 C 
BRANCH  13  14
ATOM     14  C   UNL     1     -47.861 -53.583  38.245  1.00  0.00     0.004 C 
BRANCH  14  15
ATOM     15  C   UNL     1     -47.822 -54.168  39.668  1.00  0.00     0.000 C 
BRANCH  15  16
ATOM     16  C   UNL     1     -48.690 -53.373  40.655  1.00  0.00     0.000 C 
BRANCH  16  17
ATOM     17  C   UNL     1     -47.852 -52.528  41.631  1.00  0.00    -0.000 C 
BRANCH  17  18
ATOM     18  C   UNL     1     -47.718 -51.066  41.176  1.00  0.00    -0.000 C 
BRANCH  18  19
ATOM     19  C   UNL     1     -46.254 -50.620  41.051  1.00  0.00    -0.003 C 
ATOM     20  C   UNL     1     -45.305 -51.814  41.117  1.00  0.00     0.004 C 
ENDBRANCH  18  19
ENDBRANCH  17  18
ENDBRANCH  16  17
ENDBRANCH  15  16
ENDBRANCH  14  15
ENDBRANCH  13  14
ENDBRANCH   2  13
TORSDOF 15
ENDMDL
