MODEL 1
REMARK VINA RESULT:    -1.847      0.000      0.000
REMARK INTER + INTRA:          -1.847
REMARK INTER:                  -1.847
REMARK INTRA:                   0.000
REMARK UNBOUND:                 0.000
REMARK SMILES CC(=O)[O-]
REMARK SMILES IDX 1 1 2 2 3 3 4 4
REMARK H PARENT
REMARK Flexibility Score: inf
ROOT
ATOM      1  C   UNL     1       3.974   0.875  -5.524  1.00  0.00     0.063 C 
ATOM      2  C   UNL     1       3.058   1.865  -4.891  1.00  0.00     0.038 C 
ATOM      3  O   UNL     1       2.905   1.874  -3.642  1.00  0.00    -0.550 OA
ATOM      4  O   UNL     1       2.330   2.746  -5.681  1.00  0.00    -0.550 OA
ENDROOT
TORSDOF 0
ENDMDL
MODEL 2
REMARK VINA RESULT:    -1.818      0.183      1.624
REMARK INTER + INTRA:          -1.818
REMARK INTER:                  -1.818
REMARK INTRA:                   0.000
REMARK UNBOUND:                 0.000
REMARK SMILES CC(=O)[O-]
REMARK SMILES IDX 1 1 2 2 3 3 4 4
REMARK H PARENT
REMARK Flexibility Score: inf
ROOT
ATOM      1  C   UNL     1       4.043   0.792  -5.574  1.00  0.00     0.063 C 
ATOM      2  C   UNL     1       3.040   1.736  -5.003  1.00  0.00     0.038 C 
ATOM      3  O   UNL     1       2.349   2.461  -5.766  1.00  0.00    -0.550 OA
ATOM      4  O   UNL     1       2.900   1.857  -3.626  1.00  0.00    -0.550 OA
ENDROOT
TORSDOF 0
ENDMDL
MODEL 3
REMARK VINA RESULT:    -1.598      7.305      7.797
REMARK INTER + INTRA:          -1.598
REMARK INTER:                  -1.598
REMARK INTRA:                   0.000
REMARK UNBOUND:                 0.000
REMARK SMILES CC(=O)[O-]
REMARK SMILES IDX 1 1 2 2 3 3 4 4
REMARK H PARENT
REMARK Flexibility Score: inf
ROOT
ATOM      1  C   UNL     1       8.004   5.713   1.398  1.00  0.00     0.063 C 
ATOM      2  C   UNL     1       7.533   4.875   0.258  1.00  0.00     0.038 C 
ATOM      3  O   UNL     1       6.316   4.869  -0.060  1.00  0.00    -0.550 OA
ATOM      4  O   UNL     1       8.427   4.058  -0.422  1.00  0.00    -0.550 OA
ENDROOT
TORSDOF 0
ENDMDL
MODEL 4
REMARK VINA RESULT:    -1.592      1.996      2.108
REMARK INTER + INTRA:          -1.592
REMARK INTER:                  -1.592
REMARK INTRA:                   0.000
REMARK UNBOUND:                 0.000
REMARK SMILES CC(=O)[O-]
REMARK SMILES IDX 1 1 2 2 3 3 4 4
REMARK H PARENT
REMARK Flexibility Score: inf
ROOT
ATOM      1  C   UNL     1       2.884   2.098  -4.141  1.00  0.00     0.063 C 
ATOM      2  C   UNL     1       2.867   3.383  -4.896  1.00  0.00     0.038 C 
ATOM      3  O   UNL     1       1.912   4.189  -4.750  1.00  0.00    -0.550 OA
ATOM      4  O   UNL     1       3.878   3.671  -5.805  1.00  0.00    -0.550 OA
ENDROOT
TORSDOF 0
ENDMDL
MODEL 5
REMARK VINA RESULT:    -1.494      7.309      7.490
REMARK INTER + INTRA:          -1.494
REMARK INTER:                  -1.494
REMARK INTRA:                   0.000
REMARK UNBOUND:                 0.000
REMARK SMILES CC(=O)[O-]
REMARK SMILES IDX 1 1 2 2 3 3 4 4
REMARK H PARENT
REMARK Flexibility Score: inf
ROOT
ATOM      1  C   UNL     1      -2.014  -0.963  -6.634  1.00  0.00     0.063 C 
ATOM      2  C   UNL     1      -2.808  -2.202  -6.400  1.00  0.00     0.038 C 
ATOM      3  O   UNL     1      -4.066  -2.157  -6.408  1.00  0.00    -0.550 OA
ATOM      4  O   UNL     1      -2.164  -3.401  -6.121  1.00  0.00    -0.550 OA
ENDROOT
TORSDOF 0
ENDMDL
MODEL 6
REMARK VINA RESULT:    -1.494      4.799      5.239
REMARK INTER + INTRA:          -1.494
REMARK INTER:                  -1.494
REMARK INTRA:                   0.000
REMARK UNBOUND:                 0.000
REMARK SMILES CC(=O)[O-]
REMARK SMILES IDX 1 1 2 2 3 3 4 4
REMARK H PARENT
REMARK Flexibility Score: inf
ROOT
ATOM      1  C   UNL     1       4.531  -3.861  -4.358  1.00  0.00     0.063 C 
ATOM      2  C   UNL     1       5.407  -2.670  -4.548  1.00  0.00     0.038 C 
ATOM      3  O   UNL     1       6.557  -2.644  -4.038  1.00  0.00    -0.550 OA
ATOM      4  O   UNL     1       4.938  -1.564  -5.246  1.00  0.00    -0.550 OA
ENDROOT
TORSDOF 0
ENDMDL
MODEL 7
REMARK VINA RESULT:    -1.492      7.895      8.092
REMARK INTER + INTRA:          -1.492
REMARK INTER:                  -1.492
REMARK INTRA:                   0.000
REMARK UNBOUND:                 0.000
REMARK SMILES CC(=O)[O-]
REMARK SMILES IDX 1 1 2 2 3 3 4 4
REMARK H PARENT
REMARK Flexibility Score: inf
ROOT
ATOM      1  C   UNL     1      -2.675   4.248  -0.579  1.00  0.00     0.063 C 
ATOM      2  C   UNL     1      -3.304   5.194  -1.544  1.00  0.00     0.038 C 
ATOM      3  O   UNL     1      -4.018   4.756  -2.483  1.00  0.00    -0.550 OA
ATOM      4  O   UNL     1      -3.061   6.558  -1.443  1.00  0.00    -0.550 OA
ENDROOT
TORSDOF 0
ENDMDL
MODEL 8
REMARK VINA RESULT:    -1.415      8.473      8.965
REMARK INTER + INTRA:          -1.415
REMARK INTER:                  -1.415
REMARK INTRA:                   0.000
REMARK UNBOUND:                 0.000
REMARK SMILES CC(=O)[O-]
REMARK SMILES IDX 1 1 2 2 3 3 4 4
REMARK H PARENT
REMARK Flexibility Score: inf
ROOT
ATOM      1  C   UNL     1       9.521   6.282  -0.227  1.00  0.00     0.063 C 
ATOM      2  C   UNL     1       9.419   4.841   0.139  1.00  0.00     0.038 C 
ATOM      3  O   UNL     1       8.767   4.049  -0.590  1.00  0.00    -0.550 OA
ATOM      4  O   UNL     1       9.999   4.377   1.313  1.00  0.00    -0.550 OA
ENDROOT
TORSDOF 0
ENDMDL
MODEL 9
REMARK VINA RESULT:    -1.410      8.401      8.675
REMARK INTER + INTRA:          -1.410
REMARK INTER:                  -1.410
REMARK INTRA:                   0.000
REMARK UNBOUND:                 0.000
REMARK SMILES CC(=O)[O-]
REMARK SMILES IDX 1 1 2 2 3 3 4 4
REMARK H PARENT
REMARK Flexibility Score: inf
ROOT
ATOM      1  C   UNL     1      -2.600   4.346  -0.645  1.00  0.00     0.063 C 
ATOM      2  C   UNL     1      -2.772   5.371   0.423  1.00  0.00     0.038 C 
ATOM      3  O   UNL     1      -2.392   5.129   1.598  1.00  0.00    -0.550 OA
ATOM      4  O   UNL     1      -3.399   6.578   0.137  1.00  0.00    -0.550 OA
ENDROOT
TORSDOF 0
ENDMDL
