MODEL 1
REMARK VINA RESULT:    -3.834      0.000      0.000
REMARK INTER + INTRA:          -4.944
REMARK INTER:                  -4.730
REMARK INTRA:                  -0.214
REMARK UNBOUND:                -0.214
REMARK SMILES CCCCCC(=O)[O-]
REMARK SMILES IDX 4 1 5 2 6 3 7 4 8 5 3 6 2 7 1 8
REMARK H PARENT
REMARK Flexibility Score: inf
ROOT
ATOM      1  C   UNL     1      10.784  33.374  42.363  1.00  0.00     0.006 C 
ENDROOT
BRANCH   1   2
ATOM      2  C   UNL     1      10.147  33.372  40.967  1.00  0.00     0.053 C 
BRANCH   2   3
ATOM      3  C   UNL     1       8.784  32.757  41.016  1.00  0.00     0.041 C 
ATOM      4  O   UNL     1       7.760  33.488  41.082  1.00  0.00    -0.550 OA
ATOM      5  O   UNL     1       8.646  31.375  41.040  1.00  0.00    -0.550 OA
ENDBRANCH   2   3
ENDBRANCH   1   2
BRANCH   1   6
ATOM      6  C   UNL     1      10.500  34.670  43.139  1.00  0.00     0.000 C 
BRANCH   6   7
ATOM      7  C   UNL     1      10.061  34.408  44.587  1.00  0.00    -0.003 C 
ATOM      8  C   UNL     1       9.182  33.164  44.678  1.00  0.00     0.004 C 
ENDBRANCH   6   7
ENDBRANCH   1   6
TORSDOF 4
ENDMDL
MODEL 2
REMARK VINA RESULT:    -3.785      9.962     10.868
REMARK INTER + INTRA:          -4.884
REMARK INTER:                  -4.786
REMARK INTRA:                  -0.098
REMARK UNBOUND:                -0.214
REMARK SMILES CCCCCC(=O)[O-]
REMARK SMILES IDX 4 1 5 2 6 3 7 4 8 5 3 6 2 7 1 8
REMARK H PARENT
REMARK Flexibility Score: inf
ROOT
ATOM      1  C   UNL     1       4.787  42.128  46.517  1.00  0.00     0.006 C 
ENDROOT
BRANCH   1   2
ATOM      2  C   UNL     1       5.277  42.107  47.971  1.00  0.00     0.053 C 
BRANCH   2   3
ATOM      3  C   UNL     1       6.117  40.895  48.220  1.00  0.00     0.041 C 
ATOM      4  O   UNL     1       5.655  39.745  47.998  1.00  0.00    -0.550 OA
ATOM      5  O   UNL     1       7.396  41.033  48.748  1.00  0.00    -0.550 OA
ENDBRANCH   2   3
ENDBRANCH   1   2
BRANCH   1   6
ATOM      6  C   UNL     1       5.942  42.122  45.504  1.00  0.00     0.000 C 
BRANCH   6   7
ATOM      7  C   UNL     1       5.580  42.829  44.190  1.00  0.00    -0.003 C 
ATOM      8  C   UNL     1       6.628  43.876  43.822  1.00  0.00     0.004 C 
ENDBRANCH   6   7
ENDBRANCH   1   6
TORSDOF 4
ENDMDL
MODEL 3
REMARK VINA RESULT:    -3.762      9.548     10.344
REMARK INTER + INTRA:          -4.856
REMARK INTER:                  -4.704
REMARK INTRA:                  -0.151
REMARK UNBOUND:                -0.214
REMARK SMILES CCCCCC(=O)[O-]
REMARK SMILES IDX 4 1 5 2 6 3 7 4 8 5 3 6 2 7 1 8
REMARK H PARENT
REMARK Flexibility Score: inf
ROOT
ATOM      1  C   UNL     1       5.213  41.506  47.143  1.00  0.00     0.006 C 
ENDROOT
BRANCH   1   2
ATOM      2  C   UNL     1       5.060  42.519  46.001  1.00  0.00     0.053 C 
BRANCH   2   3
ATOM      3  C   UNL     1       5.922  42.132  44.841  1.00  0.00     0.041 C 
ATOM      4  O   UNL     1       5.939  42.839  43.799  1.00  0.00    -0.550 OA
ATOM      5  O   UNL     1       6.670  40.962  44.891  1.00  0.00    -0.550 OA
ENDBRANCH   2   3
ENDBRANCH   1   2
BRANCH   1   6
ATOM      6  C   UNL     1       5.207  42.172  48.527  1.00  0.00     0.000 C 
BRANCH   6   7
ATOM      7  C   UNL     1       6.424  41.779  49.378  1.00  0.00    -0.003 C 
ATOM      8  C   UNL     1       7.342  40.826  48.617  1.00  0.00     0.004 C 
ENDBRANCH   6   7
ENDBRANCH   1   6
TORSDOF 4
ENDMDL
MODEL 4
REMARK VINA RESULT:    -3.732     11.974     13.544
REMARK INTER + INTRA:          -4.819
REMARK INTER:                  -4.688
REMARK INTRA:                  -0.131
REMARK UNBOUND:                -0.214
REMARK SMILES CCCCCC(=O)[O-]
REMARK SMILES IDX 4 1 5 2 6 3 7 4 8 5 3 6 2 7 1 8
REMARK H PARENT
REMARK Flexibility Score: inf
ROOT
ATOM      1  C   UNL     1       4.720  35.088  54.877  1.00  0.00     0.006 C 
ENDROOT
BRANCH   1   2
ATOM      2  C   UNL     1       3.529  35.794  55.537  1.00  0.00     0.053 C 
BRANCH   2   3
ATOM      3  C   UNL     1       2.241  35.263  54.993  1.00  0.00     0.041 C 
ATOM      4  O   UNL     1       1.141  35.678  55.446  1.00  0.00    -0.550 OA
ATOM      5  O   UNL     1       2.254  34.271  54.020  1.00  0.00    -0.550 OA
ENDBRANCH   2   3
ENDBRANCH   1   2
BRANCH   1   6
ATOM      6  C   UNL     1       5.354  35.925  53.755  1.00  0.00     0.000 C 
BRANCH   6   7
ATOM      7  C   UNL     1       5.092  35.339  52.360  1.00  0.00    -0.003 C 
ATOM      8  C   UNL     1       6.051  34.191  52.057  1.00  0.00     0.004 C 
ENDBRANCH   6   7
ENDBRANCH   1   6
TORSDOF 4
ENDMDL
MODEL 5
REMARK VINA RESULT:    -3.717      2.344      3.733
REMARK INTER + INTRA:          -4.801
REMARK INTER:                  -4.559
REMARK INTRA:                  -0.242
REMARK UNBOUND:                -0.214
REMARK SMILES CCCCCC(=O)[O-]
REMARK SMILES IDX 4 1 5 2 6 3 7 4 8 5 3 6 2 7 1 8
REMARK H PARENT
REMARK Flexibility Score: inf
ROOT
ATOM      1  C   UNL     1      10.873  33.336  42.609  1.00  0.00     0.006 C 
ENDROOT
BRANCH   1   2
ATOM      2  C   UNL     1      10.502  34.564  43.452  1.00  0.00     0.053 C 
BRANCH   2   3
ATOM      3  C   UNL     1       9.693  34.155  44.641  1.00  0.00     0.041 C 
ATOM      4  O   UNL     1       8.979  33.118  44.597  1.00  0.00    -0.550 OA
ATOM      5  O   UNL     1       9.687  34.946  45.783  1.00  0.00    -0.550 OA
ENDBRANCH   2   3
ENDBRANCH   1   2
BRANCH   1   6
ATOM      6  C   UNL     1      10.261  33.379  41.201  1.00  0.00     0.000 C 
BRANCH   6   7
ATOM      7  C   UNL     1       9.004  32.506  41.076  1.00  0.00    -0.003 C 
ATOM      8  C   UNL     1       7.738  33.358  41.099  1.00  0.00     0.004 C 
ENDBRANCH   6   7
ENDBRANCH   1   6
TORSDOF 4
ENDMDL
MODEL 6
REMARK VINA RESULT:    -3.706      9.647     10.428
REMARK INTER + INTRA:          -4.787
REMARK INTER:                  -4.734
REMARK INTRA:                  -0.052
REMARK UNBOUND:                -0.214
REMARK SMILES CCCCCC(=O)[O-]
REMARK SMILES IDX 4 1 5 2 6 3 7 4 8 5 3 6 2 7 1 8
REMARK H PARENT
REMARK Flexibility Score: inf
ROOT
ATOM      1  C   UNL     1       5.900  41.823  45.550  1.00  0.00     0.006 C 
ENDROOT
BRANCH   1   2
ATOM      2  C   UNL     1       5.580  42.870  44.475  1.00  0.00     0.053 C 
BRANCH   2   3
ATOM      3  C   UNL     1       6.559  42.776  43.348  1.00  0.00     0.041 C 
ATOM      4  O   UNL     1       7.065  41.665  43.037  1.00  0.00    -0.550 OA
ATOM      5  O   UNL     1       6.952  43.924  42.671  1.00  0.00    -0.550 OA
ENDBRANCH   2   3
ENDBRANCH   1   2
BRANCH   1   6
ATOM      6  C   UNL     1       5.041  41.991  46.813  1.00  0.00     0.000 C 
BRANCH   6   7
ATOM      7  C   UNL     1       5.726  41.439  48.072  1.00  0.00    -0.003 C 
ATOM      8  C   UNL     1       5.409  42.300  49.292  1.00  0.00     0.004 C 
ENDBRANCH   6   7
ENDBRANCH   1   6
TORSDOF 4
ENDMDL
MODEL 7
REMARK VINA RESULT:    -3.644     11.664     13.140
REMARK INTER + INTRA:          -4.710
REMARK INTER:                  -4.602
REMARK INTRA:                  -0.109
REMARK UNBOUND:                -0.214
REMARK SMILES CCCCCC(=O)[O-]
REMARK SMILES IDX 4 1 5 2 6 3 7 4 8 5 3 6 2 7 1 8
REMARK H PARENT
REMARK Flexibility Score: inf
ROOT
ATOM      1  C   UNL     1       5.163  35.719  54.963  1.00  0.00     0.006 C 
ENDROOT
BRANCH   1   2
ATOM      2  C   UNL     1       4.967  35.817  53.444  1.00  0.00     0.053 C 
BRANCH   2   3
ATOM      3  C   UNL     1       5.226  34.493  52.799  1.00  0.00     0.041 C 
ATOM      4  O   UNL     1       6.168  34.363  51.972  1.00  0.00    -0.550 OA
ATOM      5  O   UNL     1       4.394  33.413  53.070  1.00  0.00    -0.550 OA
ENDBRANCH   2   3
ENDBRANCH   1   2
BRANCH   1   6
ATOM      6  C   UNL     1       3.838  35.804  55.736  1.00  0.00     0.000 C 
BRANCH   6   7
ATOM      7  C   UNL     1       2.614  35.852  54.809  1.00  0.00    -0.003 C 
ATOM      8  C   UNL     1       1.322  35.644  55.594  1.00  0.00     0.004 C 
ENDBRANCH   6   7
ENDBRANCH   1   6
TORSDOF 4
ENDMDL
MODEL 8
REMARK VINA RESULT:    -3.560     10.124     11.051
REMARK INTER + INTRA:          -4.607
REMARK INTER:                  -4.518
REMARK INTRA:                  -0.089
REMARK UNBOUND:                -0.214
REMARK SMILES CCCCCC(=O)[O-]
REMARK SMILES IDX 4 1 5 2 6 3 7 4 8 5 3 6 2 7 1 8
REMARK H PARENT
REMARK Flexibility Score: inf
ROOT
ATOM      1  C   UNL     1       6.702  42.951  43.371  1.00  0.00     0.006 C 
ENDROOT
BRANCH   1   2
ATOM      2  C   UNL     1       7.135  44.415  43.532  1.00  0.00     0.053 C 
BRANCH   2   3
ATOM      3  C   UNL     1       7.364  45.041  42.194  1.00  0.00     0.041 C 
ATOM      4  O   UNL     1       7.217  46.283  42.040  1.00  0.00    -0.550 OA
ATOM      5  O   UNL     1       7.693  44.247  41.102  1.00  0.00    -0.550 OA
ENDBRANCH   2   3
ENDBRANCH   1   2
BRANCH   1   6
ATOM      6  C   UNL     1       5.429  42.621  44.164  1.00  0.00     0.000 C 
BRANCH   6   7
ATOM      7  C   UNL     1       5.708  42.364  45.652  1.00  0.00    -0.003 C 
ATOM      8  C   UNL     1       6.247  40.954  45.875  1.00  0.00     0.004 C 
ENDBRANCH   6   7
ENDBRANCH   1   6
TORSDOF 4
ENDMDL
MODEL 9
REMARK VINA RESULT:    -3.489      9.087     10.166
REMARK INTER + INTRA:          -4.519
REMARK INTER:                  -4.410
REMARK INTRA:                  -0.109
REMARK UNBOUND:                -0.214
REMARK SMILES CCCCCC(=O)[O-]
REMARK SMILES IDX 4 1 5 2 6 3 7 4 8 5 3 6 2 7 1 8
REMARK H PARENT
REMARK Flexibility Score: inf
ROOT
ATOM      1  C   UNL     1       5.704  41.251  47.847  1.00  0.00     0.006 C 
ENDROOT
BRANCH   1   2
ATOM      2  C   UNL     1       6.950  41.114  48.733  1.00  0.00     0.053 C 
BRANCH   2   3
ATOM      3  C   UNL     1       7.777  39.949  48.292  1.00  0.00     0.041 C 
ATOM      4  O   UNL     1       7.333  38.775  48.405  1.00  0.00    -0.550 OA
ATOM      5  O   UNL     1       9.061  40.154  47.801  1.00  0.00    -0.550 OA
ENDBRANCH   2   3
ENDBRANCH   1   2
BRANCH   1   6
ATOM      6  C   UNL     1       6.052  41.409  46.359  1.00  0.00     0.000 C 
BRANCH   6   7
ATOM      7  C   UNL     1       5.243  42.522  45.677  1.00  0.00    -0.003 C 
ATOM      8  C   UNL     1       5.541  42.580  44.181  1.00  0.00     0.004 C 
ENDBRANCH   6   7
ENDBRANCH   1   6
TORSDOF 4
ENDMDL
