MODEL 1
REMARK VINA RESULT:    10.590      0.000      0.000
REMARK INTER + INTRA:          17.970
REMARK INTER:                  19.258
REMARK INTRA:                  -1.288
REMARK UNBOUND:                -1.288
REMARK SMILES CCCCCCCCCCCCCCCC(=O)[O-]
REMARK SMILES IDX 9 1 10 2 11 3 12 4 13 5 14 6 15 7 16 8 17 9 18 10 8 11 7 12
REMARK SMILES IDX 6 13 5 14 4 15 3 16 2 17 1 18
REMARK H PARENT
REMARK Flexibility Score: inf
ROOT
ATOM      1  C   UNL     1      18.711 -57.961  -2.595  1.00  0.00     0.000 C 
ENDROOT
BRANCH   1   2
ATOM      2  C   UNL     1      19.123 -57.720  -1.135  1.00  0.00     0.000 C 
BRANCH   2   3
ATOM      3  C   UNL     1      17.919 -57.640  -0.183  1.00  0.00     0.000 C 
BRANCH   3   4
ATOM      4  C   UNL     1      17.247 -56.256  -0.193  1.00  0.00     0.000 C 
BRANCH   4   5
ATOM      5  C   UNL     1      16.029 -56.209  -1.142  1.00  0.00     0.000 C 
BRANCH   5   6
ATOM      6  C   UNL     1      16.205 -55.236  -2.321  1.00  0.00     0.006 C 
BRANCH   6   7
ATOM      7  C   UNL     1      16.831 -55.898  -3.552  1.00  0.00     0.053 C 
BRANCH   7   8
ATOM      8  C   UNL     1      17.569 -54.886  -4.371  1.00  0.00     0.041 C 
ATOM      9  O   UNL     1      17.875 -55.139  -5.567  1.00  0.00    -0.550 OA
ATOM     10  O   UNL     1      17.965 -53.684  -3.799  1.00  0.00    -0.550 OA
ENDBRANCH   7   8
ENDBRANCH   6   7
ENDBRANCH   5   6
ENDBRANCH   4   5
ENDBRANCH   3   4
ENDBRANCH   2   3
ENDBRANCH   1   2
BRANCH   1  11
ATOM     11  C   UNL     1      19.042 -59.396  -3.029  1.00  0.00     0.000 C 
BRANCH  11  12
ATOM     12  C   UNL     1      17.815 -60.322  -3.013  1.00  0.00    -0.000 C 
BRANCH  12  13
ATOM     13  C   UNL     1      16.514 -59.574  -2.673  1.00  0.00    -0.000 C 
BRANCH  13  14
ATOM     14  C   UNL     1      15.593 -59.391  -3.894  1.00  0.00    -0.000 C 
BRANCH  14  15
ATOM     15  C   UNL     1      14.133 -59.025  -3.563  1.00  0.00    -0.000 C 
BRANCH  15  16
ATOM     16  C   UNL     1      13.632 -57.707  -4.183  1.00  0.00    -0.000 C 
BRANCH  16  17
ATOM     17  C   UNL     1      12.586 -56.969  -3.321  1.00  0.00    -0.003 C 
ATOM     18  C   UNL     1      11.345 -57.818  -3.043  1.00  0.00     0.004 C 
ENDBRANCH  16  17
ENDBRANCH  15  16
ENDBRANCH  14  15
ENDBRANCH  13  14
ENDBRANCH  12  13
ENDBRANCH  11  12
ENDBRANCH   1  11
TORSDOF 14
ENDMDL
MODEL 2
REMARK VINA RESULT:    10.933      1.123      2.311
REMARK INTER + INTRA:          18.592
REMARK INTER:                  19.301
REMARK INTRA:                  -0.709
REMARK UNBOUND:                -1.288
REMARK SMILES CCCCCCCCCCCCCCCC(=O)[O-]
REMARK SMILES IDX 9 1 10 2 11 3 12 4 13 5 14 6 15 7 16 8 17 9 18 10 8 11 7 12
REMARK SMILES IDX 6 13 5 14 4 15 3 16 2 17 1 18
REMARK H PARENT
REMARK Flexibility Score: inf
ROOT
ATOM      1  C   UNL     1      17.628 -60.683  -3.018  1.00  0.00     0.000 C 
ENDROOT
BRANCH   1   2
ATOM      2  C   UNL     1      19.007 -60.008  -2.953  1.00  0.00     0.000 C 
BRANCH   2   3
ATOM      3  C   UNL     1      18.922 -58.475  -3.001  1.00  0.00     0.000 C 
BRANCH   3   4
ATOM      4  C   UNL     1      19.086 -57.828  -1.615  1.00  0.00     0.000 C 
BRANCH   4   5
ATOM      5  C   UNL     1      17.958 -56.819  -1.308  1.00  0.00     0.000 C 
BRANCH   5   6
ATOM      6  C   UNL     1      17.141 -56.413  -2.547  1.00  0.00     0.006 C 
BRANCH   6   7
ATOM      7  C   UNL     1      17.279 -54.926  -2.891  1.00  0.00     0.053 C 
BRANCH   7   8
ATOM      8  C   UNL     1      17.602 -54.753  -4.341  1.00  0.00     0.041 C 
ATOM      9  O   UNL     1      17.871 -55.756  -5.055  1.00  0.00    -0.550 OA
ATOM     10  O   UNL     1      17.657 -53.481  -4.895  1.00  0.00    -0.550 OA
ENDBRANCH   7   8
ENDBRANCH   6   7
ENDBRANCH   5   6
ENDBRANCH   4   5
ENDBRANCH   3   4
ENDBRANCH   2   3
ENDBRANCH   1   2
BRANCH   1  11
ATOM     11  C   UNL     1      16.517 -59.694  -2.636  1.00  0.00     0.000 C 
BRANCH  11  12
ATOM     12  C   UNL     1      15.437 -59.563  -3.723  1.00  0.00    -0.000 C 
BRANCH  12  13
ATOM     13  C   UNL     1      14.967 -58.111  -3.918  1.00  0.00    -0.000 C 
BRANCH  13  14
ATOM     14  C   UNL     1      13.455 -58.002  -4.185  1.00  0.00    -0.000 C 
BRANCH  14  15
ATOM     15  C   UNL     1      12.571 -57.932  -2.925  1.00  0.00    -0.000 C 
BRANCH  15  16
ATOM     16  C   UNL     1      11.325 -57.034  -3.048  1.00  0.00    -0.000 C 
BRANCH  16  17
ATOM     17  C   UNL     1      11.266 -56.226  -4.362  1.00  0.00    -0.003 C 
ATOM     18  C   UNL     1      11.223 -54.716  -4.124  1.00  0.00     0.004 C 
ENDBRANCH  16  17
ENDBRANCH  15  16
ENDBRANCH  14  15
ENDBRANCH  13  14
ENDBRANCH  12  13
ENDBRANCH  11  12
ENDBRANCH   1  11
TORSDOF 14
ENDMDL
MODEL 3
REMARK VINA RESULT:    11.823      3.484      5.737
REMARK INTER + INTRA:          20.211
REMARK INTER:                  21.225
REMARK INTRA:                  -1.015
REMARK UNBOUND:                -1.288
REMARK SMILES CCCCCCCCCCCCCCCC(=O)[O-]
REMARK SMILES IDX 9 1 10 2 11 3 12 4 13 5 14 6 15 7 16 8 17 9 18 10 8 11 7 12
REMARK SMILES IDX 6 13 5 14 4 15 3 16 2 17 1 18
REMARK H PARENT
REMARK Flexibility Score: inf
ROOT
ATOM      1  C   UNL     1      17.768 -60.499  -3.195  1.00  0.00     0.000 C 
ENDROOT
BRANCH   1   2
ATOM      2  C   UNL     1      16.636 -59.724  -2.502  1.00  0.00     0.000 C 
BRANCH   2   3
ATOM      3  C   UNL     1      15.267 -59.954  -3.161  1.00  0.00     0.000 C 
BRANCH   3   4
ATOM      4  C   UNL     1      14.693 -58.677  -3.798  1.00  0.00     0.000 C 
BRANCH   4   5
ATOM      5  C   UNL     1      14.542 -58.808  -5.329  1.00  0.00     0.000 C 
BRANCH   5   6
ATOM      6  C   UNL     1      14.974 -60.180  -5.875  1.00  0.00     0.006 C 
BRANCH   6   7
ATOM      7  C   UNL     1      14.445 -60.454  -7.286  1.00  0.00     0.053 C 
BRANCH   7   8
ATOM      8  C   UNL     1      13.676 -61.737  -7.316  1.00  0.00     0.041 C 
ATOM      9  O   UNL     1      14.267 -62.835  -7.134  1.00  0.00    -0.550 OA
ATOM     10  O   UNL     1      12.315 -61.726  -7.594  1.00  0.00    -0.550 OA
ENDBRANCH   7   8
ENDBRANCH   6   7
ENDBRANCH   5   6
ENDBRANCH   4   5
ENDBRANCH   3   4
ENDBRANCH   2   3
ENDBRANCH   1   2
BRANCH   1  11
ATOM     11  C   UNL     1      19.123 -59.815  -2.961  1.00  0.00     0.000 C 
BRANCH  11  12
ATOM     12  C   UNL     1      19.023 -58.280  -2.957  1.00  0.00    -0.000 C 
BRANCH  12  13
ATOM     13  C   UNL     1      18.893 -57.700  -1.538  1.00  0.00    -0.000 C 
BRANCH  13  14
ATOM     14  C   UNL     1      17.697 -56.741  -1.391  1.00  0.00    -0.000 C 
BRANCH  14  15
ATOM     15  C   UNL     1      17.156 -56.163  -2.714  1.00  0.00    -0.000 C 
BRANCH  15  16
ATOM     16  C   UNL     1      17.251 -54.632  -2.846  1.00  0.00    -0.000 C 
BRANCH  16  17
ATOM     17  C   UNL     1      17.834 -54.157  -4.194  1.00  0.00    -0.003 C 
ATOM     18  C   UNL     1      17.610 -55.165  -5.322  1.00  0.00     0.004 C 
ENDBRANCH  16  17
ENDBRANCH  15  16
ENDBRANCH  14  15
ENDBRANCH  13  14
ENDBRANCH  12  13
ENDBRANCH  11  12
ENDBRANCH   1  11
TORSDOF 14
ENDMDL
MODEL 4
REMARK VINA RESULT:    12.141      2.132      3.095
REMARK INTER + INTRA:          20.789
REMARK INTER:                  21.497
REMARK INTRA:                  -0.708
REMARK UNBOUND:                -1.288
REMARK SMILES CCCCCCCCCCCCCCCC(=O)[O-]
REMARK SMILES IDX 9 1 10 2 11 3 12 4 13 5 14 6 15 7 16 8 17 9 18 10 8 11 7 12
REMARK SMILES IDX 6 13 5 14 4 15 3 16 2 17 1 18
REMARK H PARENT
REMARK Flexibility Score: inf
ROOT
ATOM      1  C   UNL     1      17.609 -60.523  -2.928  1.00  0.00     0.000 C 
ENDROOT
BRANCH   1   2
ATOM      2  C   UNL     1      18.980 -59.832  -2.994  1.00  0.00     0.000 C 
BRANCH   2   3
ATOM      3  C   UNL     1      18.870 -58.307  -3.153  1.00  0.00     0.000 C 
BRANCH   3   4
ATOM      4  C   UNL     1      19.125 -57.554  -1.836  1.00  0.00     0.000 C 
BRANCH   4   5
ATOM      5  C   UNL     1      17.820 -57.005  -1.219  1.00  0.00     0.000 C 
BRANCH   5   6
ATOM      6  C   UNL     1      16.916 -56.283  -2.233  1.00  0.00     0.006 C 
BRANCH   6   7
ATOM      7  C   UNL     1      17.478 -54.928  -2.675  1.00  0.00     0.053 C 
BRANCH   7   8
ATOM      8  C   UNL     1      17.493 -54.830  -4.168  1.00  0.00     0.041 C 
ATOM      9  O   UNL     1      17.147 -55.816  -4.872  1.00  0.00    -0.550 OA
ATOM     10  O   UNL     1      17.938 -53.667  -4.784  1.00  0.00    -0.550 OA
ENDBRANCH   7   8
ENDBRANCH   6   7
ENDBRANCH   5   6
ENDBRANCH   4   5
ENDBRANCH   3   4
ENDBRANCH   2   3
ENDBRANCH   1   2
BRANCH   1  11
ATOM     11  C   UNL     1      16.525 -59.543  -2.455  1.00  0.00     0.000 C 
BRANCH  11  12
ATOM     12  C   UNL     1      15.207 -59.691  -3.233  1.00  0.00    -0.000 C 
BRANCH  12  13
ATOM     13  C   UNL     1      14.808 -58.401  -3.969  1.00  0.00    -0.000 C 
BRANCH  13  14
ATOM     14  C   UNL     1      14.502 -58.634  -5.460  1.00  0.00    -0.000 C 
BRANCH  14  15
ATOM     15  C   UNL     1      14.972 -59.990  -6.021  1.00  0.00    -0.000 C 
BRANCH  15  16
ATOM     16  C   UNL     1      14.302 -60.422  -7.339  1.00  0.00    -0.000 C 
BRANCH  16  17
ATOM     17  C   UNL     1      13.790 -61.878  -7.331  1.00  0.00    -0.003 C 
ATOM     18  C   UNL     1      12.267 -61.969  -7.425  1.00  0.00     0.004 C 
ENDBRANCH  16  17
ENDBRANCH  15  16
ENDBRANCH  14  15
ENDBRANCH  13  14
ENDBRANCH  12  13
ENDBRANCH  11  12
ENDBRANCH   1  11
TORSDOF 14
ENDMDL
MODEL 5
REMARK VINA RESULT:    12.448      2.704      5.113
REMARK INTER + INTRA:          21.348
REMARK INTER:                  22.768
REMARK INTRA:                  -1.420
REMARK UNBOUND:                -1.288
REMARK SMILES CCCCCCCCCCCCCCCC(=O)[O-]
REMARK SMILES IDX 9 1 10 2 11 3 12 4 13 5 14 6 15 7 16 8 17 9 18 10 8 11 7 12
REMARK SMILES IDX 6 13 5 14 4 15 3 16 2 17 1 18
REMARK H PARENT
REMARK Flexibility Score: inf
ROOT
ATOM      1  C   UNL     1      16.514 -60.048  -3.690  1.00  0.00     0.000 C 
ENDROOT
BRANCH   1   2
ATOM      2  C   UNL     1      15.292 -59.298  -3.138  1.00  0.00     0.000 C 
BRANCH   2   3
ATOM      3  C   UNL     1      14.402 -58.715  -4.247  1.00  0.00     0.000 C 
BRANCH   3   4
ATOM      4  C   UNL     1      13.651 -57.448  -3.801  1.00  0.00     0.000 C 
BRANCH   4   5
ATOM      5  C   UNL     1      12.229 -57.767  -3.288  1.00  0.00     0.000 C 
BRANCH   5   6
ATOM      6  C   UNL     1      11.309 -56.535  -3.220  1.00  0.00     0.006 C 
BRANCH   6   7
ATOM      7  C   UNL     1      11.275 -55.743  -4.531  1.00  0.00     0.053 C 
BRANCH   7   8
ATOM      8  C   UNL     1      10.962 -54.305  -4.265  1.00  0.00     0.041 C 
ATOM      9  O   UNL     1      11.848 -53.423  -4.422  1.00  0.00    -0.550 OA
ATOM     10  O   UNL     1       9.706 -53.942  -3.794  1.00  0.00    -0.550 OA
ENDBRANCH   7   8
ENDBRANCH   6   7
ENDBRANCH   5   6
ENDBRANCH   4   5
ENDBRANCH   3   4
ENDBRANCH   2   3
ENDBRANCH   1   2
BRANCH   1  11
ATOM     11  C   UNL     1      17.610 -60.170  -2.622  1.00  0.00     0.000 C 
BRANCH  11  12
ATOM     12  C   UNL     1      18.976 -59.659  -3.108  1.00  0.00    -0.000 C 
BRANCH  12  13
ATOM     13  C   UNL     1      19.125 -58.135  -2.957  1.00  0.00    -0.000 C 
BRANCH  13  14
ATOM     14  C   UNL     1      18.831 -57.643  -1.528  1.00  0.00    -0.000 C 
BRANCH  14  15
ATOM     15  C   UNL     1      17.798 -56.504  -1.427  1.00  0.00    -0.000 C 
BRANCH  15  16
ATOM     16  C   UNL     1      16.982 -56.244  -2.707  1.00  0.00    -0.000 C 
BRANCH  16  17
ATOM     17  C   UNL     1      17.368 -54.942  -3.440  1.00  0.00    -0.003 C 
ATOM     18  C   UNL     1      17.557 -55.144  -4.944  1.00  0.00     0.004 C 
ENDBRANCH  16  17
ENDBRANCH  15  16
ENDBRANCH  14  15
ENDBRANCH  13  14
ENDBRANCH  12  13
ENDBRANCH  11  12
ENDBRANCH   1  11
TORSDOF 14
ENDMDL
MODEL 6
REMARK VINA RESULT:    12.572      2.793      5.119
REMARK INTER + INTRA:          21.573
REMARK INTER:                  22.347
REMARK INTRA:                  -0.774
REMARK UNBOUND:                -1.288
REMARK SMILES CCCCCCCCCCCCCCCC(=O)[O-]
REMARK SMILES IDX 9 1 10 2 11 3 12 4 13 5 14 6 15 7 16 8 17 9 18 10 8 11 7 12
REMARK SMILES IDX 6 13 5 14 4 15 3 16 2 17 1 18
REMARK H PARENT
REMARK Flexibility Score: inf
ROOT
ATOM      1  C   UNL     1      17.835 -60.295  -3.156  1.00  0.00     0.000 C 
ENDROOT
BRANCH   1   2
ATOM      2  C   UNL     1      16.621 -59.373  -2.959  1.00  0.00     0.000 C 
BRANCH   2   3
ATOM      3  C   UNL     1      15.453 -59.721  -3.895  1.00  0.00     0.000 C 
BRANCH   3   4
ATOM      4  C   UNL     1      14.823 -58.476  -4.545  1.00  0.00     0.000 C 
BRANCH   4   5
ATOM      5  C   UNL     1      13.754 -57.827  -3.639  1.00  0.00     0.000 C 
BRANCH   5   6
ATOM      6  C   UNL     1      12.721 -56.988  -4.411  1.00  0.00     0.006 C 
BRANCH   6   7
ATOM      7  C   UNL     1      11.477 -56.659  -3.579  1.00  0.00     0.053 C 
BRANCH   7   8
ATOM      8  C   UNL     1      11.368 -57.589  -2.412  1.00  0.00     0.041 C 
ATOM      9  O   UNL     1      10.948 -58.765  -2.574  1.00  0.00    -0.550 OA
ATOM     10  O   UNL     1      11.683 -57.141  -1.135  1.00  0.00    -0.550 OA
ENDBRANCH   7   8
ENDBRANCH   6   7
ENDBRANCH   5   6
ENDBRANCH   4   5
ENDBRANCH   3   4
ENDBRANCH   2   3
ENDBRANCH   1   2
BRANCH   1  11
ATOM     11  C   UNL     1      19.125 -59.610  -2.681  1.00  0.00     0.000 C 
BRANCH  11  12
ATOM     12  C   UNL     1      19.103 -58.087  -2.887  1.00  0.00    -0.000 C 
BRANCH  12  13
ATOM     13  C   UNL     1      19.062 -57.311  -1.559  1.00  0.00    -0.000 C 
BRANCH  13  14
ATOM     14  C   UNL     1      17.630 -56.957  -1.117  1.00  0.00    -0.000 C 
BRANCH  14  15
ATOM     15  C   UNL     1      16.768 -56.260  -2.187  1.00  0.00    -0.000 C 
BRANCH  15  16
ATOM     16  C   UNL     1      17.311 -54.908  -2.686  1.00  0.00    -0.000 C 
BRANCH  16  17
ATOM     17  C   UNL     1      17.049 -54.645  -4.184  1.00  0.00    -0.003 C 
ATOM     18  C   UNL     1      17.999 -55.423  -5.095  1.00  0.00     0.004 C 
ENDBRANCH  16  17
ENDBRANCH  15  16
ENDBRANCH  14  15
ENDBRANCH  13  14
ENDBRANCH  12  13
ENDBRANCH  11  12
ENDBRANCH   1  11
TORSDOF 14
ENDMDL
MODEL 7
REMARK VINA RESULT:    13.499      2.570      4.896
REMARK INTER + INTRA:          23.259
REMARK INTER:                  24.567
REMARK INTRA:                  -1.308
REMARK UNBOUND:                -1.288
REMARK SMILES CCCCCCCCCCCCCCCC(=O)[O-]
REMARK SMILES IDX 9 1 10 2 11 3 12 4 13 5 14 6 15 7 16 8 17 9 18 10 8 11 7 12
REMARK SMILES IDX 6 13 5 14 4 15 3 16 2 17 1 18
REMARK H PARENT
REMARK Flexibility Score: inf
ROOT
ATOM      1  C   UNL     1      19.125 -58.829  -2.665  1.00  0.00     0.000 C 
ENDROOT
BRANCH   1   2
ATOM      2  C   UNL     1      18.079 -59.664  -3.419  1.00  0.00     0.000 C 
BRANCH   2   3
ATOM      3  C   UNL     1      16.966 -60.193  -2.499  1.00  0.00     0.000 C 
BRANCH   3   4
ATOM      4  C   UNL     1      15.632 -59.452  -2.697  1.00  0.00     0.000 C 
BRANCH   4   5
ATOM      5  C   UNL     1      15.427 -59.005  -4.161  1.00  0.00     0.000 C 
BRANCH   5   6
ATOM      6  C   UNL     1      14.029 -58.426  -4.438  1.00  0.00     0.006 C 
BRANCH   6   7
ATOM      7  C   UNL     1      13.567 -57.440  -3.360  1.00  0.00     0.053 C 
BRANCH   7   8
ATOM      8  C   UNL     1      12.076 -57.315  -3.370  1.00  0.00     0.041 C 
ATOM      9  O   UNL     1      11.525 -56.336  -3.940  1.00  0.00    -0.550 OA
ATOM     10  O   UNL     1      11.295 -58.253  -2.707  1.00  0.00    -0.550 OA
ENDBRANCH   7   8
ENDBRANCH   6   7
ENDBRANCH   5   6
ENDBRANCH   4   5
ENDBRANCH   3   4
ENDBRANCH   2   3
ENDBRANCH   1   2
BRANCH   1  11
ATOM     11  C   UNL     1      18.729 -57.345  -2.643  1.00  0.00     0.000 C 
BRANCH  11  12
ATOM     12  C   UNL     1      18.496 -56.769  -4.050  1.00  0.00    -0.000 C 
BRANCH  12  13
ATOM     13  C   UNL     1      17.506 -55.592  -4.050  1.00  0.00    -0.000 C 
BRANCH  13  14
ATOM     14  C   UNL     1      17.209 -55.060  -2.636  1.00  0.00    -0.000 C 
BRANCH  14  15
ATOM     15  C   UNL     1      15.964 -55.664  -1.958  1.00  0.00    -0.000 C 
BRANCH  15  16
ATOM     16  C   UNL     1      16.139 -56.027  -0.472  1.00  0.00    -0.000 C 
BRANCH  16  17
ATOM     17  C   UNL     1      16.986 -57.296  -0.235  1.00  0.00    -0.003 C 
ATOM     18  C   UNL     1      18.216 -57.031   0.632  1.00  0.00     0.004 C 
ENDBRANCH  16  17
ENDBRANCH  15  16
ENDBRANCH  14  15
ENDBRANCH  13  14
ENDBRANCH  12  13
ENDBRANCH  11  12
ENDBRANCH   1  11
TORSDOF 14
ENDMDL
