MODEL 1
REMARK VINA RESULT:    -3.058      0.000      0.000
REMARK INTER + INTRA:          -4.696
REMARK INTER:                  -4.667
REMARK INTRA:                  -0.029
REMARK UNBOUND:                -0.029
REMARK SMILES CCCCCCCCCCC(=O)[O-]
REMARK SMILES IDX 7 1 8 2 9 3 10 4 11 5 12 6 13 7 6 8 5 9 4 10 3 11 2 12 1 13
REMARK H PARENT
REMARK Flexibility Score: inf
ROOT
ATOM      1  C   UNL     1       9.652  21.712  56.016  1.00  0.00     0.000 C 
ENDROOT
BRANCH   1   2
ATOM      2  C   UNL     1      11.157  21.414  56.123  1.00  0.00     0.000 C 
BRANCH   2   3
ATOM      3  C   UNL     1      11.547  20.095  55.438  1.00  0.00     0.006 C 
BRANCH   3   4
ATOM      4  C   UNL     1      13.065  19.936  55.277  1.00  0.00     0.053 C 
BRANCH   4   5
ATOM      5  C   UNL     1      13.723  21.276  55.187  1.00  0.00     0.041 C 
ATOM      6  O   UNL     1      13.347  22.110  54.322  1.00  0.00    -0.550 OA
ATOM      7  O   UNL     1      14.785  21.586  56.027  1.00  0.00    -0.550 OA
ENDBRANCH   4   5
ENDBRANCH   3   4
ENDBRANCH   2   3
ENDBRANCH   1   2
BRANCH   1   8
ATOM      8  C   UNL     1       8.801  20.439  55.857  1.00  0.00     0.000 C 
BRANCH   8   9
ATOM      9  C   UNL     1       7.287  20.631  56.080  1.00  0.00    -0.000 C 
BRANCH   9  10
ATOM     10  C   UNL     1       6.673  21.867  55.393  1.00  0.00    -0.000 C 
BRANCH  10  11
ATOM     11  C   UNL     1       5.192  22.125  55.726  1.00  0.00    -0.000 C 
BRANCH  11  12
ATOM     12  C   UNL     1       4.268  21.930  54.515  1.00  0.00    -0.003 C 
ATOM     13  C   UNL     1       3.931  20.455  54.313  1.00  0.00     0.004 C 
ENDBRANCH  11  12
ENDBRANCH  10  11
ENDBRANCH   9  10
ENDBRANCH   8   9
ENDBRANCH   1   8
TORSDOF 9
ENDMDL
MODEL 2
REMARK VINA RESULT:    -2.804      4.066      7.755
REMARK INTER + INTRA:          -4.308
REMARK INTER:                  -4.059
REMARK INTRA:                  -0.249
REMARK UNBOUND:                -0.029
REMARK SMILES CCCCCCCCCCC(=O)[O-]
REMARK SMILES IDX 7 1 8 2 9 3 10 4 11 5 12 6 13 7 6 8 5 9 4 10 3 11 2 12 1 13
REMARK H PARENT
REMARK Flexibility Score: inf
ROOT
ATOM      1  C   UNL     1       9.313  20.277  55.517  1.00  0.00     0.000 C 
ENDROOT
BRANCH   1   2
ATOM      2  C   UNL     1       8.164  21.221  55.912  1.00  0.00     0.000 C 
BRANCH   2   3
ATOM      3  C   UNL     1       6.799  20.733  55.404  1.00  0.00     0.006 C 
BRANCH   3   4
ATOM      4  C   UNL     1       5.755  21.856  55.336  1.00  0.00     0.053 C 
BRANCH   4   5
ATOM      5  C   UNL     1       4.554  21.405  54.567  1.00  0.00     0.041 C 
ATOM      6  O   UNL     1       4.123  22.092  53.603  1.00  0.00    -0.550 OA
ATOM      7  O   UNL     1       3.880  20.251  54.945  1.00  0.00    -0.550 OA
ENDBRANCH   4   5
ENDBRANCH   3   4
ENDBRANCH   2   3
ENDBRANCH   1   2
BRANCH   1   8
ATOM      8  C   UNL     1      10.665  20.694  56.125  1.00  0.00     0.000 C 
BRANCH   8   9
ATOM      9  C   UNL     1      11.903  20.326  55.282  1.00  0.00    -0.000 C 
BRANCH   9  10
ATOM     10  C   UNL     1      12.507  21.483  54.462  1.00  0.00    -0.000 C 
BRANCH  10  11
ATOM     11  C   UNL     1      13.765  22.124  55.076  1.00  0.00    -0.000 C 
BRANCH  11  12
ATOM     12  C   UNL     1      14.731  21.089  55.669  1.00  0.00    -0.003 C 
ATOM     13  C   UNL     1      16.095  21.713  55.958  1.00  0.00     0.004 C 
ENDBRANCH  11  12
ENDBRANCH  10  11
ENDBRANCH   9  10
ENDBRANCH   8   9
ENDBRANCH   1   8
TORSDOF 9
ENDMDL
MODEL 3
REMARK VINA RESULT:    -0.747      4.242      7.704
REMARK INTER + INTRA:          -1.170
REMARK INTER:                  -0.894
REMARK INTRA:                  -0.276
REMARK UNBOUND:                -0.029
REMARK SMILES CCCCCCCCCCC(=O)[O-]
REMARK SMILES IDX 7 1 8 2 9 3 10 4 11 5 12 6 13 7 6 8 5 9 4 10 3 11 2 12 1 13
REMARK H PARENT
REMARK Flexibility Score: inf
ROOT
ATOM      1  C   UNL     1       7.428  21.037  55.098  1.00  0.00     0.000 C 
ENDROOT
BRANCH   1   2
ATOM      2  C   UNL     1       6.339  22.124  55.134  1.00  0.00     0.000 C 
BRANCH   2   3
ATOM      3  C   UNL     1       5.201  21.786  56.110  1.00  0.00     0.006 C 
BRANCH   3   4
ATOM      4  C   UNL     1       3.814  21.884  55.460  1.00  0.00     0.053 C 
BRANCH   4   5
ATOM      5  C   UNL     1       3.642  20.811  54.433  1.00  0.00     0.041 C 
ATOM      6  O   UNL     1       3.684  21.095  53.207  1.00  0.00    -0.550 OA
ATOM      7  O   UNL     1       3.387  19.505  54.828  1.00  0.00    -0.550 OA
ENDBRANCH   4   5
ENDBRANCH   3   4
ENDBRANCH   2   3
ENDBRANCH   1   2
BRANCH   1   8
ATOM      8  C   UNL     1       8.596  21.330  56.058  1.00  0.00     0.000 C 
BRANCH   8   9
ATOM      9  C   UNL     1       9.680  20.235  56.124  1.00  0.00    -0.000 C 
BRANCH   9  10
ATOM     10  C   UNL     1      11.131  20.736  55.988  1.00  0.00    -0.000 C 
BRANCH  10  11
ATOM     11  C   UNL     1      12.164  19.646  55.650  1.00  0.00    -0.000 C 
BRANCH  11  12
ATOM     12  C   UNL     1      13.370  20.191  54.870  1.00  0.00    -0.003 C 
ATOM     13  C   UNL     1      14.047  21.329  55.630  1.00  0.00     0.004 C 
ENDBRANCH  11  12
ENDBRANCH  10  11
ENDBRANCH   9  10
ENDBRANCH   8   9
ENDBRANCH   1   8
TORSDOF 9
ENDMDL
MODEL 4
REMARK VINA RESULT:    -0.310      3.530      6.040
REMARK INTER + INTRA:          -0.503
REMARK INTER:                  -0.183
REMARK INTRA:                  -0.319
REMARK UNBOUND:                -0.029
REMARK SMILES CCCCCCCCCCC(=O)[O-]
REMARK SMILES IDX 7 1 8 2 9 3 10 4 11 5 12 6 13 7 6 8 5 9 4 10 3 11 2 12 1 13
REMARK H PARENT
REMARK Flexibility Score: inf
ROOT
ATOM      1  C   UNL     1      15.613  21.389  55.134  1.00  0.00     0.000 C 
ENDROOT
BRANCH   1   2
ATOM      2  C   UNL     1      16.869  21.925  55.843  1.00  0.00     0.000 C 
BRANCH   2   3
ATOM      3  C   UNL     1      18.160  21.607  55.074  1.00  0.00     0.006 C 
BRANCH   3   4
ATOM      4  C   UNL     1      18.134  22.124  53.630  1.00  0.00     0.053 C 
BRANCH   4   5
ATOM      5  C   UNL     1      18.784  21.139  52.711  1.00  0.00     0.041 C 
ATOM      6  O   UNL     1      19.123  20.004  53.136  1.00  0.00    -0.550 OA
ATOM      7  O   UNL     1      19.059  21.493  51.396  1.00  0.00    -0.550 OA
ENDBRANCH   4   5
ENDBRANCH   3   4
ENDBRANCH   2   3
ENDBRANCH   1   2
BRANCH   1   8
ATOM      8  C   UNL     1      14.516  20.942  56.119  1.00  0.00     0.000 C 
BRANCH   8   9
ATOM      9  C   UNL     1      13.652  19.757  55.642  1.00  0.00    -0.000 C 
BRANCH   9  10
ATOM     10  C   UNL     1      12.158  19.842  56.012  1.00  0.00    -0.000 C 
BRANCH  10  11
ATOM     11  C   UNL     1      11.369  20.936  55.270  1.00  0.00    -0.000 C 
BRANCH  11  12
ATOM     12  C   UNL     1      10.223  21.517  56.111  1.00  0.00    -0.003 C 
ATOM     13  C   UNL     1       8.952  20.687  55.954  1.00  0.00     0.004 C 
ENDBRANCH  11  12
ENDBRANCH  10  11
ENDBRANCH   9  10
ENDBRANCH   8   9
ENDBRANCH   1   8
TORSDOF 9
ENDMDL
