MODEL 1
REMARK VINA RESULT:    -4.886      0.000      0.000
REMARK INTER + INTRA:         -10.228
REMARK INTER:                  -8.884
REMARK INTRA:                  -1.344
REMARK UNBOUND:                -1.344
REMARK SMILES CCCCCCCCCCCCCCCC(=O)[O-]
REMARK SMILES IDX 9 1 10 2 11 3 12 4 13 5 14 6 15 7 16 8 17 9 18 10 8 11 7 12
REMARK SMILES IDX 6 13 5 14 4 15 3 16 2 17 1 18
REMARK H PARENT
REMARK Flexibility Score: inf
ROOT
ATOM      1  C   UNL     1     -16.855  41.274  11.656  1.00  0.00     0.000 C 
ENDROOT
BRANCH   1   2
ATOM      2  C   UNL     1     -15.664  40.364  11.992  1.00  0.00     0.000 C 
BRANCH   2   3
ATOM      3  C   UNL     1     -16.144  38.993  12.484  1.00  0.00     0.000 C 
BRANCH   3   4
ATOM      4  C   UNL     1     -15.041  38.270  13.266  1.00  0.00     0.000 C 
BRANCH   4   5
ATOM      5  C   UNL     1     -14.948  36.797  12.851  1.00  0.00     0.000 C 
BRANCH   5   6
ATOM      6  C   UNL     1     -15.917  36.486  11.703  1.00  0.00     0.006 C 
BRANCH   6   7
ATOM      7  C   UNL     1     -16.732  35.224  12.000  1.00  0.00     0.053 C 
BRANCH   7   8
ATOM      8  C   UNL     1     -17.548  35.404  13.240  1.00  0.00     0.041 C 
ATOM      9  O   UNL     1     -18.312  36.399  13.355  1.00  0.00    -0.550 OA
ATOM     10  O   UNL     1     -17.430  34.502  14.290  1.00  0.00    -0.550 OA
ENDBRANCH   7   8
ENDBRANCH   6   7
ENDBRANCH   5   6
ENDBRANCH   4   5
ENDBRANCH   3   4
ENDBRANCH   2   3
ENDBRANCH   1   2
BRANCH   1  11
ATOM     11  C   UNL     1     -17.314  41.137  10.196  1.00  0.00     0.000 C 
BRANCH  11  12
ATOM     12  C   UNL     1     -16.283  40.403   9.321  1.00  0.00    -0.000 C 
BRANCH  12  13
ATOM     13  C   UNL     1     -15.535  41.346   8.361  1.00  0.00    -0.000 C 
BRANCH  13  14
ATOM     14  C   UNL     1     -16.351  41.819   7.139  1.00  0.00    -0.000 C 
BRANCH  14  15
ATOM     15  C   UNL     1     -16.314  43.337   6.878  1.00  0.00    -0.000 C 
BRANCH  15  16
ATOM     16  C   UNL     1     -16.742  44.214   8.072  1.00  0.00    -0.000 C 
BRANCH  16  17
ATOM     17  C   UNL     1     -15.606  45.024   8.720  1.00  0.00    -0.003 C 
ATOM     18  C   UNL     1     -15.470  44.766  10.220  1.00  0.00     0.004 C 
ENDBRANCH  16  17
ENDBRANCH  15  16
ENDBRANCH  14  15
ENDBRANCH  13  14
ENDBRANCH  12  13
ENDBRANCH  11  12
ENDBRANCH   1  11
TORSDOF 14
ENDMDL
MODEL 2
REMARK VINA RESULT:    -4.815      5.547      8.270
REMARK INTER + INTRA:         -10.099
REMARK INTER:                  -9.101
REMARK INTRA:                  -0.998
REMARK UNBOUND:                -1.344
REMARK SMILES CCCCCCCCCCCCCCCC(=O)[O-]
REMARK SMILES IDX 9 1 10 2 11 3 12 4 13 5 14 6 15 7 16 8 17 9 18 10 8 11 7 12
REMARK SMILES IDX 6 13 5 14 4 15 3 16 2 17 1 18
REMARK H PARENT
REMARK Flexibility Score: inf
ROOT
ATOM      1  C   UNL     1     -16.650  37.357  16.589  1.00  0.00     0.000 C 
ENDROOT
BRANCH   1   2
ATOM      2  C   UNL     1     -15.918  36.060  16.211  1.00  0.00     0.000 C 
BRANCH   2   3
ATOM      3  C   UNL     1     -14.616  36.365  15.460  1.00  0.00     0.000 C 
BRANCH   3   4
ATOM      4  C   UNL     1     -14.862  37.335  14.299  1.00  0.00     0.000 C 
BRANCH   4   5
ATOM      5  C   UNL     1     -14.612  36.652  12.950  1.00  0.00     0.000 C 
BRANCH   5   6
ATOM      6  C   UNL     1     -15.894  36.607  12.109  1.00  0.00     0.006 C 
BRANCH   6   7
ATOM      7  C   UNL     1     -16.846  35.520  12.616  1.00  0.00     0.053 C 
BRANCH   7   8
ATOM      8  C   UNL     1     -18.033  36.133  13.287  1.00  0.00     0.041 C 
ATOM      9  O   UNL     1     -18.846  35.409  13.920  1.00  0.00    -0.550 OA
ATOM     10  O   UNL     1     -18.269  37.497  13.176  1.00  0.00    -0.550 OA
ENDBRANCH   7   8
ENDBRANCH   6   7
ENDBRANCH   5   6
ENDBRANCH   4   5
ENDBRANCH   3   4
ENDBRANCH   2   3
ENDBRANCH   1   2
BRANCH   1  11
ATOM     11  C   UNL     1     -16.695  37.592  18.107  1.00  0.00     0.000 C 
BRANCH  11  12
ATOM     12  C   UNL     1     -17.023  39.051  18.468  1.00  0.00    -0.000 C 
BRANCH  12  13
ATOM     13  C   UNL     1     -18.156  39.171  19.503  1.00  0.00    -0.000 C 
BRANCH  13  14
ATOM     14  C   UNL     1     -19.027  40.438  19.377  1.00  0.00    -0.000 C 
BRANCH  14  15
ATOM     15  C   UNL     1     -18.311  41.759  19.720  1.00  0.00    -0.000 C 
BRANCH  15  16
ATOM     16  C   UNL     1     -17.878  41.903  21.193  1.00  0.00    -0.000 C 
BRANCH  16  17
ATOM     17  C   UNL     1     -16.491  42.534  21.400  1.00  0.00    -0.003 C 
ATOM     18  C   UNL     1     -16.535  43.808  22.244  1.00  0.00     0.004 C 
ENDBRANCH  16  17
ENDBRANCH  15  16
ENDBRANCH  14  15
ENDBRANCH  13  14
ENDBRANCH  12  13
ENDBRANCH  11  12
ENDBRANCH   1  11
TORSDOF 14
ENDMDL
MODEL 3
REMARK VINA RESULT:    -4.804      1.070      1.830
REMARK INTER + INTRA:         -10.079
REMARK INTER:                  -8.571
REMARK INTRA:                  -1.509
REMARK UNBOUND:                -1.344
REMARK SMILES CCCCCCCCCCCCCCCC(=O)[O-]
REMARK SMILES IDX 9 1 10 2 11 3 12 4 13 5 14 6 15 7 16 8 17 9 18 10 8 11 7 12
REMARK SMILES IDX 6 13 5 14 4 15 3 16 2 17 1 18
REMARK H PARENT
REMARK Flexibility Score: inf
ROOT
ATOM      1  C   UNL     1     -17.267  41.282   9.988  1.00  0.00     0.000 C 
ENDROOT
BRANCH   1   2
ATOM      2  C   UNL     1     -17.200  41.083  11.509  1.00  0.00     0.000 C 
BRANCH   2   3
ATOM      3  C   UNL     1     -15.928  40.322  11.905  1.00  0.00     0.000 C 
BRANCH   3   4
ATOM      4  C   UNL     1     -16.262  38.919  12.425  1.00  0.00     0.000 C 
BRANCH   4   5
ATOM      5  C   UNL     1     -17.688  38.866  12.986  1.00  0.00     0.000 C 
BRANCH   5   6
ATOM      6  C   UNL     1     -18.102  37.424  13.304  1.00  0.00     0.006 C 
BRANCH   6   7
ATOM      7  C   UNL     1     -16.919  36.465  13.138  1.00  0.00     0.053 C 
BRANCH   7   8
ATOM      8  C   UNL     1     -17.102  35.254  13.997  1.00  0.00     0.041 C 
ATOM      9  O   UNL     1     -16.474  35.149  15.084  1.00  0.00    -0.550 OA
ATOM     10  O   UNL     1     -17.928  34.220  13.576  1.00  0.00    -0.550 OA
ENDBRANCH   7   8
ENDBRANCH   6   7
ENDBRANCH   5   6
ENDBRANCH   4   5
ENDBRANCH   3   4
ENDBRANCH   2   3
ENDBRANCH   1   2
BRANCH   1  11
ATOM     11  C   UNL     1     -16.253  40.412   9.229  1.00  0.00     0.000 C 
BRANCH  11  12
ATOM     12  C   UNL     1     -15.392  41.229   8.249  1.00  0.00    -0.000 C 
BRANCH  12  13
ATOM     13  C   UNL     1     -16.213  41.838   7.098  1.00  0.00    -0.000 C 
BRANCH  13  14
ATOM     14  C   UNL     1     -16.008  43.351   6.875  1.00  0.00    -0.000 C 
BRANCH  14  15
ATOM     15  C   UNL     1     -16.771  44.263   7.855  1.00  0.00    -0.000 C 
BRANCH  15  16
ATOM     16  C   UNL     1     -15.879  45.136   8.762  1.00  0.00    -0.000 C 
BRANCH  16  17
ATOM     17  C   UNL     1     -14.926  44.352   9.679  1.00  0.00    -0.003 C 
ATOM     18  C   UNL     1     -15.396  44.311  11.133  1.00  0.00     0.004 C 
ENDBRANCH  16  17
ENDBRANCH  15  16
ENDBRANCH  14  15
ENDBRANCH  13  14
ENDBRANCH  12  13
ENDBRANCH  11  12
ENDBRANCH   1  11
TORSDOF 14
ENDMDL
MODEL 4
REMARK VINA RESULT:    -4.792      6.195      8.757
REMARK INTER + INTRA:         -10.058
REMARK INTER:                  -8.887
REMARK INTRA:                  -1.171
REMARK UNBOUND:                -1.344
REMARK SMILES CCCCCCCCCCCCCCCC(=O)[O-]
REMARK SMILES IDX 9 1 10 2 11 3 12 4 13 5 14 6 15 7 16 8 17 9 18 10 8 11 7 12
REMARK SMILES IDX 6 13 5 14 4 15 3 16 2 17 1 18
REMARK H PARENT
REMARK Flexibility Score: inf
ROOT
ATOM      1  C   UNL     1     -16.620  37.337  16.979  1.00  0.00     0.000 C 
ENDROOT
BRANCH   1   2
ATOM      2  C   UNL     1     -16.968  37.718  18.426  1.00  0.00     0.000 C 
BRANCH   2   3
ATOM      3  C   UNL     1     -17.172  39.232  18.559  1.00  0.00     0.000 C 
BRANCH   3   4
ATOM      4  C   UNL     1     -18.459  39.551  19.329  1.00  0.00     0.000 C 
BRANCH   4   5
ATOM      5  C   UNL     1     -18.727  41.060  19.350  1.00  0.00     0.000 C 
BRANCH   5   6
ATOM      6  C   UNL     1     -18.566  41.628  20.766  1.00  0.00     0.006 C 
BRANCH   6   7
ATOM      7  C   UNL     1     -17.129  42.101  21.008  1.00  0.00     0.053 C 
BRANCH   7   8
ATOM      8  C   UNL     1     -16.488  41.298  22.094  1.00  0.00     0.041 C 
ATOM      9  O   UNL     1     -15.394  41.670  22.594  1.00  0.00    -0.550 OA
ATOM     10  O   UNL     1     -17.075  40.115  22.525  1.00  0.00    -0.550 OA
ENDBRANCH   7   8
ENDBRANCH   6   7
ENDBRANCH   5   6
ENDBRANCH   4   5
ENDBRANCH   3   4
ENDBRANCH   2   3
ENDBRANCH   1   2
BRANCH   1  11
ATOM     11  C   UNL     1     -16.023  35.925  16.864  1.00  0.00     0.000 C 
BRANCH  11  12
ATOM     12  C   UNL     1     -16.015  35.405  15.416  1.00  0.00    -0.000 C 
BRANCH  12  13
ATOM     13  C   UNL     1     -16.997  36.162  14.504  1.00  0.00    -0.000 C 
BRANCH  13  14
ATOM     14  C   UNL     1     -16.732  36.016  12.991  1.00  0.00    -0.000 C 
BRANCH  14  15
ATOM     15  C   UNL     1     -16.063  37.234  12.325  1.00  0.00    -0.000 C 
BRANCH  15  16
ATOM     16  C   UNL     1     -15.542  38.307  13.302  1.00  0.00    -0.000 C 
BRANCH  16  17
ATOM     17  C   UNL     1     -14.010  38.436  13.363  1.00  0.00    -0.003 C 
ATOM     18  C   UNL     1     -13.316  37.127  13.740  1.00  0.00     0.004 C 
ENDBRANCH  16  17
ENDBRANCH  15  16
ENDBRANCH  14  15
ENDBRANCH  13  14
ENDBRANCH  12  13
ENDBRANCH  11  12
ENDBRANCH   1  11
TORSDOF 14
ENDMDL
MODEL 5
REMARK VINA RESULT:    -4.789      7.448     10.217
REMARK INTER + INTRA:         -10.052
REMARK INTER:                  -9.379
REMARK INTRA:                  -0.673
REMARK UNBOUND:                -1.344
REMARK SMILES CCCCCCCCCCCCCCCC(=O)[O-]
REMARK SMILES IDX 9 1 10 2 11 3 12 4 13 5 14 6 15 7 16 8 17 9 18 10 8 11 7 12
REMARK SMILES IDX 6 13 5 14 4 15 3 16 2 17 1 18
REMARK H PARENT
REMARK Flexibility Score: inf
ROOT
ATOM      1  C   UNL     1     -16.939  37.817  18.228  1.00  0.00     0.000 C 
ENDROOT
BRANCH   1   2
ATOM      2  C   UNL     1     -17.286  39.265  18.604  1.00  0.00     0.000 C 
BRANCH   2   3
ATOM      3  C   UNL     1     -17.675  39.368  20.084  1.00  0.00     0.000 C 
BRANCH   3   4
ATOM      4  C   UNL     1     -18.189  40.772  20.424  1.00  0.00     0.000 C 
BRANCH   4   5
ATOM      5  C   UNL     1     -17.338  41.418  21.523  1.00  0.00     0.000 C 
BRANCH   5   6
ATOM      6  C   UNL     1     -17.349  42.946  21.402  1.00  0.00     0.006 C 
BRANCH   6   7
ATOM      7  C   UNL     1     -16.253  43.573  22.269  1.00  0.00     0.053 C 
BRANCH   7   8
ATOM      8  C   UNL     1     -16.612  44.978  22.634  1.00  0.00     0.041 C 
ATOM      9  O   UNL     1     -17.012  45.247  23.798  1.00  0.00    -0.550 OA
ATOM     10  O   UNL     1     -16.550  45.984  21.679  1.00  0.00    -0.550 OA
ENDBRANCH   7   8
ENDBRANCH   6   7
ENDBRANCH   5   6
ENDBRANCH   4   5
ENDBRANCH   3   4
ENDBRANCH   2   3
ENDBRANCH   1   2
BRANCH   1  11
ATOM     11  C   UNL     1     -16.570  37.661  16.744  1.00  0.00     0.000 C 
BRANCH  11  12
ATOM     12  C   UNL     1     -16.013  36.264  16.419  1.00  0.00    -0.000 C 
BRANCH  12  13
ATOM     13  C   UNL     1     -14.844  36.306  15.419  1.00  0.00    -0.000 C 
BRANCH  13  14
ATOM     14  C   UNL     1     -15.091  37.159  14.157  1.00  0.00    -0.000 C 
BRANCH  14  15
ATOM     15  C   UNL     1     -15.015  36.389  12.824  1.00  0.00    -0.000 C 
BRANCH  15  16
ATOM     16  C   UNL     1     -16.357  36.236  12.081  1.00  0.00    -0.000 C 
BRANCH  16  17
ATOM     17  C   UNL     1     -16.949  34.817  12.100  1.00  0.00    -0.003 C 
ATOM     18  C   UNL     1     -17.452  34.399  13.482  1.00  0.00     0.004 C 
ENDBRANCH  16  17
ENDBRANCH  15  16
ENDBRANCH  14  15
ENDBRANCH  13  14
ENDBRANCH  12  13
ENDBRANCH  11  12
ENDBRANCH   1  11
TORSDOF 14
ENDMDL
MODEL 6
REMARK VINA RESULT:    -4.753      6.222      8.829
REMARK INTER + INTRA:          -9.987
REMARK INTER:                  -9.255
REMARK INTRA:                  -0.731
REMARK UNBOUND:                -1.344
REMARK SMILES CCCCCCCCCCCCCCCC(=O)[O-]
REMARK SMILES IDX 9 1 10 2 11 3 12 4 13 5 14 6 15 7 16 8 17 9 18 10 8 11 7 12
REMARK SMILES IDX 6 13 5 14 4 15 3 16 2 17 1 18
REMARK H PARENT
REMARK Flexibility Score: inf
ROOT
ATOM      1  C   UNL     1     -16.798  37.560  18.152  1.00  0.00     0.000 C 
ENDROOT
BRANCH   1   2
ATOM      2  C   UNL     1     -16.638  37.365  16.637  1.00  0.00     0.000 C 
BRANCH   2   3
ATOM      3  C   UNL     1     -15.931  36.040  16.328  1.00  0.00     0.000 C 
BRANCH   3   4
ATOM      4  C   UNL     1     -15.451  35.996  14.872  1.00  0.00     0.000 C 
BRANCH   4   5
ATOM      5  C   UNL     1     -14.276  36.955  14.652  1.00  0.00     0.000 C 
BRANCH   5   6
ATOM      6  C   UNL     1     -14.646  38.060  13.654  1.00  0.00     0.006 C 
BRANCH   6   7
ATOM      7  C   UNL     1     -15.898  37.683  12.857  1.00  0.00     0.053 C 
BRANCH   7   8
ATOM      8  C   UNL     1     -16.744  38.890  12.606  1.00  0.00     0.041 C 
ATOM      9  O   UNL     1     -17.928  38.934  13.035  1.00  0.00    -0.550 OA
ATOM     10  O   UNL     1     -16.244  39.948  11.858  1.00  0.00    -0.550 OA
ENDBRANCH   7   8
ENDBRANCH   6   7
ENDBRANCH   5   6
ENDBRANCH   4   5
ENDBRANCH   3   4
ENDBRANCH   2   3
ENDBRANCH   1   2
BRANCH   1  11
ATOM     11  C   UNL     1     -16.982  39.035  18.545  1.00  0.00     0.000 C 
BRANCH  11  12
ATOM     12  C   UNL     1     -18.239  39.264  19.402  1.00  0.00    -0.000 C 
BRANCH  12  13
ATOM     13  C   UNL     1     -18.823  40.679  19.240  1.00  0.00    -0.000 C 
BRANCH  13  14
ATOM     14  C   UNL     1     -18.781  41.555  20.509  1.00  0.00    -0.000 C 
BRANCH  14  15
ATOM     15  C   UNL     1     -17.380  42.056  20.911  1.00  0.00    -0.000 C 
BRANCH  15  16
ATOM     16  C   UNL     1     -17.327  43.511  21.417  1.00  0.00    -0.000 C 
BRANCH  16  17
ATOM     17  C   UNL     1     -16.085  43.860  22.254  1.00  0.00    -0.003 C 
ATOM     18  C   UNL     1     -15.043  42.742  22.270  1.00  0.00     0.004 C 
ENDBRANCH  16  17
ENDBRANCH  15  16
ENDBRANCH  14  15
ENDBRANCH  13  14
ENDBRANCH  12  13
ENDBRANCH  11  12
ENDBRANCH   1  11
TORSDOF 14
ENDMDL
MODEL 7
REMARK VINA RESULT:    -4.727      3.339      7.479
REMARK INTER + INTRA:          -9.939
REMARK INTER:                  -8.227
REMARK INTRA:                  -1.712
REMARK UNBOUND:                -1.344
REMARK SMILES CCCCCCCCCCCCCCCC(=O)[O-]
REMARK SMILES IDX 9 1 10 2 11 3 12 4 13 5 14 6 15 7 16 8 17 9 18 10 8 11 7 12
REMARK SMILES IDX 6 13 5 14 4 15 3 16 2 17 1 18
REMARK H PARENT
REMARK Flexibility Score: inf
ROOT
ATOM      1  C   UNL     1     -12.880  38.297  13.862  1.00  0.00     0.000 C 
ENDROOT
BRANCH   1   2
ATOM      2  C   UNL     1     -13.500  39.538  13.204  1.00  0.00     0.000 C 
BRANCH   2   3
ATOM      3  C   UNL     1     -14.964  39.282  12.824  1.00  0.00     0.000 C 
BRANCH   3   4
ATOM      4  C   UNL     1     -15.512  40.410  11.942  1.00  0.00     0.000 C 
BRANCH   4   5
ATOM      5  C   UNL     1     -16.988  40.174  11.602  1.00  0.00     0.000 C 
BRANCH   5   6
ATOM      6  C   UNL     1     -17.397  40.959  10.350  1.00  0.00     0.006 C 
BRANCH   6   7
ATOM      7  C   UNL     1     -16.400  42.085  10.057  1.00  0.00     0.053 C 
BRANCH   7   8
ATOM      8  C   UNL     1     -15.822  41.931   8.687  1.00  0.00     0.041 C 
ATOM      9  O   UNL     1     -14.610  41.621   8.542  1.00  0.00    -0.550 OA
ATOM     10  O   UNL     1     -16.608  42.176   7.568  1.00  0.00    -0.550 OA
ENDBRANCH   7   8
ENDBRANCH   6   7
ENDBRANCH   5   6
ENDBRANCH   4   5
ENDBRANCH   3   4
ENDBRANCH   2   3
ENDBRANCH   1   2
BRANCH   1  11
ATOM     11  C   UNL     1     -13.759  37.045  13.715  1.00  0.00     0.000 C 
BRANCH  11  12
ATOM     12  C   UNL     1     -13.773  36.181  14.988  1.00  0.00    -0.000 C 
BRANCH  12  13
ATOM     13  C   UNL     1     -15.196  35.877  15.488  1.00  0.00    -0.000 C 
BRANCH  13  14
ATOM     14  C   UNL     1     -16.240  36.978  15.204  1.00  0.00    -0.000 C 
BRANCH  14  15
ATOM     15  C   UNL     1     -17.445  36.530  14.354  1.00  0.00    -0.000 C 
BRANCH  15  16
ATOM     16  C   UNL     1     -17.260  36.679  12.831  1.00  0.00    -0.000 C 
BRANCH  16  17
ATOM     17  C   UNL     1     -16.627  35.463  12.134  1.00  0.00    -0.003 C 
ATOM     18  C   UNL     1     -15.867  35.834  10.860  1.00  0.00     0.004 C 
ENDBRANCH  16  17
ENDBRANCH  15  16
ENDBRANCH  14  15
ENDBRANCH  13  14
ENDBRANCH  12  13
ENDBRANCH  11  12
ENDBRANCH   1  11
TORSDOF 14
ENDMDL
MODEL 8
REMARK VINA RESULT:    -4.686      7.938      9.810
REMARK INTER + INTRA:          -9.865
REMARK INTER:                  -9.182
REMARK INTRA:                  -0.683
REMARK UNBOUND:                -1.344
REMARK SMILES CCCCCCCCCCCCCCCC(=O)[O-]
REMARK SMILES IDX 9 1 10 2 11 3 12 4 13 5 14 6 15 7 16 8 17 9 18 10 8 11 7 12
REMARK SMILES IDX 6 13 5 14 4 15 3 16 2 17 1 18
REMARK H PARENT
REMARK Flexibility Score: inf
ROOT
ATOM      1  C   UNL     1     -18.523  40.400  18.992  1.00  0.00     0.000 C 
ENDROOT
BRANCH   1   2
ATOM      2  C   UNL     1     -17.775  39.089  19.273  1.00  0.00     0.000 C 
BRANCH   2   3
ATOM      3  C   UNL     1     -17.031  38.604  18.022  1.00  0.00     0.000 C 
BRANCH   3   4
ATOM      4  C   UNL     1     -16.668  37.118  18.137  1.00  0.00     0.000 C 
BRANCH   4   5
ATOM      5  C   UNL     1     -16.233  36.553  16.780  1.00  0.00     0.000 C 
BRANCH   5   6
ATOM      6  C   UNL     1     -16.596  37.514  15.641  1.00  0.00     0.006 C 
BRANCH   6   7
ATOM      7  C   UNL     1     -15.737  37.245  14.402  1.00  0.00     0.053 C 
BRANCH   7   8
ATOM      8  C   UNL     1     -16.557  37.367  13.158  1.00  0.00     0.041 C 
ATOM      9  O   UNL     1     -16.107  37.992  12.161  1.00  0.00    -0.550 OA
ATOM     10  O   UNL     1     -17.838  36.831  13.112  1.00  0.00    -0.550 OA
ENDBRANCH   7   8
ENDBRANCH   6   7
ENDBRANCH   5   6
ENDBRANCH   4   5
ENDBRANCH   3   4
ENDBRANCH   2   3
ENDBRANCH   1   2
BRANCH   1  11
ATOM     11  C   UNL     1     -18.461  41.384  20.172  1.00  0.00     0.000 C 
BRANCH  11  12
ATOM     12  C   UNL     1     -17.275  41.103  21.111  1.00  0.00    -0.000 C 
BRANCH  12  13
ATOM     13  C   UNL     1     -16.829  42.349  21.898  1.00  0.00    -0.000 C 
BRANCH  13  14
ATOM     14  C   UNL     1     -17.402  43.687  21.387  1.00  0.00    -0.000 C 
BRANCH  14  15
ATOM     15  C   UNL     1     -16.647  44.944  21.861  1.00  0.00    -0.000 C 
BRANCH  15  16
ATOM     16  C   UNL     1     -16.718  45.214  23.378  1.00  0.00    -0.000 C 
BRANCH  16  17
ATOM     17  C   UNL     1     -16.350  46.647  23.798  1.00  0.00    -0.003 C 
ATOM     18  C   UNL     1     -16.346  47.629  22.626  1.00  0.00     0.004 C 
ENDBRANCH  16  17
ENDBRANCH  15  16
ENDBRANCH  14  15
ENDBRANCH  13  14
ENDBRANCH  12  13
ENDBRANCH  11  12
ENDBRANCH   1  11
TORSDOF 14
ENDMDL
MODEL 9
REMARK VINA RESULT:    -4.601      1.682      2.109
REMARK INTER + INTRA:          -9.711
REMARK INTER:                  -8.467
REMARK INTRA:                  -1.244
REMARK UNBOUND:                -1.344
REMARK SMILES CCCCCCCCCCCCCCCC(=O)[O-]
REMARK SMILES IDX 9 1 10 2 11 3 12 4 13 5 14 6 15 7 16 8 17 9 18 10 8 11 7 12
REMARK SMILES IDX 6 13 5 14 4 15 3 16 2 17 1 18
REMARK H PARENT
REMARK Flexibility Score: inf
ROOT
ATOM      1  C   UNL     1     -17.343  40.725  10.994  1.00  0.00     0.000 C 
ENDROOT
BRANCH   1   2
ATOM      2  C   UNL     1     -16.068  40.303  11.740  1.00  0.00     0.000 C 
BRANCH   2   3
ATOM      3  C   UNL     1     -16.289  38.989  12.500  1.00  0.00     0.000 C 
BRANCH   3   4
ATOM      4  C   UNL     1     -17.756  38.832  12.918  1.00  0.00     0.000 C 
BRANCH   4   5
ATOM      5  C   UNL     1     -18.069  37.377  13.285  1.00  0.00     0.000 C 
BRANCH   5   6
ATOM      6  C   UNL     1     -16.888  36.458  12.951  1.00  0.00     0.006 C 
BRANCH   6   7
ATOM      7  C   UNL     1     -16.567  35.528  14.126  1.00  0.00     0.053 C 
BRANCH   7   8
ATOM      8  C   UNL     1     -15.676  36.215  15.111  1.00  0.00     0.041 C 
ATOM      9  O   UNL     1     -16.146  37.089  15.886  1.00  0.00    -0.550 OA
ATOM     10  O   UNL     1     -14.318  35.926  15.142  1.00  0.00    -0.550 OA
ENDBRANCH   7   8
ENDBRANCH   6   7
ENDBRANCH   5   6
ENDBRANCH   4   5
ENDBRANCH   3   4
ENDBRANCH   2   3
ENDBRANCH   1   2
BRANCH   1  11
ATOM     11  C   UNL     1     -17.050  41.327   9.610  1.00  0.00     0.000 C 
BRANCH  11  12
ATOM     12  C   UNL     1     -15.891  40.614   8.892  1.00  0.00    -0.000 C 
BRANCH  12  13
ATOM     13  C   UNL     1     -15.752  41.036   7.418  1.00  0.00    -0.000 C 
BRANCH  13  14
ATOM     14  C   UNL     1     -14.461  41.809   7.076  1.00  0.00    -0.000 C 
BRANCH  14  15
ATOM     15  C   UNL     1     -14.643  43.326   6.875  1.00  0.00    -0.000 C 
BRANCH  15  16
ATOM     16  C   UNL     1     -14.543  44.171   8.161  1.00  0.00    -0.000 C 
BRANCH  16  17
ATOM     17  C   UNL     1     -15.876  44.764   8.649  1.00  0.00    -0.003 C 
ATOM     18  C   UNL     1     -17.057  44.399   7.750  1.00  0.00     0.004 C 
ENDBRANCH  16  17
ENDBRANCH  15  16
ENDBRANCH  14  15
ENDBRANCH  13  14
ENDBRANCH  12  13
ENDBRANCH  11  12
ENDBRANCH   1  11
TORSDOF 14
ENDMDL
