MODEL 1
REMARK VINA RESULT:    -5.111      0.000      0.000
REMARK INTER + INTRA:         -11.051
REMARK INTER:                  -8.996
REMARK INTRA:                  -2.055
REMARK UNBOUND:                -2.055
REMARK SMILES CCCCCCCCCCCCCCC(=O)[O-]
REMARK SMILES IDX 9 1 10 2 11 3 12 4 13 5 14 6 15 7 16 8 17 9 8 10 7 11 6 12
REMARK SMILES IDX 5 13 4 14 3 15 2 16 1 17
REMARK H PARENT
REMARK Flexibility Score: inf
ROOT
ATOM      1  C   UNL     1     104.604 107.370 228.886  1.00  0.00     0.000 C 
ENDROOT
BRANCH   1   2
ATOM      2  C   UNL     1     105.391 106.057 228.747  1.00  0.00     0.000 C 
BRANCH   2   3
ATOM      3  C   UNL     1     104.482 104.837 228.513  1.00  0.00     0.000 C 
BRANCH   3   4
ATOM      4  C   UNL     1     103.235 105.194 227.676  1.00  0.00     0.000 C 
BRANCH   4   5
ATOM      5  C   UNL     1     101.929 104.604 228.239  1.00  0.00     0.006 C 
BRANCH   5   6
ATOM      6  C   UNL     1     102.134 103.673 229.442  1.00  0.00     0.053 C 
BRANCH   6   7
ATOM      7  C   UNL     1     100.843 103.370 230.140  1.00  0.00     0.041 C 
ATOM      8  O   UNL     1     100.526 102.178 230.396  1.00  0.00    -0.550 OA
ATOM      9  O   UNL     1      99.979 104.399 230.491  1.00  0.00    -0.550 OA
ENDBRANCH   6   7
ENDBRANCH   5   6
ENDBRANCH   4   5
ENDBRANCH   3   4
ENDBRANCH   2   3
ENDBRANCH   1   2
BRANCH   1  10
ATOM     10  C   UNL     1     104.245 107.695 230.346  1.00  0.00     0.000 C 
BRANCH  10  11
ATOM     11  C   UNL     1     102.728 107.783 230.585  1.00  0.00    -0.000 C 
BRANCH  11  12
ATOM     12  C   UNL     1     102.185 106.883 231.714  1.00  0.00    -0.000 C 
BRANCH  12  13
ATOM     13  C   UNL     1     103.171 105.822 232.236  1.00  0.00    -0.000 C 
BRANCH  13  14
ATOM     14  C   UNL     1     103.769 106.121 233.624  1.00  0.00    -0.000 C 
BRANCH  14  15
ATOM     15  C   UNL     1     105.302 105.953 233.690  1.00  0.00    -0.000 C 
BRANCH  15  16
ATOM     16  C   UNL     1     105.851 105.097 232.539  1.00  0.00    -0.003 C 
ATOM     17  C   UNL     1     106.961 104.170 233.024  1.00  0.00     0.004 C 
ENDBRANCH  15  16
ENDBRANCH  14  15
ENDBRANCH  13  14
ENDBRANCH  12  13
ENDBRANCH  11  12
ENDBRANCH  10  11
ENDBRANCH   1  10
TORSDOF 13
ENDMDL
MODEL 2
REMARK VINA RESULT:    -5.058      2.020      5.137
REMARK INTER + INTRA:         -10.957
REMARK INTER:                  -9.166
REMARK INTRA:                  -1.791
REMARK UNBOUND:                -2.055
REMARK SMILES CCCCCCCCCCCCCCC(=O)[O-]
REMARK SMILES IDX 9 1 10 2 11 3 12 4 13 5 14 6 15 7 16 8 17 9 8 10 7 11 6 12
REMARK SMILES IDX 5 13 4 14 3 15 2 16 1 17
REMARK H PARENT
REMARK Flexibility Score: inf
ROOT
ATOM      1  C   UNL     1     102.623 106.942 231.795  1.00  0.00     0.000 C 
ENDROOT
BRANCH   1   2
ATOM      2  C   UNL     1     103.574 105.784 232.141  1.00  0.00     0.000 C 
BRANCH   2   3
ATOM      3  C   UNL     1     104.326 106.004 233.465  1.00  0.00     0.000 C 
BRANCH   3   4
ATOM      4  C   UNL     1     105.774 105.469 233.408  1.00  0.00     0.000 C 
BRANCH   4   5
ATOM      5  C   UNL     1     106.157 104.881 232.037  1.00  0.00     0.006 C 
BRANCH   5   6
ATOM      6  C   UNL     1     106.734 103.461 232.108  1.00  0.00     0.053 C 
BRANCH   6   7
ATOM      7  C   UNL     1     105.863 102.468 231.400  1.00  0.00     0.041 C 
ATOM      8  O   UNL     1     104.793 102.844 230.851  1.00  0.00    -0.550 OA
ATOM      9  O   UNL     1     106.218 101.127 231.362  1.00  0.00    -0.550 OA
ENDBRANCH   6   7
ENDBRANCH   5   6
ENDBRANCH   4   5
ENDBRANCH   3   4
ENDBRANCH   2   3
ENDBRANCH   1   2
BRANCH   1  10
ATOM     10  C   UNL     1     103.106 107.765 230.589  1.00  0.00     0.000 C 
BRANCH  10  11
ATOM     11  C   UNL     1     104.500 108.379 230.803  1.00  0.00    -0.000 C 
BRANCH  11  12
ATOM     12  C   UNL     1     105.613 107.825 229.888  1.00  0.00    -0.000 C 
BRANCH  12  13
ATOM     13  C   UNL     1     105.118 107.125 228.608  1.00  0.00    -0.000 C 
BRANCH  13  14
ATOM     14  C   UNL     1     105.426 105.617 228.536  1.00  0.00    -0.000 C 
BRANCH  14  15
ATOM     15  C   UNL     1     104.758 104.903 227.341  1.00  0.00    -0.000 C 
BRANCH  15  16
ATOM     16  C   UNL     1     103.426 105.550 226.939  1.00  0.00    -0.003 C 
ATOM     17  C   UNL     1     102.264 104.954 227.728  1.00  0.00     0.004 C 
ENDBRANCH  15  16
ENDBRANCH  14  15
ENDBRANCH  13  14
ENDBRANCH  12  13
ENDBRANCH  11  12
ENDBRANCH  10  11
ENDBRANCH   1  10
TORSDOF 13
ENDMDL
MODEL 3
REMARK VINA RESULT:    -5.041      2.813      5.087
REMARK INTER + INTRA:         -10.928
REMARK INTER:                  -8.599
REMARK INTRA:                  -2.329
REMARK UNBOUND:                -2.055
REMARK SMILES CCCCCCCCCCCCCCC(=O)[O-]
REMARK SMILES IDX 9 1 10 2 11 3 12 4 13 5 14 6 15 7 16 8 17 9 8 10 7 11 6 12
REMARK SMILES IDX 5 13 4 14 3 15 2 16 1 17
REMARK H PARENT
REMARK Flexibility Score: inf
ROOT
ATOM      1  C   UNL     1     102.381 107.597 230.730  1.00  0.00     0.000 C 
ENDROOT
BRANCH   1   2
ATOM      2  C   UNL     1     103.740 107.920 230.086  1.00  0.00     0.000 C 
BRANCH   2   3
ATOM      3  C   UNL     1     104.932 107.518 230.971  1.00  0.00     0.000 C 
BRANCH   3   4
ATOM      4  C   UNL     1     105.909 106.573 230.238  1.00  0.00     0.000 C 
BRANCH   4   5
ATOM      5  C   UNL     1     105.959 105.156 230.841  1.00  0.00     0.006 C 
BRANCH   5   6
ATOM      6  C   UNL     1     105.785 105.120 232.365  1.00  0.00     0.053 C 
BRANCH   6   7
ATOM      7  C   UNL     1     106.810 104.249 233.024  1.00  0.00     0.041 C 
ATOM      8  O   UNL     1     107.744 104.767 233.693  1.00  0.00    -0.550 OA
ATOM      9  O   UNL     1     106.750 102.869 232.886  1.00  0.00    -0.550 OA
ENDBRANCH   6   7
ENDBRANCH   5   6
ENDBRANCH   4   5
ENDBRANCH   3   4
ENDBRANCH   2   3
ENDBRANCH   1   2
BRANCH   1  10
ATOM     10  C   UNL     1     102.513 106.692 231.967  1.00  0.00     0.000 C 
BRANCH  10  11
ATOM     11  C   UNL     1     101.563 105.483 231.927  1.00  0.00    -0.000 C 
BRANCH  11  12
ATOM     12  C   UNL     1     102.209 104.150 231.495  1.00  0.00    -0.000 C 
BRANCH  12  13
ATOM     13  C   UNL     1     101.990 103.765 230.020  1.00  0.00    -0.000 C 
BRANCH  13  14
ATOM     14  C   UNL     1     103.037 104.331 229.041  1.00  0.00    -0.000 C 
BRANCH  14  15
ATOM     15  C   UNL     1     102.428 105.151 227.885  1.00  0.00    -0.000 C 
BRANCH  15  16
ATOM     16  C   UNL     1     103.463 105.517 226.812  1.00  0.00    -0.003 C 
ATOM     17  C   UNL     1     104.826 104.911 227.132  1.00  0.00     0.004 C 
ENDBRANCH  15  16
ENDBRANCH  14  15
ENDBRANCH  13  14
ENDBRANCH  12  13
ENDBRANCH  11  12
ENDBRANCH  10  11
ENDBRANCH   1  10
TORSDOF 13
ENDMDL
MODEL 4
REMARK VINA RESULT:    -5.007      1.740      3.745
REMARK INTER + INTRA:         -10.867
REMARK INTER:                  -9.184
REMARK INTRA:                  -1.683
REMARK UNBOUND:                -2.055
REMARK SMILES CCCCCCCCCCCCCCC(=O)[O-]
REMARK SMILES IDX 9 1 10 2 11 3 12 4 13 5 14 6 15 7 16 8 17 9 8 10 7 11 6 12
REMARK SMILES IDX 5 13 4 14 3 15 2 16 1 17
REMARK H PARENT
REMARK Flexibility Score: inf
ROOT
ATOM      1  C   UNL     1     105.245 102.552 229.938  1.00  0.00     0.000 C 
ENDROOT
BRANCH   1   2
ATOM      2  C   UNL     1     106.294 103.467 229.284  1.00  0.00     0.000 C 
BRANCH   2   3
ATOM      3  C   UNL     1     105.692 104.776 228.745  1.00  0.00     0.000 C 
BRANCH   3   4
ATOM      4  C   UNL     1     105.368 104.689 227.237  1.00  0.00     0.000 C 
BRANCH   4   5
ATOM      5  C   UNL     1     103.952 105.181 226.884  1.00  0.00     0.006 C 
BRANCH   5   6
ATOM      6  C   UNL     1     103.019 105.317 228.096  1.00  0.00     0.053 C 
BRANCH   6   7
ATOM      7  C   UNL     1     101.647 104.790 227.806  1.00  0.00     0.041 C 
ATOM      8  O   UNL     1     100.884 105.413 227.020  1.00  0.00    -0.550 OA
ATOM      9  O   UNL     1     101.201 103.625 228.416  1.00  0.00    -0.550 OA
ENDBRANCH   6   7
ENDBRANCH   5   6
ENDBRANCH   4   5
ENDBRANCH   3   4
ENDBRANCH   2   3
ENDBRANCH   1   2
BRANCH   1  10
ATOM     10  C   UNL     1     105.172 102.731 231.464  1.00  0.00     0.000 C 
BRANCH  10  11
ATOM     11  C   UNL     1     106.556 102.725 232.135  1.00  0.00    -0.000 C 
BRANCH  11  12
ATOM     12  C   UNL     1     106.917 104.006 232.917  1.00  0.00    -0.000 C 
BRANCH  12  13
ATOM     13  C   UNL     1     106.136 105.266 232.503  1.00  0.00    -0.000 C 
BRANCH  13  14
ATOM     14  C   UNL     1     105.347 105.943 233.640  1.00  0.00    -0.000 C 
BRANCH  14  15
ATOM     15  C   UNL     1     103.857 106.177 233.310  1.00  0.00    -0.000 C 
BRANCH  15  16
ATOM     16  C   UNL     1     103.546 105.978 231.820  1.00  0.00    -0.003 C 
ATOM     17  C   UNL     1     102.043 105.871 231.581  1.00  0.00     0.004 C 
ENDBRANCH  15  16
ENDBRANCH  14  15
ENDBRANCH  13  14
ENDBRANCH  12  13
ENDBRANCH  11  12
ENDBRANCH  10  11
ENDBRANCH   1  10
TORSDOF 13
ENDMDL
MODEL 5
REMARK VINA RESULT:    -4.964      1.784      3.357
REMARK INTER + INTRA:         -10.792
REMARK INTER:                  -8.998
REMARK INTRA:                  -1.794
REMARK UNBOUND:                -2.055
REMARK SMILES CCCCCCCCCCCCCCC(=O)[O-]
REMARK SMILES IDX 9 1 10 2 11 3 12 4 13 5 14 6 15 7 16 8 17 9 8 10 7 11 6 12
REMARK SMILES IDX 5 13 4 14 3 15 2 16 1 17
REMARK H PARENT
REMARK Flexibility Score: inf
ROOT
ATOM      1  C   UNL     1     104.882 105.683 228.006  1.00  0.00     0.000 C 
ENDROOT
BRANCH   1   2
ATOM      2  C   UNL     1     103.628 105.132 227.307  1.00  0.00     0.000 C 
BRANCH   2   3
ATOM      3  C   UNL     1     102.335 105.409 228.093  1.00  0.00     0.000 C 
BRANCH   3   4
ATOM      4  C   UNL     1     101.284 104.295 227.897  1.00  0.00     0.000 C 
BRANCH   4   5
ATOM      5  C   UNL     1     101.178 103.335 229.096  1.00  0.00     0.006 C 
BRANCH   5   6
ATOM      6  C   UNL     1     102.353 103.431 230.079  1.00  0.00     0.053 C 
BRANCH   6   7
ATOM      7  C   UNL     1     102.659 102.109 230.715  1.00  0.00     0.041 C 
ATOM      8  O   UNL     1     101.722 101.346 231.071  1.00  0.00    -0.550 OA
ATOM      9  O   UNL     1     103.976 101.726 230.933  1.00  0.00    -0.550 OA
ENDBRANCH   6   7
ENDBRANCH   5   6
ENDBRANCH   4   5
ENDBRANCH   3   4
ENDBRANCH   2   3
ENDBRANCH   1   2
BRANCH   1  10
ATOM     10  C   UNL     1     105.620 104.614 228.829  1.00  0.00     0.000 C 
BRANCH  10  11
ATOM     11  C   UNL     1     106.002 105.100 230.238  1.00  0.00    -0.000 C 
BRANCH  11  12
ATOM     12  C   UNL     1     105.406 106.463 230.649  1.00  0.00    -0.000 C 
BRANCH  12  13
ATOM     13  C   UNL     1     104.176 106.386 231.572  1.00  0.00    -0.000 C 
BRANCH  13  14
ATOM     14  C   UNL     1     103.006 107.306 231.171  1.00  0.00    -0.000 C 
BRANCH  14  15
ATOM     15  C   UNL     1     101.617 106.731 231.516  1.00  0.00    -0.000 C 
BRANCH  15  16
ATOM     16  C   UNL     1     101.585 106.053 232.893  1.00  0.00    -0.003 C 
ATOM     17  C   UNL     1     100.788 106.881 233.896  1.00  0.00     0.004 C 
ENDBRANCH  15  16
ENDBRANCH  14  15
ENDBRANCH  13  14
ENDBRANCH  12  13
ENDBRANCH  11  12
ENDBRANCH  10  11
ENDBRANCH   1  10
TORSDOF 13
ENDMDL
MODEL 6
REMARK VINA RESULT:    -4.952      2.427      4.718
REMARK INTER + INTRA:         -10.770
REMARK INTER:                  -8.962
REMARK INTRA:                  -1.807
REMARK UNBOUND:                -2.055
REMARK SMILES CCCCCCCCCCCCCCC(=O)[O-]
REMARK SMILES IDX 9 1 10 2 11 3 12 4 13 5 14 6 15 7 16 8 17 9 8 10 7 11 6 12
REMARK SMILES IDX 5 13 4 14 3 15 2 16 1 17
REMARK H PARENT
REMARK Flexibility Score: inf
ROOT
ATOM      1  C   UNL     1     106.113 105.995 229.781  1.00  0.00     0.000 C 
ENDROOT
BRANCH   1   2
ATOM      2  C   UNL     1     105.434 107.359 229.571  1.00  0.00     0.000 C 
BRANCH   2   3
ATOM      3  C   UNL     1     104.795 107.912 230.856  1.00  0.00     0.000 C 
BRANCH   3   4
ATOM      4  C   UNL     1     103.261 107.729 230.869  1.00  0.00     0.000 C 
BRANCH   4   5
ATOM      5  C   UNL     1     102.808 106.391 231.482  1.00  0.00     0.006 C 
BRANCH   5   6
ATOM      6  C   UNL     1     101.316 106.343 231.839  1.00  0.00     0.053 C 
BRANCH   6   7
ATOM      7  C   UNL     1     101.085 106.565 233.303  1.00  0.00     0.041 C 
ATOM      8  O   UNL     1     101.981 106.268 234.137  1.00  0.00    -0.550 OA
ATOM      9  O   UNL     1      99.876 107.081 233.750  1.00  0.00    -0.550 OA
ENDBRANCH   6   7
ENDBRANCH   5   6
ENDBRANCH   4   5
ENDBRANCH   3   4
ENDBRANCH   2   3
ENDBRANCH   1   2
BRANCH   1  10
ATOM     10  C   UNL     1     105.309 104.834 229.172  1.00  0.00     0.000 C 
BRANCH  10  11
ATOM     11  C   UNL     1     105.289 104.860 227.634  1.00  0.00    -0.000 C 
BRANCH  11  12
ATOM     12  C   UNL     1     103.913 105.143 226.997  1.00  0.00    -0.000 C 
BRANCH  12  13
ATOM     13  C   UNL     1     102.780 105.448 227.995  1.00  0.00    -0.000 C 
BRANCH  13  14
ATOM     14  C   UNL     1     101.413 104.839 227.629  1.00  0.00    -0.000 C 
BRANCH  14  15
ATOM     15  C   UNL     1     101.035 103.606 228.478  1.00  0.00    -0.000 C 
BRANCH  15  16
ATOM     16  C   UNL     1     102.062 103.313 229.580  1.00  0.00    -0.003 C 
ATOM     17  C   UNL     1     101.510 102.318 230.597  1.00  0.00     0.004 C 
ENDBRANCH  15  16
ENDBRANCH  14  15
ENDBRANCH  13  14
ENDBRANCH  12  13
ENDBRANCH  11  12
ENDBRANCH  10  11
ENDBRANCH   1  10
TORSDOF 13
ENDMDL
MODEL 7
REMARK VINA RESULT:    -4.935      2.239      4.071
REMARK INTER + INTRA:         -10.741
REMARK INTER:                  -8.320
REMARK INTRA:                  -2.420
REMARK UNBOUND:                -2.055
REMARK SMILES CCCCCCCCCCCCCCC(=O)[O-]
REMARK SMILES IDX 9 1 10 2 11 3 12 4 13 5 14 6 15 7 16 8 17 9 8 10 7 11 6 12
REMARK SMILES IDX 5 13 4 14 3 15 2 16 1 17
REMARK H PARENT
REMARK Flexibility Score: inf
ROOT
ATOM      1  C   UNL     1     104.504 106.341 232.976  1.00  0.00     0.000 C 
ENDROOT
BRANCH   1   2
ATOM      2  C   UNL     1     105.590 105.252 232.947  1.00  0.00     0.000 C 
BRANCH   2   3
ATOM      3  C   UNL     1     106.148 105.003 231.535  1.00  0.00     0.000 C 
BRANCH   3   4
ATOM      4  C   UNL     1     105.752 106.122 230.547  1.00  0.00     0.000 C 
BRANCH   4   5
ATOM      5  C   UNL     1     105.545 105.621 229.105  1.00  0.00     0.006 C 
BRANCH   5   6
ATOM      6  C   UNL     1     104.325 106.233 228.402  1.00  0.00     0.053 C 
BRANCH   6   7
ATOM      7  C   UNL     1     103.875 105.402 227.240  1.00  0.00     0.041 C 
ATOM      8  O   UNL     1     104.716 104.748 226.567  1.00  0.00    -0.550 OA
ATOM      9  O   UNL     1     102.533 105.361 226.887  1.00  0.00    -0.550 OA
ENDBRANCH   6   7
ENDBRANCH   5   6
ENDBRANCH   4   5
ENDBRANCH   3   4
ENDBRANCH   2   3
ENDBRANCH   1   2
BRANCH   1  10
ATOM     10  C   UNL     1     103.269 105.924 233.791  1.00  0.00     0.000 C 
BRANCH  10  11
ATOM     11  C   UNL     1     101.944 106.248 233.079  1.00  0.00    -0.000 C 
BRANCH  11  12
ATOM     12  C   UNL     1     102.084 106.952 231.713  1.00  0.00    -0.000 C 
BRANCH  12  13
ATOM     13  C   UNL     1     101.387 106.242 230.537  1.00  0.00    -0.000 C 
BRANCH  13  14
ATOM     14  C   UNL     1     101.049 104.759 230.784  1.00  0.00    -0.000 C 
BRANCH  14  15
ATOM     15  C   UNL     1     102.054 103.778 230.144  1.00  0.00    -0.000 C 
BRANCH  15  16
ATOM     16  C   UNL     1     103.026 103.178 231.169  1.00  0.00    -0.003 C 
ATOM     17  C   UNL     1     103.910 102.111 230.531  1.00  0.00     0.004 C 
ENDBRANCH  15  16
ENDBRANCH  14  15
ENDBRANCH  13  14
ENDBRANCH  12  13
ENDBRANCH  11  12
ENDBRANCH  10  11
ENDBRANCH   1  10
TORSDOF 13
ENDMDL
MODEL 8
REMARK VINA RESULT:    -4.926      2.578      4.377
REMARK INTER + INTRA:         -10.725
REMARK INTER:                  -8.786
REMARK INTRA:                  -1.939
REMARK UNBOUND:                -2.055
REMARK SMILES CCCCCCCCCCCCCCC(=O)[O-]
REMARK SMILES IDX 9 1 10 2 11 3 12 4 13 5 14 6 15 7 16 8 17 9 8 10 7 11 6 12
REMARK SMILES IDX 5 13 4 14 3 15 2 16 1 17
REMARK H PARENT
REMARK Flexibility Score: inf
ROOT
ATOM      1  C   UNL     1     103.073 105.538 227.910  1.00  0.00     0.000 C 
ENDROOT
BRANCH   1   2
ATOM      2  C   UNL     1     103.943 105.141 226.706  1.00  0.00     0.000 C 
BRANCH   2   3
ATOM      3  C   UNL     1     105.332 104.623 227.116  1.00  0.00     0.000 C 
BRANCH   3   4
ATOM      4  C   UNL     1     105.628 104.873 228.611  1.00  0.00     0.000 C 
BRANCH   4   5
ATOM      5  C   UNL     1     106.155 103.628 229.349  1.00  0.00     0.006 C 
BRANCH   5   6
ATOM      6  C   UNL     1     106.831 103.939 230.691  1.00  0.00     0.053 C 
BRANCH   6   7
ATOM      7  C   UNL     1     106.406 102.984 231.765  1.00  0.00     0.041 C 
ATOM      8  O   UNL     1     105.605 102.049 231.499  1.00  0.00    -0.550 OA
ATOM      9  O   UNL     1     106.877 103.135 233.062  1.00  0.00    -0.550 OA
ENDBRANCH   6   7
ENDBRANCH   5   6
ENDBRANCH   4   5
ENDBRANCH   3   4
ENDBRANCH   2   3
ENDBRANCH   1   2
BRANCH   1  10
ATOM     10  C   UNL     1     101.628 105.027 227.791  1.00  0.00     0.000 C 
BRANCH  10  11
ATOM     11  C   UNL     1     101.331 103.844 228.730  1.00  0.00    -0.000 C 
BRANCH  11  12
ATOM     12  C   UNL     1     102.502 103.413 229.638  1.00  0.00    -0.000 C 
BRANCH  12  13
ATOM     13  C   UNL     1     102.348 103.787 231.124  1.00  0.00    -0.000 C 
BRANCH  13  14
ATOM     14  C   UNL     1     103.169 105.011 231.572  1.00  0.00    -0.000 C 
BRANCH  14  15
ATOM     15  C   UNL     1     102.389 106.341 231.503  1.00  0.00    -0.000 C 
BRANCH  15  16
ATOM     16  C   UNL     1     101.133 106.335 232.386  1.00  0.00    -0.003 C 
ATOM     17  C   UNL     1     101.501 106.353 233.866  1.00  0.00     0.004 C 
ENDBRANCH  15  16
ENDBRANCH  14  15
ENDBRANCH  13  14
ENDBRANCH  12  13
ENDBRANCH  11  12
ENDBRANCH  10  11
ENDBRANCH   1  10
TORSDOF 13
ENDMDL
MODEL 9
REMARK VINA RESULT:    -4.905      1.317      2.968
REMARK INTER + INTRA:         -10.688
REMARK INTER:                  -8.287
REMARK INTRA:                  -2.402
REMARK UNBOUND:                -2.055
REMARK SMILES CCCCCCCCCCCCCCC(=O)[O-]
REMARK SMILES IDX 9 1 10 2 11 3 12 4 13 5 14 6 15 7 16 8 17 9 8 10 7 11 6 12
REMARK SMILES IDX 5 13 4 14 3 15 2 16 1 17
REMARK H PARENT
REMARK Flexibility Score: inf
ROOT
ATOM      1  C   UNL     1     105.579 107.540 229.739  1.00  0.00     0.000 C 
ENDROOT
BRANCH   1   2
ATOM      2  C   UNL     1     104.649 107.999 230.875  1.00  0.00     0.000 C 
BRANCH   2   3
ATOM      3  C   UNL     1     103.172 108.060 230.450  1.00  0.00     0.000 C 
BRANCH   3   4
ATOM      4  C   UNL     1     102.267 107.206 231.365  1.00  0.00     0.000 C 
BRANCH   4   5
ATOM      5  C   UNL     1     102.152 105.738 230.916  1.00  0.00     0.006 C 
BRANCH   5   6
ATOM      6  C   UNL     1     101.320 105.538 229.642  1.00  0.00     0.053 C 
BRANCH   6   7
ATOM      7  C   UNL     1     101.209 104.091 229.268  1.00  0.00     0.041 C 
ATOM      8  O   UNL     1     101.154 103.753 228.056  1.00  0.00    -0.550 OA
ATOM      9  O   UNL     1     101.147 103.117 230.255  1.00  0.00    -0.550 OA
ENDBRANCH   6   7
ENDBRANCH   5   6
ENDBRANCH   4   5
ENDBRANCH   3   4
ENDBRANCH   2   3
ENDBRANCH   1   2
BRANCH   1  10
ATOM     10  C   UNL     1     104.808 107.112 228.479  1.00  0.00     0.000 C 
BRANCH  10  11
ATOM     11  C   UNL     1     104.789 105.586 228.278  1.00  0.00    -0.000 C 
BRANCH  11  12
ATOM     12  C   UNL     1     105.737 104.788 229.198  1.00  0.00    -0.000 C 
BRANCH  12  13
ATOM     13  C   UNL     1     105.052 103.731 230.083  1.00  0.00    -0.000 C 
BRANCH  13  14
ATOM     14  C   UNL     1     105.143 103.996 231.598  1.00  0.00    -0.000 C 
BRANCH  14  15
ATOM     15  C   UNL     1     106.389 104.807 232.013  1.00  0.00    -0.000 C 
BRANCH  15  16
ATOM     16  C   UNL     1     106.234 105.460 233.394  1.00  0.00    -0.003 C 
ATOM     17  C   UNL     1     104.787 105.870 233.650  1.00  0.00     0.004 C 
ENDBRANCH  15  16
ENDBRANCH  14  15
ENDBRANCH  13  14
ENDBRANCH  12  13
ENDBRANCH  11  12
ENDBRANCH  10  11
ENDBRANCH   1  10
TORSDOF 13
ENDMDL
