MODEL 1
REMARK VINA RESULT:    -3.624      0.000      0.000
REMARK INTER + INTRA:         -12.713
REMARK INTER:                  -8.286
REMARK INTRA:                  -4.428
REMARK UNBOUND:                -4.428
REMARK SMILES CCCCCCCCCCCCCCCCCCCCCCCC(=O)[O-]
REMARK SMILES IDX 13 1 14 2 15 3 16 4 17 5 18 6 19 7 20 8 21 9 22 10 23 11
REMARK SMILES IDX 24 12 25 13 26 14 12 15 11 16 10 17 9 18 8 19 7 20 6 21 5 22
REMARK SMILES IDX 4 23 3 24 2 25 1 26
REMARK H PARENT
REMARK Flexibility Score: inf
ROOT
ATOM      1  C   UNL     1      14.193 -36.398  -0.001  1.00  0.00     0.000 C 
ENDROOT
BRANCH   1   2
ATOM      2  C   UNL     1      13.835 -36.990   1.376  1.00  0.00     0.000 C 
BRANCH   2   3
ATOM      3  C   UNL     1      14.308 -36.152   2.576  1.00  0.00     0.000 C 
BRANCH   3   4
ATOM      4  C   UNL     1      15.373 -35.094   2.208  1.00  0.00     0.000 C 
BRANCH   4   5
ATOM      5  C   UNL     1      16.578 -35.121   3.161  1.00  0.00     0.000 C 
BRANCH   5   6
ATOM      6  C   UNL     1      16.162 -35.226   4.637  1.00  0.00     0.000 C 
BRANCH   6   7
ATOM      7  C   UNL     1      16.883 -36.369   5.372  1.00  0.00     0.000 C 
BRANCH   7   8
ATOM      8  C   UNL     1      16.340 -37.756   4.987  1.00  0.00     0.000 C 
BRANCH   8   9
ATOM      9  C   UNL     1      17.331 -38.591   4.145  1.00  0.00     0.000 C 
BRANCH   9  10
ATOM     10  C   UNL     1      16.786 -38.966   2.751  1.00  0.00     0.006 C 
BRANCH  10  11
ATOM     11  C   UNL     1      17.477 -38.222   1.595  1.00  0.00     0.053 C 
BRANCH  11  12
ATOM     12  C   UNL     1      18.531 -39.058   0.935  1.00  0.00     0.041 C 
ATOM     13  O   UNL     1      19.420 -38.516   0.226  1.00  0.00    -0.550 OA
ATOM     14  O   UNL     1      18.539 -40.436   1.116  1.00  0.00    -0.550 OA
ENDBRANCH  11  12
ENDBRANCH  10  11
ENDBRANCH   9  10
ENDBRANCH   8   9
ENDBRANCH   7   8
ENDBRANCH   6   7
ENDBRANCH   5   6
ENDBRANCH   4   5
ENDBRANCH   3   4
ENDBRANCH   2   3
ENDBRANCH   1   2
BRANCH   1  15
ATOM     15  C   UNL     1      13.640 -37.208  -1.194  1.00  0.00     0.000 C 
BRANCH  15  16
ATOM     16  C   UNL     1      14.551 -37.147  -2.433  1.00  0.00     0.000 C 
BRANCH  16  17
ATOM     17  C   UNL     1      15.532 -38.327  -2.505  1.00  0.00     0.000 C 
BRANCH  17  18
ATOM     18  C   UNL     1      16.988 -37.908  -2.237  1.00  0.00    -0.000 C 
BRANCH  18  19
ATOM     19  C   UNL     1      17.185 -36.382  -2.289  1.00  0.00    -0.000 C 
BRANCH  19  20
ATOM     20  C   UNL     1      17.677 -35.747  -0.972  1.00  0.00    -0.000 C 
BRANCH  20  21
ATOM     21  C   UNL     1      17.405 -34.235  -0.834  1.00  0.00    -0.000 C 
BRANCH  21  22
ATOM     22  C   UNL     1      16.871 -33.553  -2.107  1.00  0.00    -0.000 C 
BRANCH  22  23
ATOM     23  C   UNL     1      15.599 -32.729  -1.853  1.00  0.00    -0.000 C 
BRANCH  23  24
ATOM     24  C   UNL     1      14.356 -33.458  -2.379  1.00  0.00    -0.000 C 
BRANCH  24  25
ATOM     25  C   UNL     1      13.090 -32.968  -1.667  1.00  0.00    -0.003 C 
ATOM     26  C   UNL     1      13.297 -32.894  -0.158  1.00  0.00     0.004 C 
ENDBRANCH  24  25
ENDBRANCH  23  24
ENDBRANCH  22  23
ENDBRANCH  21  22
ENDBRANCH  20  21
ENDBRANCH  19  20
ENDBRANCH  18  19
ENDBRANCH  17  18
ENDBRANCH  16  17
ENDBRANCH  15  16
ENDBRANCH   1  15
TORSDOF 22
ENDMDL
MODEL 2
REMARK VINA RESULT:    -3.602      1.480      4.681
REMARK INTER + INTRA:         -12.662
REMARK INTER:                  -8.070
REMARK INTRA:                  -4.592
REMARK UNBOUND:                -4.428
REMARK SMILES CCCCCCCCCCCCCCCCCCCCCCCC(=O)[O-]
REMARK SMILES IDX 13 1 14 2 15 3 16 4 17 5 18 6 19 7 20 8 21 9 22 10 23 11
REMARK SMILES IDX 24 12 25 13 26 14 12 15 11 16 10 17 9 18 8 19 7 20 6 21 5 22
REMARK SMILES IDX 4 23 3 24 2 25 1 26
REMARK H PARENT
REMARK Flexibility Score: inf
ROOT
ATOM      1  C   UNL     1      16.836 -37.581  -2.375  1.00  0.00     0.000 C 
ENDROOT
BRANCH   1   2
ATOM      2  C   UNL     1      15.329 -37.392  -2.119  1.00  0.00     0.000 C 
BRANCH   2   3
ATOM      3  C   UNL     1      14.429 -38.455  -2.773  1.00  0.00     0.000 C 
BRANCH   3   4
ATOM      4  C   UNL     1      15.134 -39.815  -2.982  1.00  0.00     0.000 C 
BRANCH   4   5
ATOM      5  C   UNL     1      15.025 -40.724  -1.748  1.00  0.00     0.000 C 
BRANCH   5   6
ATOM      6  C   UNL     1      13.701 -40.535  -0.990  1.00  0.00     0.000 C 
BRANCH   6   7
ATOM      7  C   UNL     1      13.905 -40.428   0.532  1.00  0.00     0.000 C 
BRANCH   7   8
ATOM      8  C   UNL     1      14.303 -39.011   0.977  1.00  0.00     0.000 C 
BRANCH   8   9
ATOM      9  C   UNL     1      14.815 -38.946   2.434  1.00  0.00     0.000 C 
BRANCH   9  10
ATOM     10  C   UNL     1      16.352 -38.865   2.541  1.00  0.00     0.006 C 
BRANCH  10  11
ATOM     11  C   UNL     1      17.054 -38.602   1.198  1.00  0.00     0.053 C 
BRANCH  11  12
ATOM     12  C   UNL     1      18.539 -38.775   1.293  1.00  0.00     0.041 C 
ATOM     13  O   UNL     1      19.059 -39.226   2.348  1.00  0.00    -0.550 OA
ATOM     14  O   UNL     1      19.348 -38.452   0.211  1.00  0.00    -0.550 OA
ENDBRANCH  11  12
ENDBRANCH  10  11
ENDBRANCH   9  10
ENDBRANCH   8   9
ENDBRANCH   7   8
ENDBRANCH   6   7
ENDBRANCH   5   6
ENDBRANCH   4   5
ENDBRANCH   3   4
ENDBRANCH   2   3
ENDBRANCH   1   2
BRANCH   1  15
ATOM     15  C   UNL     1      17.662 -36.282  -2.241  1.00  0.00     0.000 C 
BRANCH  15  16
ATOM     16  C   UNL     1      17.540 -35.637  -0.850  1.00  0.00     0.000 C 
BRANCH  16  17
ATOM     17  C   UNL     1      17.590 -34.102  -0.902  1.00  0.00     0.000 C 
BRANCH  17  18
ATOM     18  C   UNL     1      16.899 -33.527  -2.150  1.00  0.00    -0.000 C 
BRANCH  18  19
ATOM     19  C   UNL     1      15.512 -32.934  -1.841  1.00  0.00    -0.000 C 
BRANCH  19  20
ATOM     20  C   UNL     1      14.322 -33.820  -2.261  1.00  0.00    -0.000 C 
BRANCH  20  21
ATOM     21  C   UNL     1      13.527 -34.442  -1.094  1.00  0.00    -0.000 C 
BRANCH  21  22
ATOM     22  C   UNL     1      14.027 -34.056   0.310  1.00  0.00    -0.000 C 
BRANCH  22  23
ATOM     23  C   UNL     1      14.603 -35.249   1.087  1.00  0.00    -0.000 C 
BRANCH  23  24
ATOM     24  C   UNL     1      14.210 -35.184   2.568  1.00  0.00    -0.000 C 
BRANCH  24  25
ATOM     25  C   UNL     1      15.438 -35.355   3.470  1.00  0.00    -0.003 C 
ATOM     26  C   UNL     1      16.732 -35.186   2.681  1.00  0.00     0.004 C 
ENDBRANCH  24  25
ENDBRANCH  23  24
ENDBRANCH  22  23
ENDBRANCH  21  22
ENDBRANCH  20  21
ENDBRANCH  19  20
ENDBRANCH  18  19
ENDBRANCH  17  18
ENDBRANCH  16  17
ENDBRANCH  15  16
ENDBRANCH   1  15
TORSDOF 22
ENDMDL
MODEL 3
REMARK VINA RESULT:    -3.516      2.191      5.686
REMARK INTER + INTRA:         -12.466
REMARK INTER:                  -8.195
REMARK INTRA:                  -4.272
REMARK UNBOUND:                -4.428
REMARK SMILES CCCCCCCCCCCCCCCCCCCCCCCC(=O)[O-]
REMARK SMILES IDX 13 1 14 2 15 3 16 4 17 5 18 6 19 7 20 8 21 9 22 10 23 11
REMARK SMILES IDX 24 12 25 13 26 14 12 15 11 16 10 17 9 18 8 19 7 20 6 21 5 22
REMARK SMILES IDX 4 23 3 24 2 25 1 26
REMARK H PARENT
REMARK Flexibility Score: inf
ROOT
ATOM      1  C   UNL     1      17.481 -34.162  -0.737  1.00  0.00     0.000 C 
ENDROOT
BRANCH   1   2
ATOM      2  C   UNL     1      17.158 -33.548  -2.113  1.00  0.00     0.000 C 
BRANCH   2   3
ATOM      3  C   UNL     1      15.765 -32.901  -2.215  1.00  0.00     0.000 C 
BRANCH   3   4
ATOM      4  C   UNL     1      14.688 -33.625  -1.376  1.00  0.00     0.000 C 
BRANCH   4   5
ATOM      5  C   UNL     1      14.099 -34.843  -2.105  1.00  0.00     0.000 C 
BRANCH   5   6
ATOM      6  C   UNL     1      13.618 -35.936  -1.137  1.00  0.00     0.000 C 
BRANCH   6   7
ATOM      7  C   UNL     1      14.128 -35.717   0.298  1.00  0.00     0.000 C 
BRANCH   7   8
ATOM      8  C   UNL     1      14.732 -36.992   0.912  1.00  0.00     0.000 C 
BRANCH   8   9
ATOM      9  C   UNL     1      15.492 -36.737   2.233  1.00  0.00     0.000 C 
BRANCH   9  10
ATOM     10  C   UNL     1      16.839 -37.483   2.321  1.00  0.00     0.006 C 
BRANCH  10  11
ATOM     11  C   UNL     1      16.917 -38.728   1.420  1.00  0.00     0.053 C 
BRANCH  11  12
ATOM     12  C   UNL     1      18.326 -39.203   1.235  1.00  0.00     0.041 C 
ATOM     13  O   UNL     1      19.237 -38.388   0.934  1.00  0.00    -0.550 OA
ATOM     14  O   UNL     1      18.635 -40.547   1.410  1.00  0.00    -0.550 OA
ENDBRANCH  11  12
ENDBRANCH  10  11
ENDBRANCH   9  10
ENDBRANCH   8   9
ENDBRANCH   7   8
ENDBRANCH   6   7
ENDBRANCH   5   6
ENDBRANCH   4   5
ENDBRANCH   3   4
ENDBRANCH   2   3
ENDBRANCH   1   2
BRANCH   1  15
ATOM     15  C   UNL     1      17.732 -35.685  -0.774  1.00  0.00     0.000 C 
BRANCH  15  16
ATOM     16  C   UNL     1      17.490 -36.299  -2.164  1.00  0.00     0.000 C 
BRANCH  16  17
ATOM     17  C   UNL     1      17.284 -37.821  -2.113  1.00  0.00     0.000 C 
BRANCH  17  18
ATOM     18  C   UNL     1      15.886 -38.248  -2.592  1.00  0.00    -0.000 C 
BRANCH  18  19
ATOM     19  C   UNL     1      15.435 -39.590  -1.987  1.00  0.00    -0.000 C 
BRANCH  19  20
ATOM     20  C   UNL     1      13.912 -39.830  -2.009  1.00  0.00    -0.000 C 
BRANCH  20  21
ATOM     21  C   UNL     1      13.476 -41.214  -2.533  1.00  0.00    -0.000 C 
BRANCH  21  22
ATOM     22  C   UNL     1      14.630 -42.194  -2.814  1.00  0.00    -0.000 C 
BRANCH  22  23
ATOM     23  C   UNL     1      14.815 -42.485  -4.311  1.00  0.00    -0.000 C 
BRANCH  23  24
ATOM     24  C   UNL     1      16.142 -41.912  -4.824  1.00  0.00    -0.000 C 
BRANCH  24  25
ATOM     25  C   UNL     1      15.926 -40.562  -5.517  1.00  0.00    -0.003 C 
ATOM     26  C   UNL     1      14.990 -40.698  -6.714  1.00  0.00     0.004 C 
ENDBRANCH  24  25
ENDBRANCH  23  24
ENDBRANCH  22  23
ENDBRANCH  21  22
ENDBRANCH  20  21
ENDBRANCH  19  20
ENDBRANCH  18  19
ENDBRANCH  17  18
ENDBRANCH  16  17
ENDBRANCH  15  16
ENDBRANCH   1  15
TORSDOF 22
ENDMDL
MODEL 4
REMARK VINA RESULT:    -3.433      2.282      5.604
REMARK INTER + INTRA:         -12.277
REMARK INTER:                  -7.680
REMARK INTRA:                  -4.596
REMARK UNBOUND:                -4.428
REMARK SMILES CCCCCCCCCCCCCCCCCCCCCCCC(=O)[O-]
REMARK SMILES IDX 13 1 14 2 15 3 16 4 17 5 18 6 19 7 20 8 21 9 22 10 23 11
REMARK SMILES IDX 24 12 25 13 26 14 12 15 11 16 10 17 9 18 8 19 7 20 6 21 5 22
REMARK SMILES IDX 4 23 3 24 2 25 1 26
REMARK H PARENT
REMARK Flexibility Score: inf
ROOT
ATOM      1  C   UNL     1      17.480 -34.121  -1.107  1.00  0.00     0.000 C 
ENDROOT
BRANCH   1   2
ATOM      2  C   UNL     1      16.645 -33.349  -2.147  1.00  0.00     0.000 C 
BRANCH   2   3
ATOM      3  C   UNL     1      15.224 -32.983  -1.683  1.00  0.00     0.000 C 
BRANCH   3   4
ATOM      4  C   UNL     1      14.112 -33.637  -2.535  1.00  0.00     0.000 C 
BRANCH   4   5
ATOM      5  C   UNL     1      13.553 -34.913  -1.886  1.00  0.00     0.000 C 
BRANCH   5   6
ATOM      6  C   UNL     1      13.650 -34.887  -0.352  1.00  0.00     0.000 C 
BRANCH   6   7
ATOM      7  C   UNL     1      13.526 -36.289   0.269  1.00  0.00     0.000 C 
BRANCH   7   8
ATOM      8  C   UNL     1      14.543 -36.527   1.399  1.00  0.00     0.000 C 
BRANCH   8   9
ATOM      9  C   UNL     1      15.270 -35.241   1.853  1.00  0.00     0.000 C 
BRANCH   9  10
ATOM     10  C   UNL     1      16.610 -35.513   2.568  1.00  0.00     0.006 C 
BRANCH  10  11
ATOM     11  C   UNL     1      16.507 -36.543   3.706  1.00  0.00     0.053 C 
BRANCH  11  12
ATOM     12  C   UNL     1      16.637 -35.906   5.056  1.00  0.00     0.041 C 
ATOM     13  O   UNL     1      16.054 -34.816   5.303  1.00  0.00    -0.550 OA
ATOM     14  O   UNL     1      17.390 -36.524   6.047  1.00  0.00    -0.550 OA
ENDBRANCH  11  12
ENDBRANCH  10  11
ENDBRANCH   9  10
ENDBRANCH   8   9
ENDBRANCH   7   8
ENDBRANCH   6   7
ENDBRANCH   5   6
ENDBRANCH   4   5
ENDBRANCH   3   4
ENDBRANCH   2   3
ENDBRANCH   1   2
BRANCH   1  15
ATOM     15  C   UNL     1      17.201 -35.640  -1.083  1.00  0.00     0.000 C 
BRANCH  15  16
ATOM     16  C   UNL     1      17.650 -36.351  -2.372  1.00  0.00     0.000 C 
BRANCH  16  17
ATOM     17  C   UNL     1      17.135 -37.797  -2.461  1.00  0.00     0.000 C 
BRANCH  17  18
ATOM     18  C   UNL     1      15.600 -37.885  -2.410  1.00  0.00    -0.000 C 
BRANCH  18  19
ATOM     19  C   UNL     1      15.093 -39.332  -2.274  1.00  0.00    -0.000 C 
BRANCH  19  20
ATOM     20  C   UNL     1      13.901 -39.513  -1.312  1.00  0.00    -0.000 C 
BRANCH  20  21
ATOM     21  C   UNL     1      14.249 -40.162   0.044  1.00  0.00    -0.000 C 
BRANCH  21  22
ATOM     22  C   UNL     1      15.755 -40.285   0.337  1.00  0.00    -0.000 C 
BRANCH  22  23
ATOM     23  C   UNL     1      16.139 -39.748   1.724  1.00  0.00    -0.000 C 
BRANCH  23  24
ATOM     24  C   UNL     1      17.658 -39.579   1.850  1.00  0.00    -0.000 C 
BRANCH  24  25
ATOM     25  C   UNL     1      18.255 -39.002   0.561  1.00  0.00    -0.003 C 
ATOM     26  C   UNL     1      19.154 -37.806   0.855  1.00  0.00     0.004 C 
ENDBRANCH  24  25
ENDBRANCH  23  24
ENDBRANCH  22  23
ENDBRANCH  21  22
ENDBRANCH  20  21
ENDBRANCH  19  20
ENDBRANCH  18  19
ENDBRANCH  17  18
ENDBRANCH  16  17
ENDBRANCH  15  16
ENDBRANCH   1  15
TORSDOF 22
ENDMDL
MODEL 5
REMARK VINA RESULT:    -3.370      1.688      4.801
REMARK INTER + INTRA:         -12.133
REMARK INTER:                  -8.159
REMARK INTRA:                  -3.974
REMARK UNBOUND:                -4.428
REMARK SMILES CCCCCCCCCCCCCCCCCCCCCCCC(=O)[O-]
REMARK SMILES IDX 13 1 14 2 15 3 16 4 17 5 18 6 19 7 20 8 21 9 22 10 23 11
REMARK SMILES IDX 24 12 25 13 26 14 12 15 11 16 10 17 9 18 8 19 7 20 6 21 5 22
REMARK SMILES IDX 4 23 3 24 2 25 1 26
REMARK H PARENT
REMARK Flexibility Score: inf
ROOT
ATOM      1  C   UNL     1      15.816 -32.939  -2.035  1.00  0.00     0.000 C 
ENDROOT
BRANCH   1   2
ATOM      2  C   UNL     1      14.562 -33.791  -2.311  1.00  0.00     0.000 C 
BRANCH   2   3
ATOM      3  C   UNL     1      13.702 -34.087  -1.069  1.00  0.00     0.000 C 
BRANCH   3   4
ATOM      4  C   UNL     1      13.263 -35.566  -0.964  1.00  0.00     0.000 C 
BRANCH   4   5
ATOM      5  C   UNL     1      13.728 -36.221   0.346  1.00  0.00     0.000 C 
BRANCH   5   6
ATOM      6  C   UNL     1      14.481 -35.243   1.262  1.00  0.00     0.000 C 
BRANCH   6   7
ATOM      7  C   UNL     1      14.327 -35.594   2.752  1.00  0.00     0.000 C 
BRANCH   7   8
ATOM      8  C   UNL     1      15.681 -35.799   3.454  1.00  0.00     0.000 C 
BRANCH   8   9
ATOM      9  C   UNL     1      16.790 -36.319   2.511  1.00  0.00     0.000 C 
BRANCH   9  10
ATOM     10  C   UNL     1      17.017 -37.841   2.612  1.00  0.00     0.006 C 
BRANCH  10  11
ATOM     11  C   UNL     1      16.688 -38.604   1.317  1.00  0.00     0.053 C 
BRANCH  11  12
ATOM     12  C   UNL     1      17.853 -39.409   0.826  1.00  0.00     0.041 C 
ATOM     13  O   UNL     1      18.933 -38.840   0.515  1.00  0.00    -0.550 OA
ATOM     14  O   UNL     1      17.749 -40.791   0.724  1.00  0.00    -0.550 OA
ENDBRANCH  11  12
ENDBRANCH  10  11
ENDBRANCH   9  10
ENDBRANCH   8   9
ENDBRANCH   7   8
ENDBRANCH   6   7
ENDBRANCH   5   6
ENDBRANCH   4   5
ENDBRANCH   3   4
ENDBRANCH   2   3
ENDBRANCH   1   2
BRANCH   1  15
ATOM     15  C   UNL     1      17.141 -33.727  -2.124  1.00  0.00     0.000 C 
BRANCH  15  16
ATOM     16  C   UNL     1      17.532 -34.394  -0.794  1.00  0.00     0.000 C 
BRANCH  16  17
ATOM     17  C   UNL     1      17.447 -35.927  -0.853  1.00  0.00     0.000 C 
BRANCH  17  18
ATOM     18  C   UNL     1      17.837 -36.492  -2.229  1.00  0.00    -0.000 C 
BRANCH  18  19
ATOM     19  C   UNL     1      17.166 -37.845  -2.528  1.00  0.00    -0.000 C 
BRANCH  19  20
ATOM     20  C   UNL     1      15.652 -37.894  -2.238  1.00  0.00    -0.000 C 
BRANCH  20  21
ATOM     21  C   UNL     1      15.082 -39.304  -1.976  1.00  0.00    -0.000 C 
BRANCH  21  22
ATOM     22  C   UNL     1      13.797 -39.639  -2.754  1.00  0.00    -0.000 C 
BRANCH  22  23
ATOM     23  C   UNL     1      14.015 -39.687  -4.274  1.00  0.00    -0.000 C 
BRANCH  23  24
ATOM     24  C   UNL     1      14.127 -41.133  -4.770  1.00  0.00    -0.000 C 
BRANCH  24  25
ATOM     25  C   UNL     1      15.583 -41.612  -4.744  1.00  0.00    -0.003 C 
ATOM     26  C   UNL     1      16.518 -40.574  -5.356  1.00  0.00     0.004 C 
ENDBRANCH  24  25
ENDBRANCH  23  24
ENDBRANCH  22  23
ENDBRANCH  21  22
ENDBRANCH  20  21
ENDBRANCH  19  20
ENDBRANCH  18  19
ENDBRANCH  17  18
ENDBRANCH  16  17
ENDBRANCH  15  16
ENDBRANCH   1  15
TORSDOF 22
ENDMDL
MODEL 6
REMARK VINA RESULT:    -3.330      1.482      4.259
REMARK INTER + INTRA:         -12.041
REMARK INTER:                  -8.406
REMARK INTRA:                  -3.635
REMARK UNBOUND:                -4.428
REMARK SMILES CCCCCCCCCCCCCCCCCCCCCCCC(=O)[O-]
REMARK SMILES IDX 13 1 14 2 15 3 16 4 17 5 18 6 19 7 20 8 21 9 22 10 23 11
REMARK SMILES IDX 24 12 25 13 26 14 12 15 11 16 10 17 9 18 8 19 7 20 6 21 5 22
REMARK SMILES IDX 4 23 3 24 2 25 1 26
REMARK H PARENT
REMARK Flexibility Score: inf
ROOT
ATOM      1  C   UNL     1      17.946 -37.482  -1.274  1.00  0.00     0.000 C 
ENDROOT
BRANCH   1   2
ATOM      2  C   UNL     1      18.064 -37.198   0.235  1.00  0.00     0.000 C 
BRANCH   2   3
ATOM      3  C   UNL     1      17.076 -37.984   1.114  1.00  0.00     0.000 C 
BRANCH   3   4
ATOM      4  C   UNL     1      15.910 -37.122   1.651  1.00  0.00     0.000 C 
BRANCH   4   5
ATOM      5  C   UNL     1      16.271 -35.630   1.722  1.00  0.00     0.000 C 
BRANCH   5   6
ATOM      6  C   UNL     1      16.687 -35.189   3.134  1.00  0.00     0.000 C 
BRANCH   6   7
ATOM      7  C   UNL     1      16.041 -36.050   4.234  1.00  0.00     0.000 C 
BRANCH   7   8
ATOM      8  C   UNL     1      16.733 -35.884   5.598  1.00  0.00     0.000 C 
BRANCH   8   9
ATOM      9  C   UNL     1      17.447 -37.165   6.084  1.00  0.00     0.000 C 
BRANCH   9  10
ATOM     10  C   UNL     1      17.202 -38.387   5.175  1.00  0.00     0.006 C 
BRANCH  10  11
ATOM     11  C   UNL     1      18.380 -39.376   5.136  1.00  0.00     0.053 C 
BRANCH  11  12
ATOM     12  C   UNL     1      18.586 -39.954   3.770  1.00  0.00     0.041 C 
ATOM     13  O   UNL     1      19.583 -39.614   3.079  1.00  0.00    -0.550 OA
ATOM     14  O   UNL     1      17.683 -40.882   3.263  1.00  0.00    -0.550 OA
ENDBRANCH  11  12
ENDBRANCH  10  11
ENDBRANCH   9  10
ENDBRANCH   8   9
ENDBRANCH   7   8
ENDBRANCH   6   7
ENDBRANCH   5   6
ENDBRANCH   4   5
ENDBRANCH   3   4
ENDBRANCH   2   3
ENDBRANCH   1   2
BRANCH   1  15
ATOM     15  C   UNL     1      17.747 -36.215  -2.136  1.00  0.00     0.000 C 
BRANCH  15  16
ATOM     16  C   UNL     1      17.490 -34.953  -1.294  1.00  0.00     0.000 C 
BRANCH  16  17
ATOM     17  C   UNL     1      17.410 -33.678  -2.148  1.00  0.00     0.000 C 
BRANCH  17  18
ATOM     18  C   UNL     1      16.002 -33.058  -2.161  1.00  0.00    -0.000 C 
BRANCH  18  19
ATOM     19  C   UNL     1      14.997 -33.848  -1.302  1.00  0.00    -0.000 C 
BRANCH  19  20
ATOM     20  C   UNL     1      14.058 -34.778  -2.097  1.00  0.00    -0.000 C 
BRANCH  20  21
ATOM     21  C   UNL     1      13.769 -36.139  -1.430  1.00  0.00    -0.000 C 
BRANCH  21  22
ATOM     22  C   UNL     1      14.349 -37.359  -2.168  1.00  0.00    -0.000 C 
BRANCH  22  23
ATOM     23  C   UNL     1      14.268 -38.651  -1.341  1.00  0.00    -0.000 C 
BRANCH  23  24
ATOM     24  C   UNL     1      15.087 -39.773  -1.988  1.00  0.00    -0.000 C 
BRANCH  24  25
ATOM     25  C   UNL     1      15.681 -39.318  -3.327  1.00  0.00    -0.003 C 
ATOM     26  C   UNL     1      15.584 -40.420  -4.378  1.00  0.00     0.004 C 
ENDBRANCH  24  25
ENDBRANCH  23  24
ENDBRANCH  22  23
ENDBRANCH  21  22
ENDBRANCH  20  21
ENDBRANCH  19  20
ENDBRANCH  18  19
ENDBRANCH  17  18
ENDBRANCH  16  17
ENDBRANCH  15  16
ENDBRANCH   1  15
TORSDOF 22
ENDMDL
MODEL 7
REMARK VINA RESULT:    -3.318      2.497      5.558
REMARK INTER + INTRA:         -12.013
REMARK INTER:                  -7.697
REMARK INTRA:                  -4.316
REMARK UNBOUND:                -4.428
REMARK SMILES CCCCCCCCCCCCCCCCCCCCCCCC(=O)[O-]
REMARK SMILES IDX 13 1 14 2 15 3 16 4 17 5 18 6 19 7 20 8 21 9 22 10 23 11
REMARK SMILES IDX 24 12 25 13 26 14 12 15 11 16 10 17 9 18 8 19 7 20 6 21 5 22
REMARK SMILES IDX 4 23 3 24 2 25 1 26
REMARK H PARENT
REMARK Flexibility Score: inf
ROOT
ATOM      1  C   UNL     1      17.063 -35.930  -2.145  1.00  0.00     0.000 C 
ENDROOT
BRANCH   1   2
ATOM      2  C   UNL     1      17.785 -37.141  -1.525  1.00  0.00     0.000 C 
BRANCH   2   3
ATOM      3  C   UNL     1      18.186 -36.962  -0.050  1.00  0.00     0.000 C 
BRANCH   3   4
ATOM      4  C   UNL     1      18.870 -38.208   0.557  1.00  0.00     0.000 C 
BRANCH   4   5
ATOM      5  C   UNL     1      18.044 -39.487   0.351  1.00  0.00     0.000 C 
BRANCH   5   6
ATOM      6  C   UNL     1      16.915 -39.634   1.384  1.00  0.00     0.000 C 
BRANCH   6   7
ATOM      7  C   UNL     1      15.525 -39.706   0.730  1.00  0.00     0.000 C 
BRANCH   7   8
ATOM      8  C   UNL     1      15.595 -39.994  -0.780  1.00  0.00     0.000 C 
BRANCH   8   9
ATOM      9  C   UNL     1      14.649 -39.106  -1.619  1.00  0.00     0.000 C 
BRANCH   9  10
ATOM     10  C   UNL     1      14.888 -39.220  -3.139  1.00  0.00     0.006 C 
BRANCH  10  11
ATOM     11  C   UNL     1      15.679 -40.475  -3.549  1.00  0.00     0.053 C 
BRANCH  11  12
ATOM     12  C   UNL     1      15.809 -40.599  -5.036  1.00  0.00     0.041 C 
ATOM     13  O   UNL     1      16.834 -41.127  -5.543  1.00  0.00    -0.550 OA
ATOM     14  O   UNL     1      14.789 -40.142  -5.864  1.00  0.00    -0.550 OA
ENDBRANCH  11  12
ENDBRANCH  10  11
ENDBRANCH   9  10
ENDBRANCH   8   9
ENDBRANCH   7   8
ENDBRANCH   6   7
ENDBRANCH   5   6
ENDBRANCH   4   5
ENDBRANCH   3   4
ENDBRANCH   2   3
ENDBRANCH   1   2
BRANCH   1  15
ATOM     15  C   UNL     1      17.361 -34.591  -1.435  1.00  0.00     0.000 C 
BRANCH  15  16
ATOM     16  C   UNL     1      16.683 -33.388  -2.114  1.00  0.00     0.000 C 
BRANCH  16  17
ATOM     17  C   UNL     1      15.281 -33.104  -1.553  1.00  0.00     0.000 C 
BRANCH  17  18
ATOM     18  C   UNL     1      14.160 -33.477  -2.538  1.00  0.00    -0.000 C 
BRANCH  18  19
ATOM     19  C   UNL     1      13.360 -34.713  -2.086  1.00  0.00    -0.000 C 
BRANCH  19  20
ATOM     20  C   UNL     1      13.074 -34.781  -0.573  1.00  0.00    -0.000 C 
BRANCH  20  21
ATOM     21  C   UNL     1      13.386 -36.138   0.091  1.00  0.00    -0.000 C 
BRANCH  21  22
ATOM     22  C   UNL     1      14.772 -36.231   0.755  1.00  0.00    -0.000 C 
BRANCH  22  23
ATOM     23  C   UNL     1      15.036 -35.088   1.748  1.00  0.00    -0.000 C 
BRANCH  23  24
ATOM     24  C   UNL     1      16.412 -35.237   2.407  1.00  0.00    -0.000 C 
BRANCH  24  25
ATOM     25  C   UNL     1      16.461 -36.480   3.304  1.00  0.00    -0.003 C 
ATOM     26  C   UNL     1      16.298 -36.108   4.774  1.00  0.00     0.004 C 
ENDBRANCH  24  25
ENDBRANCH  23  24
ENDBRANCH  22  23
ENDBRANCH  21  22
ENDBRANCH  20  21
ENDBRANCH  19  20
ENDBRANCH  18  19
ENDBRANCH  17  18
ENDBRANCH  16  17
ENDBRANCH  15  16
ENDBRANCH   1  15
TORSDOF 22
ENDMDL
MODEL 8
REMARK VINA RESULT:    -3.303      2.796      4.836
REMARK INTER + INTRA:         -11.979
REMARK INTER:                  -8.924
REMARK INTRA:                  -3.055
REMARK UNBOUND:                -4.428
REMARK SMILES CCCCCCCCCCCCCCCCCCCCCCCC(=O)[O-]
REMARK SMILES IDX 13 1 14 2 15 3 16 4 17 5 18 6 19 7 20 8 21 9 22 10 23 11
REMARK SMILES IDX 24 12 25 13 26 14 12 15 11 16 10 17 9 18 8 19 7 20 6 21 5 22
REMARK SMILES IDX 4 23 3 24 2 25 1 26
REMARK H PARENT
REMARK Flexibility Score: inf
ROOT
ATOM      1  C   UNL     1      17.833 -38.097  -1.022  1.00  0.00     0.000 C 
ENDROOT
BRANCH   1   2
ATOM      2  C   UNL     1      18.550 -37.789   0.307  1.00  0.00     0.000 C 
BRANCH   2   3
ATOM      3  C   UNL     1      17.619 -37.682   1.527  1.00  0.00     0.000 C 
BRANCH   3   4
ATOM      4  C   UNL     1      16.161 -37.322   1.159  1.00  0.00     0.000 C 
BRANCH   4   5
ATOM      5  C   UNL     1      15.786 -35.894   1.588  1.00  0.00     0.000 C 
BRANCH   5   6
ATOM      6  C   UNL     1      16.768 -35.308   2.615  1.00  0.00     0.000 C 
BRANCH   6   7
ATOM      7  C   UNL     1      16.129 -35.129   4.003  1.00  0.00     0.000 C 
BRANCH   7   8
ATOM      8  C   UNL     1      16.630 -36.167   5.023  1.00  0.00     0.000 C 
BRANCH   8   9
ATOM      9  C   UNL     1      16.915 -35.568   6.419  1.00  0.00     0.000 C 
BRANCH   9  10
ATOM     10  C   UNL     1      17.692 -36.522   7.349  1.00  0.00     0.006 C 
BRANCH  10  11
ATOM     11  C   UNL     1      18.512 -35.801   8.432  1.00  0.00     0.053 C 
BRANCH  11  12
ATOM     12  C   UNL     1      19.982 -35.840   8.146  1.00  0.00     0.041 C 
ATOM     13  O   UNL     1      20.709 -34.847   8.415  1.00  0.00    -0.550 OA
ATOM     14  O   UNL     1      20.553 -36.981   7.594  1.00  0.00    -0.550 OA
ENDBRANCH  11  12
ENDBRANCH  10  11
ENDBRANCH   9  10
ENDBRANCH   8   9
ENDBRANCH   7   8
ENDBRANCH   6   7
ENDBRANCH   5   6
ENDBRANCH   4   5
ENDBRANCH   3   4
ENDBRANCH   2   3
ENDBRANCH   1   2
BRANCH   1  15
ATOM     15  C   UNL     1      18.082 -37.047  -2.127  1.00  0.00     0.000 C 
BRANCH  15  16
ATOM     16  C   UNL     1      17.001 -35.953  -2.168  1.00  0.00     0.000 C 
BRANCH  16  17
ATOM     17  C   UNL     1      17.397 -34.698  -1.375  1.00  0.00     0.000 C 
BRANCH  17  18
ATOM     18  C   UNL     1      17.174 -33.399  -2.168  1.00  0.00    -0.000 C 
BRANCH  18  19
ATOM     19  C   UNL     1      15.689 -33.005  -2.257  1.00  0.00    -0.000 C 
BRANCH  19  20
ATOM     20  C   UNL     1      14.864 -33.296  -0.987  1.00  0.00    -0.000 C 
BRANCH  20  21
ATOM     21  C   UNL     1      13.714 -34.307  -1.172  1.00  0.00    -0.000 C 
BRANCH  21  22
ATOM     22  C   UNL     1      13.266 -34.520  -2.630  1.00  0.00    -0.000 C 
BRANCH  22  23
ATOM     23  C   UNL     1      12.919 -35.984  -2.939  1.00  0.00    -0.000 C 
BRANCH  23  24
ATOM     24  C   UNL     1      13.631 -36.937  -1.971  1.00  0.00    -0.000 C 
BRANCH  24  25
ATOM     25  C   UNL     1      13.513 -38.390  -2.444  1.00  0.00    -0.003 C 
ATOM     26  C   UNL     1      14.862 -38.935  -2.900  1.00  0.00     0.004 C 
ENDBRANCH  24  25
ENDBRANCH  23  24
ENDBRANCH  22  23
ENDBRANCH  21  22
ENDBRANCH  20  21
ENDBRANCH  19  20
ENDBRANCH  18  19
ENDBRANCH  17  18
ENDBRANCH  16  17
ENDBRANCH  15  16
ENDBRANCH   1  15
TORSDOF 22
ENDMDL
MODEL 9
REMARK VINA RESULT:    -3.268      1.518      4.723
REMARK INTER + INTRA:         -11.899
REMARK INTER:                  -7.116
REMARK INTRA:                  -4.783
REMARK UNBOUND:                -4.428
REMARK SMILES CCCCCCCCCCCCCCCCCCCCCCCC(=O)[O-]
REMARK SMILES IDX 13 1 14 2 15 3 16 4 17 5 18 6 19 7 20 8 21 9 22 10 23 11
REMARK SMILES IDX 24 12 25 13 26 14 12 15 11 16 10 17 9 18 8 19 7 20 6 21 5 22
REMARK SMILES IDX 4 23 3 24 2 25 1 26
REMARK H PARENT
REMARK Flexibility Score: inf
ROOT
ATOM      1  C   UNL     1      16.497 -33.587  -2.137  1.00  0.00     0.000 C 
ENDROOT
BRANCH   1   2
ATOM      2  C   UNL     1      15.220 -32.883  -1.638  1.00  0.00     0.000 C 
BRANCH   2   3
ATOM      3  C   UNL     1      14.042 -33.826  -1.341  1.00  0.00     0.000 C 
BRANCH   3   4
ATOM      4  C   UNL     1      13.865 -34.135   0.163  1.00  0.00     0.000 C 
BRANCH   4   5
ATOM      5  C   UNL     1      13.683 -35.637   0.433  1.00  0.00     0.000 C 
BRANCH   5   6
ATOM      6  C   UNL     1      14.427 -36.105   1.694  1.00  0.00     0.000 C 
BRANCH   6   7
ATOM      7  C   UNL     1      15.514 -35.112   2.139  1.00  0.00     0.000 C 
BRANCH   7   8
ATOM      8  C   UNL     1      16.548 -35.750   3.084  1.00  0.00     0.000 C 
BRANCH   8   9
ATOM      9  C   UNL     1      15.978 -36.917   3.921  1.00  0.00     0.000 C 
BRANCH   9  10
ATOM     10  C   UNL     1      17.056 -37.698   4.700  1.00  0.00     0.006 C 
BRANCH  10  11
ATOM     11  C   UNL     1      17.016 -39.217   4.461  1.00  0.00     0.053 C 
BRANCH  11  12
ATOM     12  C   UNL     1      18.388 -39.812   4.380  1.00  0.00     0.041 C 
ATOM     13  O   UNL     1      18.641 -40.715   3.538  1.00  0.00    -0.550 OA
ATOM     14  O   UNL     1      19.394 -39.357   5.224  1.00  0.00    -0.550 OA
ENDBRANCH  11  12
ENDBRANCH  10  11
ENDBRANCH   9  10
ENDBRANCH   8   9
ENDBRANCH   7   8
ENDBRANCH   6   7
ENDBRANCH   5   6
ENDBRANCH   4   5
ENDBRANCH   3   4
ENDBRANCH   2   3
ENDBRANCH   1   2
BRANCH   1  15
ATOM     15  C   UNL     1      17.406 -34.113  -1.004  1.00  0.00     0.000 C 
BRANCH  15  16
ATOM     16  C   UNL     1      17.390 -35.647  -0.888  1.00  0.00     0.000 C 
BRANCH  16  17
ATOM     17  C   UNL     1      17.770 -36.345  -2.203  1.00  0.00     0.000 C 
BRANCH  17  18
ATOM     18  C   UNL     1      16.831 -37.513  -2.550  1.00  0.00    -0.000 C 
BRANCH  18  19
ATOM     19  C   UNL     1      15.361 -37.218  -2.197  1.00  0.00    -0.000 C 
BRANCH  19  20
ATOM     20  C   UNL     1      14.421 -38.438  -2.272  1.00  0.00    -0.000 C 
BRANCH  20  21
ATOM     21  C   UNL     1      14.160 -39.146  -0.927  1.00  0.00    -0.000 C 
BRANCH  21  22
ATOM     22  C   UNL     1      15.178 -40.243  -0.564  1.00  0.00    -0.000 C 
BRANCH  22  23
ATOM     23  C   UNL     1      15.775 -40.063   0.840  1.00  0.00    -0.000 C 
BRANCH  23  24
ATOM     24  C   UNL     1      16.660 -38.812   0.906  1.00  0.00    -0.000 C 
BRANCH  24  25
ATOM     25  C   UNL     1      18.099 -39.135   0.488  1.00  0.00    -0.003 C 
ATOM     26  C   UNL     1      19.066 -38.050   0.950  1.00  0.00     0.004 C 
ENDBRANCH  24  25
ENDBRANCH  23  24
ENDBRANCH  22  23
ENDBRANCH  21  22
ENDBRANCH  20  21
ENDBRANCH  19  20
ENDBRANCH  18  19
ENDBRANCH  17  18
ENDBRANCH  16  17
ENDBRANCH  15  16
ENDBRANCH   1  15
TORSDOF 22
ENDMDL
