MODEL 1
REMARK VINA RESULT:    -4.439      0.000      0.000
REMARK INTER + INTRA:          -4.439
REMARK INTER:                  -4.439
REMARK INTRA:                   0.000
REMARK UNBOUND:                 0.000
REMARK SMILES O=C1CCCCC1
REMARK SMILES IDX 5 1 4 2 3 3 2 4 1 5 7 6 6 7
REMARK H PARENT
REMARK Flexibility Score: inf
ROOT
ATOM      1  C   UNL     1      11.118 -30.448 -23.602  1.00  0.00     0.001 C 
ATOM      2  C   UNL     1      11.334 -29.050 -23.002  1.00  0.00     0.008 C 
ATOM      3  C   UNL     1      12.638 -28.983 -22.195  1.00  0.00     0.075 C 
ATOM      4  C   UNL     1      12.704 -30.121 -21.213  1.00  0.00     0.132 C 
ATOM      5  O   UNL     1      13.088 -29.927 -20.070  1.00  0.00    -0.300 OA
ATOM      6  C   UNL     1      12.384 -31.514 -21.681  1.00  0.00     0.075 C 
ATOM      7  C   UNL     1      11.087 -31.518 -22.501  1.00  0.00     0.008 C 
ENDROOT
TORSDOF 0
ENDMDL
MODEL 2
REMARK VINA RESULT:    -4.406      1.542      2.704
REMARK INTER + INTRA:          -4.406
REMARK INTER:                  -4.406
REMARK INTRA:                   0.000
REMARK UNBOUND:                 0.000
REMARK SMILES O=C1CCCCC1
REMARK SMILES IDX 5 1 4 2 3 3 2 4 1 5 7 6 6 7
REMARK H PARENT
REMARK Flexibility Score: inf
ROOT
ATOM      1  C   UNL     1      12.652 -28.875 -22.250  1.00  0.00     0.001 C 
ATOM      2  C   UNL     1      12.782 -29.797 -21.028  1.00  0.00     0.008 C 
ATOM      3  C   UNL     1      12.670 -31.274 -21.427  1.00  0.00     0.075 C 
ATOM      4  C   UNL     1      11.446 -31.497 -22.273  1.00  0.00     0.132 C 
ATOM      5  O   UNL     1      10.731 -32.467 -22.078  1.00  0.00    -0.300 OA
ATOM      6  C   UNL     1      11.167 -30.566 -23.420  1.00  0.00     0.075 C 
ATOM      7  C   UNL     1      11.316 -29.106 -22.971  1.00  0.00     0.008 C 
ENDROOT
TORSDOF 0
ENDMDL
MODEL 3
REMARK VINA RESULT:    -4.329      1.908      2.702
REMARK INTER + INTRA:          -4.329
REMARK INTER:                  -4.329
REMARK INTRA:                   0.000
REMARK UNBOUND:                 0.000
REMARK SMILES O=C1CCCCC1
REMARK SMILES IDX 5 1 4 2 3 3 2 4 1 5 7 6 6 7
REMARK H PARENT
REMARK Flexibility Score: inf
ROOT
ATOM      1  C   UNL     1      12.727 -30.577 -20.740  1.00  0.00     0.001 C 
ATOM      2  C   UNL     1      13.029 -29.465 -21.757  1.00  0.00     0.008 C 
ATOM      3  C   UNL     1      11.806 -29.160 -22.632  1.00  0.00     0.075 C 
ATOM      4  C   UNL     1      11.250 -30.431 -23.216  1.00  0.00     0.132 C 
ATOM      5  O   UNL     1      10.904 -30.472 -24.386  1.00  0.00    -0.300 OA
ATOM      6  C   UNL     1      11.037 -31.619 -22.319  1.00  0.00     0.075 C 
ATOM      7  C   UNL     1      12.279 -31.863 -21.451  1.00  0.00     0.008 C 
ENDROOT
TORSDOF 0
ENDMDL
MODEL 4
REMARK VINA RESULT:    -4.308      1.882      3.414
REMARK INTER + INTRA:          -4.308
REMARK INTER:                  -4.308
REMARK INTRA:                   0.000
REMARK UNBOUND:                 0.000
REMARK SMILES O=C1CCCCC1
REMARK SMILES IDX 5 1 4 2 3 3 2 4 1 5 7 6 6 7
REMARK H PARENT
REMARK Flexibility Score: inf
ROOT
ATOM      1  C   UNL     1      12.982 -31.467 -19.576  1.00  0.00     0.001 C 
ATOM      2  C   UNL     1      11.934 -32.388 -20.219  1.00  0.00     0.008 C 
ATOM      3  C   UNL     1      12.041 -32.374 -21.750  1.00  0.00     0.075 C 
ATOM      4  C   UNL     1      12.054 -30.959 -22.261  1.00  0.00     0.132 C 
ATOM      5  O   UNL     1      11.394 -30.652 -23.242  1.00  0.00    -0.300 OA
ATOM      6  C   UNL     1      12.959 -29.951 -21.609  1.00  0.00     0.075 C 
ATOM      7  C   UNL     1      12.829 -30.025 -20.082  1.00  0.00     0.008 C 
ENDROOT
TORSDOF 0
ENDMDL
MODEL 5
REMARK VINA RESULT:    -4.272      1.546      2.704
REMARK INTER + INTRA:          -4.272
REMARK INTER:                  -4.272
REMARK INTRA:                   0.000
REMARK UNBOUND:                 0.000
REMARK SMILES O=C1CCCCC1
REMARK SMILES IDX 5 1 4 2 3 3 2 4 1 5 7 6 6 7
REMARK H PARENT
REMARK Flexibility Score: inf
ROOT
ATOM      1  C   UNL     1      12.332 -29.780 -22.083  1.00  0.00     0.001 C 
ATOM      2  C   UNL     1      12.254 -31.300 -22.284  1.00  0.00     0.008 C 
ATOM      3  C   UNL     1      11.854 -32.017 -20.987  1.00  0.00     0.075 C 
ATOM      4  C   UNL     1      12.726 -31.562 -19.848  1.00  0.00     0.132 C 
ATOM      5  O   UNL     1      13.171 -32.374 -19.052  1.00  0.00    -0.300 OA
ATOM      6  C   UNL     1      12.963 -30.091 -19.646  1.00  0.00     0.075 C 
ATOM      7  C   UNL     1      13.336 -29.423 -20.977  1.00  0.00     0.008 C 
ENDROOT
TORSDOF 0
ENDMDL
MODEL 6
REMARK VINA RESULT:    -4.270      1.511      2.756
REMARK INTER + INTRA:          -4.270
REMARK INTER:                  -4.270
REMARK INTRA:                   0.000
REMARK UNBOUND:                 0.000
REMARK SMILES O=C1CCCCC1
REMARK SMILES IDX 5 1 4 2 3 3 2 4 1 5 7 6 6 7
REMARK H PARENT
REMARK Flexibility Score: inf
ROOT
ATOM      1  C   UNL     1      11.898 -32.473 -20.305  1.00  0.00     0.001 C 
ATOM      2  C   UNL     1      12.914 -31.765 -19.395  1.00  0.00     0.008 C 
ATOM      3  C   UNL     1      12.859 -30.242 -19.573  1.00  0.00     0.075 C 
ATOM      4  C   UNL     1      12.942 -29.882 -21.031  1.00  0.00     0.132 C 
ATOM      5  O   UNL     1      13.650 -28.956 -21.398  1.00  0.00    -0.300 OA
ATOM      6  C   UNL     1      12.073 -30.611 -22.019  1.00  0.00     0.075 C 
ATOM      7  C   UNL     1      12.148 -32.125 -21.780  1.00  0.00     0.008 C 
ENDROOT
TORSDOF 0
ENDMDL
MODEL 7
REMARK VINA RESULT:    -4.265      1.362      1.893
REMARK INTER + INTRA:          -4.265
REMARK INTER:                  -4.265
REMARK INTRA:                   0.000
REMARK UNBOUND:                 0.000
REMARK SMILES O=C1CCCCC1
REMARK SMILES IDX 5 1 4 2 3 3 2 4 1 5 7 6 6 7
REMARK H PARENT
REMARK Flexibility Score: inf
ROOT
ATOM      1  C   UNL     1      12.122 -31.990 -21.935  1.00  0.00     0.001 C 
ATOM      2  C   UNL     1      12.041 -30.468 -22.129  1.00  0.00     0.008 C 
ATOM      3  C   UNL     1      13.066 -29.737 -21.252  1.00  0.00     0.075 C 
ATOM      4  C   UNL     1      12.967 -30.209 -19.827  1.00  0.00     0.132 C 
ATOM      5  O   UNL     1      13.007 -29.406 -18.908  1.00  0.00    -0.300 OA
ATOM      6  C   UNL     1      12.912 -31.685 -19.545  1.00  0.00     0.075 C 
ATOM      7  C   UNL     1      11.891 -32.368 -20.464  1.00  0.00     0.008 C 
ENDROOT
TORSDOF 0
ENDMDL
MODEL 8
REMARK VINA RESULT:    -4.185     12.770     13.809
REMARK INTER + INTRA:          -4.185
REMARK INTER:                  -4.185
REMARK INTRA:                   0.000
REMARK UNBOUND:                 0.000
REMARK SMILES O=C1CCCCC1
REMARK SMILES IDX 5 1 4 2 3 3 2 4 1 5 7 6 6 7
REMARK H PARENT
REMARK Flexibility Score: inf
ROOT
ATOM      1  C   UNL     1      11.975 -30.649 -33.992  1.00  0.00     0.001 C 
ATOM      2  C   UNL     1      13.018 -29.719 -34.630  1.00  0.00     0.008 C 
ATOM      3  C   UNL     1      12.350 -28.621 -35.468  1.00  0.00     0.075 C 
ATOM      4  C   UNL     1      11.357 -29.223 -36.424  1.00  0.00     0.132 C 
ATOM      5  O   UNL     1      11.300 -28.834 -37.580  1.00  0.00    -0.300 OA
ATOM      6  C   UNL     1      10.373 -30.241 -35.916  1.00  0.00     0.075 C 
ATOM      7  C   UNL     1      11.090 -31.299 -35.067  1.00  0.00     0.008 C 
ENDROOT
TORSDOF 0
ENDMDL
MODEL 9
REMARK VINA RESULT:    -4.082     13.884     15.020
REMARK INTER + INTRA:          -4.082
REMARK INTER:                  -4.082
REMARK INTRA:                   0.000
REMARK UNBOUND:                 0.000
REMARK SMILES O=C1CCCCC1
REMARK SMILES IDX 5 1 4 2 3 3 2 4 1 5 7 6 6 7
REMARK H PARENT
REMARK Flexibility Score: inf
ROOT
ATOM      1  C   UNL     1      11.221 -30.053 -34.974  1.00  0.00     0.001 C 
ATOM      2  C   UNL     1       9.959 -30.324 -35.805  1.00  0.00     0.008 C 
ATOM      3  C   UNL     1      10.279 -30.392 -37.304  1.00  0.00     0.075 C 
ATOM      4  C   UNL     1      11.079 -29.188 -37.723  1.00  0.00     0.132 C 
ATOM      5  O   UNL     1      10.816 -28.605 -38.763  1.00  0.00    -0.300 OA
ATOM      6  C   UNL     1      12.264 -28.770 -36.897  1.00  0.00     0.075 C 
ATOM      7  C   UNL     1      11.894 -28.742 -35.408  1.00  0.00     0.008 C 
ENDROOT
TORSDOF 0
ENDMDL
