MODEL 1
REMARK VINA RESULT:    -7.731      0.000      0.000
REMARK INTER + INTRA:         -11.696
REMARK INTER:                 -10.442
REMARK INTRA:                  -1.254
REMARK UNBOUND:                -1.254
REMARK SMILES O=c1c(-c2ccc(O)cc2)coc2c([C@@H]3O[C@@H](CO)[C@@H](O)[C@H](O)[C@H]3O)c(O)ccc12
REMARK SMILES IDX 3 1 11 2 12 3 13 4 30 5 2 6 1 7 29 8 28 9 26 10 14 11 4 12
REMARK SMILES IDX 5 13 6 14 7 15 10 16 9 17 8 18 15 20 24 21 16 22 22 23 17 24
REMARK SMILES IDX 20 25 25 26 23 28 18 30 19 31 21 33 27 35
REMARK H PARENT 8 19 25 27 23 29 19 32 21 34 27 36
REMARK Flexibility Score: inf
ROOT
ATOM      1  C   UNL     1      19.471  33.076  10.704  1.00  0.00     0.065 A 
ATOM      2  C   UNL     1      19.479  31.861  10.002  1.00  0.00     0.208 A 
ATOM      3  O   UNL     1      18.460  31.016  10.087  1.00  0.00    -0.463 OA
ATOM      4  C   UNL     1      17.385  31.239  10.839  1.00  0.00     0.147 A 
ATOM      5  C   UNL     1      17.301  32.429  11.594  1.00  0.00     0.066 A 
ATOM      6  C   UNL     1      18.351  33.364  11.506  1.00  0.00     0.200 A 
ATOM      7  O   UNL     1      18.275  34.462  12.123  1.00  0.00    -0.288 OA
ATOM      8  C   UNL     1      16.186  32.654  12.410  1.00  0.00     0.020 A 
ATOM      9  C   UNL     1      15.144  31.733  12.443  1.00  0.00     0.047 A 
ATOM     10  C   UNL     1      15.179  30.577  11.655  1.00  0.00     0.125 A 
ATOM     11  C   UNL     1      16.333  30.290  10.873  1.00  0.00     0.069 A 
ENDROOT
BRANCH   1  12
ATOM     12  C   UNL     1      20.614  34.023  10.562  1.00  0.00    -0.011 A 
ATOM     13  C   UNL     1      20.709  34.853   9.430  1.00  0.00     0.013 A 
ATOM     14  C   UNL     1      21.775  35.749   9.294  1.00  0.00     0.047 A 
ATOM     15  C   UNL     1      22.765  35.822  10.280  1.00  0.00     0.115 A 
ATOM     16  C   UNL     1      21.610  34.106  11.552  1.00  0.00     0.013 A 
ATOM     17  C   UNL     1      22.679  35.001  11.410  1.00  0.00     0.047 A 
BRANCH  15  18
ATOM     18  O   UNL     1      23.833  36.706  10.123  1.00  0.00    -0.508 OA
ATOM     19  H   UNL     1      24.782  36.380  10.007  1.00  0.00     0.293 HD
ENDBRANCH  15  18
ENDBRANCH   1  12
BRANCH  11  20
ATOM     20  C   UNL     1      16.449  29.010  10.051  1.00  0.00     0.188 C 
ATOM     21  C   UNL     1      17.005  27.867  10.937  1.00  0.00     0.179 C 
ATOM     22  O   UNL     1      15.173  28.690   9.511  1.00  0.00    -0.362 OA
ATOM     23  C   UNL     1      17.039  26.550  10.149  1.00  0.00     0.177 C 
ATOM     24  C   UNL     1      15.183  27.509   8.719  1.00  0.00     0.176 C 
ATOM     25  C   UNL     1      15.664  26.287   9.532  1.00  0.00     0.177 C 
BRANCH  21  26
ATOM     26  O   UNL     1      18.310  28.177  11.355  1.00  0.00    -0.387 OA
ATOM     27  H   UNL     1      18.269  28.370  12.328  1.00  0.00     0.211 HD
ENDBRANCH  21  26
BRANCH  23  28
ATOM     28  O   UNL     1      17.362  25.491  11.012  1.00  0.00    -0.387 OA
ATOM     29  H   UNL     1      18.345  25.352  10.946  1.00  0.00     0.211 HD
ENDBRANCH  23  28
BRANCH  24  30
ATOM     30  C   UNL     1      15.909  27.697   7.361  1.00  0.00     0.191 C 
BRANCH  30  31
ATOM     31  O   UNL     1      15.192  27.077   6.329  1.00  0.00    -0.394 OA
ATOM     32  H   UNL     1      14.287  26.872   6.686  1.00  0.00     0.210 HD
ENDBRANCH  30  31
ENDBRANCH  24  30
BRANCH  25  33
ATOM     33  O   UNL     1      15.714  25.133   8.732  1.00  0.00    -0.388 OA
ATOM     34  H   UNL     1      15.790  25.444   7.792  1.00  0.00     0.211 HD
ENDBRANCH  25  33
ENDBRANCH  11  20
BRANCH  10  35
ATOM     35  O   UNL     1      14.040  29.765  11.675  1.00  0.00    -0.507 OA
ATOM     36  H   UNL     1      13.344  29.739  10.948  1.00  0.00     0.293 HD
ENDBRANCH  10  35
TORSDOF 9
ENDMDL
MODEL 2
REMARK VINA RESULT:    -7.484      3.587      5.174
REMARK INTER + INTRA:         -11.363
REMARK INTER:                 -10.219
REMARK INTRA:                  -1.144
REMARK UNBOUND:                -1.254
REMARK SMILES O=c1c(-c2ccc(O)cc2)coc2c([C@@H]3O[C@@H](CO)[C@@H](O)[C@H](O)[C@H]3O)c(O)ccc12
REMARK SMILES IDX 3 1 11 2 12 3 13 4 30 5 2 6 1 7 29 8 28 9 26 10 14 11 4 12
REMARK SMILES IDX 5 13 6 14 7 15 10 16 9 17 8 18 15 20 24 21 16 22 22 23 17 24
REMARK SMILES IDX 20 25 25 26 23 28 18 30 19 31 21 33 27 35
REMARK H PARENT 8 19 25 27 23 29 19 32 21 34 27 36
REMARK Flexibility Score: inf
ROOT
ATOM      1  C   UNL     1      16.075  32.361  11.991  1.00  0.00     0.065 A 
ATOM      2  C   UNL     1      16.494  31.097  12.432  1.00  0.00     0.208 A 
ATOM      3  O   UNL     1      16.873  30.163  11.569  1.00  0.00    -0.463 OA
ATOM      4  C   UNL     1      16.867  30.340  10.250  1.00  0.00     0.147 A 
ATOM      5  C   UNL     1      16.441  31.576   9.717  1.00  0.00     0.066 A 
ATOM      6  C   UNL     1      16.060  32.601  10.604  1.00  0.00     0.200 A 
ATOM      7  O   UNL     1      15.732  33.736  10.159  1.00  0.00    -0.288 OA
ATOM      8  C   UNL     1      16.405  31.757   8.329  1.00  0.00     0.020 A 
ATOM      9  C   UNL     1      16.829  30.741   7.479  1.00  0.00     0.047 A 
ATOM     10  C   UNL     1      17.313  29.531   7.987  1.00  0.00     0.125 A 
ATOM     11  C   UNL     1      17.293  29.295   9.391  1.00  0.00     0.069 A 
ENDROOT
BRANCH   1  12
ATOM     12  C   UNL     1      15.688  33.403  12.984  1.00  0.00    -0.011 A 
ATOM     13  C   UNL     1      14.474  33.294  13.688  1.00  0.00     0.013 A 
ATOM     14  C   UNL     1      14.109  34.264  14.627  1.00  0.00     0.047 A 
ATOM     15  C   UNL     1      14.943  35.360  14.871  1.00  0.00     0.115 A 
ATOM     16  C   UNL     1      16.525  34.505  13.239  1.00  0.00     0.013 A 
ATOM     17  C   UNL     1      16.153  35.477  14.177  1.00  0.00     0.047 A 
BRANCH  15  18
ATOM     18  O   UNL     1      14.557  36.330  15.797  1.00  0.00    -0.508 OA
ATOM     19  H   UNL     1      14.285  36.088  16.738  1.00  0.00     0.293 HD
ENDBRANCH  15  18
ENDBRANCH   1  12
BRANCH  11  20
ATOM     20  C   UNL     1      17.745  27.968   9.990  1.00  0.00     0.188 C 
ATOM     21  C   UNL     1      16.666  26.885   9.738  1.00  0.00     0.179 C 
ATOM     22  O   UNL     1      18.999  27.609   9.425  1.00  0.00    -0.362 OA
ATOM     23  C   UNL     1      17.149  25.521  10.254  1.00  0.00     0.177 C 
ATOM     24  C   UNL     1      19.508  26.380   9.932  1.00  0.00     0.176 C 
ATOM     25  C   UNL     1      18.530  25.214   9.672  1.00  0.00     0.177 C 
BRANCH  21  26
ATOM     26  O   UNL     1      15.479  27.226  10.408  1.00  0.00    -0.387 OA
ATOM     27  H   UNL     1      15.375  28.210  10.337  1.00  0.00     0.211 HD
ENDBRANCH  21  26
BRANCH  23  28
ATOM     28  O   UNL     1      16.252  24.519   9.852  1.00  0.00    -0.387 OA
ATOM     29  H   UNL     1      16.745  23.656   9.890  1.00  0.00     0.211 HD
ENDBRANCH  23  28
BRANCH  24  30
ATOM     30  C   UNL     1      19.998  26.488  11.399  1.00  0.00     0.191 C 
BRANCH  30  31
ATOM     31  O   UNL     1      20.828  25.406  11.723  1.00  0.00    -0.394 OA
ATOM     32  H   UNL     1      21.676  25.530  11.217  1.00  0.00     0.210 HD
ENDBRANCH  30  31
ENDBRANCH  24  30
BRANCH  25  33
ATOM     33  O   UNL     1      19.018  24.013  10.213  1.00  0.00    -0.388 OA
ATOM     34  H   UNL     1      18.590  23.277   9.700  1.00  0.00     0.211 HD
ENDBRANCH  25  33
ENDBRANCH  11  20
BRANCH  10  35
ATOM     35  O   UNL     1      17.815  28.611   7.059  1.00  0.00    -0.507 OA
ATOM     36  H   UNL     1      18.704  28.145   7.141  1.00  0.00     0.293 HD
ENDBRANCH  10  35
TORSDOF 9
ENDMDL
MODEL 3
REMARK VINA RESULT:    -7.385      3.108      4.680
REMARK INTER + INTRA:         -11.229
REMARK INTER:                  -9.924
REMARK INTRA:                  -1.304
REMARK UNBOUND:                -1.254
REMARK SMILES O=c1c(-c2ccc(O)cc2)coc2c([C@@H]3O[C@@H](CO)[C@@H](O)[C@H](O)[C@H]3O)c(O)ccc12
REMARK SMILES IDX 3 1 11 2 12 3 13 4 30 5 2 6 1 7 29 8 28 9 26 10 14 11 4 12
REMARK SMILES IDX 5 13 6 14 7 15 10 16 9 17 8 18 15 20 24 21 16 22 22 23 17 24
REMARK SMILES IDX 20 25 25 26 23 28 18 30 19 31 21 33 27 35
REMARK H PARENT 8 19 25 27 23 29 19 32 21 34 27 36
REMARK Flexibility Score: inf
ROOT
ATOM      1  C   UNL     1      17.021  31.555  11.667  1.00  0.00     0.065 A 
ATOM      2  C   UNL     1      16.153  31.036  10.695  1.00  0.00     0.208 A 
ATOM      3  O   UNL     1      16.389  29.862  10.124  1.00  0.00    -0.463 OA
ATOM      4  C   UNL     1      17.451  29.111  10.408  1.00  0.00     0.147 A 
ATOM      5  C   UNL     1      18.388  29.566  11.361  1.00  0.00     0.066 A 
ATOM      6  C   UNL     1      18.155  30.794  12.009  1.00  0.00     0.200 A 
ATOM      7  O   UNL     1      18.944  31.196  12.908  1.00  0.00    -0.288 OA
ATOM      8  C   UNL     1      19.522  28.793  11.640  1.00  0.00     0.020 A 
ATOM      9  C   UNL     1      19.703  27.564  11.015  1.00  0.00     0.047 A 
ATOM     10  C   UNL     1      18.756  27.066  10.114  1.00  0.00     0.125 A 
ATOM     11  C   UNL     1      17.631  27.864   9.759  1.00  0.00     0.069 A 
ENDROOT
BRANCH   1  12
ATOM     12  C   UNL     1      16.712  32.860  12.317  1.00  0.00    -0.011 A 
ATOM     13  C   UNL     1      17.244  34.054  11.796  1.00  0.00     0.013 A 
ATOM     14  C   UNL     1      16.952  35.283  12.396  1.00  0.00     0.047 A 
ATOM     15  C   UNL     1      16.135  35.339  13.530  1.00  0.00     0.115 A 
ATOM     16  C   UNL     1      15.886  32.924  13.455  1.00  0.00     0.013 A 
ATOM     17  C   UNL     1      15.601  34.157  14.056  1.00  0.00     0.047 A 
BRANCH  15  18
ATOM     18  O   UNL     1      15.868  36.569  14.130  1.00  0.00    -0.508 OA
ATOM     19  H   UNL     1      16.047  37.443  13.656  1.00  0.00     0.293 HD
ENDBRANCH  15  18
ENDBRANCH   1  12
BRANCH  11  20
ATOM     20  C   UNL     1      16.608  27.397   8.730  1.00  0.00     0.188 C 
ATOM     21  C   UNL     1      17.072  27.800   7.308  1.00  0.00     0.179 C 
ATOM     22  O   UNL     1      16.437  25.990   8.853  1.00  0.00    -0.362 OA
ATOM     23  C   UNL     1      16.097  27.255   6.255  1.00  0.00     0.177 C 
ATOM     24  C   UNL     1      15.489  25.461   7.934  1.00  0.00     0.176 C 
ATOM     25  C   UNL     1      15.894  25.754   6.473  1.00  0.00     0.177 C 
BRANCH  21  26
ATOM     26  O   UNL     1      17.118  29.201   7.199  1.00  0.00    -0.387 OA
ATOM     27  H   UNL     1      16.351  29.560   7.715  1.00  0.00     0.211 HD
ENDBRANCH  21  26
BRANCH  23  28
ATOM     28  O   UNL     1      16.625  27.461   4.970  1.00  0.00    -0.387 OA
ATOM     29  H   UNL     1      17.270  26.724   4.800  1.00  0.00     0.211 HD
ENDBRANCH  23  28
BRANCH  24  30
ATOM     30  C   UNL     1      14.028  25.848   8.281  1.00  0.00     0.191 C 
BRANCH  30  31
ATOM     31  O   UNL     1      13.142  24.839   7.882  1.00  0.00    -0.394 OA
ATOM     32  H   UNL     1      13.595  24.322   7.163  1.00  0.00     0.210 HD
ENDBRANCH  30  31
ENDBRANCH  24  30
BRANCH  25  33
ATOM     33  O   UNL     1      14.933  25.267   5.572  1.00  0.00    -0.388 OA
ATOM     34  H   UNL     1      14.119  25.069   6.106  1.00  0.00     0.211 HD
ENDBRANCH  25  33
ENDBRANCH  11  20
BRANCH  10  35
ATOM     35  O   UNL     1      18.972  25.776   9.619  1.00  0.00    -0.507 OA
ATOM     36  H   UNL     1      18.241  25.121   9.391  1.00  0.00     0.293 HD
ENDBRANCH  10  35
TORSDOF 9
ENDMDL
MODEL 4
REMARK VINA RESULT:    -7.358      3.961      8.779
REMARK INTER + INTRA:         -11.193
REMARK INTER:                  -9.871
REMARK INTRA:                  -1.322
REMARK UNBOUND:                -1.254
REMARK SMILES O=c1c(-c2ccc(O)cc2)coc2c([C@@H]3O[C@@H](CO)[C@@H](O)[C@H](O)[C@H]3O)c(O)ccc12
REMARK SMILES IDX 3 1 11 2 12 3 13 4 30 5 2 6 1 7 29 8 28 9 26 10 14 11 4 12
REMARK SMILES IDX 5 13 6 14 7 15 10 16 9 17 8 18 15 20 24 21 16 22 22 23 17 24
REMARK SMILES IDX 20 25 25 26 23 28 18 30 19 31 21 33 27 35
REMARK H PARENT 8 19 25 27 23 29 19 32 21 34 27 36
REMARK Flexibility Score: inf
ROOT
ATOM      1  C   UNL     1      16.036  31.311  11.115  1.00  0.00     0.065 A 
ATOM      2  C   UNL     1      15.549  31.810  12.332  1.00  0.00     0.208 A 
ATOM      3  O   UNL     1      15.242  33.093  12.471  1.00  0.00    -0.463 OA
ATOM      4  C   UNL     1      15.386  33.989  11.498  1.00  0.00     0.147 A 
ATOM      5  C   UNL     1      15.889  33.578  10.244  1.00  0.00     0.066 A 
ATOM      6  C   UNL     1      16.197  32.217  10.051  1.00  0.00     0.200 A 
ATOM      7  O   UNL     1      16.592  31.811   8.923  1.00  0.00    -0.288 OA
ATOM      8  C   UNL     1      16.071  34.522   9.227  1.00  0.00     0.020 A 
ATOM      9  C   UNL     1      15.716  35.851   9.434  1.00  0.00     0.047 A 
ATOM     10  C   UNL     1      15.159  36.268  10.647  1.00  0.00     0.125 A 
ATOM     11  C   UNL     1      15.031  35.343  11.721  1.00  0.00     0.069 A 
ENDROOT
BRANCH   1  12
ATOM     12  C   UNL     1      16.339  29.857  10.977  1.00  0.00    -0.011 A 
ATOM     13  C   UNL     1      15.349  28.968  10.521  1.00  0.00     0.013 A 
ATOM     14  C   UNL     1      15.628  27.605  10.381  1.00  0.00     0.047 A 
ATOM     15  C   UNL     1      16.895  27.107  10.705  1.00  0.00     0.115 A 
ATOM     16  C   UNL     1      17.613  29.351  11.295  1.00  0.00     0.013 A 
ATOM     17  C   UNL     1      17.887  27.984  11.159  1.00  0.00     0.047 A 
BRANCH  15  18
ATOM     18  O   UNL     1      17.154  25.742  10.580  1.00  0.00    -0.508 OA
ATOM     19  H   UNL     1      17.087  25.267   9.691  1.00  0.00     0.293 HD
ENDBRANCH  15  18
ENDBRANCH   1  12
BRANCH  11  20
ATOM     20  C   UNL     1      14.494  35.764  13.085  1.00  0.00     0.188 C 
ATOM     21  C   UNL     1      15.646  36.336  13.948  1.00  0.00     0.179 C 
ATOM     22  O   UNL     1      13.449  36.710  12.899  1.00  0.00    -0.362 OA
ATOM     23  C   UNL     1      15.103  36.850  15.289  1.00  0.00     0.177 C 
ATOM     24  C   UNL     1      12.877  37.158  14.123  1.00  0.00     0.176 C 
ATOM     25  C   UNL     1      13.938  37.809  15.036  1.00  0.00     0.177 C 
BRANCH  21  26
ATOM     26  O   UNL     1      16.599  35.335  14.200  1.00  0.00    -0.387 OA
ATOM     27  H   UNL     1      17.436  35.790  14.476  1.00  0.00     0.211 HD
ENDBRANCH  21  26
BRANCH  23  28
ATOM     28  O   UNL     1      16.116  37.535  15.979  1.00  0.00    -0.387 OA
ATOM     29  H   UNL     1      15.718  37.864  16.828  1.00  0.00     0.211 HD
ENDBRANCH  23  28
BRANCH  24  30
ATOM     30  C   UNL     1      12.014  36.075  14.819  1.00  0.00     0.191 C 
BRANCH  30  31
ATOM     31  O   UNL     1      11.105  36.664  15.708  1.00  0.00    -0.394 OA
ATOM     32  H   UNL     1      11.541  36.678  16.602  1.00  0.00     0.210 HD
ENDBRANCH  30  31
ENDBRANCH  24  30
BRANCH  25  33
ATOM     33  O   UNL     1      13.377  38.210  16.260  1.00  0.00    -0.388 OA
ATOM     34  H   UNL     1      14.024  38.837  16.677  1.00  0.00     0.211 HD
ENDBRANCH  25  33
ENDBRANCH  11  20
BRANCH  10  35
ATOM     35  O   UNL     1      14.737  37.600  10.724  1.00  0.00    -0.507 OA
ATOM     36  H   UNL     1      15.348  38.386  10.879  1.00  0.00     0.293 HD
ENDBRANCH  10  35
TORSDOF 9
ENDMDL
MODEL 5
REMARK VINA RESULT:    -7.218      8.029     10.175
REMARK INTER + INTRA:         -11.003
REMARK INTER:                  -9.726
REMARK INTRA:                  -1.277
REMARK UNBOUND:                -1.254
REMARK SMILES O=c1c(-c2ccc(O)cc2)coc2c([C@@H]3O[C@@H](CO)[C@@H](O)[C@H](O)[C@H]3O)c(O)ccc12
REMARK SMILES IDX 3 1 11 2 12 3 13 4 30 5 2 6 1 7 29 8 28 9 26 10 14 11 4 12
REMARK SMILES IDX 5 13 6 14 7 15 10 16 9 17 8 18 15 20 24 21 16 22 22 23 17 24
REMARK SMILES IDX 20 25 25 26 23 28 18 30 19 31 21 33 27 35
REMARK H PARENT 8 19 25 27 23 29 19 32 21 34 27 36
REMARK Flexibility Score: inf
ROOT
ATOM      1  C   UNL     1      11.617  35.668   7.431  1.00  0.00     0.065 A 
ATOM      2  C   UNL     1      10.472  35.138   6.817  1.00  0.00     0.208 A 
ATOM      3  O   UNL     1      10.572  34.241   5.845  1.00  0.00    -0.463 OA
ATOM      4  C   UNL     1      11.735  33.798   5.374  1.00  0.00     0.147 A 
ATOM      5  C   UNL     1      12.939  34.293   5.921  1.00  0.00     0.066 A 
ATOM      6  C   UNL     1      12.873  35.224   6.975  1.00  0.00     0.200 A 
ATOM      7  O   UNL     1      13.931  35.638   7.524  1.00  0.00    -0.288 OA
ATOM      8  C   UNL     1      14.165  33.852   5.409  1.00  0.00     0.020 A 
ATOM      9  C   UNL     1      14.200  32.898   4.397  1.00  0.00     0.047 A 
ATOM     10  C   UNL     1      13.020  32.350   3.883  1.00  0.00     0.125 A 
ATOM     11  C   UNL     1      11.760  32.833   4.336  1.00  0.00     0.069 A 
ENDROOT
BRANCH   1  12
ATOM     12  C   UNL     1      11.475  36.648   8.545  1.00  0.00    -0.011 A 
ATOM     13  C   UNL     1      11.466  38.029   8.276  1.00  0.00     0.013 A 
ATOM     14  C   UNL     1      11.325  38.954   9.315  1.00  0.00     0.047 A 
ATOM     15  C   UNL     1      11.201  38.516  10.638  1.00  0.00     0.115 A 
ATOM     16  C   UNL     1      11.344  36.215   9.877  1.00  0.00     0.013 A 
ATOM     17  C   UNL     1      11.208  37.145  10.916  1.00  0.00     0.047 A 
BRANCH  15  18
ATOM     18  O   UNL     1      11.081  39.451  11.667  1.00  0.00    -0.508 OA
ATOM     19  H   UNL     1      11.804  39.573  12.362  1.00  0.00     0.293 HD
ENDBRANCH  15  18
ENDBRANCH   1  12
BRANCH  11  20
ATOM     20  C   UNL     1      10.447  32.317   3.758  1.00  0.00     0.188 C 
ATOM     21  C   UNL     1      10.043  33.170   2.530  1.00  0.00     0.179 C 
ATOM     22  O   UNL     1      10.596  30.943   3.424  1.00  0.00    -0.362 OA
ATOM     23  C   UNL     1       8.771  32.604   1.882  1.00  0.00     0.177 C 
ATOM     24  C   UNL     1       9.413  30.368   2.881  1.00  0.00     0.176 C 
ATOM     25  C   UNL     1       8.959  31.111   1.606  1.00  0.00     0.177 C 
BRANCH  21  26
ATOM     26  O   UNL     1       9.796  34.495   2.927  1.00  0.00    -0.387 OA
ATOM     27  H   UNL     1      10.557  34.777   3.497  1.00  0.00     0.211 HD
ENDBRANCH  21  26
BRANCH  23  28
ATOM     28  O   UNL     1       8.525  33.265   0.668  1.00  0.00    -0.387 OA
ATOM     29  H   UNL     1       9.397  33.339   0.196  1.00  0.00     0.211 HD
ENDBRANCH  23  28
BRANCH  24  30
ATOM     30  C   UNL     1       8.296  30.173   3.938  1.00  0.00     0.191 C 
BRANCH  30  31
ATOM     31  O   UNL     1       7.494  29.072   3.611  1.00  0.00    -0.394 OA
ATOM     32  H   UNL     1       8.106  28.301   3.463  1.00  0.00     0.210 HD
ENDBRANCH  30  31
ENDBRANCH  24  30
BRANCH  25  33
ATOM     33  O   UNL     1       7.766  30.567   1.100  1.00  0.00    -0.388 OA
ATOM     34  H   UNL     1       7.986  30.182   0.211  1.00  0.00     0.211 HD
ENDBRANCH  25  33
ENDBRANCH  11  20
BRANCH  10  35
ATOM     35  O   UNL     1      13.158  31.322   2.943  1.00  0.00    -0.507 OA
ATOM     36  H   UNL     1      13.332  31.464   1.962  1.00  0.00     0.293 HD
ENDBRANCH  10  35
TORSDOF 9
ENDMDL
MODEL 6
REMARK VINA RESULT:    -7.211      9.377     11.442
REMARK INTER + INTRA:         -10.995
REMARK INTER:                  -9.842
REMARK INTRA:                  -1.152
REMARK UNBOUND:                -1.254
REMARK SMILES O=c1c(-c2ccc(O)cc2)coc2c([C@@H]3O[C@@H](CO)[C@@H](O)[C@H](O)[C@H]3O)c(O)ccc12
REMARK SMILES IDX 3 1 11 2 12 3 13 4 30 5 2 6 1 7 29 8 28 9 26 10 14 11 4 12
REMARK SMILES IDX 5 13 6 14 7 15 10 16 9 17 8 18 15 20 24 21 16 22 22 23 17 24
REMARK SMILES IDX 20 25 25 26 23 28 18 30 19 31 21 33 27 35
REMARK H PARENT 8 19 25 27 23 29 19 32 21 34 27 36
REMARK Flexibility Score: inf
ROOT
ATOM      1  C   UNL     1      10.605  35.507   6.236  1.00  0.00     0.065 A 
ATOM      2  C   UNL     1       9.272  35.093   6.092  1.00  0.00     0.208 A 
ATOM      3  O   UNL     1       8.951  34.090   5.286  1.00  0.00    -0.463 OA
ATOM      4  C   UNL     1       9.842  33.425   4.554  1.00  0.00     0.147 A 
ATOM      5  C   UNL     1      11.205  33.788   4.622  1.00  0.00     0.066 A 
ATOM      6  C   UNL     1      11.587  34.829   5.490  1.00  0.00     0.200 A 
ATOM      7  O   UNL     1      12.805  35.134   5.617  1.00  0.00    -0.288 OA
ATOM      8  C   UNL     1      12.142  33.112   3.832  1.00  0.00     0.020 A 
ATOM      9  C   UNL     1      11.741  32.058   3.016  1.00  0.00     0.047 A 
ATOM     10  C   UNL     1      10.406  31.643   2.980  1.00  0.00     0.125 A 
ATOM     11  C   UNL     1       9.422  32.360   3.719  1.00  0.00     0.069 A 
ENDROOT
BRANCH   1  12
ATOM     12  C   UNL     1      10.940  36.614   7.176  1.00  0.00    -0.011 A 
ATOM     13  C   UNL     1      10.943  37.947   6.727  1.00  0.00     0.013 A 
ATOM     14  C   UNL     1      11.250  38.992   7.605  1.00  0.00     0.047 A 
ATOM     15  C   UNL     1      11.568  38.721   8.940  1.00  0.00     0.115 A 
ATOM     16  C   UNL     1      11.256  36.349   8.522  1.00  0.00     0.013 A 
ATOM     17  C   UNL     1      11.567  37.398   9.397  1.00  0.00     0.047 A 
BRANCH  15  18
ATOM     18  O   UNL     1      11.891  39.770   9.801  1.00  0.00    -0.508 OA
ATOM     19  H   UNL     1      12.701  40.354   9.648  1.00  0.00     0.293 HD
ENDBRANCH  15  18
ENDBRANCH   1  12
BRANCH  11  20
ATOM     20  C   UNL     1       7.944  31.990   3.659  1.00  0.00     0.188 C 
ATOM     21  C   UNL     1       7.284  32.665   2.431  1.00  0.00     0.179 C 
ATOM     22  O   UNL     1       7.823  30.573   3.615  1.00  0.00    -0.362 OA
ATOM     23  C   UNL     1       5.818  32.227   2.306  1.00  0.00     0.177 C 
ATOM     24  C   UNL     1       6.472  30.130   3.564  1.00  0.00     0.176 C 
ATOM     25  C   UNL     1       5.737  30.699   2.332  1.00  0.00     0.177 C 
BRANCH  21  26
ATOM     26  O   UNL     1       7.327  34.063   2.573  1.00  0.00    -0.387 OA
ATOM     27  H   UNL     1       8.219  34.362   2.259  1.00  0.00     0.211 HD
ENDBRANCH  21  26
BRANCH  23  28
ATOM     28  O   UNL     1       5.288  32.691   1.091  1.00  0.00    -0.387 OA
ATOM     29  H   UNL     1       4.369  33.019   1.282  1.00  0.00     0.211 HD
ENDBRANCH  23  28
BRANCH  24  30
ATOM     30  C   UNL     1       5.720  30.330   4.905  1.00  0.00     0.191 C 
BRANCH  30  31
ATOM     31  O   UNL     1       5.920  29.232   5.752  1.00  0.00    -0.394 OA
ATOM     32  H   UNL     1       6.865  29.272   6.060  1.00  0.00     0.210 HD
ENDBRANCH  30  31
ENDBRANCH  24  30
BRANCH  25  33
ATOM     33  O   UNL     1       4.392  30.293   2.311  1.00  0.00    -0.388 OA
ATOM     34  H   UNL     1       3.954  30.725   3.092  1.00  0.00     0.211 HD
ENDBRANCH  25  33
ENDBRANCH  11  20
BRANCH  10  35
ATOM     35  O   UNL     1      10.117  30.509   2.213  1.00  0.00    -0.507 OA
ATOM     36  H   UNL     1       9.318  30.417   1.608  1.00  0.00     0.293 HD
ENDBRANCH  10  35
TORSDOF 9
ENDMDL
MODEL 7
REMARK VINA RESULT:    -7.204      8.046     11.741
REMARK INTER + INTRA:         -10.985
REMARK INTER:                  -9.696
REMARK INTRA:                  -1.289
REMARK UNBOUND:                -1.254
REMARK SMILES O=c1c(-c2ccc(O)cc2)coc2c([C@@H]3O[C@@H](CO)[C@@H](O)[C@H](O)[C@H]3O)c(O)ccc12
REMARK SMILES IDX 3 1 11 2 12 3 13 4 30 5 2 6 1 7 29 8 28 9 26 10 14 11 4 12
REMARK SMILES IDX 5 13 6 14 7 15 10 16 9 17 8 18 15 20 24 21 16 22 22 23 17 24
REMARK SMILES IDX 20 25 25 26 23 28 18 30 19 31 21 33 27 35
REMARK H PARENT 8 19 25 27 23 29 19 32 21 34 27 36
REMARK Flexibility Score: inf
ROOT
ATOM      1  C   UNL     1      10.410  33.943   4.468  1.00  0.00     0.065 A 
ATOM      2  C   UNL     1      11.740  33.809   4.895  1.00  0.00     0.208 A 
ATOM      3  O   UNL     1      12.312  34.738   5.649  1.00  0.00    -0.463 OA
ATOM      4  C   UNL     1      11.692  35.851   6.036  1.00  0.00     0.147 A 
ATOM      5  C   UNL     1      10.357  36.077   5.635  1.00  0.00     0.066 A 
ATOM      6  C   UNL     1       9.708  35.098   4.859  1.00  0.00     0.200 A 
ATOM      7  O   UNL     1       8.496  35.246   4.537  1.00  0.00    -0.288 OA
ATOM      8  C   UNL     1       9.712  37.260   6.014  1.00  0.00     0.020 A 
ATOM      9  C   UNL     1      10.365  38.188   6.818  1.00  0.00     0.047 A 
ATOM     10  C   UNL     1      11.666  37.955   7.277  1.00  0.00     0.125 A 
ATOM     11  C   UNL     1      12.370  36.795   6.848  1.00  0.00     0.069 A 
ENDROOT
BRANCH   1  12
ATOM     12  C   UNL     1       9.781  32.866   3.651  1.00  0.00    -0.011 A 
ATOM     13  C   UNL     1       9.383  31.659   4.255  1.00  0.00     0.013 A 
ATOM     14  C   UNL     1       8.786  30.648   3.496  1.00  0.00     0.047 A 
ATOM     15  C   UNL     1       8.586  30.822   2.122  1.00  0.00     0.115 A 
ATOM     16  C   UNL     1       9.572  33.036   2.270  1.00  0.00     0.013 A 
ATOM     17  C   UNL     1       8.978  32.018   1.511  1.00  0.00     0.047 A 
BRANCH  15  18
ATOM     18  O   UNL     1       8.007  29.797   1.372  1.00  0.00    -0.508 OA
ATOM     19  H   UNL     1       7.020  29.786   1.160  1.00  0.00     0.293 HD
ENDBRANCH  15  18
ENDBRANCH   1  12
BRANCH  11  20
ATOM     20  C   UNL     1      13.813  36.530   7.264  1.00  0.00     0.188 C 
ATOM     21  C   UNL     1      14.777  37.322   6.345  1.00  0.00     0.179 C 
ATOM     22  O   UNL     1      13.972  36.885   8.632  1.00  0.00    -0.362 OA
ATOM     23  C   UNL     1      16.228  37.138   6.811  1.00  0.00     0.177 C 
ATOM     24  C   UNL     1      15.292  36.664   9.115  1.00  0.00     0.176 C 
ATOM     25  C   UNL     1      16.332  37.465   8.302  1.00  0.00     0.177 C 
BRANCH  21  26
ATOM     26  O   UNL     1      14.665  36.860   5.023  1.00  0.00    -0.387 OA
ATOM     27  H   UNL     1      13.827  36.332   4.966  1.00  0.00     0.211 HD
ENDBRANCH  21  26
BRANCH  23  28
ATOM     28  O   UNL     1      17.068  38.005   6.094  1.00  0.00    -0.387 OA
ATOM     29  H   UNL     1      16.505  38.765   5.785  1.00  0.00     0.211 HD
ENDBRANCH  23  28
BRANCH  24  30
ATOM     30  C   UNL     1      15.632  35.161   9.281  1.00  0.00     0.191 C 
BRANCH  30  31
ATOM     31  O   UNL     1      16.580  34.978  10.297  1.00  0.00    -0.394 OA
ATOM     32  H   UNL     1      16.134  34.461  11.020  1.00  0.00     0.210 HD
ENDBRANCH  30  31
ENDBRANCH  24  30
BRANCH  25  33
ATOM     33  O   UNL     1      17.637  37.210   8.756  1.00  0.00    -0.388 OA
ATOM     34  H   UNL     1      18.046  36.582   8.103  1.00  0.00     0.211 HD
ENDBRANCH  25  33
ENDBRANCH  11  20
BRANCH  10  35
ATOM     35  O   UNL     1      12.200  38.895   8.166  1.00  0.00    -0.507 OA
ATOM     36  H   UNL     1      12.011  39.884   8.134  1.00  0.00     0.293 HD
ENDBRANCH  10  35
TORSDOF 9
ENDMDL
MODEL 8
REMARK VINA RESULT:    -7.114      9.068     10.121
REMARK INTER + INTRA:         -10.864
REMARK INTER:                  -9.630
REMARK INTRA:                  -1.234
REMARK UNBOUND:                -1.254
REMARK SMILES O=c1c(-c2ccc(O)cc2)coc2c([C@@H]3O[C@@H](CO)[C@@H](O)[C@H](O)[C@H]3O)c(O)ccc12
REMARK SMILES IDX 3 1 11 2 12 3 13 4 30 5 2 6 1 7 29 8 28 9 26 10 14 11 4 12
REMARK SMILES IDX 5 13 6 14 7 15 10 16 9 17 8 18 15 20 24 21 16 22 22 23 17 24
REMARK SMILES IDX 20 25 25 26 23 28 18 30 19 31 21 33 27 35
REMARK H PARENT 8 19 25 27 23 29 19 32 21 34 27 36
REMARK Flexibility Score: inf
ROOT
ATOM      1  C   UNL     1      11.872  35.765   5.782  1.00  0.00     0.065 A 
ATOM      2  C   UNL     1      11.769  34.450   5.303  1.00  0.00     0.208 A 
ATOM      3  O   UNL     1      10.585  33.904   5.055  1.00  0.00    -0.463 OA
ATOM      4  C   UNL     1       9.431  34.537   5.254  1.00  0.00     0.147 A 
ATOM      5  C   UNL     1       9.441  35.857   5.754  1.00  0.00     0.066 A 
ATOM      6  C   UNL     1      10.679  36.480   6.000  1.00  0.00     0.200 A 
ATOM      7  O   UNL     1      10.719  37.680   6.390  1.00  0.00    -0.288 OA
ATOM      8  C   UNL     1       8.228  36.515   5.993  1.00  0.00     0.020 A 
ATOM      9  C   UNL     1       7.021  35.890   5.698  1.00  0.00     0.047 A 
ATOM     10  C   UNL     1       6.991  34.606   5.145  1.00  0.00     0.125 A 
ATOM     11  C   UNL     1       8.206  33.887   4.959  1.00  0.00     0.069 A 
ENDROOT
BRANCH   1  12
ATOM     12  C   UNL     1      13.215  36.365   6.018  1.00  0.00    -0.011 A 
ATOM     13  C   UNL     1      14.073  36.631   4.934  1.00  0.00     0.013 A 
ATOM     14  C   UNL     1      15.332  37.201   5.148  1.00  0.00     0.047 A 
ATOM     15  C   UNL     1      15.758  37.504   6.445  1.00  0.00     0.115 A 
ATOM     16  C   UNL     1      13.649  36.679   7.320  1.00  0.00     0.013 A 
ATOM     17  C   UNL     1      14.913  37.245   7.530  1.00  0.00     0.047 A 
BRANCH  15  18
ATOM     18  O   UNL     1      17.024  38.055   6.646  1.00  0.00    -0.508 OA
ATOM     19  H   UNL     1      17.755  37.548   7.123  1.00  0.00     0.293 HD
ENDBRANCH  15  18
ENDBRANCH   1  12
BRANCH  11  20
ATOM     20  C   UNL     1       8.222  32.459   4.425  1.00  0.00     0.188 C 
ATOM     21  C   UNL     1       7.988  31.462   5.587  1.00  0.00     0.179 C 
ATOM     22  O   UNL     1       7.233  32.334   3.410  1.00  0.00    -0.362 OA
ATOM     23  C   UNL     1       7.908  30.026   5.049  1.00  0.00     0.177 C 
ATOM     24  C   UNL     1       7.177  31.030   2.843  1.00  0.00     0.176 C 
ATOM     25  C   UNL     1       6.882  29.960   3.916  1.00  0.00     0.177 C 
BRANCH  21  26
ATOM     26  O   UNL     1       9.047  31.541   6.507  1.00  0.00    -0.387 OA
ATOM     27  H   UNL     1       9.646  32.270   6.202  1.00  0.00     0.211 HD
ENDBRANCH  21  26
BRANCH  23  28
ATOM     28  O   UNL     1       7.508  29.157   6.077  1.00  0.00    -0.387 OA
ATOM     29  H   UNL     1       8.334  28.738   6.440  1.00  0.00     0.211 HD
ENDBRANCH  23  28
BRANCH  24  30
ATOM     30  C   UNL     1       8.398  30.711   1.942  1.00  0.00     0.191 C 
BRANCH  30  31
ATOM     31  O   UNL     1       8.038  29.821   0.921  1.00  0.00    -0.394 OA
ATOM     32  H   UNL     1       8.001  28.913   1.326  1.00  0.00     0.210 HD
ENDBRANCH  30  31
ENDBRANCH  24  30
BRANCH  25  33
ATOM     33  O   UNL     1       6.872  28.671   3.357  1.00  0.00    -0.388 OA
ATOM     34  H   UNL     1       7.807  28.337   3.400  1.00  0.00     0.211 HD
ENDBRANCH  25  33
ENDBRANCH  11  20
BRANCH  10  35
ATOM     35  O   UNL     1       5.736  34.102   4.785  1.00  0.00    -0.507 OA
ATOM     36  H   UNL     1       5.117  33.611   5.409  1.00  0.00     0.293 HD
ENDBRANCH  10  35
TORSDOF 9
ENDMDL
MODEL 9
REMARK VINA RESULT:    -4.992      4.126      7.352
REMARK INTER + INTRA:          -7.997
REMARK INTER:                  -7.027
REMARK INTRA:                  -0.969
REMARK UNBOUND:                -1.254
REMARK SMILES O=c1c(-c2ccc(O)cc2)coc2c([C@@H]3O[C@@H](CO)[C@@H](O)[C@H](O)[C@H]3O)c(O)ccc12
REMARK SMILES IDX 3 1 11 2 12 3 13 4 30 5 2 6 1 7 29 8 28 9 26 10 14 11 4 12
REMARK SMILES IDX 5 13 6 14 7 15 10 16 9 17 8 18 15 20 24 21 16 22 22 23 17 24
REMARK SMILES IDX 20 25 25 26 23 28 18 30 19 31 21 33 27 35
REMARK H PARENT 8 19 25 27 23 29 19 32 21 34 27 36
REMARK Flexibility Score: inf
ROOT
ATOM      1  C   UNL     1      19.431  34.889  10.461  1.00  0.00     0.065 A 
ATOM      2  C   UNL     1      18.678  35.983  10.914  1.00  0.00     0.208 A 
ATOM      3  O   UNL     1      17.597  35.806  11.661  1.00  0.00    -0.463 OA
ATOM      4  C   UNL     1      17.141  34.607  12.017  1.00  0.00     0.147 A 
ATOM      5  C   UNL     1      17.826  33.449  11.589  1.00  0.00     0.066 A 
ATOM      6  C   UNL     1      18.995  33.599  10.819  1.00  0.00     0.200 A 
ATOM      7  O   UNL     1      19.661  32.584  10.473  1.00  0.00    -0.288 OA
ATOM      8  C   UNL     1      17.333  32.185  11.936  1.00  0.00     0.020 A 
ATOM      9  C   UNL     1      16.201  32.070  12.735  1.00  0.00     0.047 A 
ATOM     10  C   UNL     1      15.543  33.204  13.221  1.00  0.00     0.125 A 
ATOM     11  C   UNL     1      15.981  34.500  12.824  1.00  0.00     0.069 A 
ENDROOT
BRANCH   1  12
ATOM     12  C   UNL     1      20.661  35.118   9.652  1.00  0.00    -0.011 A 
ATOM     13  C   UNL     1      20.748  34.621   8.338  1.00  0.00     0.013 A 
ATOM     14  C   UNL     1      21.896  34.839   7.570  1.00  0.00     0.047 A 
ATOM     15  C   UNL     1      22.978  35.547   8.104  1.00  0.00     0.115 A 
ATOM     16  C   UNL     1      21.751  35.835  10.180  1.00  0.00     0.013 A 
ATOM     17  C   UNL     1      22.902  36.047   9.409  1.00  0.00     0.047 A 
BRANCH  15  18
ATOM     18  O   UNL     1      24.125  35.741   7.334  1.00  0.00    -0.508 OA
ATOM     19  H   UNL     1      24.839  36.403   7.601  1.00  0.00     0.293 HD
ENDBRANCH  15  18
ENDBRANCH   1  12
BRANCH  11  20
ATOM     20  C   UNL     1      15.256  35.765  13.270  1.00  0.00     0.188 C 
ATOM     21  C   UNL     1      14.032  36.019  12.354  1.00  0.00     0.179 C 
ATOM     22  O   UNL     1      14.878  35.625  14.634  1.00  0.00    -0.362 OA
ATOM     23  C   UNL     1      13.240  37.237  12.849  1.00  0.00     0.177 C 
ATOM     24  C   UNL     1      14.198  36.766  15.144  1.00  0.00     0.176 C 
ATOM     25  C   UNL     1      12.918  37.069  14.335  1.00  0.00     0.177 C 
BRANCH  21  26
ATOM     26  O   UNL     1      14.461  36.263  11.038  1.00  0.00    -0.387 OA
ATOM     27  H   UNL     1      14.284  35.439  10.515  1.00  0.00     0.211 HD
ENDBRANCH  21  26
BRANCH  23  28
ATOM     28  O   UNL     1      12.037  37.342  12.131  1.00  0.00    -0.387 OA
ATOM     29  H   UNL     1      11.516  36.515  12.316  1.00  0.00     0.211 HD
ENDBRANCH  23  28
BRANCH  24  30
ATOM     30  C   UNL     1      15.132  37.988  15.343  1.00  0.00     0.191 C 
BRANCH  30  31
ATOM     31  O   UNL     1      16.244  37.637  16.119  1.00  0.00    -0.394 OA
ATOM     32  H   UNL     1      16.016  36.790  16.589  1.00  0.00     0.210 HD
ENDBRANCH  30  31
ENDBRANCH  24  30
BRANCH  25  33
ATOM     33  O   UNL     1      12.275  38.222  14.816  1.00  0.00    -0.388 OA
ATOM     34  H   UNL     1      11.930  38.707  14.020  1.00  0.00     0.211 HD
ENDBRANCH  25  33
ENDBRANCH  11  20
BRANCH  10  35
ATOM     35  O   UNL     1      14.477  32.988  14.102  1.00  0.00    -0.507 OA
ATOM     36  H   UNL     1      14.564  32.554  15.007  1.00  0.00     0.293 HD
ENDBRANCH  10  35
TORSDOF 9
ENDMDL
