MODEL 1
REMARK VINA RESULT:    -4.796      0.000      0.000
REMARK INTER + INTRA:          -9.380
REMARK INTER:                  -8.161
REMARK INTRA:                  -1.219
REMARK UNBOUND:                -1.219
REMARK SMILES CCCCCCCCCCCCCC(=O)[O-]
REMARK SMILES IDX 8 1 9 2 10 3 11 4 12 5 13 6 14 7 15 8 16 9 7 10 6 11 5 12
REMARK SMILES IDX 4 13 3 14 2 15 1 16
REMARK H PARENT
REMARK Flexibility Score: inf
ROOT
ATOM      1  C   UNL     1       6.562  54.367  24.020  1.00  0.00     0.000 C 
ENDROOT
BRANCH   1   2
ATOM      2  C   UNL     1       5.731  54.930  22.858  1.00  0.00     0.000 C 
BRANCH   2   3
ATOM      3  C   UNL     1       5.982  56.426  22.618  1.00  0.00     0.000 C 
BRANCH   3   4
ATOM      4  C   UNL     1       7.275  56.691  21.826  1.00  0.00     0.000 C 
BRANCH   4   5
ATOM      5  C   UNL     1       7.794  55.429  21.110  1.00  0.00     0.006 C 
BRANCH   5   6
ATOM      6  C   UNL     1       7.569  55.447  19.590  1.00  0.00     0.053 C 
BRANCH   6   7
ATOM      7  C   UNL     1       6.704  54.316  19.131  1.00  0.00     0.041 C 
ATOM      8  O   UNL     1       6.172  54.348  17.990  1.00  0.00    -0.550 OA
ATOM      9  O   UNL     1       6.503  53.214  19.953  1.00  0.00    -0.550 OA
ENDBRANCH   6   7
ENDBRANCH   5   6
ENDBRANCH   4   5
ENDBRANCH   3   4
ENDBRANCH   2   3
ENDBRANCH   1   2
BRANCH   1  10
ATOM     10  C   UNL     1       6.997  52.924  23.737  1.00  0.00     0.000 C 
BRANCH  10  11
ATOM     11  C   UNL     1       8.353  52.618  24.389  1.00  0.00    -0.000 C 
BRANCH  11  12
ATOM     12  C   UNL     1       9.532  52.737  23.407  1.00  0.00    -0.000 C 
BRANCH  12  13
ATOM     13  C   UNL     1      10.346  54.039  23.521  1.00  0.00    -0.000 C 
BRANCH  13  14
ATOM     14  C   UNL     1       9.939  54.897  24.727  1.00  0.00    -0.000 C 
BRANCH  14  15
ATOM     15  C   UNL     1      10.876  54.653  25.915  1.00  0.00    -0.003 C 
ATOM     16  C   UNL     1      10.116  54.715  27.238  1.00  0.00     0.004 C 
ENDBRANCH  14  15
ENDBRANCH  13  14
ENDBRANCH  12  13
ENDBRANCH  11  12
ENDBRANCH  10  11
ENDBRANCH   1  10
TORSDOF 12
ENDMDL
MODEL 2
REMARK VINA RESULT:    -4.699      3.296      4.199
REMARK INTER + INTRA:          -9.214
REMARK INTER:                  -8.304
REMARK INTRA:                  -0.910
REMARK UNBOUND:                -1.219
REMARK SMILES CCCCCCCCCCCCCC(=O)[O-]
REMARK SMILES IDX 8 1 9 2 10 3 11 4 12 5 13 6 14 7 15 8 16 9 7 10 6 11 5 12
REMARK SMILES IDX 4 13 3 14 2 15 1 16
REMARK H PARENT
REMARK Flexibility Score: inf
ROOT
ATOM      1  C   UNL     1       7.616  54.940  20.834  1.00  0.00     0.000 C 
ENDROOT
BRANCH   1   2
ATOM      2  C   UNL     1       7.663  56.404  21.297  1.00  0.00     0.000 C 
BRANCH   2   3
ATOM      3  C   UNL     1       6.988  56.617  22.661  1.00  0.00     0.000 C 
BRANCH   3   4
ATOM      4  C   UNL     1       5.452  56.624  22.568  1.00  0.00     0.000 C 
BRANCH   4   5
ATOM      5  C   UNL     1       4.904  57.941  21.984  1.00  0.00     0.006 C 
BRANCH   5   6
ATOM      6  C   UNL     1       3.372  58.049  22.042  1.00  0.00     0.053 C 
BRANCH   6   7
ATOM      7  C   UNL     1       2.912  59.431  22.384  1.00  0.00     0.041 C 
ATOM      8  O   UNL     1       2.335  59.654  23.481  1.00  0.00    -0.550 OA
ATOM      9  O   UNL     1       3.143  60.480  21.502  1.00  0.00    -0.550 OA
ENDBRANCH   6   7
ENDBRANCH   5   6
ENDBRANCH   4   5
ENDBRANCH   3   4
ENDBRANCH   2   3
ENDBRANCH   1   2
BRANCH   1  10
ATOM     10  C   UNL     1       7.760  53.982  22.022  1.00  0.00     0.000 C 
BRANCH  10  11
ATOM     11  C   UNL     1       9.239  53.687  22.315  1.00  0.00    -0.000 C 
BRANCH  11  12
ATOM     12  C   UNL     1       9.458  53.026  23.688  1.00  0.00    -0.000 C 
BRANCH  12  13
ATOM     13  C   UNL     1       8.396  53.363  24.750  1.00  0.00    -0.000 C 
BRANCH  13  14
ATOM     14  C   UNL     1       8.705  54.656  25.519  1.00  0.00    -0.000 C 
BRANCH  14  15
ATOM     15  C   UNL     1      10.192  55.011  25.418  1.00  0.00    -0.003 C 
ATOM     16  C   UNL     1      10.937  54.631  26.695  1.00  0.00     0.004 C 
ENDBRANCH  14  15
ENDBRANCH  13  14
ENDBRANCH  12  13
ENDBRANCH  11  12
ENDBRANCH  10  11
ENDBRANCH   1  10
TORSDOF 12
ENDMDL
MODEL 3
REMARK VINA RESULT:    -4.689      3.144      4.165
REMARK INTER + INTRA:          -9.198
REMARK INTER:                  -7.967
REMARK INTRA:                  -1.231
REMARK UNBOUND:                -1.219
REMARK SMILES CCCCCCCCCCCCCC(=O)[O-]
REMARK SMILES IDX 8 1 9 2 10 3 11 4 12 5 13 6 14 7 15 8 16 9 7 10 6 11 5 12
REMARK SMILES IDX 4 13 3 14 2 15 1 16
REMARK H PARENT
REMARK Flexibility Score: inf
ROOT
ATOM      1  C   UNL     1       8.244  55.229  21.727  1.00  0.00     0.000 C 
ENDROOT
BRANCH   1   2
ATOM      2  C   UNL     1       7.788  56.665  22.024  1.00  0.00     0.000 C 
BRANCH   2   3
ATOM      3  C   UNL     1       6.373  56.959  21.502  1.00  0.00     0.000 C 
BRANCH   3   4
ATOM      4  C   UNL     1       5.408  57.397  22.619  1.00  0.00     0.000 C 
BRANCH   4   5
ATOM      5  C   UNL     1       3.954  57.525  22.123  1.00  0.00     0.006 C 
BRANCH   5   6
ATOM      6  C   UNL     1       3.509  58.978  21.893  1.00  0.00     0.053 C 
BRANCH   6   7
ATOM      7  C   UNL     1       2.231  59.064  21.119  1.00  0.00     0.041 C 
ATOM      8  O   UNL     1       2.230  58.867  19.875  1.00  0.00    -0.550 OA
ATOM      9  O   UNL     1       1.037  59.339  21.774  1.00  0.00    -0.550 OA
ENDBRANCH   6   7
ENDBRANCH   5   6
ENDBRANCH   4   5
ENDBRANCH   3   4
ENDBRANCH   2   3
ENDBRANCH   1   2
BRANCH   1  10
ATOM     10  C   UNL     1       7.043  54.282  21.615  1.00  0.00     0.000 C 
BRANCH  10  11
ATOM     11  C   UNL     1       6.985  53.319  22.810  1.00  0.00    -0.000 C 
BRANCH  11  12
ATOM     12  C   UNL     1       6.858  54.046  24.161  1.00  0.00    -0.000 C 
BRANCH  12  13
ATOM     13  C   UNL     1       7.968  53.727  25.180  1.00  0.00    -0.000 C 
BRANCH  13  14
ATOM     14  C   UNL     1       8.912  54.912  25.429  1.00  0.00    -0.000 C 
BRANCH  14  15
ATOM     15  C   UNL     1      10.375  54.498  25.237  1.00  0.00    -0.003 C 
ATOM     16  C   UNL     1      10.553  53.677  23.963  1.00  0.00     0.004 C 
ENDBRANCH  14  15
ENDBRANCH  13  14
ENDBRANCH  12  13
ENDBRANCH  11  12
ENDBRANCH  10  11
ENDBRANCH   1  10
TORSDOF 12
ENDMDL
MODEL 4
REMARK VINA RESULT:    -4.652      4.120      5.123
REMARK INTER + INTRA:          -9.135
REMARK INTER:                  -8.420
REMARK INTRA:                  -0.715
REMARK UNBOUND:                -1.219
REMARK SMILES CCCCCCCCCCCCCC(=O)[O-]
REMARK SMILES IDX 8 1 9 2 10 3 11 4 12 5 13 6 14 7 15 8 16 9 7 10 6 11 5 12
REMARK SMILES IDX 4 13 3 14 2 15 1 16
REMARK H PARENT
REMARK Flexibility Score: inf
ROOT
ATOM      1  C   UNL     1       6.869  56.960  21.770  1.00  0.00     0.000 C 
ENDROOT
BRANCH   1   2
ATOM      2  C   UNL     1       5.466  56.607  22.285  1.00  0.00     0.000 C 
BRANCH   2   3
ATOM      3  C   UNL     1       4.676  57.841  22.751  1.00  0.00     0.000 C 
BRANCH   3   4
ATOM      4  C   UNL     1       3.512  58.190  21.808  1.00  0.00     0.000 C 
BRANCH   4   5
ATOM      5  C   UNL     1       3.414  59.703  21.530  1.00  0.00     0.006 C 
BRANCH   5   6
ATOM      6  C   UNL     1       2.810  60.505  22.694  1.00  0.00     0.053 C 
BRANCH   6   7
ATOM      7  C   UNL     1       1.413  60.076  23.014  1.00  0.00     0.041 C 
ATOM      8  O   UNL     1       0.498  60.210  22.160  1.00  0.00    -0.550 OA
ATOM      9  O   UNL     1       1.125  59.505  24.248  1.00  0.00    -0.550 OA
ENDBRANCH   6   7
ENDBRANCH   5   6
ENDBRANCH   4   5
ENDBRANCH   3   4
ENDBRANCH   2   3
ENDBRANCH   1   2
BRANCH   1  10
ATOM     10  C   UNL     1       7.507  55.766  21.050  1.00  0.00     0.000 C 
BRANCH  10  11
ATOM     11  C   UNL     1       8.521  55.053  21.956  1.00  0.00    -0.000 C 
BRANCH  11  12
ATOM     12  C   UNL     1       7.953  53.780  22.609  1.00  0.00    -0.000 C 
BRANCH  12  13
ATOM     13  C   UNL     1       8.928  53.034  23.539  1.00  0.00    -0.000 C 
BRANCH  13  14
ATOM     14  C   UNL     1      10.290  53.731  23.663  1.00  0.00    -0.000 C 
BRANCH  14  15
ATOM     15  C   UNL     1      10.542  54.193  25.102  1.00  0.00    -0.003 C 
ATOM     16  C   UNL     1       9.608  55.339  25.484  1.00  0.00     0.004 C 
ENDBRANCH  14  15
ENDBRANCH  13  14
ENDBRANCH  12  13
ENDBRANCH  11  12
ENDBRANCH  10  11
ENDBRANCH   1  10
TORSDOF 12
ENDMDL
MODEL 5
REMARK VINA RESULT:    -4.649      3.500      6.765
REMARK INTER + INTRA:          -9.129
REMARK INTER:                  -8.332
REMARK INTRA:                  -0.798
REMARK UNBOUND:                -1.219
REMARK SMILES CCCCCCCCCCCCCC(=O)[O-]
REMARK SMILES IDX 8 1 9 2 10 3 11 4 12 5 13 6 14 7 15 8 16 9 7 10 6 11 5 12
REMARK SMILES IDX 4 13 3 14 2 15 1 16
REMARK H PARENT
REMARK Flexibility Score: inf
ROOT
ATOM      1  C   UNL     1       8.029  55.877  21.805  1.00  0.00     0.000 C 
ENDROOT
BRANCH   1   2
ATOM      2  C   UNL     1       7.364  54.550  21.413  1.00  0.00     0.000 C 
BRANCH   2   3
ATOM      3  C   UNL     1       7.536  53.459  22.481  1.00  0.00     0.000 C 
BRANCH   3   4
ATOM      4  C   UNL     1       6.932  53.859  23.839  1.00  0.00     0.000 C 
BRANCH   4   5
ATOM      5  C   UNL     1       7.872  53.539  25.018  1.00  0.00     0.006 C 
BRANCH   5   6
ATOM      6  C   UNL     1       8.803  54.703  25.396  1.00  0.00     0.053 C 
BRANCH   6   7
ATOM      7  C   UNL     1      10.244  54.379  25.153  1.00  0.00     0.041 C 
ATOM      8  O   UNL     1      11.113  54.673  26.014  1.00  0.00    -0.550 OA
ATOM      9  O   UNL     1      10.624  53.732  23.984  1.00  0.00    -0.550 OA
ENDBRANCH   6   7
ENDBRANCH   5   6
ENDBRANCH   4   5
ENDBRANCH   3   4
ENDBRANCH   2   3
ENDBRANCH   1   2
BRANCH   1  10
ATOM     10  C   UNL     1       7.041  57.043  21.687  1.00  0.00     0.000 C 
BRANCH  10  11
ATOM     11  C   UNL     1       5.679  56.676  22.296  1.00  0.00    -0.000 C 
BRANCH  11  12
ATOM     12  C   UNL     1       4.787  57.903  22.555  1.00  0.00    -0.000 C 
BRANCH  12  13
ATOM     13  C   UNL     1       3.437  57.895  21.814  1.00  0.00    -0.000 C 
BRANCH  13  14
ATOM     14  C   UNL     1       2.710  59.246  21.875  1.00  0.00    -0.000 C 
BRANCH  14  15
ATOM     15  C   UNL     1       2.596  59.742  23.321  1.00  0.00    -0.003 C 
ATOM     16  C   UNL     1       1.198  60.283  23.609  1.00  0.00     0.004 C 
ENDBRANCH  14  15
ENDBRANCH  13  14
ENDBRANCH  12  13
ENDBRANCH  11  12
ENDBRANCH  10  11
ENDBRANCH   1  10
TORSDOF 12
ENDMDL
MODEL 6
REMARK VINA RESULT:    -4.620      4.397      5.260
REMARK INTER + INTRA:          -9.080
REMARK INTER:                  -8.573
REMARK INTRA:                  -0.507
REMARK UNBOUND:                -1.219
REMARK SMILES CCCCCCCCCCCCCC(=O)[O-]
REMARK SMILES IDX 8 1 9 2 10 3 11 4 12 5 13 6 14 7 15 8 16 9 7 10 6 11 5 12
REMARK SMILES IDX 4 13 3 14 2 15 1 16
REMARK H PARENT
REMARK Flexibility Score: inf
ROOT
ATOM      1  C   UNL     1       5.170  56.722  22.407  1.00  0.00     0.000 C 
ENDROOT
BRANCH   1   2
ATOM      2  C   UNL     1       4.495  58.101  22.354  1.00  0.00     0.000 C 
BRANCH   2   3
ATOM      3  C   UNL     1       3.064  58.041  21.799  1.00  0.00     0.000 C 
BRANCH   3   4
ATOM      4  C   UNL     1       2.769  59.171  20.797  1.00  0.00     0.000 C 
BRANCH   4   5
ATOM      5  C   UNL     1       1.594  58.833  19.858  1.00  0.00     0.006 C 
BRANCH   5   6
ATOM      6  C   UNL     1       1.782  59.356  18.424  1.00  0.00     0.053 C 
BRANCH   6   7
ATOM      7  C   UNL     1       0.573  59.125  17.573  1.00  0.00     0.041 C 
ATOM      8  O   UNL     1       0.296  57.967  17.166  1.00  0.00    -0.550 OA
ATOM      9  O   UNL     1      -0.262  60.187  17.248  1.00  0.00    -0.550 OA
ENDBRANCH   6   7
ENDBRANCH   5   6
ENDBRANCH   4   5
ENDBRANCH   3   4
ENDBRANCH   2   3
ENDBRANCH   1   2
BRANCH   1  10
ATOM     10  C   UNL     1       6.695  56.860  22.497  1.00  0.00     0.000 C 
BRANCH  10  11
ATOM     11  C   UNL     1       7.372  56.334  21.223  1.00  0.00    -0.000 C 
BRANCH  11  12
ATOM     12  C   UNL     1       8.206  55.063  21.467  1.00  0.00    -0.000 C 
BRANCH  12  13
ATOM     13  C   UNL     1       8.479  54.738  22.947  1.00  0.00    -0.000 C 
BRANCH  13  14
ATOM     14  C   UNL     1       9.857  54.099  23.176  1.00  0.00    -0.000 C 
BRANCH  14  15
ATOM     15  C   UNL     1      10.293  54.245  24.638  1.00  0.00    -0.003 C 
ATOM     16  C   UNL     1       9.444  55.284  25.365  1.00  0.00     0.004 C 
ENDBRANCH  14  15
ENDBRANCH  13  14
ENDBRANCH  12  13
ENDBRANCH  11  12
ENDBRANCH  10  11
ENDBRANCH   1  10
TORSDOF 12
ENDMDL
MODEL 7
REMARK VINA RESULT:    -4.584      3.287      4.838
REMARK INTER + INTRA:          -9.018
REMARK INTER:                  -7.953
REMARK INTRA:                  -1.065
REMARK UNBOUND:                -1.219
REMARK SMILES CCCCCCCCCCCCCC(=O)[O-]
REMARK SMILES IDX 8 1 9 2 10 3 11 4 12 5 13 6 14 7 15 8 16 9 7 10 6 11 5 12
REMARK SMILES IDX 4 13 3 14 2 15 1 16
REMARK H PARENT
REMARK Flexibility Score: inf
ROOT
ATOM      1  C   UNL     1      10.552  53.904  23.293  1.00  0.00     0.000 C 
ENDROOT
BRANCH   1   2
ATOM      2  C   UNL     1      10.027  53.981  24.734  1.00  0.00     0.000 C 
BRANCH   2   3
ATOM      3  C   UNL     1       8.755  54.834  24.858  1.00  0.00     0.000 C 
BRANCH   3   4
ATOM      4  C   UNL     1       7.468  54.011  24.675  1.00  0.00     0.000 C 
BRANCH   4   5
ATOM      5  C   UNL     1       6.614  54.510  23.493  1.00  0.00     0.006 C 
BRANCH   5   6
ATOM      6  C   UNL     1       7.055  53.944  22.133  1.00  0.00     0.053 C 
BRANCH   6   7
ATOM      7  C   UNL     1       7.476  55.019  21.181  1.00  0.00     0.041 C 
ATOM      8  O   UNL     1       8.266  55.925  21.556  1.00  0.00    -0.550 OA
ATOM      9  O   UNL     1       7.015  55.007  19.870  1.00  0.00    -0.550 OA
ENDBRANCH   6   7
ENDBRANCH   5   6
ENDBRANCH   4   5
ENDBRANCH   3   4
ENDBRANCH   2   3
ENDBRANCH   1   2
BRANCH   1  10
ATOM     10  C   UNL     1      10.380  52.492  22.719  1.00  0.00     0.000 C 
BRANCH  10  11
ATOM     11  C   UNL     1       9.976  51.496  23.817  1.00  0.00    -0.000 C 
BRANCH  11  12
ATOM     12  C   UNL     1      10.266  50.033  23.437  1.00  0.00    -0.000 C 
BRANCH  12  13
ATOM     13  C   UNL     1      10.779  49.150  24.589  1.00  0.00    -0.000 C 
BRANCH  13  14
ATOM     14  C   UNL     1      11.124  47.722  24.143  1.00  0.00    -0.000 C 
BRANCH  14  15
ATOM     15  C   UNL     1       9.992  46.749  24.492  1.00  0.00    -0.003 C 
ATOM     16  C   UNL     1      10.542  45.451  25.075  1.00  0.00     0.004 C 
ENDBRANCH  14  15
ENDBRANCH  13  14
ENDBRANCH  12  13
ENDBRANCH  11  12
ENDBRANCH  10  11
ENDBRANCH   1  10
TORSDOF 12
ENDMDL
MODEL 8
REMARK VINA RESULT:    -4.553      4.181      6.055
REMARK INTER + INTRA:          -8.966
REMARK INTER:                  -8.079
REMARK INTRA:                  -0.887
REMARK UNBOUND:                -1.219
REMARK SMILES CCCCCCCCCCCCCC(=O)[O-]
REMARK SMILES IDX 8 1 9 2 10 3 11 4 12 5 13 6 14 7 15 8 16 9 7 10 6 11 5 12
REMARK SMILES IDX 4 13 3 14 2 15 1 16
REMARK H PARENT
REMARK Flexibility Score: inf
ROOT
ATOM      1  C   UNL     1       5.177  57.110  22.728  1.00  0.00     0.000 C 
ENDROOT
BRANCH   1   2
ATOM      2  C   UNL     1       3.971  57.698  21.981  1.00  0.00     0.000 C 
BRANCH   2   3
ATOM      3  C   UNL     1       3.524  59.054  22.549  1.00  0.00     0.000 C 
BRANCH   3   4
ATOM      4  C   UNL     1       2.615  59.832  21.580  1.00  0.00     0.000 C 
BRANCH   4   5
ATOM      5  C   UNL     1       2.289  59.027  20.306  1.00  0.00     0.006 C 
BRANCH   5   6
ATOM      6  C   UNL     1       0.946  59.411  19.663  1.00  0.00     0.053 C 
BRANCH   6   7
ATOM      7  C   UNL     1       0.942  59.191  18.183  1.00  0.00     0.041 C 
ATOM      8  O   UNL     1       2.028  59.058  17.559  1.00  0.00    -0.550 OA
ATOM      9  O   UNL     1      -0.262  59.109  17.495  1.00  0.00    -0.550 OA
ENDBRANCH   6   7
ENDBRANCH   5   6
ENDBRANCH   4   5
ENDBRANCH   3   4
ENDBRANCH   2   3
ENDBRANCH   1   2
BRANCH   1  10
ATOM     10  C   UNL     1       6.424  57.096  21.836  1.00  0.00     0.000 C 
BRANCH  10  11
ATOM     11  C   UNL     1       7.632  56.515  22.585  1.00  0.00    -0.000 C 
BRANCH  11  12
ATOM     12  C   UNL     1       8.065  55.138  22.051  1.00  0.00    -0.000 C 
BRANCH  12  13
ATOM     13  C   UNL     1       6.984  54.043  22.121  1.00  0.00    -0.000 C 
BRANCH  13  14
ATOM     14  C   UNL     1       6.482  53.607  20.737  1.00  0.00    -0.000 C 
BRANCH  14  15
ATOM     15  C   UNL     1       7.461  54.034  19.638  1.00  0.00    -0.003 C 
ATOM     16  C   UNL     1       6.736  54.751  18.503  1.00  0.00     0.004 C 
ENDBRANCH  14  15
ENDBRANCH  13  14
ENDBRANCH  12  13
ENDBRANCH  11  12
ENDBRANCH  10  11
ENDBRANCH   1  10
TORSDOF 12
ENDMDL
MODEL 9
REMARK VINA RESULT:    -4.534      3.755      6.991
REMARK INTER + INTRA:          -8.934
REMARK INTER:                  -8.260
REMARK INTRA:                  -0.675
REMARK UNBOUND:                -1.219
REMARK SMILES CCCCCCCCCCCCCC(=O)[O-]
REMARK SMILES IDX 8 1 9 2 10 3 11 4 12 5 13 6 14 7 15 8 16 9 7 10 6 11 5 12
REMARK SMILES IDX 4 13 3 14 2 15 1 16
REMARK H PARENT
REMARK Flexibility Score: inf
ROOT
ATOM      1  C   UNL     1       6.933  56.815  22.320  1.00  0.00     0.000 C 
ENDROOT
BRANCH   1   2
ATOM      2  C   UNL     1       7.616  55.760  21.437  1.00  0.00     0.000 C 
BRANCH   2   3
ATOM      3  C   UNL     1       6.923  54.390  21.504  1.00  0.00     0.000 C 
BRANCH   3   4
ATOM      4  C   UNL     1       7.522  53.475  22.587  1.00  0.00     0.000 C 
BRANCH   4   5
ATOM      5  C   UNL     1       6.989  53.805  23.996  1.00  0.00     0.006 C 
BRANCH   5   6
ATOM      6  C   UNL     1       8.015  53.559  25.114  1.00  0.00     0.053 C 
BRANCH   6   7
ATOM      7  C   UNL     1       9.256  54.376  24.936  1.00  0.00     0.041 C 
ATOM      8  O   UNL     1      10.319  53.834  24.535  1.00  0.00    -0.550 OA
ATOM      9  O   UNL     1       9.232  55.742  25.189  1.00  0.00    -0.550 OA
ENDBRANCH   6   7
ENDBRANCH   5   6
ENDBRANCH   4   5
ENDBRANCH   3   4
ENDBRANCH   2   3
ENDBRANCH   1   2
BRANCH   1  10
ATOM     10  C   UNL     1       5.409  56.645  22.301  1.00  0.00     0.000 C 
BRANCH  10  11
ATOM     11  C   UNL     1       4.702  57.978  22.587  1.00  0.00    -0.000 C 
BRANCH  11  12
ATOM     12  C   UNL     1       3.353  58.110  21.857  1.00  0.00    -0.000 C 
BRANCH  12  13
ATOM     13  C   UNL     1       2.955  59.549  21.478  1.00  0.00    -0.000 C 
BRANCH  13  14
ATOM     14  C   UNL     1       2.626  60.421  22.698  1.00  0.00    -0.000 C 
BRANCH  14  15
ATOM     15  C   UNL     1       1.710  59.676  23.675  1.00  0.00    -0.003 C 
ATOM     16  C   UNL     1       0.468  60.499  24.003  1.00  0.00     0.004 C 
ENDBRANCH  14  15
ENDBRANCH  13  14
ENDBRANCH  12  13
ENDBRANCH  11  12
ENDBRANCH  10  11
ENDBRANCH   1  10
TORSDOF 12
ENDMDL
