MODEL 1
REMARK VINA RESULT:    -6.815      0.000      0.000
REMARK INTER + INTRA:         -10.131
REMARK INTER:                  -9.405
REMARK INTRA:                  -0.727
REMARK UNBOUND:                -0.727
REMARK SMILES CC[C@H](CC[C@@H](C)[C@H]1CC[C@@H]2[C@@H]3CC=C4C[C@@H](O)CC[C@@]4(C)[C@H]3CC[C@]21C)C(C)C
REMARK SMILES IDX 5 1 4 2 3 3 2 4 1 5 28 6 29 7 30 8 6 9 7 10 8 11 9 12 26 13
REMARK SMILES IDX 10 14 11 15 25 16 27 17 12 18 24 19 23 20 13 21 21 22 14 23
REMARK SMILES IDX 15 24 20 25 22 26 16 27 19 28 17 29 18 30
REMARK H PARENT 18 31
REMARK Flexibility Score: inf
ROOT
ATOM      1  C   UNL     1       9.190  -1.476   5.700  1.00  0.00     0.004 C 
ENDROOT
BRANCH   1   2
ATOM      2  C   UNL     1      10.147  -1.005   4.582  1.00  0.00     0.004 C 
BRANCH   2   3
ATOM      3  C   UNL     1      11.445  -1.855   4.461  1.00  0.00    -0.009 C 
BRANCH   3   4
ATOM      4  C   UNL     1      11.448  -2.643   3.119  1.00  0.00     0.000 C 
ATOM      5  C   UNL     1      10.125  -2.535   2.354  1.00  0.00     0.004 C 
ENDBRANCH   3   4
BRANCH   3   6
ATOM      6  C   UNL     1      12.753  -1.016   4.661  1.00  0.00    -0.014 C 
ATOM      7  C   UNL     1      13.040  -0.717   6.145  1.00  0.00     0.007 C 
ATOM      8  C   UNL     1      13.988  -1.642   3.994  1.00  0.00     0.007 C 
ENDBRANCH   3   6
ENDBRANCH   2   3
ENDBRANCH   1   2
BRANCH   1   9
ATOM      9  C   UNL     1       9.853  -1.665   7.101  1.00  0.00    -0.011 C 
ATOM     10  C   UNL     1       8.981  -0.952   8.162  1.00  0.00     0.008 C 
BRANCH   9  11
ATOM     11  C   UNL     1      10.125  -3.159   7.506  1.00  0.00    -0.002 C 
ATOM     12  C   UNL     1       9.893  -3.450   9.020  1.00  0.00     0.005 C 
ATOM     13  C   UNL     1       9.334  -4.308   6.739  1.00  0.00    -0.026 C 
ATOM     14  C   UNL     1       9.222  -4.814   9.122  1.00  0.00     0.005 C 
ATOM     15  C   UNL     1       8.419  -4.857   7.845  1.00  0.00    -0.001 C 
ATOM     16  C   UNL     1       8.409  -3.940   5.514  1.00  0.00     0.007 C 
ATOM     17  C   UNL     1      10.421  -5.335   6.279  1.00  0.00     0.012 C 
ATOM     18  C   UNL     1       7.579  -6.118   7.508  1.00  0.00     0.000 C 
ATOM     19  C   UNL     1       7.090  -4.772   5.397  1.00  0.00     0.005 C 
ATOM     20  C   UNL     1       7.220  -6.193   6.001  1.00  0.00     0.003 C 
ATOM     21  C   UNL     1       8.149  -7.475   7.925  1.00  0.00     0.031 C 
ATOM     22  C   UNL     1       6.022  -7.186   5.766  1.00  0.00    -0.008 C 
ATOM     23  C   UNL     1       7.125  -8.546   7.630  1.00  0.00    -0.027 C 
ATOM     24  C   UNL     1       6.158  -8.424   6.681  1.00  0.00    -0.065 C 
ATOM     25  C   UNL     1       4.649  -6.507   6.063  1.00  0.00     0.014 C 
ATOM     26  C   UNL     1       6.059  -7.660   4.285  1.00  0.00     0.016 C 
ATOM     27  C   UNL     1       5.015  -9.415   6.676  1.00  0.00     0.063 C 
ATOM     28  C   UNL     1       3.462  -7.496   6.088  1.00  0.00     0.033 C 
ATOM     29  C   UNL     1       3.708  -8.689   7.030  1.00  0.00     0.118 C 
BRANCH  29  30
ATOM     30  O   UNL     1       3.751  -8.232   8.359  1.00  0.00    -0.393 OA
ATOM     31  H   UNL     1       4.060  -8.996   8.917  1.00  0.00     0.210 HD
ENDBRANCH  29  30
ENDBRANCH   9  11
ENDBRANCH   1   9
TORSDOF 7
ENDMDL
MODEL 2
REMARK VINA RESULT:    -5.917      1.501      2.549
REMARK INTER + INTRA:          -8.892
REMARK INTER:                  -8.123
REMARK INTRA:                  -0.769
REMARK UNBOUND:                -0.727
REMARK SMILES CC[C@H](CC[C@@H](C)[C@H]1CC[C@@H]2[C@@H]3CC=C4C[C@@H](O)CC[C@@]4(C)[C@H]3CC[C@]21C)C(C)C
REMARK SMILES IDX 5 1 4 2 3 3 2 4 1 5 28 6 29 7 30 8 6 9 7 10 8 11 9 12 26 13
REMARK SMILES IDX 10 14 11 15 25 16 27 17 12 18 24 19 23 20 13 21 21 22 14 23
REMARK SMILES IDX 15 24 20 25 22 26 16 27 19 28 17 29 18 30
REMARK H PARENT 18 31
REMARK Flexibility Score: inf
ROOT
ATOM      1  C   UNL     1      11.643  -1.517   4.144  1.00  0.00     0.004 C 
ENDROOT
BRANCH   1   2
ATOM      2  C   UNL     1      13.131  -1.229   4.439  1.00  0.00     0.004 C 
BRANCH   2   3
ATOM      3  C   UNL     1      13.382   0.116   5.179  1.00  0.00    -0.009 C 
BRANCH   3   4
ATOM      4  C   UNL     1      14.125  -0.139   6.522  1.00  0.00     0.000 C 
ATOM      5  C   UNL     1      14.111  -1.610   6.948  1.00  0.00     0.004 C 
ENDBRANCH   3   4
BRANCH   3   6
ATOM      6  C   UNL     1      14.109   1.184   4.291  1.00  0.00    -0.014 C 
ATOM      7  C   UNL     1      14.122   0.798   2.800  1.00  0.00     0.007 C 
ATOM      8  C   UNL     1      13.556   2.606   4.471  1.00  0.00     0.007 C 
ENDBRANCH   3   6
ENDBRANCH   2   3
ENDBRANCH   1   2
BRANCH   1   9
ATOM      9  C   UNL     1      10.671  -1.264   5.341  1.00  0.00    -0.011 C 
ATOM     10  C   UNL     1       9.226  -1.174   4.795  1.00  0.00     0.008 C 
BRANCH   9  11
ATOM     11  C   UNL     1      10.771  -2.314   6.505  1.00  0.00    -0.002 C 
ATOM     12  C   UNL     1      10.348  -1.750   7.896  1.00  0.00     0.005 C 
ATOM     13  C   UNL     1       9.977  -3.687   6.359  1.00  0.00    -0.026 C 
ATOM     14  C   UNL     1       9.558  -2.842   8.607  1.00  0.00     0.005 C 
ATOM     15  C   UNL     1       8.901  -3.551   7.448  1.00  0.00    -0.001 C 
ATOM     16  C   UNL     1       9.228  -4.019   5.009  1.00  0.00     0.007 C 
ATOM     17  C   UNL     1      11.019  -4.813   6.665  1.00  0.00     0.012 C 
ATOM     18  C   UNL     1       8.003  -4.787   7.713  1.00  0.00     0.000 C 
ATOM     19  C   UNL     1       7.865  -4.770   5.166  1.00  0.00     0.005 C 
ATOM     20  C   UNL     1       7.808  -5.650   6.439  1.00  0.00     0.003 C 
ATOM     21  C   UNL     1       8.407  -5.719   8.857  1.00  0.00     0.031 C 
ATOM     22  C   UNL     1       6.565  -6.602   6.599  1.00  0.00    -0.008 C 
ATOM     23  C   UNL     1       7.336  -6.770   9.033  1.00  0.00    -0.027 C 
ATOM     24  C   UNL     1       6.494  -7.162   8.038  1.00  0.00    -0.065 C 
ATOM     25  C   UNL     1       5.229  -5.855   6.300  1.00  0.00     0.014 C 
ATOM     26  C   UNL     1       6.728  -7.793   5.613  1.00  0.00     0.016 C 
ATOM     27  C   UNL     1       5.281  -7.991   8.397  1.00  0.00     0.063 C 
ATOM     28  C   UNL     1       3.969  -6.664   6.677  1.00  0.00     0.033 C 
ATOM     29  C   UNL     1       4.007  -7.173   8.130  1.00  0.00     0.118 C 
BRANCH  29  30
ATOM     30  O   UNL     1       3.940  -6.077   9.009  1.00  0.00    -0.393 OA
ATOM     31  H   UNL     1       2.976  -5.876   9.145  1.00  0.00     0.210 HD
ENDBRANCH  29  30
ENDBRANCH   9  11
ENDBRANCH   1   9
TORSDOF 7
ENDMDL
MODEL 3
REMARK VINA RESULT:    -5.787      1.745      4.053
REMARK INTER + INTRA:          -8.713
REMARK INTER:                  -7.917
REMARK INTRA:                  -0.796
REMARK UNBOUND:                -0.727
REMARK SMILES CC[C@H](CC[C@@H](C)[C@H]1CC[C@@H]2[C@@H]3CC=C4C[C@@H](O)CC[C@@]4(C)[C@H]3CC[C@]21C)C(C)C
REMARK SMILES IDX 5 1 4 2 3 3 2 4 1 5 28 6 29 7 30 8 6 9 7 10 8 11 9 12 26 13
REMARK SMILES IDX 10 14 11 15 25 16 27 17 12 18 24 19 23 20 13 21 21 22 14 23
REMARK SMILES IDX 15 24 20 25 22 26 16 27 19 28 17 29 18 30
REMARK H PARENT 18 31
REMARK Flexibility Score: inf
ROOT
ATOM      1  C   UNL     1      12.142  -2.233   5.603  1.00  0.00     0.004 C 
ENDROOT
BRANCH   1   2
ATOM      2  C   UNL     1      12.086  -1.125   6.677  1.00  0.00     0.004 C 
BRANCH   2   3
ATOM      3  C   UNL     1      12.036  -1.660   8.137  1.00  0.00    -0.009 C 
BRANCH   3   4
ATOM      4  C   UNL     1      10.574  -1.628   8.671  1.00  0.00     0.000 C 
ATOM      5  C   UNL     1       9.994  -0.213   8.753  1.00  0.00     0.004 C 
ENDBRANCH   3   4
BRANCH   3   6
ATOM      6  C   UNL     1      12.697  -3.071   8.301  1.00  0.00    -0.014 C 
ATOM      7  C   UNL     1      14.125  -2.989   8.876  1.00  0.00     0.007 C 
ATOM      8  C   UNL     1      11.847  -4.053   9.122  1.00  0.00     0.007 C 
ENDBRANCH   3   6
ENDBRANCH   2   3
ENDBRANCH   1   2
BRANCH   1   9
ATOM      9  C   UNL     1      11.424  -1.888   4.259  1.00  0.00    -0.011 C 
ATOM     10  C   UNL     1      11.921  -2.865   3.168  1.00  0.00     0.008 C 
BRANCH   9  11
ATOM     11  C   UNL     1       9.855  -1.875   4.335  1.00  0.00    -0.002 C 
ATOM     12  C   UNL     1       9.160  -2.074   2.953  1.00  0.00     0.005 C 
ATOM     13  C   UNL     1       9.134  -2.906   5.311  1.00  0.00    -0.026 C 
ATOM     14  C   UNL     1       7.955  -2.979   3.177  1.00  0.00     0.005 C 
ATOM     15  C   UNL     1       8.430  -3.845   4.319  1.00  0.00    -0.001 C 
ATOM     16  C   UNL     1       9.999  -3.813   6.271  1.00  0.00     0.007 C 
ATOM     17  C   UNL     1       8.135  -2.055   6.161  1.00  0.00     0.012 C 
ATOM     18  C   UNL     1       7.483  -4.921   4.913  1.00  0.00     0.000 C 
ATOM     19  C   UNL     1       9.465  -5.268   6.480  1.00  0.00     0.005 C 
ATOM     20  C   UNL     1       7.926  -5.370   6.330  1.00  0.00     0.003 C 
ATOM     21  C   UNL     1       5.990  -4.590   4.969  1.00  0.00     0.031 C 
ATOM     22  C   UNL     1       7.257  -6.742   6.711  1.00  0.00    -0.008 C 
ATOM     23  C   UNL     1       5.237  -5.810   5.448  1.00  0.00    -0.027 C 
ATOM     24  C   UNL     1       5.795  -6.788   6.212  1.00  0.00    -0.065 C 
ATOM     25  C   UNL     1       8.024  -7.947   6.085  1.00  0.00     0.014 C 
ATOM     26  C   UNL     1       7.254  -6.874   8.261  1.00  0.00     0.016 C 
ATOM     27  C   UNL     1       5.048  -8.092   6.380  1.00  0.00     0.063 C 
ATOM     28  C   UNL     1       7.278  -9.293   6.220  1.00  0.00     0.033 C 
ATOM     29  C   UNL     1       5.833  -9.221   5.693  1.00  0.00     0.118 C 
BRANCH  29  30
ATOM     30  O   UNL     1       5.853  -9.021   4.302  1.00  0.00    -0.393 OA
ATOM     31  H   UNL     1       5.895  -8.039   4.152  1.00  0.00     0.210 HD
ENDBRANCH  29  30
ENDBRANCH   9  11
ENDBRANCH   1   9
TORSDOF 7
ENDMDL
MODEL 4
REMARK VINA RESULT:    -5.663      1.335      2.232
REMARK INTER + INTRA:          -8.542
REMARK INTER:                  -7.391
REMARK INTRA:                  -1.152
REMARK UNBOUND:                -0.727
REMARK SMILES CC[C@H](CC[C@@H](C)[C@H]1CC[C@@H]2[C@@H]3CC=C4C[C@@H](O)CC[C@@]4(C)[C@H]3CC[C@]21C)C(C)C
REMARK SMILES IDX 5 1 4 2 3 3 2 4 1 5 28 6 29 7 30 8 6 9 7 10 8 11 9 12 26 13
REMARK SMILES IDX 10 14 11 15 25 16 27 17 12 18 24 19 23 20 13 21 21 22 14 23
REMARK SMILES IDX 15 24 20 25 22 26 16 27 19 28 17 29 18 30
REMARK H PARENT 18 31
REMARK Flexibility Score: inf
ROOT
ATOM      1  C   UNL     1      11.150  -1.561   3.684  1.00  0.00     0.004 C 
ENDROOT
BRANCH   1   2
ATOM      2  C   UNL     1      12.564  -2.117   3.963  1.00  0.00     0.004 C 
BRANCH   2   3
ATOM      3  C   UNL     1      13.601  -1.032   4.374  1.00  0.00    -0.009 C 
BRANCH   3   4
ATOM      4  C   UNL     1      13.023   0.390   4.114  1.00  0.00     0.000 C 
ATOM      5  C   UNL     1      14.096   1.418   3.746  1.00  0.00     0.004 C 
ENDBRANCH   3   4
BRANCH   3   6
ATOM      6  C   UNL     1      14.125  -1.201   5.841  1.00  0.00    -0.014 C 
ATOM      7  C   UNL     1      13.406  -0.268   6.834  1.00  0.00     0.007 C 
ATOM      8  C   UNL     1      14.078  -2.653   6.343  1.00  0.00     0.007 C 
ENDBRANCH   3   6
ENDBRANCH   2   3
ENDBRANCH   1   2
BRANCH   1   9
ATOM      9  C   UNL     1      10.310  -1.224   4.956  1.00  0.00    -0.011 C 
ATOM     10  C   UNL     1       8.818  -1.134   4.555  1.00  0.00     0.008 C 
BRANCH   9  11
ATOM     11  C   UNL     1      10.511  -2.212   6.162  1.00  0.00    -0.002 C 
ATOM     12  C   UNL     1      10.112  -1.605   7.542  1.00  0.00     0.005 C 
ATOM     13  C   UNL     1       9.788  -3.629   6.110  1.00  0.00    -0.026 C 
ATOM     14  C   UNL     1       9.411  -2.703   8.333  1.00  0.00     0.005 C 
ATOM     15  C   UNL     1       8.750  -3.499   7.235  1.00  0.00    -0.001 C 
ATOM     16  C   UNL     1       9.007  -4.063   4.808  1.00  0.00     0.007 C 
ATOM     17  C   UNL     1      10.901  -4.683   6.423  1.00  0.00     0.012 C 
ATOM     18  C   UNL     1       7.930  -4.767   7.592  1.00  0.00     0.000 C 
ATOM     19  C   UNL     1       7.694  -4.877   5.055  1.00  0.00     0.005 C 
ATOM     20  C   UNL     1       7.734  -5.698   6.367  1.00  0.00     0.003 C 
ATOM     21  C   UNL     1       8.428  -5.621   8.759  1.00  0.00     0.031 C 
ATOM     22  C   UNL     1       6.552  -6.706   6.621  1.00  0.00    -0.008 C 
ATOM     23  C   UNL     1       7.424  -6.718   9.026  1.00  0.00    -0.027 C 
ATOM     24  C   UNL     1       6.567  -7.200   8.085  1.00  0.00    -0.065 C 
ATOM     25  C   UNL     1       5.167  -6.044   6.344  1.00  0.00     0.014 C 
ATOM     26  C   UNL     1       6.741  -7.931   5.683  1.00  0.00     0.016 C 
ATOM     27  C   UNL     1       5.415  -8.073   8.531  1.00  0.00     0.063 C 
ATOM     28  C   UNL     1       3.968  -6.900   6.808  1.00  0.00     0.033 C 
ATOM     29  C   UNL     1       4.090  -7.337   8.280  1.00  0.00     0.118 C 
BRANCH  29  30
ATOM     30  O   UNL     1       3.997  -6.207   9.111  1.00  0.00    -0.393 OA
ATOM     31  H   UNL     1       4.305  -6.487  10.015  1.00  0.00     0.210 HD
ENDBRANCH  29  30
ENDBRANCH   9  11
ENDBRANCH   1   9
TORSDOF 7
ENDMDL
MODEL 5
REMARK VINA RESULT:    -5.574      2.702      7.370
REMARK INTER + INTRA:          -8.418
REMARK INTER:                  -6.406
REMARK INTRA:                  -2.012
REMARK UNBOUND:                -0.727
REMARK SMILES CC[C@H](CC[C@@H](C)[C@H]1CC[C@@H]2[C@@H]3CC=C4C[C@@H](O)CC[C@@]4(C)[C@H]3CC[C@]21C)C(C)C
REMARK SMILES IDX 5 1 4 2 3 3 2 4 1 5 28 6 29 7 30 8 6 9 7 10 8 11 9 12 26 13
REMARK SMILES IDX 10 14 11 15 25 16 27 17 12 18 24 19 23 20 13 21 21 22 14 23
REMARK SMILES IDX 15 24 20 25 22 26 16 27 19 28 17 29 18 30
REMARK H PARENT 18 31
REMARK Flexibility Score: inf
ROOT
ATOM      1  C   UNL     1       5.627  -9.922   5.124  1.00  0.00     0.004 C 
ENDROOT
BRANCH   1   2
ATOM      2  C   UNL     1       5.529  -9.618   3.613  1.00  0.00     0.004 C 
BRANCH   2   3
ATOM      3  C   UNL     1       6.744 -10.125   2.785  1.00  0.00    -0.009 C 
BRANCH   3   4
ATOM      4  C   UNL     1       6.398 -10.125   1.267  1.00  0.00     0.000 C 
ATOM      5  C   UNL     1       5.356  -9.069   0.887  1.00  0.00     0.004 C 
ENDBRANCH   3   4
BRANCH   3   6
ATOM      6  C   UNL     1       8.069  -9.346   3.092  1.00  0.00    -0.014 C 
ATOM      7  C   UNL     1       9.223  -9.757   2.157  1.00  0.00     0.007 C 
ATOM      8  C   UNL     1       7.896  -7.820   3.087  1.00  0.00     0.007 C 
ENDBRANCH   3   6
ENDBRANCH   2   3
ENDBRANCH   1   2
BRANCH   1   9
ATOM      9  C   UNL     1       5.248  -8.733   6.064  1.00  0.00    -0.011 C 
ATOM     10  C   UNL     1       4.012  -9.139   6.902  1.00  0.00     0.008 C 
BRANCH   9  11
ATOM     11  C   UNL     1       6.413  -8.224   6.986  1.00  0.00    -0.002 C 
ATOM     12  C   UNL     1       7.742  -9.022   6.815  1.00  0.00     0.005 C 
ATOM     13  C   UNL     1       6.838  -6.692   6.896  1.00  0.00    -0.026 C 
ATOM     14  C   UNL     1       8.885  -8.017   6.871  1.00  0.00     0.005 C 
ATOM     15  C   UNL     1       8.242  -6.787   6.277  1.00  0.00    -0.001 C 
ATOM     16  C   UNL     1       6.003  -5.699   5.995  1.00  0.00     0.007 C 
ATOM     17  C   UNL     1       6.853  -6.169   8.369  1.00  0.00     0.012 C 
ATOM     18  C   UNL     1       9.057  -5.471   6.167  1.00  0.00     0.000 C 
ATOM     19  C   UNL     1       6.839  -4.612   5.245  1.00  0.00     0.005 C 
ATOM     20  C   UNL     1       8.141  -4.231   5.994  1.00  0.00     0.003 C 
ATOM     21  C   UNL     1      10.057  -5.167   7.284  1.00  0.00     0.031 C 
ATOM     22  C   UNL     1       8.961  -3.010   5.434  1.00  0.00    -0.008 C 
ATOM     23  C   UNL     1      10.834  -3.923   6.918  1.00  0.00    -0.027 C 
ATOM     24  C   UNL     1      10.365  -2.961   6.079  1.00  0.00    -0.065 C 
ATOM     25  C   UNL     1       9.138  -3.100   3.887  1.00  0.00     0.014 C 
ATOM     26  C   UNL     1       8.204  -1.702   5.797  1.00  0.00     0.016 C 
ATOM     27  C   UNL     1      11.331  -1.923   5.551  1.00  0.00     0.063 C 
ATOM     28  C   UNL     1      10.137  -2.068   3.317  1.00  0.00     0.033 C 
ATOM     29  C   UNL     1      11.498  -2.107   4.035  1.00  0.00     0.118 C 
BRANCH  29  30
ATOM     30  O   UNL     1      12.135  -3.330   3.761  1.00  0.00    -0.393 OA
ATOM     31  H   UNL     1      12.811  -3.152   3.053  1.00  0.00     0.210 HD
ENDBRANCH  29  30
ENDBRANCH   9  11
ENDBRANCH   1   9
TORSDOF 7
ENDMDL
MODEL 6
REMARK VINA RESULT:    -5.105      1.732      3.786
REMARK INTER + INTRA:          -7.772
REMARK INTER:                  -7.276
REMARK INTRA:                  -0.495
REMARK UNBOUND:                -0.727
REMARK SMILES CC[C@H](CC[C@@H](C)[C@H]1CC[C@@H]2[C@@H]3CC=C4C[C@@H](O)CC[C@@]4(C)[C@H]3CC[C@]21C)C(C)C
REMARK SMILES IDX 5 1 4 2 3 3 2 4 1 5 28 6 29 7 30 8 6 9 7 10 8 11 9 12 26 13
REMARK SMILES IDX 10 14 11 15 25 16 27 17 12 18 24 19 23 20 13 21 21 22 14 23
REMARK SMILES IDX 15 24 20 25 22 26 16 27 19 28 17 29 18 30
REMARK H PARENT 18 31
REMARK Flexibility Score: inf
ROOT
ATOM      1  C   UNL     1      11.660  -2.623   4.438  1.00  0.00     0.004 C 
ENDROOT
BRANCH   1   2
ATOM      2  C   UNL     1      12.877  -1.672   4.468  1.00  0.00     0.004 C 
BRANCH   2   3
ATOM      3  C   UNL     1      13.514  -1.502   5.877  1.00  0.00    -0.009 C 
BRANCH   3   4
ATOM      4  C   UNL     1      13.879  -0.010   6.126  1.00  0.00     0.000 C 
ATOM      5  C   UNL     1      13.870   0.833   4.848  1.00  0.00     0.004 C 
ENDBRANCH   3   4
BRANCH   3   6
ATOM      6  C   UNL     1      12.633  -2.099   7.029  1.00  0.00    -0.014 C 
ATOM      7  C   UNL     1      13.479  -2.637   8.198  1.00  0.00     0.007 C 
ATOM      8  C   UNL     1      11.564  -1.124   7.547  1.00  0.00     0.007 C 
ENDBRANCH   3   6
ENDBRANCH   2   3
ENDBRANCH   1   2
BRANCH   1   9
ATOM      9  C   UNL     1      10.494  -2.173   3.501  1.00  0.00    -0.011 C 
ATOM     10  C   UNL     1      10.573  -2.986   2.187  1.00  0.00     0.008 C 
BRANCH   9  11
ATOM     11  C   UNL     1       9.061  -2.270   4.139  1.00  0.00    -0.002 C 
ATOM     12  C   UNL     1       7.944  -2.645   3.118  1.00  0.00     0.005 C 
ATOM     13  C   UNL     1       8.843  -3.257   5.369  1.00  0.00    -0.026 C 
ATOM     14  C   UNL     1       6.997  -3.613   3.817  1.00  0.00     0.005 C 
ATOM     15  C   UNL     1       7.933  -4.333   4.757  1.00  0.00    -0.001 C 
ATOM     16  C   UNL     1      10.081  -4.006   6.002  1.00  0.00     0.007 C 
ATOM     17  C   UNL     1       8.131  -2.408   6.472  1.00  0.00     0.012 C 
ATOM     18  C   UNL     1       7.373  -5.416   5.717  1.00  0.00     0.000 C 
ATOM     19  C   UNL     1       9.807  -5.470   6.476  1.00  0.00     0.005 C 
ATOM     20  C   UNL     1       8.335  -5.700   6.900  1.00  0.00     0.003 C 
ATOM     21  C   UNL     1       5.973  -5.193   6.290  1.00  0.00     0.031 C 
ATOM     22  C   UNL     1       7.988  -7.077   7.578  1.00  0.00    -0.008 C 
ATOM     23  C   UNL     1       5.568  -6.416   7.081  1.00  0.00    -0.027 C 
ATOM     24  C   UNL     1       6.458  -7.276   7.647  1.00  0.00    -0.065 C 
ATOM     25  C   UNL     1       8.602  -8.274   6.789  1.00  0.00     0.014 C 
ATOM     26  C   UNL     1       8.551  -7.066   9.028  1.00  0.00     0.016 C 
ATOM     27  C   UNL     1       5.956  -8.611   8.151  1.00  0.00     0.063 C 
ATOM     28  C   UNL     1       8.093  -9.653   7.264  1.00  0.00     0.033 C 
ATOM     29  C   UNL     1       6.556  -9.737   7.294  1.00  0.00     0.118 C 
BRANCH  29  30
ATOM     30  O   UNL     1       6.060  -9.665   5.980  1.00  0.00    -0.393 OA
ATOM     31  H   UNL     1       5.124 -10.002   6.007  1.00  0.00     0.210 HD
ENDBRANCH  29  30
ENDBRANCH   9  11
ENDBRANCH   1   9
TORSDOF 7
ENDMDL
MODEL 7
REMARK VINA RESULT:    -5.021      2.474      8.333
REMARK INTER + INTRA:          -7.655
REMARK INTER:                  -6.867
REMARK INTRA:                  -0.788
REMARK UNBOUND:                -0.727
REMARK SMILES CC[C@H](CC[C@@H](C)[C@H]1CC[C@@H]2[C@@H]3CC=C4C[C@@H](O)CC[C@@]4(C)[C@H]3CC[C@]21C)C(C)C
REMARK SMILES IDX 5 1 4 2 3 3 2 4 1 5 28 6 29 7 30 8 6 9 7 10 8 11 9 12 26 13
REMARK SMILES IDX 10 14 11 15 25 16 27 17 12 18 24 19 23 20 13 21 21 22 14 23
REMARK SMILES IDX 15 24 20 25 22 26 16 27 19 28 17 29 18 30
REMARK H PARENT 18 31
REMARK Flexibility Score: inf
ROOT
ATOM      1  C   UNL     1       5.144  -8.998   5.520  1.00  0.00     0.004 C 
ENDROOT
BRANCH   1   2
ATOM      2  C   UNL     1       4.358  -9.993   6.401  1.00  0.00     0.004 C 
BRANCH   2   3
ATOM      3  C   UNL     1       3.290  -9.325   7.314  1.00  0.00    -0.009 C 
BRANCH   3   4
ATOM      4  C   UNL     1       1.956 -10.124   7.254  1.00  0.00     0.000 C 
ATOM      5  C   UNL     1       0.715  -9.226   7.258  1.00  0.00     0.004 C 
ENDBRANCH   3   4
BRANCH   3   6
ATOM      6  C   UNL     1       3.785  -9.103   8.784  1.00  0.00    -0.014 C 
ATOM      7  C   UNL     1       5.019  -9.961   9.125  1.00  0.00     0.007 C 
ATOM      8  C   UNL     1       4.051  -7.628   9.123  1.00  0.00     0.007 C 
ENDBRANCH   3   6
ENDBRANCH   2   3
ENDBRANCH   1   2
BRANCH   1   9
ATOM      9  C   UNL     1       6.650  -8.826   5.900  1.00  0.00    -0.011 C 
ATOM     10  C   UNL     1       7.451  -8.505   4.616  1.00  0.00     0.008 C 
BRANCH   9  11
ATOM     11  C   UNL     1       6.930  -7.763   7.022  1.00  0.00    -0.002 C 
ATOM     12  C   UNL     1       8.137  -8.125   7.941  1.00  0.00     0.005 C 
ATOM     13  C   UNL     1       7.181  -6.252   6.589  1.00  0.00    -0.026 C 
ATOM     14  C   UNL     1       8.899  -6.836   8.218  1.00  0.00     0.005 C 
ATOM     15  C   UNL     1       8.664  -6.060   6.944  1.00  0.00    -0.001 C 
ATOM     16  C   UNL     1       7.011  -5.831   5.077  1.00  0.00     0.007 C 
ATOM     17  C   UNL     1       6.224  -5.392   7.478  1.00  0.00     0.012 C 
ATOM     18  C   UNL     1       9.249  -4.631   6.796  1.00  0.00     0.000 C 
ATOM     19  C   UNL     1       8.034  -4.767   4.558  1.00  0.00     0.005 C 
ATOM     20  C   UNL     1       8.539  -3.824   5.678  1.00  0.00     0.003 C 
ATOM     21  C   UNL     1       9.297  -3.757   8.051  1.00  0.00     0.031 C 
ATOM     22  C   UNL     1       9.418  -2.594   5.239  1.00  0.00    -0.008 C 
ATOM     23  C   UNL     1      10.020  -2.470   7.723  1.00  0.00    -0.027 C 
ATOM     24  C   UNL     1      10.097  -1.949   6.468  1.00  0.00    -0.065 C 
ATOM     25  C   UNL     1      10.531  -3.016   4.232  1.00  0.00     0.014 C 
ATOM     26  C   UNL     1       8.489  -1.538   4.576  1.00  0.00     0.016 C 
ATOM     27  C   UNL     1      11.084  -0.833   6.205  1.00  0.00     0.063 C 
ATOM     28  C   UNL     1      11.571  -1.907   3.958  1.00  0.00     0.033 C 
ATOM     29  C   UNL     1      12.180  -1.337   5.253  1.00  0.00     0.118 C 
BRANCH  29  30
ATOM     30  O   UNL     1      12.952  -2.329   5.881  1.00  0.00    -0.393 OA
ATOM     31  H   UNL     1      12.420  -2.662   6.654  1.00  0.00     0.210 HD
ENDBRANCH  29  30
ENDBRANCH   9  11
ENDBRANCH   1   9
TORSDOF 7
ENDMDL
MODEL 8
REMARK VINA RESULT:    -4.966      1.733      4.083
REMARK INTER + INTRA:          -7.579
REMARK INTER:                  -7.069
REMARK INTRA:                  -0.510
REMARK UNBOUND:                -0.727
REMARK SMILES CC[C@H](CC[C@@H](C)[C@H]1CC[C@@H]2[C@@H]3CC=C4C[C@@H](O)CC[C@@]4(C)[C@H]3CC[C@]21C)C(C)C
REMARK SMILES IDX 5 1 4 2 3 3 2 4 1 5 28 6 29 7 30 8 6 9 7 10 8 11 9 12 26 13
REMARK SMILES IDX 10 14 11 15 25 16 27 17 12 18 24 19 23 20 13 21 21 22 14 23
REMARK SMILES IDX 15 24 20 25 22 26 16 27 19 28 17 29 18 30
REMARK H PARENT 18 31
REMARK Flexibility Score: inf
ROOT
ATOM      1  C   UNL     1      12.013  -2.587   5.028  1.00  0.00     0.004 C 
ENDROOT
BRANCH   1   2
ATOM      2  C   UNL     1      12.076  -1.632   6.239  1.00  0.00     0.004 C 
BRANCH   2   3
ATOM      3  C   UNL     1      12.193  -2.356   7.611  1.00  0.00    -0.009 C 
BRANCH   3   4
ATOM      4  C   UNL     1      13.655  -2.275   8.138  1.00  0.00     0.000 C 
ATOM      5  C   UNL     1      14.065  -3.496   8.967  1.00  0.00     0.004 C 
ENDBRANCH   3   4
BRANCH   3   6
ATOM      6  C   UNL     1      11.152  -1.850   8.668  1.00  0.00    -0.014 C 
ATOM      7  C   UNL     1      10.386  -0.602   8.189  1.00  0.00     0.007 C 
ATOM      8  C   UNL     1      10.168  -2.938   9.125  1.00  0.00     0.007 C 
ENDBRANCH   3   6
ENDBRANCH   2   3
ENDBRANCH   1   2
BRANCH   1   9
ATOM      9  C   UNL     1      11.096  -2.110   3.857  1.00  0.00    -0.011 C 
ATOM     10  C   UNL     1      11.399  -2.972   2.608  1.00  0.00     0.008 C 
BRANCH   9  11
ATOM     11  C   UNL     1       9.558  -2.108   4.181  1.00  0.00    -0.002 C 
ATOM     12  C   UNL     1       8.652  -2.256   2.921  1.00  0.00     0.005 C 
ATOM     13  C   UNL     1       9.001  -3.179   5.219  1.00  0.00    -0.026 C 
ATOM     14  C   UNL     1       7.497  -3.175   3.299  1.00  0.00     0.005 C 
ATOM     15  C   UNL     1       8.146  -4.082   4.315  1.00  0.00    -0.001 C 
ATOM     16  C   UNL     1      10.007  -4.119   5.992  1.00  0.00     0.007 C 
ATOM     17  C   UNL     1       8.151  -2.367   6.250  1.00  0.00     0.012 C 
ATOM     18  C   UNL     1       7.304  -5.185   5.010  1.00  0.00     0.000 C 
ATOM     19  C   UNL     1       9.510  -5.583   6.227  1.00  0.00     0.005 C 
ATOM     20  C   UNL     1       7.967  -5.687   6.319  1.00  0.00     0.003 C 
ATOM     21  C   UNL     1       5.840  -4.863   5.316  1.00  0.00     0.031 C 
ATOM     22  C   UNL     1       7.365  -7.076   6.749  1.00  0.00    -0.008 C 
ATOM     23  C   UNL     1       5.171  -6.104   5.861  1.00  0.00    -0.027 C 
ATOM     24  C   UNL     1       5.842  -7.109   6.487  1.00  0.00    -0.065 C 
ATOM     25  C   UNL     1       8.021  -8.252   5.962  1.00  0.00     0.014 C 
ATOM     26  C   UNL     1       7.609  -7.268   8.272  1.00  0.00     0.016 C 
ATOM     27  C   UNL     1       5.129  -8.422   6.721  1.00  0.00     0.063 C 
ATOM     28  C   UNL     1       7.303  -9.605   6.160  1.00  0.00     0.033 C 
ATOM     29  C   UNL     1       5.792  -9.520   5.874  1.00  0.00     0.118 C 
BRANCH  29  30
ATOM     30  O   UNL     1       5.591  -9.266   4.506  1.00  0.00    -0.393 OA
ATOM     31  H   UNL     1       5.323  -8.311   4.427  1.00  0.00     0.210 HD
ENDBRANCH  29  30
ENDBRANCH   9  11
ENDBRANCH   1   9
TORSDOF 7
ENDMDL
MODEL 9
REMARK VINA RESULT:    -4.963      1.386      2.551
REMARK INTER + INTRA:          -7.575
REMARK INTER:                  -6.673
REMARK INTRA:                  -0.902
REMARK UNBOUND:                -0.727
REMARK SMILES CC[C@H](CC[C@@H](C)[C@H]1CC[C@@H]2[C@@H]3CC=C4C[C@@H](O)CC[C@@]4(C)[C@H]3CC[C@]21C)C(C)C
REMARK SMILES IDX 5 1 4 2 3 3 2 4 1 5 28 6 29 7 30 8 6 9 7 10 8 11 9 12 26 13
REMARK SMILES IDX 10 14 11 15 25 16 27 17 12 18 24 19 23 20 13 21 21 22 14 23
REMARK SMILES IDX 15 24 20 25 22 26 16 27 19 28 17 29 18 30
REMARK H PARENT 18 31
REMARK Flexibility Score: inf
ROOT
ATOM      1  C   UNL     1      10.701  -0.905   5.833  1.00  0.00     0.004 C 
ENDROOT
BRANCH   1   2
ATOM      2  C   UNL     1       9.800  -1.592   4.784  1.00  0.00     0.004 C 
BRANCH   2   3
ATOM      3  C   UNL     1      10.447  -1.710   3.374  1.00  0.00    -0.009 C 
BRANCH   3   4
ATOM      4  C   UNL     1      11.704  -2.626   3.434  1.00  0.00     0.000 C 
ATOM      5  C   UNL     1      13.020  -1.847   3.378  1.00  0.00     0.004 C 
ENDBRANCH   3   4
BRANCH   3   6
ATOM      6  C   UNL     1       9.435  -2.162   2.266  1.00  0.00    -0.014 C 
ATOM      7  C   UNL     1      10.031  -3.222   1.320  1.00  0.00     0.007 C 
ATOM      8  C   UNL     1       8.089  -2.645   2.828  1.00  0.00     0.007 C 
ENDBRANCH   3   6
ENDBRANCH   2   3
ENDBRANCH   1   2
BRANCH   1   9
ATOM      9  C   UNL     1      11.822  -1.810   6.437  1.00  0.00    -0.011 C 
ATOM     10  C   UNL     1      13.005  -0.912   6.868  1.00  0.00     0.008 C 
BRANCH   9  11
ATOM     11  C   UNL     1      11.356  -2.737   7.617  1.00  0.00    -0.002 C 
ATOM     12  C   UNL     1      10.508  -1.998   8.697  1.00  0.00     0.005 C 
ATOM     13  C   UNL     1      10.527  -4.050   7.268  1.00  0.00    -0.026 C 
ATOM     14  C   UNL     1       9.390  -2.943   9.121  1.00  0.00     0.005 C 
ATOM     15  C   UNL     1       9.143  -3.716   7.848  1.00  0.00    -0.001 C 
ATOM     16  C   UNL     1      10.308  -4.462   5.760  1.00  0.00     0.007 C 
ATOM     17  C   UNL     1      11.241  -5.217   8.026  1.00  0.00     0.012 C 
ATOM     18  C   UNL     1       8.076  -4.843   7.828  1.00  0.00     0.000 C 
ATOM     19  C   UNL     1       8.911  -5.082   5.430  1.00  0.00     0.005 C 
ATOM     20  C   UNL     1       8.279  -5.817   6.639  1.00  0.00     0.003 C 
ATOM     21  C   UNL     1       7.912  -5.678   9.099  1.00  0.00     0.031 C 
ATOM     22  C   UNL     1       6.969  -6.646   6.371  1.00  0.00    -0.008 C 
ATOM     23  C   UNL     1       6.742  -6.618   8.919  1.00  0.00    -0.027 C 
ATOM     24  C   UNL     1       6.299  -7.044   7.706  1.00  0.00    -0.065 C 
ATOM     25  C   UNL     1       5.937  -5.830   5.532  1.00  0.00     0.014 C 
ATOM     26  C   UNL     1       7.354  -7.943   5.605  1.00  0.00     0.016 C 
ATOM     27  C   UNL     1       4.953  -7.732   7.625  1.00  0.00     0.063 C 
ATOM     28  C   UNL     1       4.545  -6.494   5.448  1.00  0.00     0.033 C 
ATOM     29  C   UNL     1       3.976  -6.848   6.834  1.00  0.00     0.118 C 
BRANCH  29  30
ATOM     30  O   UNL     1       3.707  -5.665   7.544  1.00  0.00    -0.393 OA
ATOM     31  H   UNL     1       4.010  -4.910   6.971  1.00  0.00     0.210 HD
ENDBRANCH  29  30
ENDBRANCH   9  11
ENDBRANCH   1   9
TORSDOF 7
ENDMDL
