MODEL 1
REMARK VINA RESULT:    -3.144      0.000      0.000
REMARK INTER + INTRA:          -3.545
REMARK INTER:                  -3.512
REMARK INTRA:                  -0.033
REMARK UNBOUND:                -0.033
REMARK SMILES CCCC(=O)[O-]
REMARK SMILES IDX 3 1 4 2 5 3 6 4 2 5 1 6
REMARK H PARENT
REMARK Flexibility Score: inf
ROOT
ATOM      1  C   UNL     1       1.444   7.698   0.064  1.00  0.00     0.052 C 
ENDROOT
BRANCH   1   2
ATOM      2  C   UNL     1       2.618   7.548   0.983  1.00  0.00     0.041 C 
ATOM      3  O   UNL     1       2.732   6.523   1.705  1.00  0.00    -0.550 OA
ATOM      4  O   UNL     1       3.602   8.528   1.018  1.00  0.00    -0.550 OA
ENDBRANCH   1   2
BRANCH   1   5
ATOM      5  C   UNL     1       0.801   9.085   0.188  1.00  0.00     0.003 C 
ATOM      6  C   UNL     1       1.108   9.978  -1.014  1.00  0.00     0.004 C 
ENDBRANCH   1   5
TORSDOF 2
ENDMDL
MODEL 2
REMARK VINA RESULT:    -3.128      2.381      3.328
REMARK INTER + INTRA:          -3.527
REMARK INTER:                  -3.516
REMARK INTRA:                  -0.011
REMARK UNBOUND:                -0.033
REMARK SMILES CCCC(=O)[O-]
REMARK SMILES IDX 3 1 4 2 5 3 6 4 2 5 1 6
REMARK H PARENT
REMARK Flexibility Score: inf
ROOT
ATOM      1  C   UNL     1       2.206   8.536   0.258  1.00  0.00     0.052 C 
ENDROOT
BRANCH   1   2
ATOM      2  C   UNL     1       1.000   9.340  -0.126  1.00  0.00     0.041 C 
ATOM      3  O   UNL     1      -0.079   9.208   0.509  1.00  0.00    -0.550 OA
ATOM      4  O   UNL     1       1.080  10.260  -1.164  1.00  0.00    -0.550 OA
ENDBRANCH   1   2
BRANCH   1   5
ATOM      5  C   UNL     1       1.818   7.255   1.007  1.00  0.00     0.003 C 
ATOM      6  C   UNL     1       3.026   6.559   1.632  1.00  0.00     0.004 C 
ENDBRANCH   1   5
TORSDOF 2
ENDMDL
MODEL 3
REMARK VINA RESULT:    -2.738      2.757      3.549
REMARK INTER + INTRA:          -3.091
REMARK INTER:                  -3.083
REMARK INTRA:                  -0.008
REMARK UNBOUND:                -0.033
REMARK SMILES CCCC(=O)[O-]
REMARK SMILES IDX 3 1 4 2 5 3 6 4 2 5 1 6
REMARK H PARENT
REMARK Flexibility Score: inf
ROOT
ATOM      1  C   UNL     1       2.614   8.617  -0.575  1.00  0.00     0.052 C 
ENDROOT
BRANCH   1   2
ATOM      2  C   UNL     1       2.043   9.609  -1.543  1.00  0.00     0.041 C 
ATOM      3  O   UNL     1       2.566   9.762  -2.677  1.00  0.00    -0.550 OA
ATOM      4  O   UNL     1       0.912  10.340  -1.201  1.00  0.00    -0.550 OA
ENDBRANCH   1   2
BRANCH   1   5
ATOM      5  C   UNL     1       1.552   8.109   0.408  1.00  0.00     0.003 C 
ATOM      6  C   UNL     1       2.082   6.996   1.313  1.00  0.00     0.004 C 
ENDBRANCH   1   5
TORSDOF 2
ENDMDL
MODEL 4
REMARK VINA RESULT:    -2.693      8.410      9.361
REMARK INTER + INTRA:          -3.041
REMARK INTER:                  -2.988
REMARK INTRA:                  -0.053
REMARK UNBOUND:                -0.033
REMARK SMILES CCCC(=O)[O-]
REMARK SMILES IDX 3 1 4 2 5 3 6 4 2 5 1 6
REMARK H PARENT
REMARK Flexibility Score: inf
ROOT
ATOM      1  C   UNL     1      -3.351  13.995  -4.680  1.00  0.00     0.052 C 
ENDROOT
BRANCH   1   2
ATOM      2  C   UNL     1      -2.198  14.948  -4.594  1.00  0.00     0.041 C 
ATOM      3  O   UNL     1      -1.978  15.583  -3.530  1.00  0.00    -0.550 OA
ATOM      4  O   UNL     1      -1.347  15.108  -5.681  1.00  0.00    -0.550 OA
ENDBRANCH   1   2
BRANCH   1   5
ATOM      5  C   UNL     1      -2.990  12.739  -5.483  1.00  0.00     0.003 C 
ATOM      6  C   UNL     1      -2.229  11.712  -4.646  1.00  0.00     0.004 C 
ENDBRANCH   1   5
TORSDOF 2
ENDMDL
MODEL 5
REMARK VINA RESULT:    -2.682      8.418      9.424
REMARK INTER + INTRA:          -3.029
REMARK INTER:                  -2.984
REMARK INTRA:                  -0.045
REMARK UNBOUND:                -0.033
REMARK SMILES CCCC(=O)[O-]
REMARK SMILES IDX 3 1 4 2 5 3 6 4 2 5 1 6
REMARK H PARENT
REMARK Flexibility Score: inf
ROOT
ATOM      1  C   UNL     1      -3.322  13.995  -4.650  1.00  0.00     0.052 C 
ENDROOT
BRANCH   1   2
ATOM      2  C   UNL     1      -2.201  14.989  -4.657  1.00  0.00     0.041 C 
ATOM      3  O   UNL     1      -1.561  15.216  -5.717  1.00  0.00    -0.550 OA
ATOM      4  O   UNL     1      -1.886  15.688  -3.499  1.00  0.00    -0.550 OA
ENDBRANCH   1   2
BRANCH   1   5
ATOM      5  C   UNL     1      -2.979  12.747  -5.473  1.00  0.00     0.003 C 
ATOM      6  C   UNL     1      -2.227  11.698  -4.654  1.00  0.00     0.004 C 
ENDBRANCH   1   5
TORSDOF 2
ENDMDL
MODEL 6
REMARK VINA RESULT:    -2.675     11.181     11.826
REMARK INTER + INTRA:          -3.022
REMARK INTER:                  -2.984
REMARK INTRA:                  -0.038
REMARK UNBOUND:                -0.033
REMARK SMILES CCCC(=O)[O-]
REMARK SMILES IDX 3 1 4 2 5 3 6 4 2 5 1 6
REMARK H PARENT
REMARK Flexibility Score: inf
ROOT
ATOM      1  C   UNL     1       0.529   6.417  11.636  1.00  0.00     0.052 C 
ENDROOT
BRANCH   1   2
ATOM      2  C   UNL     1      -0.276   6.765  12.851  1.00  0.00     0.041 C 
ATOM      3  O   UNL     1      -1.158   5.973  13.275  1.00  0.00    -0.550 OA
ATOM      4  O   UNL     1      -0.028   7.950  13.533  1.00  0.00    -0.550 OA
ENDBRANCH   1   2
BRANCH   1   5
ATOM      5  C   UNL     1      -0.345   6.344  10.378  1.00  0.00     0.003 C 
ATOM      6  C   UNL     1      -0.395   7.674   9.626  1.00  0.00     0.004 C 
ENDBRANCH   1   5
TORSDOF 2
ENDMDL
MODEL 7
REMARK VINA RESULT:    -2.662      2.109      2.314
REMARK INTER + INTRA:          -3.006
REMARK INTER:                  -2.968
REMARK INTRA:                  -0.039
REMARK UNBOUND:                -0.033
REMARK SMILES CCCC(=O)[O-]
REMARK SMILES IDX 3 1 4 2 5 3 6 4 2 5 1 6
REMARK H PARENT
REMARK Flexibility Score: inf
ROOT
ATOM      1  C   UNL     1       2.958   8.755   0.125  1.00  0.00     0.052 C 
ENDROOT
BRANCH   1   2
ATOM      2  C   UNL     1       1.594   8.276   0.521  1.00  0.00     0.041 C 
ATOM      3  O   UNL     1       1.453   7.164   1.093  1.00  0.00    -0.550 OA
ATOM      4  O   UNL     1       0.482   9.077   0.288  1.00  0.00    -0.550 OA
ENDBRANCH   1   2
BRANCH   1   5
ATOM      5  C   UNL     1       3.278   8.406  -1.334  1.00  0.00     0.003 C 
ATOM      6  C   UNL     1       2.882   9.522  -2.300  1.00  0.00     0.004 C 
ENDBRANCH   1   5
TORSDOF 2
ENDMDL
MODEL 8
REMARK VINA RESULT:    -2.582      8.566      9.413
REMARK INTER + INTRA:          -2.918
REMARK INTER:                  -2.895
REMARK INTRA:                  -0.022
REMARK UNBOUND:                -0.033
REMARK SMILES CCCC(=O)[O-]
REMARK SMILES IDX 3 1 4 2 5 3 6 4 2 5 1 6
REMARK H PARENT
REMARK Flexibility Score: inf
ROOT
ATOM      1  C   UNL     1      -1.861  15.879  -3.311  1.00  0.00     0.052 C 
ENDROOT
BRANCH   1   2
ATOM      2  C   UNL     1      -1.991  14.984  -4.506  1.00  0.00     0.041 C 
ATOM      3  O   UNL     1      -1.292  13.941  -4.596  1.00  0.00    -0.550 OA
ATOM      4  O   UNL     1      -2.910  15.287  -5.504  1.00  0.00    -0.550 OA
ENDBRANCH   1   2
BRANCH   1   5
ATOM      5  C   UNL     1      -0.427  15.894  -2.767  1.00  0.00     0.003 C 
ATOM      6  C   UNL     1      -0.384  15.922  -1.240  1.00  0.00     0.004 C 
ENDBRANCH   1   5
TORSDOF 2
ENDMDL
MODEL 9
REMARK VINA RESULT:    -2.579     10.527     11.124
REMARK INTER + INTRA:          -2.914
REMARK INTER:                  -2.881
REMARK INTRA:                  -0.033
REMARK UNBOUND:                -0.033
REMARK SMILES CCCC(=O)[O-]
REMARK SMILES IDX 3 1 4 2 5 3 6 4 2 5 1 6
REMARK H PARENT
REMARK Flexibility Score: inf
ROOT
ATOM      1  C   UNL     1       0.204   5.188  11.013  1.00  0.00     0.052 C 
ENDROOT
BRANCH   1   2
ATOM      2  C   UNL     1      -0.037   6.666  10.990  1.00  0.00     0.041 C 
ATOM      3  O   UNL     1       0.190   7.363  12.013  1.00  0.00    -0.550 OA
ATOM      4  O   UNL     1      -0.483   7.279   9.824  1.00  0.00    -0.550 OA
ENDBRANCH   1   2
BRANCH   1   5
ATOM      5  C   UNL     1      -1.110   4.398  10.975  1.00  0.00     0.003 C 
ATOM      6  C   UNL     1      -1.449   3.900   9.570  1.00  0.00     0.004 C 
ENDBRANCH   1   5
TORSDOF 2
ENDMDL
