MODEL 1
REMARK VINA RESULT:    -4.839      0.000      0.000
REMARK INTER + INTRA:         -10.570
REMARK INTER:                  -9.365
REMARK INTRA:                  -1.205
REMARK UNBOUND:                -1.205
REMARK SMILES CCCCCCCCCCCCCCCCCC(=O)[O-]
REMARK SMILES IDX 10 1 11 2 12 3 13 4 14 5 15 6 16 7 17 8 18 9 19 10 20 11
REMARK SMILES IDX 9 12 8 13 7 14 6 15 5 16 4 17 3 18 2 19 1 20
REMARK H PARENT
REMARK Flexibility Score: inf
ROOT
ATOM      1  C   UNL     1      -4.130  -1.895   4.591  1.00  0.00     0.000 C 
ENDROOT
BRANCH   1   2
ATOM      2  C   UNL     1      -4.851  -3.236   4.391  1.00  0.00     0.000 C 
BRANCH   2   3
ATOM      3  C   UNL     1      -5.634  -3.296   3.063  1.00  0.00     0.000 C 
BRANCH   3   4
ATOM      4  C   UNL     1      -5.002  -2.462   1.933  1.00  0.00     0.000 C 
BRANCH   4   5
ATOM      5  C   UNL     1      -4.710  -3.241   0.637  1.00  0.00     0.000 C 
BRANCH   5   6
ATOM      6  C   UNL     1      -4.887  -4.770   0.739  1.00  0.00     0.000 C 
BRANCH   6   7
ATOM      7  C   UNL     1      -6.042  -5.353  -0.102  1.00  0.00     0.006 C 
BRANCH   7   8
ATOM      8  C   UNL     1      -5.668  -5.675  -1.558  1.00  0.00     0.053 C 
BRANCH   8   9
ATOM      9  C   UNL     1      -6.441  -4.838  -2.531  1.00  0.00     0.041 C 
ATOM     10  O   UNL     1      -6.164  -4.875  -3.759  1.00  0.00    -0.550 OA
ATOM     11  O   UNL     1      -7.444  -3.991  -2.078  1.00  0.00    -0.550 OA
ENDBRANCH   8   9
ENDBRANCH   7   8
ENDBRANCH   6   7
ENDBRANCH   5   6
ENDBRANCH   4   5
ENDBRANCH   3   4
ENDBRANCH   2   3
ENDBRANCH   1   2
BRANCH   1  12
ATOM     12  C   UNL     1      -3.847  -1.637   6.076  1.00  0.00     0.000 C 
BRANCH  12  13
ATOM     13  C   UNL     1      -3.163  -0.277   6.276  1.00  0.00    -0.000 C 
BRANCH  13  14
ATOM     14  C   UNL     1      -2.210   0.081   5.125  1.00  0.00    -0.000 C 
BRANCH  14  15
ATOM     15  C   UNL     1      -0.799   0.447   5.616  1.00  0.00    -0.000 C 
BRANCH  15  16
ATOM     16  C   UNL     1      -0.478  -0.158   6.992  1.00  0.00    -0.000 C 
BRANCH  16  17
ATOM     17  C   UNL     1       0.440  -1.389   6.894  1.00  0.00    -0.000 C 
BRANCH  17  18
ATOM     18  C   UNL     1       1.901  -1.015   6.601  1.00  0.00    -0.000 C 
BRANCH  18  19
ATOM     19  C   UNL     1       2.527  -1.893   5.508  1.00  0.00    -0.003 C 
ATOM     20  C   UNL     1       1.945  -1.565   4.137  1.00  0.00     0.004 C 
ENDBRANCH  18  19
ENDBRANCH  17  18
ENDBRANCH  16  17
ENDBRANCH  15  16
ENDBRANCH  14  15
ENDBRANCH  13  14
ENDBRANCH  12  13
ENDBRANCH   1  12
TORSDOF 16
ENDMDL
MODEL 2
REMARK VINA RESULT:    -4.801      2.409      4.672
REMARK INTER + INTRA:         -10.497
REMARK INTER:                  -9.621
REMARK INTRA:                  -0.876
REMARK UNBOUND:                -1.205
REMARK SMILES CCCCCCCCCCCCCCCCCC(=O)[O-]
REMARK SMILES IDX 10 1 11 2 12 3 13 4 14 5 15 6 16 7 17 8 18 9 19 10 20 11
REMARK SMILES IDX 9 12 8 13 7 14 6 15 5 16 4 17 3 18 2 19 1 20
REMARK H PARENT
REMARK Flexibility Score: inf
ROOT
ATOM      1  C   UNL     1      -0.947   0.118   5.977  1.00  0.00     0.000 C 
ENDROOT
BRANCH   1   2
ATOM      2  C   UNL     1      -2.282   0.044   5.221  1.00  0.00     0.000 C 
BRANCH   2   3
ATOM      3  C   UNL     1      -3.486  -0.160   6.165  1.00  0.00     0.000 C 
BRANCH   3   4
ATOM      4  C   UNL     1      -4.022  -1.603   6.183  1.00  0.00     0.000 C 
BRANCH   4   5
ATOM      5  C   UNL     1      -4.386  -2.177   4.801  1.00  0.00     0.000 C 
BRANCH   5   6
ATOM      6  C   UNL     1      -5.025  -3.581   4.823  1.00  0.00     0.000 C 
BRANCH   6   7
ATOM      7  C   UNL     1      -5.175  -4.254   3.443  1.00  0.00     0.006 C 
BRANCH   7   8
ATOM      8  C   UNL     1      -5.066  -3.290   2.250  1.00  0.00     0.053 C 
BRANCH   8   9
ATOM      9  C   UNL     1      -4.824  -4.019   0.964  1.00  0.00     0.041 C 
ATOM     10  O   UNL     1      -4.693  -5.271   0.960  1.00  0.00    -0.550 OA
ATOM     11  O   UNL     1      -4.710  -3.311  -0.225  1.00  0.00    -0.550 OA
ENDBRANCH   8   9
ENDBRANCH   7   8
ENDBRANCH   6   7
ENDBRANCH   5   6
ENDBRANCH   4   5
ENDBRANCH   3   4
ENDBRANCH   2   3
ENDBRANCH   1   2
BRANCH   1  12
ATOM     12  C   UNL     1       0.193  -0.476   5.142  1.00  0.00     0.000 C 
BRANCH  12  13
ATOM     13  C   UNL     1       1.311  -1.018   6.045  1.00  0.00    -0.000 C 
BRANCH  13  14
ATOM     14  C   UNL     1       2.470  -1.633   5.245  1.00  0.00    -0.000 C 
BRANCH  14  15
ATOM     15  C   UNL     1       2.019  -2.192   3.885  1.00  0.00    -0.000 C 
BRANCH  15  16
ATOM     16  C   UNL     1       2.906  -1.709   2.725  1.00  0.00    -0.000 C 
BRANCH  16  17
ATOM     17  C   UNL     1       4.344  -1.395   3.175  1.00  0.00    -0.000 C 
BRANCH  17  18
ATOM     18  C   UNL     1       5.393  -1.814   2.133  1.00  0.00    -0.000 C 
BRANCH  18  19
ATOM     19  C   UNL     1       4.922  -2.985   1.259  1.00  0.00    -0.003 C 
ATOM     20  C   UNL     1       6.096  -3.640   0.537  1.00  0.00     0.004 C 
ENDBRANCH  18  19
ENDBRANCH  17  18
ENDBRANCH  16  17
ENDBRANCH  15  16
ENDBRANCH  14  15
ENDBRANCH  13  14
ENDBRANCH  12  13
ENDBRANCH   1  12
TORSDOF 16
ENDMDL
MODEL 3
REMARK VINA RESULT:    -4.717      4.287      9.191
REMARK INTER + INTRA:         -10.333
REMARK INTER:                  -9.352
REMARK INTRA:                  -0.981
REMARK UNBOUND:                -1.205
REMARK SMILES CCCCCCCCCCCCCCCCCC(=O)[O-]
REMARK SMILES IDX 10 1 11 2 12 3 13 4 14 5 15 6 16 7 17 8 18 9 19 10 20 11
REMARK SMILES IDX 9 12 8 13 7 14 6 15 5 16 4 17 3 18 2 19 1 20
REMARK H PARENT
REMARK Flexibility Score: inf
ROOT
ATOM      1  C   UNL     1      -4.276  -1.821   4.408  1.00  0.00     0.000 C 
ENDROOT
BRANCH   1   2
ATOM      2  C   UNL     1      -4.463  -0.987   5.684  1.00  0.00     0.000 C 
BRANCH   2   3
ATOM      3  C   UNL     1      -3.146  -0.347   6.171  1.00  0.00     0.000 C 
BRANCH   3   4
ATOM      4  C   UNL     1      -2.154  -0.031   5.037  1.00  0.00     0.000 C 
BRANCH   4   5
ATOM      5  C   UNL     1      -0.753   0.406   5.504  1.00  0.00     0.000 C 
BRANCH   5   6
ATOM      6  C   UNL     1      -0.228  -0.316   6.762  1.00  0.00     0.000 C 
BRANCH   6   7
ATOM      7  C   UNL     1       1.040  -1.168   6.546  1.00  0.00     0.006 C 
BRANCH   7   8
ATOM      8  C   UNL     1       1.531  -1.222   5.091  1.00  0.00     0.053 C 
BRANCH   8   9
ATOM      9  C   UNL     1       2.967  -1.635   5.001  1.00  0.00     0.041 C 
ATOM     10  O   UNL     1       3.275  -2.760   4.525  1.00  0.00    -0.550 OA
ATOM     11  O   UNL     1       3.965  -0.792   5.472  1.00  0.00    -0.550 OA
ENDBRANCH   8   9
ENDBRANCH   7   8
ENDBRANCH   6   7
ENDBRANCH   5   6
ENDBRANCH   4   5
ENDBRANCH   3   4
ENDBRANCH   2   3
ENDBRANCH   1   2
BRANCH   1  12
ATOM     12  C   UNL     1      -4.818  -3.243   4.594  1.00  0.00     0.000 C 
BRANCH  12  13
ATOM     13  C   UNL     1      -5.296  -3.829   3.258  1.00  0.00    -0.000 C 
BRANCH  13  14
ATOM     14  C   UNL     1      -5.268  -2.799   2.118  1.00  0.00    -0.000 C 
BRANCH  14  15
ATOM     15  C   UNL     1      -4.683  -3.373   0.816  1.00  0.00    -0.000 C 
BRANCH  15  16
ATOM     16  C   UNL     1      -4.798  -4.904   0.742  1.00  0.00    -0.000 C 
BRANCH  16  17
ATOM     17  C   UNL     1      -5.304  -5.391  -0.627  1.00  0.00    -0.000 C 
BRANCH  17  18
ATOM     18  C   UNL     1      -6.821  -5.634  -0.643  1.00  0.00    -0.000 C 
BRANCH  18  19
ATOM     19  C   UNL     1      -7.402  -5.644  -2.065  1.00  0.00    -0.003 C 
ATOM     20  C   UNL     1      -6.428  -6.280  -3.053  1.00  0.00     0.004 C 
ENDBRANCH  18  19
ENDBRANCH  17  18
ENDBRANCH  16  17
ENDBRANCH  15  16
ENDBRANCH  14  15
ENDBRANCH  13  14
ENDBRANCH  12  13
ENDBRANCH   1  12
TORSDOF 16
ENDMDL
MODEL 4
REMARK VINA RESULT:    -4.675      1.475      2.689
REMARK INTER + INTRA:         -10.253
REMARK INTER:                  -8.575
REMARK INTRA:                  -1.678
REMARK UNBOUND:                -1.205
REMARK SMILES CCCCCCCCCCCCCCCCCC(=O)[O-]
REMARK SMILES IDX 10 1 11 2 12 3 13 4 14 5 15 6 16 7 17 8 18 9 19 10 20 11
REMARK SMILES IDX 9 12 8 13 7 14 6 15 5 16 4 17 3 18 2 19 1 20
REMARK H PARENT
REMARK Flexibility Score: inf
ROOT
ATOM      1  C   UNL     1      -5.650  -3.078   5.427  1.00  0.00     0.000 C 
ENDROOT
BRANCH   1   2
ATOM      2  C   UNL     1      -4.849  -3.520   4.193  1.00  0.00     0.000 C 
BRANCH   2   3
ATOM      3  C   UNL     1      -4.838  -2.452   3.080  1.00  0.00     0.000 C 
BRANCH   3   4
ATOM      4  C   UNL     1      -5.055  -3.027   1.668  1.00  0.00     0.000 C 
BRANCH   4   5
ATOM      5  C   UNL     1      -5.207  -4.558   1.607  1.00  0.00     0.000 C 
BRANCH   5   6
ATOM      6  C   UNL     1      -6.629  -5.062   1.287  1.00  0.00     0.000 C 
BRANCH   6   7
ATOM      7  C   UNL     1      -6.904  -5.343  -0.205  1.00  0.00     0.006 C 
BRANCH   7   8
ATOM      8  C   UNL     1      -5.641  -5.551  -1.056  1.00  0.00     0.053 C 
BRANCH   8   9
ATOM      9  C   UNL     1      -5.973  -5.975  -2.453  1.00  0.00     0.041 C 
ATOM     10  O   UNL     1      -5.071  -6.416  -3.213  1.00  0.00    -0.550 OA
ATOM     11  O   UNL     1      -7.272  -5.851  -2.928  1.00  0.00    -0.550 OA
ENDBRANCH   8   9
ENDBRANCH   7   8
ENDBRANCH   6   7
ENDBRANCH   5   6
ENDBRANCH   4   5
ENDBRANCH   3   4
ENDBRANCH   2   3
ENDBRANCH   1   2
BRANCH   1  12
ATOM     12  C   UNL     1      -6.802  -2.146   5.032  1.00  0.00     0.000 C 
BRANCH  12  13
ATOM     13  C   UNL     1      -6.882  -0.939   5.978  1.00  0.00    -0.000 C 
BRANCH  13  14
ATOM     14  C   UNL     1      -5.653  -0.022   5.871  1.00  0.00    -0.000 C 
BRANCH  14  15
ATOM     15  C   UNL     1      -4.821   0.005   7.164  1.00  0.00    -0.000 C 
BRANCH  15  16
ATOM     16  C   UNL     1      -3.375  -0.472   6.946  1.00  0.00    -0.000 C 
BRANCH  16  17
ATOM     17  C   UNL     1      -2.961  -0.436   5.465  1.00  0.00    -0.000 C 
BRANCH  17  18
ATOM     18  C   UNL     1      -1.753   0.478   5.211  1.00  0.00    -0.000 C 
BRANCH  18  19
ATOM     19  C   UNL     1      -0.760   0.483   6.383  1.00  0.00    -0.003 C 
ATOM     20  C   UNL     1       0.274  -0.628   6.234  1.00  0.00     0.004 C 
ENDBRANCH  18  19
ENDBRANCH  17  18
ENDBRANCH  16  17
ENDBRANCH  15  16
ENDBRANCH  14  15
ENDBRANCH  13  14
ENDBRANCH  12  13
ENDBRANCH   1  12
TORSDOF 16
ENDMDL
MODEL 5
REMARK VINA RESULT:    -4.645      1.419      2.367
REMARK INTER + INTRA:         -10.195
REMARK INTER:                  -9.220
REMARK INTRA:                  -0.975
REMARK UNBOUND:                -1.205
REMARK SMILES CCCCCCCCCCCCCCCCCC(=O)[O-]
REMARK SMILES IDX 10 1 11 2 12 3 13 4 14 5 15 6 16 7 17 8 18 9 19 10 20 11
REMARK SMILES IDX 9 12 8 13 7 14 6 15 5 16 4 17 3 18 2 19 1 20
REMARK H PARENT
REMARK Flexibility Score: inf
ROOT
ATOM      1  C   UNL     1      -4.211  -0.221   5.937  1.00  0.00     0.000 C 
ENDROOT
BRANCH   1   2
ATOM      2  C   UNL     1      -5.220  -1.356   5.706  1.00  0.00     0.000 C 
BRANCH   2   3
ATOM      3  C   UNL     1      -4.546  -2.661   5.234  1.00  0.00     0.000 C 
BRANCH   3   4
ATOM      4  C   UNL     1      -5.021  -3.137   3.848  1.00  0.00     0.000 C 
BRANCH   4   5
ATOM      5  C   UNL     1      -4.820  -2.121   2.709  1.00  0.00     0.000 C 
BRANCH   5   6
ATOM      6  C   UNL     1      -5.505  -2.486   1.377  1.00  0.00     0.000 C 
BRANCH   6   7
ATOM      7  C   UNL     1      -4.728  -3.484   0.493  1.00  0.00     0.006 C 
BRANCH   7   8
ATOM      8  C   UNL     1      -5.018  -4.962   0.796  1.00  0.00     0.053 C 
BRANCH   8   9
ATOM      9  C   UNL     1      -6.437  -5.328   0.485  1.00  0.00     0.041 C 
ATOM     10  O   UNL     1      -6.774  -5.611  -0.695  1.00  0.00    -0.550 OA
ATOM     11  O   UNL     1      -7.393  -5.325   1.492  1.00  0.00    -0.550 OA
ENDBRANCH   8   9
ENDBRANCH   7   8
ENDBRANCH   6   7
ENDBRANCH   5   6
ENDBRANCH   4   5
ENDBRANCH   3   4
ENDBRANCH   2   3
ENDBRANCH   1   2
BRANCH   1  12
ATOM     12  C   UNL     1      -2.859  -0.546   5.290  1.00  0.00     0.000 C 
BRANCH  12  13
ATOM     13  C   UNL     1      -1.855   0.594   5.512  1.00  0.00    -0.000 C 
BRANCH  13  14
ATOM     14  C   UNL     1      -0.403   0.098   5.578  1.00  0.00    -0.000 C 
BRANCH  14  15
ATOM     15  C   UNL     1      -0.134  -0.784   6.809  1.00  0.00    -0.000 C 
BRANCH  15  16
ATOM     16  C   UNL     1       1.360  -1.098   6.996  1.00  0.00    -0.000 C 
BRANCH  16  17
ATOM     17  C   UNL     1       1.888  -2.089   5.945  1.00  0.00    -0.000 C 
BRANCH  17  18
ATOM     18  C   UNL     1       2.709  -1.400   4.844  1.00  0.00    -0.000 C 
BRANCH  18  19
ATOM     19  C   UNL     1       2.248  -1.790   3.432  1.00  0.00    -0.003 C 
ATOM     20  C   UNL     1       3.423  -2.263   2.581  1.00  0.00     0.004 C 
ENDBRANCH  18  19
ENDBRANCH  17  18
ENDBRANCH  16  17
ENDBRANCH  15  16
ENDBRANCH  14  15
ENDBRANCH  13  14
ENDBRANCH  12  13
ENDBRANCH   1  12
TORSDOF 16
ENDMDL
MODEL 6
REMARK VINA RESULT:    -4.642      2.548      4.634
REMARK INTER + INTRA:         -10.189
REMARK INTER:                  -8.365
REMARK INTRA:                  -1.824
REMARK UNBOUND:                -1.205
REMARK SMILES CCCCCCCCCCCCCCCCCC(=O)[O-]
REMARK SMILES IDX 10 1 11 2 12 3 13 4 14 5 15 6 16 7 17 8 18 9 19 10 20 11
REMARK SMILES IDX 9 12 8 13 7 14 6 15 5 16 4 17 3 18 2 19 1 20
REMARK H PARENT
REMARK Flexibility Score: inf
ROOT
ATOM      1  C   UNL     1      -4.586  -3.960   0.645  1.00  0.00     0.000 C 
ENDROOT
BRANCH   1   2
ATOM      2  C   UNL     1      -5.222  -5.257   0.125  1.00  0.00     0.000 C 
BRANCH   2   3
ATOM      3  C   UNL     1      -6.734  -5.337   0.427  1.00  0.00     0.000 C 
BRANCH   3   4
ATOM      4  C   UNL     1      -7.626  -5.042  -0.793  1.00  0.00     0.000 C 
BRANCH   4   5
ATOM      5  C   UNL     1      -8.584  -3.849  -0.622  1.00  0.00     0.000 C 
BRANCH   5   6
ATOM      6  C   UNL     1      -7.915  -2.528  -0.190  1.00  0.00     0.000 C 
BRANCH   6   7
ATOM      7  C   UNL     1      -7.440  -1.626  -1.347  1.00  0.00     0.006 C 
BRANCH   7   8
ATOM      8  C   UNL     1      -5.981  -1.156  -1.230  1.00  0.00     0.053 C 
BRANCH   8   9
ATOM      9  C   UNL     1      -5.879   0.336  -1.146  1.00  0.00     0.041 C 
ATOM     10  O   UNL     1      -6.638   0.981  -0.375  1.00  0.00    -0.550 OA
ATOM     11  O   UNL     1      -4.970   1.016  -1.945  1.00  0.00    -0.550 OA
ENDBRANCH   8   9
ENDBRANCH   7   8
ENDBRANCH   6   7
ENDBRANCH   5   6
ENDBRANCH   4   5
ENDBRANCH   3   4
ENDBRANCH   2   3
ENDBRANCH   1   2
BRANCH   1  12
ATOM     12  C   UNL     1      -5.121  -3.602   2.037  1.00  0.00     0.000 C 
BRANCH  12  13
ATOM     13  C   UNL     1      -5.100  -2.082   2.260  1.00  0.00    -0.000 C 
BRANCH  13  14
ATOM     14  C   UNL     1      -4.445  -1.690   3.593  1.00  0.00    -0.000 C 
BRANCH  14  15
ATOM     15  C   UNL     1      -4.539  -2.805   4.649  1.00  0.00    -0.000 C 
BRANCH  15  16
ATOM     16  C   UNL     1      -4.152  -2.320   6.056  1.00  0.00    -0.000 C 
BRANCH  16  17
ATOM     17  C   UNL     1      -4.100  -0.785   6.156  1.00  0.00    -0.000 C 
BRANCH  17  18
ATOM     18  C   UNL     1      -2.699  -0.264   6.509  1.00  0.00    -0.000 C 
BRANCH  18  19
ATOM     19  C   UNL     1      -1.943   0.273   5.285  1.00  0.00    -0.003 C 
ATOM     20  C   UNL     1      -0.458  -0.066   5.364  1.00  0.00     0.004 C 
ENDBRANCH  18  19
ENDBRANCH  17  18
ENDBRANCH  16  17
ENDBRANCH  15  16
ENDBRANCH  14  15
ENDBRANCH  13  14
ENDBRANCH  12  13
ENDBRANCH   1  12
TORSDOF 16
ENDMDL
MODEL 7
REMARK VINA RESULT:    -4.642      4.540      8.801
REMARK INTER + INTRA:         -10.189
REMARK INTER:                  -9.097
REMARK INTRA:                  -1.091
REMARK UNBOUND:                -1.205
REMARK SMILES CCCCCCCCCCCCCCCCCC(=O)[O-]
REMARK SMILES IDX 10 1 11 2 12 3 13 4 14 5 15 6 16 7 17 8 18 9 19 10 20 11
REMARK SMILES IDX 9 12 8 13 7 14 6 15 5 16 4 17 3 18 2 19 1 20
REMARK H PARENT
REMARK Flexibility Score: inf
ROOT
ATOM      1  C   UNL     1      -2.884  -0.800   6.300  1.00  0.00     0.000 C 
ENDROOT
BRANCH   1   2
ATOM      2  C   UNL     1      -2.281   0.111   5.221  1.00  0.00     0.000 C 
BRANCH   2   3
ATOM      3  C   UNL     1      -0.789   0.414   5.468  1.00  0.00     0.000 C 
BRANCH   3   4
ATOM      4  C   UNL     1      -0.157  -0.448   6.577  1.00  0.00     0.000 C 
BRANCH   4   5
ATOM      5  C   UNL     1       1.039  -1.308   6.128  1.00  0.00     0.000 C 
BRANCH   5   6
ATOM      6  C   UNL     1       1.485  -1.096   4.667  1.00  0.00     0.000 C 
BRANCH   6   7
ATOM      7  C   UNL     1       2.255  -2.277   4.039  1.00  0.00     0.006 C 
BRANCH   7   8
ATOM      8  C   UNL     1       3.758  -2.297   4.358  1.00  0.00     0.053 C 
BRANCH   8   9
ATOM      9  C   UNL     1       4.432  -1.022   3.954  1.00  0.00     0.041 C 
ATOM     10  O   UNL     1       4.454  -0.673   2.744  1.00  0.00    -0.550 OA
ATOM     11  O   UNL     1       5.065  -0.237   4.909  1.00  0.00    -0.550 OA
ENDBRANCH   8   9
ENDBRANCH   7   8
ENDBRANCH   6   7
ENDBRANCH   5   6
ENDBRANCH   4   5
ENDBRANCH   3   4
ENDBRANCH   2   3
ENDBRANCH   1   2
BRANCH   1  12
ATOM     12  C   UNL     1      -4.305  -1.237   5.922  1.00  0.00     0.000 C 
BRANCH  12  13
ATOM     13  C   UNL     1      -4.374  -2.756   5.705  1.00  0.00    -0.000 C 
BRANCH  13  14
ATOM     14  C   UNL     1      -5.067  -3.133   4.387  1.00  0.00    -0.000 C 
BRANCH  14  15
ATOM     15  C   UNL     1      -4.708  -2.179   3.235  1.00  0.00    -0.000 C 
BRANCH  15  16
ATOM     16  C   UNL     1      -4.974  -2.796   1.852  1.00  0.00    -0.000 C 
BRANCH  16  17
ATOM     17  C   UNL     1      -5.082  -4.329   1.903  1.00  0.00    -0.000 C 
BRANCH  17  18
ATOM     18  C   UNL     1      -4.733  -4.991   0.561  1.00  0.00    -0.000 C 
BRANCH  18  19
ATOM     19  C   UNL     1      -5.758  -4.672  -0.538  1.00  0.00    -0.003 C 
ATOM     20  C   UNL     1      -6.954  -5.616  -0.465  1.00  0.00     0.004 C 
ENDBRANCH  18  19
ENDBRANCH  17  18
ENDBRANCH  16  17
ENDBRANCH  15  16
ENDBRANCH  14  15
ENDBRANCH  13  14
ENDBRANCH  12  13
ENDBRANCH   1  12
TORSDOF 16
ENDMDL
MODEL 8
REMARK VINA RESULT:    -4.570      1.911      3.590
REMARK INTER + INTRA:         -10.049
REMARK INTER:                  -8.392
REMARK INTRA:                  -1.657
REMARK UNBOUND:                -1.205
REMARK SMILES CCCCCCCCCCCCCCCCCC(=O)[O-]
REMARK SMILES IDX 10 1 11 2 12 3 13 4 14 5 15 6 16 7 17 8 18 9 19 10 20 11
REMARK SMILES IDX 9 12 8 13 7 14 6 15 5 16 4 17 3 18 2 19 1 20
REMARK H PARENT
REMARK Flexibility Score: inf
ROOT
ATOM      1  C   UNL     1      -5.239  -4.169   3.097  1.00  0.00     0.000 C 
ENDROOT
BRANCH   1   2
ATOM      2  C   UNL     1      -5.502  -5.221   2.011  1.00  0.00     0.000 C 
BRANCH   2   3
ATOM      3  C   UNL     1      -4.744  -4.923   0.700  1.00  0.00     0.000 C 
BRANCH   3   4
ATOM      4  C   UNL     1      -5.518  -5.327  -0.569  1.00  0.00     0.000 C 
BRANCH   4   5
ATOM      5  C   UNL     1      -7.007  -5.648  -0.345  1.00  0.00     0.000 C 
BRANCH   5   6
ATOM      6  C   UNL     1      -7.992  -4.591  -0.885  1.00  0.00     0.000 C 
BRANCH   6   7
ATOM      7  C   UNL     1      -8.051  -3.278  -0.077  1.00  0.00     0.006 C 
BRANCH   7   8
ATOM      8  C   UNL     1      -7.842  -2.006  -0.914  1.00  0.00     0.053 C 
BRANCH   8   9
ATOM      9  C   UNL     1      -6.452  -1.465  -0.770  1.00  0.00     0.041 C 
ATOM     10  O   UNL     1      -5.499  -1.992  -1.401  1.00  0.00    -0.550 OA
ATOM     11  O   UNL     1      -6.206  -0.400   0.086  1.00  0.00    -0.550 OA
ENDBRANCH   8   9
ENDBRANCH   7   8
ENDBRANCH   6   7
ENDBRANCH   5   6
ENDBRANCH   4   5
ENDBRANCH   3   4
ENDBRANCH   2   3
ENDBRANCH   1   2
BRANCH   1  12
ATOM     12  C   UNL     1      -5.484  -2.752   2.564  1.00  0.00     0.000 C 
BRANCH  12  13
ATOM     13  C   UNL     1      -4.515  -1.748   3.203  1.00  0.00    -0.000 C 
BRANCH  13  14
ATOM     14  C   UNL     1      -4.787  -1.536   4.701  1.00  0.00    -0.000 C 
BRANCH  14  15
ATOM     15  C   UNL     1      -3.494  -1.408   5.525  1.00  0.00    -0.000 C 
BRANCH  15  16
ATOM     16  C   UNL     1      -3.238   0.031   6.002  1.00  0.00    -0.000 C 
BRANCH  16  17
ATOM     17  C   UNL     1      -2.023   0.674   5.311  1.00  0.00    -0.000 C 
BRANCH  17  18
ATOM     18  C   UNL     1      -0.697   0.010   5.712  1.00  0.00    -0.000 C 
BRANCH  18  19
ATOM     19  C   UNL     1      -0.349   0.233   7.191  1.00  0.00    -0.003 C 
ATOM     20  C   UNL     1      -0.432  -1.072   7.978  1.00  0.00     0.004 C 
ENDBRANCH  18  19
ENDBRANCH  17  18
ENDBRANCH  16  17
ENDBRANCH  15  16
ENDBRANCH  14  15
ENDBRANCH  13  14
ENDBRANCH  12  13
ENDBRANCH   1  12
TORSDOF 16
ENDMDL
MODEL 9
REMARK VINA RESULT:    -4.532      2.040      4.228
REMARK INTER + INTRA:          -9.975
REMARK INTER:                  -9.091
REMARK INTRA:                  -0.884
REMARK UNBOUND:                -1.205
REMARK SMILES CCCCCCCCCCCCCCCCCC(=O)[O-]
REMARK SMILES IDX 10 1 11 2 12 3 13 4 14 5 15 6 16 7 17 8 18 9 19 10 20 11
REMARK SMILES IDX 9 12 8 13 7 14 6 15 5 16 4 17 3 18 2 19 1 20
REMARK H PARENT
REMARK Flexibility Score: inf
ROOT
ATOM      1  C   UNL     1      -4.591  -3.365   1.013  1.00  0.00     0.000 C 
ENDROOT
BRANCH   1   2
ATOM      2  C   UNL     1      -4.833  -4.877   0.903  1.00  0.00     0.000 C 
BRANCH   2   3
ATOM      3  C   UNL     1      -5.474  -5.278  -0.443  1.00  0.00     0.000 C 
BRANCH   3   4
ATOM      4  C   UNL     1      -6.952  -5.693  -0.326  1.00  0.00     0.000 C 
BRANCH   4   5
ATOM      5  C   UNL     1      -7.834  -5.294  -1.524  1.00  0.00     0.000 C 
BRANCH   5   6
ATOM      6  C   UNL     1      -7.664  -6.171  -2.782  1.00  0.00     0.000 C 
BRANCH   6   7
ATOM      7  C   UNL     1      -6.420  -5.855  -3.637  1.00  0.00     0.006 C 
BRANCH   7   8
ATOM      8  C   UNL     1      -5.355  -6.963  -3.644  1.00  0.00     0.053 C 
BRANCH   8   9
ATOM      9  C   UNL     1      -5.053  -7.439  -5.032  1.00  0.00     0.041 C 
ATOM     10  O   UNL     1      -4.295  -6.768  -5.782  1.00  0.00    -0.550 OA
ATOM     11  O   UNL     1      -5.636  -8.605  -5.510  1.00  0.00    -0.550 OA
ENDBRANCH   8   9
ENDBRANCH   7   8
ENDBRANCH   6   7
ENDBRANCH   5   6
ENDBRANCH   4   5
ENDBRANCH   3   4
ENDBRANCH   2   3
ENDBRANCH   1   2
BRANCH   1  12
ATOM     12  C   UNL     1      -5.195  -2.802   2.305  1.00  0.00     0.000 C 
BRANCH  12  13
ATOM     13  C   UNL     1      -5.325  -3.898   3.373  1.00  0.00    -0.000 C 
BRANCH  13  14
ATOM     14  C   UNL     1      -4.829  -3.439   4.753  1.00  0.00    -0.000 C 
BRANCH  14  15
ATOM     15  C   UNL     1      -4.345  -1.978   4.753  1.00  0.00    -0.000 C 
BRANCH  15  16
ATOM     16  C   UNL     1      -4.285  -1.376   6.166  1.00  0.00    -0.000 C 
BRANCH  16  17
ATOM     17  C   UNL     1      -3.395  -0.123   6.234  1.00  0.00    -0.000 C 
BRANCH  17  18
ATOM     18  C   UNL     1      -2.342  -0.085   5.116  1.00  0.00    -0.000 C 
BRANCH  18  19
ATOM     19  C   UNL     1      -1.070   0.671   5.527  1.00  0.00    -0.003 C 
ATOM     20  C   UNL     1      -0.324  -0.069   6.633  1.00  0.00     0.004 C 
ENDBRANCH  18  19
ENDBRANCH  17  18
ENDBRANCH  16  17
ENDBRANCH  15  16
ENDBRANCH  14  15
ENDBRANCH  13  14
ENDBRANCH  12  13
ENDBRANCH   1  12
TORSDOF 16
ENDMDL
