MODEL 1
REMARK VINA RESULT:    -4.454      0.000      0.000
REMARK INTER + INTRA:         -13.672
REMARK INTER:                 -11.744
REMARK INTRA:                  -1.928
REMARK UNBOUND:                -1.928
REMARK SMILES CCCCCCCCCCCCCCCCCCCCCCCCCCCCCC(=O)[O-]
REMARK SMILES IDX 16 1 17 2 18 3 19 4 20 5 21 6 22 7 23 8 24 9 25 10 26 11
REMARK SMILES IDX 27 12 28 13 29 14 30 15 31 16 32 17 15 18 14 19 13 20 12 21
REMARK SMILES IDX 11 22 10 23 9 24 8 25 7 26 6 27 5 28 4 29 3 30 2 31 1 32
REMARK H PARENT
REMARK Flexibility Score: inf
ROOT
ATOM      1  C   UNL     1      -8.831  -2.655  -8.173  1.00  0.00     0.000 C 
ENDROOT
BRANCH   1   2
ATOM      2  C   UNL     1     -10.289  -2.473  -8.629  1.00  0.00     0.000 C 
BRANCH   2   3
ATOM      3  C   UNL     1     -10.629  -0.997  -8.907  1.00  0.00     0.000 C 
BRANCH   3   4
ATOM      4  C   UNL     1     -11.108  -0.747 -10.349  1.00  0.00     0.000 C 
BRANCH   4   5
ATOM      5  C   UNL     1     -12.058  -1.819 -10.931  1.00  0.00     0.000 C 
BRANCH   5   6
ATOM      6  C   UNL     1     -12.542  -2.886  -9.933  1.00  0.00     0.000 C 
BRANCH   6   7
ATOM      7  C   UNL     1     -14.054  -3.150 -10.019  1.00  0.00     0.000 C 
BRANCH   7   8
ATOM      8  C   UNL     1     -14.737  -2.298 -11.100  1.00  0.00     0.000 C 
BRANCH   8   9
ATOM      9  C   UNL     1     -14.751  -0.798 -10.744  1.00  0.00     0.000 C 
BRANCH   9  10
ATOM     10  C   UNL     1     -15.057  -0.542  -9.260  1.00  0.00     0.000 C 
BRANCH  10  11
ATOM     11  C   UNL     1     -15.020   0.953  -8.898  1.00  0.00     0.000 C 
BRANCH  11  12
ATOM     12  C   UNL     1     -14.098   1.769  -9.821  1.00  0.00     0.000 C 
BRANCH  12  13
ATOM     13  C   UNL     1     -13.675   3.141  -9.262  1.00  0.00     0.006 C 
BRANCH  13  14
ATOM     14  C   UNL     1     -12.175   3.420  -9.435  1.00  0.00     0.053 C 
BRANCH  14  15
ATOM     15  C   UNL     1     -11.584   3.984  -8.179  1.00  0.00     0.041 C 
ATOM     16  O   UNL     1     -12.327   4.292  -7.210  1.00  0.00    -0.550 OA
ATOM     17  O   UNL     1     -10.208   4.168  -8.079  1.00  0.00    -0.550 OA
ENDBRANCH  14  15
ENDBRANCH  13  14
ENDBRANCH  12  13
ENDBRANCH  11  12
ENDBRANCH  10  11
ENDBRANCH   9  10
ENDBRANCH   8   9
ENDBRANCH   7   8
ENDBRANCH   6   7
ENDBRANCH   5   6
ENDBRANCH   4   5
ENDBRANCH   3   4
ENDBRANCH   2   3
ENDBRANCH   1   2
BRANCH   1  18
ATOM     18  C   UNL     1      -8.432  -4.138  -8.081  1.00  0.00     0.000 C 
BRANCH  18  19
ATOM     19  C   UNL     1      -9.668  -5.042  -7.977  1.00  0.00     0.000 C 
BRANCH  19  20
ATOM     20  C   UNL     1      -9.564  -6.301  -8.860  1.00  0.00     0.000 C 
BRANCH  20  21
ATOM     21  C   UNL     1      -9.931  -7.623  -8.160  1.00  0.00     0.000 C 
BRANCH  21  22
ATOM     22  C   UNL     1     -11.431  -7.946  -8.238  1.00  0.00     0.000 C 
BRANCH  22  23
ATOM     23  C   UNL     1     -11.954  -7.799  -9.674  1.00  0.00     0.000 C 
BRANCH  23  24
ATOM     24  C   UNL     1     -12.842  -6.556  -9.856  1.00  0.00    -0.000 C 
BRANCH  24  25
ATOM     25  C   UNL     1     -14.311  -6.910 -10.130  1.00  0.00    -0.000 C 
BRANCH  25  26
ATOM     26  C   UNL     1     -15.124  -6.928  -8.828  1.00  0.00    -0.000 C 
BRANCH  26  27
ATOM     27  C   UNL     1     -14.607  -5.919  -7.784  1.00  0.00    -0.000 C 
BRANCH  27  28
ATOM     28  C   UNL     1     -14.896  -6.282  -6.312  1.00  0.00    -0.000 C 
BRANCH  28  29
ATOM     29  C   UNL     1     -14.217  -7.577  -5.822  1.00  0.00    -0.000 C 
BRANCH  29  30
ATOM     30  C   UNL     1     -12.734  -7.380  -5.427  1.00  0.00    -0.000 C 
BRANCH  30  31
ATOM     31  C   UNL     1     -12.258  -5.923  -5.552  1.00  0.00    -0.003 C 
ATOM     32  C   UNL     1     -10.917  -5.678  -4.859  1.00  0.00     0.004 C 
ENDBRANCH  30  31
ENDBRANCH  29  30
ENDBRANCH  28  29
ENDBRANCH  27  28
ENDBRANCH  26  27
ENDBRANCH  25  26
ENDBRANCH  24  25
ENDBRANCH  23  24
ENDBRANCH  22  23
ENDBRANCH  21  22
ENDBRANCH  20  21
ENDBRANCH  19  20
ENDBRANCH  18  19
ENDBRANCH   1  18
TORSDOF 28
ENDMDL
MODEL 2
REMARK VINA RESULT:    -3.894      1.092      2.787
REMARK INTER + INTRA:         -12.197
REMARK INTER:                 -10.310
REMARK INTRA:                  -1.887
REMARK UNBOUND:                -1.928
REMARK SMILES CCCCCCCCCCCCCCCCCCCCCCCCCCCCCC(=O)[O-]
REMARK SMILES IDX 16 1 17 2 18 3 19 4 20 5 21 6 22 7 23 8 24 9 25 10 26 11
REMARK SMILES IDX 27 12 28 13 29 14 30 15 31 16 32 17 15 18 14 19 13 20 12 21
REMARK SMILES IDX 11 22 10 23 9 24 8 25 7 26 6 27 5 28 4 29 3 30 2 31 1 32
REMARK H PARENT
REMARK Flexibility Score: inf
ROOT
ATOM      1  C   UNL     1      -9.907  -2.615  -7.739  1.00  0.00     0.000 C 
ENDROOT
BRANCH   1   2
ATOM      2  C   UNL     1     -10.208  -1.311  -8.499  1.00  0.00     0.000 C 
BRANCH   2   3
ATOM      3  C   UNL     1     -10.553  -1.569  -9.977  1.00  0.00     0.000 C 
BRANCH   3   4
ATOM      4  C   UNL     1     -12.063  -1.478 -10.271  1.00  0.00     0.000 C 
BRANCH   4   5
ATOM      5  C   UNL     1     -12.832  -2.819 -10.226  1.00  0.00     0.000 C 
BRANCH   5   6
ATOM      6  C   UNL     1     -14.297  -2.758 -10.693  1.00  0.00     0.000 C 
BRANCH   6   7
ATOM      7  C   UNL     1     -14.888  -1.340 -10.635  1.00  0.00     0.000 C 
BRANCH   7   8
ATOM      8  C   UNL     1     -15.125  -0.862  -9.194  1.00  0.00     0.000 C 
BRANCH   8   9
ATOM      9  C   UNL     1     -15.105   0.674  -9.074  1.00  0.00     0.000 C 
BRANCH   9  10
ATOM     10  C   UNL     1     -14.008   1.323  -9.933  1.00  0.00     0.000 C 
BRANCH  10  11
ATOM     11  C   UNL     1     -12.675   1.468  -9.178  1.00  0.00     0.000 C 
BRANCH  11  12
ATOM     12  C   UNL     1     -11.866   2.699  -9.622  1.00  0.00     0.000 C 
BRANCH  12  13
ATOM     13  C   UNL     1     -10.849   3.212  -8.585  1.00  0.00     0.006 C 
BRANCH  13  14
ATOM     14  C   UNL     1     -11.361   4.424  -7.793  1.00  0.00     0.053 C 
BRANCH  14  15
ATOM     15  C   UNL     1     -12.837   4.602  -7.975  1.00  0.00     0.041 C 
ATOM     16  O   UNL     1     -13.642   4.146  -7.121  1.00  0.00    -0.550 OA
ATOM     17  O   UNL     1     -13.324   5.275  -9.091  1.00  0.00    -0.550 OA
ENDBRANCH  14  15
ENDBRANCH  13  14
ENDBRANCH  12  13
ENDBRANCH  11  12
ENDBRANCH  10  11
ENDBRANCH   9  10
ENDBRANCH   8   9
ENDBRANCH   7   8
ENDBRANCH   6   7
ENDBRANCH   5   6
ENDBRANCH   4   5
ENDBRANCH   3   4
ENDBRANCH   2   3
ENDBRANCH   1   2
BRANCH   1  18
ATOM     18  C   UNL     1      -8.407  -2.960  -7.746  1.00  0.00     0.000 C 
BRANCH  18  19
ATOM     19  C   UNL     1      -8.040  -3.819  -8.964  1.00  0.00     0.000 C 
BRANCH  19  20
ATOM     20  C   UNL     1      -9.265  -4.498  -9.607  1.00  0.00     0.000 C 
BRANCH  20  21
ATOM     21  C   UNL     1      -9.976  -5.539  -8.721  1.00  0.00     0.000 C 
BRANCH  21  22
ATOM     22  C   UNL     1     -11.231  -6.130  -9.381  1.00  0.00     0.000 C 
BRANCH  22  23
ATOM     23  C   UNL     1     -11.468  -7.576  -8.923  1.00  0.00     0.000 C 
BRANCH  23  24
ATOM     24  C   UNL     1     -10.311  -8.124  -8.071  1.00  0.00    -0.000 C 
BRANCH  24  25
ATOM     25  C   UNL     1     -10.623  -8.116  -6.568  1.00  0.00    -0.000 C 
BRANCH  25  26
ATOM     26  C   UNL     1     -10.241  -6.771  -5.934  1.00  0.00    -0.000 C 
BRANCH  26  27
ATOM     27  C   UNL     1     -11.320  -6.231  -4.976  1.00  0.00    -0.000 C 
BRANCH  27  28
ATOM     28  C   UNL     1     -12.652  -5.822  -5.641  1.00  0.00    -0.000 C 
BRANCH  28  29
ATOM     29  C   UNL     1     -13.656  -6.976  -5.836  1.00  0.00    -0.000 C 
BRANCH  29  30
ATOM     30  C   UNL     1     -14.876  -6.589  -6.703  1.00  0.00    -0.000 C 
BRANCH  30  31
ATOM     31  C   UNL     1     -14.922  -7.323  -8.054  1.00  0.00    -0.003 C 
ATOM     32  C   UNL     1     -15.019  -6.367  -9.243  1.00  0.00     0.004 C 
ENDBRANCH  30  31
ENDBRANCH  29  30
ENDBRANCH  28  29
ENDBRANCH  27  28
ENDBRANCH  26  27
ENDBRANCH  25  26
ENDBRANCH  24  25
ENDBRANCH  23  24
ENDBRANCH  22  23
ENDBRANCH  21  22
ENDBRANCH  20  21
ENDBRANCH  19  20
ENDBRANCH  18  19
ENDBRANCH   1  18
TORSDOF 28
ENDMDL
MODEL 3
REMARK VINA RESULT:    -3.744      1.250      4.891
REMARK INTER + INTRA:         -11.799
REMARK INTER:                  -8.188
REMARK INTRA:                  -3.611
REMARK UNBOUND:                -1.928
REMARK SMILES CCCCCCCCCCCCCCCCCCCCCCCCCCCCCC(=O)[O-]
REMARK SMILES IDX 16 1 17 2 18 3 19 4 20 5 21 6 22 7 23 8 24 9 25 10 26 11
REMARK SMILES IDX 27 12 28 13 29 14 30 15 31 16 32 17 15 18 14 19 13 20 12 21
REMARK SMILES IDX 11 22 10 23 9 24 8 25 7 26 6 27 5 28 4 29 3 30 2 31 1 32
REMARK H PARENT
REMARK Flexibility Score: inf
ROOT
ATOM      1  C   UNL     1     -11.182  -6.573  -9.026  1.00  0.00     0.000 C 
ENDROOT
BRANCH   1   2
ATOM      2  C   UNL     1     -11.895  -6.842 -10.363  1.00  0.00     0.000 C 
BRANCH   2   3
ATOM      3  C   UNL     1     -12.807  -8.081 -10.295  1.00  0.00     0.000 C 
BRANCH   3   4
ATOM      4  C   UNL     1     -14.290  -7.756 -10.551  1.00  0.00     0.000 C 
BRANCH   4   5
ATOM      5  C   UNL     1     -15.124  -7.410  -9.295  1.00  0.00     0.000 C 
BRANCH   5   6
ATOM      6  C   UNL     1     -14.473  -6.407  -8.325  1.00  0.00     0.000 C 
BRANCH   6   7
ATOM      7  C   UNL     1     -14.910  -4.956  -8.577  1.00  0.00     0.000 C 
BRANCH   7   8
ATOM      8  C   UNL     1     -14.087  -4.279  -9.685  1.00  0.00     0.000 C 
BRANCH   8   9
ATOM      9  C   UNL     1     -14.841  -3.110 -10.347  1.00  0.00     0.000 C 
BRANCH   9  10
ATOM     10  C   UNL     1     -14.966  -1.886  -9.426  1.00  0.00     0.000 C 
BRANCH  10  11
ATOM     11  C   UNL     1     -14.713  -0.561 -10.167  1.00  0.00     0.000 C 
BRANCH  11  12
ATOM     12  C   UNL     1     -14.813   0.668  -9.247  1.00  0.00     0.000 C 
BRANCH  12  13
ATOM     13  C   UNL     1     -14.006   1.893  -9.715  1.00  0.00     0.006 C 
BRANCH  13  14
ATOM     14  C   UNL     1     -13.686   2.870  -8.574  1.00  0.00     0.053 C 
BRANCH  14  15
ATOM     15  C   UNL     1     -12.464   3.679  -8.884  1.00  0.00     0.041 C 
ATOM     16  O   UNL     1     -12.259   4.099 -10.053  1.00  0.00    -0.550 OA
ATOM     17  O   UNL     1     -11.549   3.970  -7.877  1.00  0.00    -0.550 OA
ENDBRANCH  14  15
ENDBRANCH  13  14
ENDBRANCH  12  13
ENDBRANCH  11  12
ENDBRANCH  10  11
ENDBRANCH   9  10
ENDBRANCH   8   9
ENDBRANCH   7   8
ENDBRANCH   6   7
ENDBRANCH   5   6
ENDBRANCH   4   5
ENDBRANCH   3   4
ENDBRANCH   2   3
ENDBRANCH   1   2
BRANCH   1  18
ATOM     18  C   UNL     1     -10.053  -7.583  -8.755  1.00  0.00     0.000 C 
BRANCH  18  19
ATOM     19  C   UNL     1     -10.125  -8.125  -7.321  1.00  0.00     0.000 C 
BRANCH  19  20
ATOM     20  C   UNL     1     -11.420  -7.718  -6.593  1.00  0.00     0.000 C 
BRANCH  20  21
ATOM     21  C   UNL     1     -11.236  -7.274  -5.129  1.00  0.00     0.000 C 
BRANCH  21  22
ATOM     22  C   UNL     1     -11.310  -5.750  -4.952  1.00  0.00     0.000 C 
BRANCH  22  23
ATOM     23  C   UNL     1     -11.799  -5.067  -6.237  1.00  0.00     0.000 C 
BRANCH  23  24
ATOM     24  C   UNL     1     -10.808  -4.015  -6.762  1.00  0.00    -0.000 C 
BRANCH  24  25
ATOM     25  C   UNL     1      -9.343  -4.447  -6.604  1.00  0.00    -0.000 C 
BRANCH  25  26
ATOM     26  C   UNL     1      -8.448  -3.733  -7.627  1.00  0.00    -0.000 C 
BRANCH  26  27
ATOM     27  C   UNL     1      -8.618  -4.279  -9.058  1.00  0.00    -0.000 C 
BRANCH  27  28
ATOM     28  C   UNL     1      -9.375  -3.354 -10.035  1.00  0.00    -0.000 C 
BRANCH  28  29
ATOM     29  C   UNL     1     -10.898  -3.286  -9.809  1.00  0.00    -0.000 C 
BRANCH  29  30
ATOM     30  C   UNL     1     -11.468  -1.851  -9.896  1.00  0.00    -0.000 C 
BRANCH  30  31
ATOM     31  C   UNL     1     -10.394  -0.759  -9.758  1.00  0.00    -0.003 C 
ATOM     32  C   UNL     1     -10.970   0.583  -9.306  1.00  0.00     0.004 C 
ENDBRANCH  30  31
ENDBRANCH  29  30
ENDBRANCH  28  29
ENDBRANCH  27  28
ENDBRANCH  26  27
ENDBRANCH  25  26
ENDBRANCH  24  25
ENDBRANCH  23  24
ENDBRANCH  22  23
ENDBRANCH  21  22
ENDBRANCH  20  21
ENDBRANCH  19  20
ENDBRANCH  18  19
ENDBRANCH   1  18
TORSDOF 28
ENDMDL
MODEL 4
REMARK VINA RESULT:    -3.542     15.576     19.541
REMARK INTER + INTRA:         -11.268
REMARK INTER:                  -8.455
REMARK INTRA:                  -2.813
REMARK UNBOUND:                -1.928
REMARK SMILES CCCCCCCCCCCCCCCCCCCCCCCCCCCCCC(=O)[O-]
REMARK SMILES IDX 16 1 17 2 18 3 19 4 20 5 21 6 22 7 23 8 24 9 25 10 26 11
REMARK SMILES IDX 27 12 28 13 29 14 30 15 31 16 32 17 15 18 14 19 13 20 12 21
REMARK SMILES IDX 11 22 10 23 9 24 8 25 7 26 6 27 5 28 4 29 3 30 2 31 1 32
REMARK H PARENT
REMARK Flexibility Score: inf
ROOT
ATOM      1  C   UNL     1     -10.742   5.052   8.482  1.00  0.00     0.000 C 
ENDROOT
BRANCH   1   2
ATOM      2  C   UNL     1     -10.722   6.588   8.393  1.00  0.00     0.000 C 
BRANCH   2   3
ATOM      3  C   UNL     1     -11.831   7.130   7.473  1.00  0.00     0.000 C 
BRANCH   3   4
ATOM      4  C   UNL     1     -11.477   8.484   6.831  1.00  0.00     0.000 C 
BRANCH   4   5
ATOM      5  C   UNL     1     -12.165   9.719   7.458  1.00  0.00     0.000 C 
BRANCH   5   6
ATOM      6  C   UNL     1     -11.887  11.060   6.754  1.00  0.00     0.000 C 
BRANCH   6   7
ATOM      7  C   UNL     1     -11.346  10.889   5.325  1.00  0.00     0.000 C 
BRANCH   7   8
ATOM      8  C   UNL     1     -11.798  12.020   4.388  1.00  0.00     0.000 C 
BRANCH   8   9
ATOM      9  C   UNL     1     -12.847  11.549   3.361  1.00  0.00     0.000 C 
BRANCH   9  10
ATOM     10  C   UNL     1     -14.288  11.849   3.804  1.00  0.00     0.000 C 
BRANCH  10  11
ATOM     11  C   UNL     1     -14.801  10.853   4.860  1.00  0.00     0.000 C 
BRANCH  11  12
ATOM     12  C   UNL     1     -15.060   9.451   4.284  1.00  0.00     0.000 C 
BRANCH  12  13
ATOM     13  C   UNL     1     -13.965   8.413   4.592  1.00  0.00     0.006 C 
BRANCH  13  14
ATOM     14  C   UNL     1     -14.463   6.965   4.476  1.00  0.00     0.053 C 
BRANCH  14  15
ATOM     15  C   UNL     1     -13.910   6.301   3.251  1.00  0.00     0.041 C 
ATOM     16  O   UNL     1     -13.491   5.115   3.306  1.00  0.00    -0.550 OA
ATOM     17  O   UNL     1     -13.861   6.995   2.046  1.00  0.00    -0.550 OA
ENDBRANCH  14  15
ENDBRANCH  13  14
ENDBRANCH  12  13
ENDBRANCH  11  12
ENDBRANCH  10  11
ENDBRANCH   9  10
ENDBRANCH   8   9
ENDBRANCH   7   8
ENDBRANCH   6   7
ENDBRANCH   5   6
ENDBRANCH   4   5
ENDBRANCH   3   4
ENDBRANCH   2   3
ENDBRANCH   1   2
BRANCH   1  18
ATOM     18  C   UNL     1     -12.054   4.455   7.942  1.00  0.00     0.000 C 
BRANCH  18  19
ATOM     19  C   UNL     1     -11.969   4.201   6.431  1.00  0.00     0.000 C 
BRANCH  19  20
ATOM     20  C   UNL     1     -10.521   4.205   5.905  1.00  0.00     0.000 C 
BRANCH  20  21
ATOM     21  C   UNL     1     -10.343   4.770   4.483  1.00  0.00     0.000 C 
BRANCH  21  22
ATOM     22  C   UNL     1      -9.087   5.643   4.337  1.00  0.00     0.000 C 
BRANCH  22  23
ATOM     23  C   UNL     1      -8.958   6.625   5.510  1.00  0.00     0.000 C 
BRANCH  23  24
ATOM     24  C   UNL     1      -8.366   7.980   5.084  1.00  0.00    -0.000 C 
BRANCH  24  25
ATOM     25  C   UNL     1      -8.406   9.026   6.206  1.00  0.00    -0.000 C 
BRANCH  25  26
ATOM     26  C   UNL     1      -7.003   9.267   6.782  1.00  0.00    -0.000 C 
BRANCH  26  27
ATOM     27  C   UNL     1      -6.891  10.595   7.555  1.00  0.00    -0.000 C 
BRANCH  27  28
ATOM     28  C   UNL     1      -6.053  11.694   6.867  1.00  0.00    -0.000 C 
BRANCH  28  29
ATOM     29  C   UNL     1      -5.205  11.206   5.676  1.00  0.00    -0.000 C 
BRANCH  29  30
ATOM     30  C   UNL     1      -3.702  11.063   6.010  1.00  0.00    -0.000 C 
BRANCH  30  31
ATOM     31  C   UNL     1      -2.782  11.777   5.005  1.00  0.00    -0.003 C 
ATOM     32  C   UNL     1      -1.332  11.300   5.089  1.00  0.00     0.004 C 
ENDBRANCH  30  31
ENDBRANCH  29  30
ENDBRANCH  28  29
ENDBRANCH  27  28
ENDBRANCH  26  27
ENDBRANCH  25  26
ENDBRANCH  24  25
ENDBRANCH  23  24
ENDBRANCH  22  23
ENDBRANCH  21  22
ENDBRANCH  20  21
ENDBRANCH  19  20
ENDBRANCH  18  19
ENDBRANCH   1  18
TORSDOF 28
ENDMDL
MODEL 5
REMARK VINA RESULT:    -3.377      1.243      3.828
REMARK INTER + INTRA:         -10.834
REMARK INTER:                  -8.012
REMARK INTRA:                  -2.821
REMARK UNBOUND:                -1.928
REMARK SMILES CCCCCCCCCCCCCCCCCCCCCCCCCCCCCC(=O)[O-]
REMARK SMILES IDX 16 1 17 2 18 3 19 4 20 5 21 6 22 7 23 8 24 9 25 10 26 11
REMARK SMILES IDX 27 12 28 13 29 14 30 15 31 16 32 17 15 18 14 19 13 20 12 21
REMARK SMILES IDX 11 22 10 23 9 24 8 25 7 26 6 27 5 28 4 29 3 30 2 31 1 32
REMARK H PARENT
REMARK Flexibility Score: inf
ROOT
ATOM      1  C   UNL     1     -11.063  -3.428  -8.591  1.00  0.00     0.000 C 
ENDROOT
BRANCH   1   2
ATOM      2  C   UNL     1     -10.208  -3.513  -7.315  1.00  0.00     0.000 C 
BRANCH   2   3
ATOM      3  C   UNL     1      -8.702  -3.572  -7.629  1.00  0.00     0.000 C 
BRANCH   3   4
ATOM      4  C   UNL     1      -8.403  -3.768  -9.127  1.00  0.00     0.000 C 
BRANCH   4   5
ATOM      5  C   UNL     1      -7.653  -2.603  -9.814  1.00  0.00     0.000 C 
BRANCH   5   6
ATOM      6  C   UNL     1      -8.409  -1.918 -10.967  1.00  0.00     0.000 C 
BRANCH   6   7
ATOM      7  C   UNL     1      -9.909  -1.738 -10.681  1.00  0.00     0.000 C 
BRANCH   7   8
ATOM      8  C   UNL     1     -10.281  -0.273 -10.403  1.00  0.00     0.000 C 
BRANCH   8   9
ATOM      9  C   UNL     1     -11.570  -0.142  -9.569  1.00  0.00     0.000 C 
BRANCH   9  10
ATOM     10  C   UNL     1     -12.843  -0.229 -10.426  1.00  0.00     0.000 C 
BRANCH  10  11
ATOM     11  C   UNL     1     -14.099   0.238  -9.668  1.00  0.00     0.000 C 
BRANCH  11  12
ATOM     12  C   UNL     1     -14.475   1.698  -9.975  1.00  0.00     0.000 C 
BRANCH  12  13
ATOM     13  C   UNL     1     -13.841   2.740  -9.035  1.00  0.00     0.006 C 
BRANCH  13  14
ATOM     14  C   UNL     1     -12.481   3.250  -9.538  1.00  0.00     0.053 C 
BRANCH  14  15
ATOM     15  C   UNL     1     -11.691   3.865  -8.423  1.00  0.00     0.041 C 
ATOM     16  O   UNL     1     -10.433   3.872  -8.465  1.00  0.00    -0.550 OA
ATOM     17  O   UNL     1     -12.348   4.434  -7.337  1.00  0.00    -0.550 OA
ENDBRANCH  14  15
ENDBRANCH  13  14
ENDBRANCH  12  13
ENDBRANCH  11  12
ENDBRANCH  10  11
ENDBRANCH   9  10
ENDBRANCH   8   9
ENDBRANCH   7   8
ENDBRANCH   6   7
ENDBRANCH   5   6
ENDBRANCH   4   5
ENDBRANCH   3   4
ENDBRANCH   2   3
ENDBRANCH   1   2
BRANCH   1  18
ATOM     18  C   UNL     1     -12.134  -4.531  -8.649  1.00  0.00     0.000 C 
BRANCH  18  19
ATOM     19  C   UNL     1     -13.180  -4.234  -9.732  1.00  0.00     0.000 C 
BRANCH  19  20
ATOM     20  C   UNL     1     -14.615  -4.576  -9.285  1.00  0.00     0.000 C 
BRANCH  20  21
ATOM     21  C   UNL     1     -14.717  -5.403  -7.990  1.00  0.00     0.000 C 
BRANCH  21  22
ATOM     22  C   UNL     1     -14.892  -6.907  -8.252  1.00  0.00     0.000 C 
BRANCH  22  23
ATOM     23  C   UNL     1     -15.124  -7.673  -6.941  1.00  0.00     0.000 C 
BRANCH  23  24
ATOM     24  C   UNL     1     -14.380  -7.046  -5.750  1.00  0.00    -0.000 C 
BRANCH  24  25
ATOM     25  C   UNL     1     -12.869  -7.315  -5.784  1.00  0.00    -0.000 C 
BRANCH  25  26
ATOM     26  C   UNL     1     -12.076  -6.026  -5.524  1.00  0.00    -0.000 C 
BRANCH  26  27
ATOM     27  C   UNL     1     -10.644  -6.293  -5.022  1.00  0.00    -0.000 C 
BRANCH  27  28
ATOM     28  C   UNL     1      -9.821  -7.291  -5.866  1.00  0.00    -0.000 C 
BRANCH  28  29
ATOM     29  C   UNL     1      -9.543  -6.835  -7.312  1.00  0.00    -0.000 C 
BRANCH  29  30
ATOM     30  C   UNL     1     -10.143  -7.779  -8.380  1.00  0.00    -0.000 C 
BRANCH  30  31
ATOM     31  C   UNL     1     -11.666  -7.630  -8.538  1.00  0.00    -0.003 C 
ATOM     32  C   UNL     1     -12.170  -8.124  -9.894  1.00  0.00     0.004 C 
ENDBRANCH  30  31
ENDBRANCH  29  30
ENDBRANCH  28  29
ENDBRANCH  27  28
ENDBRANCH  26  27
ENDBRANCH  25  26
ENDBRANCH  24  25
ENDBRANCH  23  24
ENDBRANCH  22  23
ENDBRANCH  21  22
ENDBRANCH  20  21
ENDBRANCH  19  20
ENDBRANCH  18  19
ENDBRANCH   1  18
TORSDOF 28
ENDMDL
MODEL 6
REMARK VINA RESULT:    -3.200      1.225      2.064
REMARK INTER + INTRA:         -10.365
REMARK INTER:                  -8.959
REMARK INTRA:                  -1.407
REMARK UNBOUND:                -1.928
REMARK SMILES CCCCCCCCCCCCCCCCCCCCCCCCCCCCCC(=O)[O-]
REMARK SMILES IDX 16 1 17 2 18 3 19 4 20 5 21 6 22 7 23 8 24 9 25 10 26 11
REMARK SMILES IDX 27 12 28 13 29 14 30 15 31 16 32 17 15 18 14 19 13 20 12 21
REMARK SMILES IDX 11 22 10 23 9 24 8 25 7 26 6 27 5 28 4 29 3 30 2 31 1 32
REMARK H PARENT
REMARK Flexibility Score: inf
ROOT
ATOM      1  C   UNL     1      -9.847  -3.078  -8.141  1.00  0.00     0.000 C 
ENDROOT
BRANCH   1   2
ATOM      2  C   UNL     1     -10.453  -2.513  -9.437  1.00  0.00     0.000 C 
BRANCH   2   3
ATOM      3  C   UNL     1     -11.499  -3.461 -10.050  1.00  0.00     0.000 C 
BRANCH   3   4
ATOM      4  C   UNL     1     -12.574  -3.910  -9.042  1.00  0.00     0.000 C 
BRANCH   4   5
ATOM      5  C   UNL     1     -13.935  -4.315  -9.656  1.00  0.00     0.000 C 
BRANCH   5   6
ATOM      6  C   UNL     1     -14.996  -3.201  -9.704  1.00  0.00     0.000 C 
BRANCH   6   7
ATOM      7  C   UNL     1     -14.760  -2.193 -10.840  1.00  0.00     0.000 C 
BRANCH   7   8
ATOM      8  C   UNL     1     -14.845  -0.736 -10.358  1.00  0.00     0.000 C 
BRANCH   8   9
ATOM      9  C   UNL     1     -13.633  -0.330  -9.497  1.00  0.00     0.000 C 
BRANCH   9  10
ATOM     10  C   UNL     1     -12.351  -0.148 -10.325  1.00  0.00     0.000 C 
BRANCH  10  11
ATOM     11  C   UNL     1     -11.452   0.977  -9.782  1.00  0.00     0.000 C 
BRANCH  11  12
ATOM     12  C   UNL     1     -12.216   2.292  -9.544  1.00  0.00     0.000 C 
BRANCH  12  13
ATOM     13  C   UNL     1     -11.329   3.547  -9.456  1.00  0.00     0.006 C 
BRANCH  13  14
ATOM     14  C   UNL     1     -11.238   4.116  -8.032  1.00  0.00     0.053 C 
BRANCH  14  15
ATOM     15  C   UNL     1     -12.593   4.482  -7.510  1.00  0.00     0.041 C 
ATOM     16  O   UNL     1     -12.793   4.575  -6.269  1.00  0.00    -0.550 OA
ATOM     17  O   UNL     1     -13.639   4.722  -8.396  1.00  0.00    -0.550 OA
ENDBRANCH  14  15
ENDBRANCH  13  14
ENDBRANCH  12  13
ENDBRANCH  11  12
ENDBRANCH  10  11
ENDBRANCH   9  10
ENDBRANCH   8   9
ENDBRANCH   7   8
ENDBRANCH   6   7
ENDBRANCH   5   6
ENDBRANCH   4   5
ENDBRANCH   3   4
ENDBRANCH   2   3
ENDBRANCH   1   2
BRANCH   1  18
ATOM     18  C   UNL     1      -9.133  -4.422  -8.370  1.00  0.00     0.000 C 
BRANCH  18  19
ATOM     19  C   UNL     1     -10.019  -5.602  -7.946  1.00  0.00     0.000 C 
BRANCH  19  20
ATOM     20  C   UNL     1     -10.049  -6.732  -8.993  1.00  0.00     0.000 C 
BRANCH  20  21
ATOM     21  C   UNL     1     -10.591  -8.081  -8.484  1.00  0.00     0.000 C 
BRANCH  21  22
ATOM     22  C   UNL     1     -12.115  -8.079  -8.289  1.00  0.00     0.000 C 
BRANCH  22  23
ATOM     23  C   UNL     1     -12.842  -7.828  -9.618  1.00  0.00     0.000 C 
BRANCH  23  24
ATOM     24  C   UNL     1     -14.342  -7.547  -9.427  1.00  0.00    -0.000 C 
BRANCH  24  25
ATOM     25  C   UNL     1     -14.832  -7.870  -8.009  1.00  0.00    -0.000 C 
BRANCH  25  26
ATOM     26  C   UNL     1     -14.829  -6.612  -7.127  1.00  0.00    -0.000 C 
BRANCH  26  27
ATOM     27  C   UNL     1     -14.893  -6.934  -5.622  1.00  0.00    -0.000 C 
BRANCH  27  28
ATOM     28  C   UNL     1     -14.024  -8.125  -5.161  1.00  0.00    -0.000 C 
BRANCH  28  29
ATOM     29  C   UNL     1     -12.512  -7.953  -5.410  1.00  0.00    -0.000 C 
BRANCH  29  30
ATOM     30  C   UNL     1     -11.760  -7.331  -4.210  1.00  0.00    -0.000 C 
BRANCH  30  31
ATOM     31  C   UNL     1     -11.012  -6.034  -4.566  1.00  0.00    -0.003 C 
ATOM     32  C   UNL     1     -11.542  -5.376  -5.840  1.00  0.00     0.004 C 
ENDBRANCH  30  31
ENDBRANCH  29  30
ENDBRANCH  28  29
ENDBRANCH  27  28
ENDBRANCH  26  27
ENDBRANCH  25  26
ENDBRANCH  24  25
ENDBRANCH  23  24
ENDBRANCH  22  23
ENDBRANCH  21  22
ENDBRANCH  20  21
ENDBRANCH  19  20
ENDBRANCH  18  19
ENDBRANCH   1  18
TORSDOF 28
ENDMDL
MODEL 7
REMARK VINA RESULT:    -2.860     15.991     19.583
REMARK INTER + INTRA:          -9.470
REMARK INTER:                  -8.556
REMARK INTRA:                  -0.913
REMARK UNBOUND:                -1.928
REMARK SMILES CCCCCCCCCCCCCCCCCCCCCCCCCCCCCC(=O)[O-]
REMARK SMILES IDX 16 1 17 2 18 3 19 4 20 5 21 6 22 7 23 8 24 9 25 10 26 11
REMARK SMILES IDX 27 12 28 13 29 14 30 15 31 16 32 17 15 18 14 19 13 20 12 21
REMARK SMILES IDX 11 22 10 23 9 24 8 25 7 26 6 27 5 28 4 29 3 30 2 31 1 32
REMARK H PARENT
REMARK Flexibility Score: inf
ROOT
ATOM      1  C   UNL     1     -13.676  11.527   4.032  1.00  0.00     0.000 C 
ENDROOT
BRANCH   1   2
ATOM      2  C   UNL     1     -14.871  11.721   4.981  1.00  0.00     0.000 C 
BRANCH   2   3
ATOM      3  C   UNL     1     -14.484  11.497   6.454  1.00  0.00     0.000 C 
BRANCH   3   4
ATOM      4  C   UNL     1     -13.128  12.125   6.827  1.00  0.00     0.000 C 
BRANCH   4   5
ATOM      5  C   UNL     1     -12.018  11.994   5.757  1.00  0.00     0.000 C 
BRANCH   5   6
ATOM      6  C   UNL     1     -11.288  10.639   5.724  1.00  0.00     0.000 C 
BRANCH   6   7
ATOM      7  C   UNL     1      -9.853  10.742   5.181  1.00  0.00     0.000 C 
BRANCH   7   8
ATOM      8  C   UNL     1      -8.896   9.751   5.862  1.00  0.00     0.000 C 
BRANCH   8   9
ATOM      9  C   UNL     1      -7.615   9.511   5.039  1.00  0.00     0.000 C 
BRANCH   9  10
ATOM     10  C   UNL     1      -6.713  10.753   4.969  1.00  0.00     0.000 C 
BRANCH  10  11
ATOM     11  C   UNL     1      -6.785  11.609   6.246  1.00  0.00     0.000 C 
BRANCH  11  12
ATOM     12  C   UNL     1      -5.570  11.411   7.169  1.00  0.00     0.000 C 
BRANCH  12  13
ATOM     13  C   UNL     1      -4.260  12.037   6.656  1.00  0.00     0.006 C 
BRANCH  13  14
ATOM     14  C   UNL     1      -3.230  10.989   6.209  1.00  0.00     0.053 C 
BRANCH  14  15
ATOM     15  C   UNL     1      -2.516  11.430   4.968  1.00  0.00     0.041 C 
ATOM     16  O   UNL     1      -3.156  11.954   4.019  1.00  0.00    -0.550 OA
ATOM     17  O   UNL     1      -1.139  11.262   4.861  1.00  0.00    -0.550 OA
ENDBRANCH  14  15
ENDBRANCH  13  14
ENDBRANCH  12  13
ENDBRANCH  11  12
ENDBRANCH  10  11
ENDBRANCH   9  10
ENDBRANCH   8   9
ENDBRANCH   7   8
ENDBRANCH   6   7
ENDBRANCH   5   6
ENDBRANCH   4   5
ENDBRANCH   3   4
ENDBRANCH   2   3
ENDBRANCH   1   2
BRANCH   1  18
ATOM     18  C   UNL     1     -13.906  10.378   3.035  1.00  0.00     0.000 C 
BRANCH  18  19
ATOM     19  C   UNL     1     -14.541   9.163   3.724  1.00  0.00     0.000 C 
BRANCH  19  20
ATOM     20  C   UNL     1     -13.615   7.930   3.734  1.00  0.00     0.000 C 
BRANCH  20  21
ATOM     21  C   UNL     1     -14.274   6.614   3.277  1.00  0.00     0.000 C 
BRANCH  21  22
ATOM     22  C   UNL     1     -13.681   5.377   3.968  1.00  0.00     0.000 C 
BRANCH  22  23
ATOM     23  C   UNL     1     -12.713   5.781   5.090  1.00  0.00     0.000 C 
BRANCH  23  24
ATOM     24  C   UNL     1     -12.910   4.948   6.369  1.00  0.00    -0.000 C 
BRANCH  24  25
ATOM     25  C   UNL     1     -11.774   3.943   6.605  1.00  0.00    -0.000 C 
BRANCH  25  26
ATOM     26  C   UNL     1     -11.602   3.651   8.102  1.00  0.00    -0.000 C 
BRANCH  26  27
ATOM     27  C   UNL     1     -10.641   4.632   8.799  1.00  0.00    -0.000 C 
BRANCH  27  28
ATOM     28  C   UNL     1     -10.826   6.119   8.427  1.00  0.00    -0.000 C 
BRANCH  28  29
ATOM     29  C   UNL     1      -9.530   6.846   8.016  1.00  0.00    -0.000 C 
BRANCH  29  30
ATOM     30  C   UNL     1      -8.801   6.177   6.827  1.00  0.00    -0.000 C 
BRANCH  30  31
ATOM     31  C   UNL     1      -9.574   6.284   5.500  1.00  0.00    -0.003 C 
ATOM     32  C   UNL     1      -8.824   5.652   4.327  1.00  0.00     0.004 C 
ENDBRANCH  30  31
ENDBRANCH  29  30
ENDBRANCH  28  29
ENDBRANCH  27  28
ENDBRANCH  26  27
ENDBRANCH  25  26
ENDBRANCH  24  25
ENDBRANCH  23  24
ENDBRANCH  22  23
ENDBRANCH  21  22
ENDBRANCH  20  21
ENDBRANCH  19  20
ENDBRANCH  18  19
ENDBRANCH   1  18
TORSDOF 28
ENDMDL
MODEL 8
REMARK VINA RESULT:    -2.630     15.727     19.761
REMARK INTER + INTRA:          -8.862
REMARK INTER:                  -7.282
REMARK INTRA:                  -1.580
REMARK UNBOUND:                -1.928
REMARK SMILES CCCCCCCCCCCCCCCCCCCCCCCCCCCCCC(=O)[O-]
REMARK SMILES IDX 16 1 17 2 18 3 19 4 20 5 21 6 22 7 23 8 24 9 25 10 26 11
REMARK SMILES IDX 27 12 28 13 29 14 30 15 31 16 32 17 15 18 14 19 13 20 12 21
REMARK SMILES IDX 11 22 10 23 9 24 8 25 7 26 6 27 5 28 4 29 3 30 2 31 1 32
REMARK H PARENT
REMARK Flexibility Score: inf
ROOT
ATOM      1  C   UNL     1     -11.356   3.736   6.099  1.00  0.00     0.000 C 
ENDROOT
BRANCH   1   2
ATOM      2  C   UNL     1     -11.072   3.826   7.609  1.00  0.00     0.000 C 
BRANCH   2   3
ATOM      3  C   UNL     1     -11.236   5.259   8.145  1.00  0.00     0.000 C 
BRANCH   3   4
ATOM      4  C   UNL     1     -10.020   5.745   8.956  1.00  0.00     0.000 C 
BRANCH   4   5
ATOM      5  C   UNL     1      -8.999   6.604   8.175  1.00  0.00     0.000 C 
BRANCH   5   6
ATOM      6  C   UNL     1      -9.595   7.516   7.088  1.00  0.00     0.000 C 
BRANCH   6   7
ATOM      7  C   UNL     1      -8.531   8.117   6.156  1.00  0.00     0.000 C 
BRANCH   7   8
ATOM      8  C   UNL     1      -8.311   9.617   6.407  1.00  0.00     0.000 C 
BRANCH   8   9
ATOM      9  C   UNL     1      -7.642  10.322   5.211  1.00  0.00     0.000 C 
BRANCH   9  10
ATOM     10  C   UNL     1      -6.155  10.626   5.456  1.00  0.00     0.000 C 
BRANCH  10  11
ATOM     11  C   UNL     1      -5.887  11.154   6.877  1.00  0.00     0.000 C 
BRANCH  11  12
ATOM     12  C   UNL     1      -4.405  11.482   7.123  1.00  0.00     0.000 C 
BRANCH  12  13
ATOM     13  C   UNL     1      -3.658  12.053   5.903  1.00  0.00     0.006 C 
BRANCH  13  14
ATOM     14  C   UNL     1      -2.607  11.084   5.339  1.00  0.00     0.053 C 
BRANCH  14  15
ATOM     15  C   UNL     1      -1.710  11.775   4.357  1.00  0.00     0.041 C 
ATOM     16  O   UNL     1      -2.133  12.069   3.208  1.00  0.00    -0.550 OA
ATOM     17  O   UNL     1      -0.405  12.097   4.714  1.00  0.00    -0.550 OA
ENDBRANCH  14  15
ENDBRANCH  13  14
ENDBRANCH  12  13
ENDBRANCH  11  12
ENDBRANCH  10  11
ENDBRANCH   9  10
ENDBRANCH   8   9
ENDBRANCH   7   8
ENDBRANCH   6   7
ENDBRANCH   5   6
ENDBRANCH   4   5
ENDBRANCH   3   4
ENDBRANCH   2   3
ENDBRANCH   1   2
BRANCH   1  18
ATOM     18  C   UNL     1     -10.604   4.815   5.301  1.00  0.00     0.000 C 
BRANCH  18  19
ATOM     19  C   UNL     1     -11.559   5.914   4.816  1.00  0.00     0.000 C 
BRANCH  19  20
ATOM     20  C   UNL     1     -13.043   5.548   5.017  1.00  0.00     0.000 C 
BRANCH  20  21
ATOM     21  C   UNL     1     -13.785   5.102   3.743  1.00  0.00     0.000 C 
BRANCH  21  22
ATOM     22  C   UNL     1     -14.661   6.211   3.141  1.00  0.00     0.000 C 
BRANCH  22  23
ATOM     23  C   UNL     1     -14.739   7.425   4.080  1.00  0.00     0.000 C 
BRANCH  23  24
ATOM     24  C   UNL     1     -13.549   8.384   3.906  1.00  0.00    -0.000 C 
BRANCH  24  25
ATOM     25  C   UNL     1     -12.778   8.617   5.212  1.00  0.00    -0.000 C 
BRANCH  25  26
ATOM     26  C   UNL     1     -13.677   9.272   6.271  1.00  0.00    -0.000 C 
BRANCH  26  27
ATOM     27  C   UNL     1     -13.470  10.795   6.375  1.00  0.00    -0.000 C 
BRANCH  27  28
ATOM     28  C   UNL     1     -12.132  11.323   5.815  1.00  0.00    -0.000 C 
BRANCH  28  29
ATOM     29  C   UNL     1     -12.254  12.125   4.504  1.00  0.00    -0.000 C 
BRANCH  29  30
ATOM     30  C   UNL     1     -11.350  11.588   3.370  1.00  0.00    -0.000 C 
BRANCH  30  31
ATOM     31  C   UNL     1     -11.837  11.980   1.964  1.00  0.00    -0.003 C 
ATOM     32  C   UNL     1     -13.341  11.775   1.781  1.00  0.00     0.004 C 
ENDBRANCH  30  31
ENDBRANCH  29  30
ENDBRANCH  28  29
ENDBRANCH  27  28
ENDBRANCH  26  27
ENDBRANCH  25  26
ENDBRANCH  24  25
ENDBRANCH  23  24
ENDBRANCH  22  23
ENDBRANCH  21  22
ENDBRANCH  20  21
ENDBRANCH  19  20
ENDBRANCH  18  19
ENDBRANCH   1  18
TORSDOF 28
ENDMDL
