MODEL 1
REMARK VINA RESULT:    -3.232      0.000      0.000
REMARK INTER + INTRA:          -4.588
REMARK INTER:                  -4.176
REMARK INTRA:                  -0.412
REMARK UNBOUND:                -0.412
REMARK SMILES CCCCCCC(=O)[O-]
REMARK SMILES IDX 5 1 6 2 7 3 8 4 9 5 4 6 3 7 2 8 1 9
REMARK H PARENT
REMARK Flexibility Score: inf
ROOT
ATOM      1  C   UNL     1     143.436 127.742 117.054  1.00  0.00     0.006 C 
ENDROOT
BRANCH   1   2
ATOM      2  C   UNL     1     144.568 126.875 117.621  1.00  0.00     0.053 C 
BRANCH   2   3
ATOM      3  C   UNL     1     145.641 127.709 118.253  1.00  0.00     0.041 C 
ATOM      4  O   UNL     1     145.896 128.857 117.804  1.00  0.00    -0.550 OA
ATOM      5  O   UNL     1     146.377 127.206 119.318  1.00  0.00    -0.550 OA
ENDBRANCH   2   3
ENDBRANCH   1   2
BRANCH   1   6
ATOM      6  C   UNL     1     143.332 127.635 115.522  1.00  0.00     0.000 C 
BRANCH   6   7
ATOM      7  C   UNL     1     143.902 128.881 114.812  1.00  0.00    -0.000 C 
BRANCH   7   8
ATOM      8  C   UNL     1     145.368 128.723 114.374  1.00  0.00    -0.003 C 
ATOM      9  C   UNL     1     145.769 127.269 114.135  1.00  0.00     0.004 C 
ENDBRANCH   7   8
ENDBRANCH   6   7
ENDBRANCH   1   6
TORSDOF 5
ENDMDL
MODEL 2
REMARK VINA RESULT:    -3.187      1.040      2.090
REMARK INTER + INTRA:          -4.531
REMARK INTER:                  -4.177
REMARK INTRA:                  -0.354
REMARK UNBOUND:                -0.412
REMARK SMILES CCCCCCC(=O)[O-]
REMARK SMILES IDX 5 1 6 2 7 3 8 4 9 5 4 6 3 7 2 8 1 9
REMARK H PARENT
REMARK Flexibility Score: inf
ROOT
ATOM      1  C   UNL     1     145.882 126.879 116.147  1.00  0.00     0.006 C 
ENDROOT
BRANCH   1   2
ATOM      2  C   UNL     1     145.056 127.023 117.432  1.00  0.00     0.053 C 
BRANCH   2   3
ATOM      3  C   UNL     1     145.714 127.947 118.412  1.00  0.00     0.041 C 
ATOM      4  O   UNL     1     146.111 127.510 119.524  1.00  0.00    -0.550 OA
ATOM      5  O   UNL     1     145.861 129.294 118.109  1.00  0.00    -0.550 OA
ENDBRANCH   2   3
ENDBRANCH   1   2
BRANCH   1   6
ATOM      6  C   UNL     1     145.084 127.276 114.893  1.00  0.00     0.000 C 
BRANCH   6   7
ATOM      7  C   UNL     1     145.527 128.641 114.328  1.00  0.00    -0.000 C 
BRANCH   7   8
ATOM      8  C   UNL     1     144.627 129.810 114.765  1.00  0.00    -0.003 C 
ATOM      9  C   UNL     1     143.142 129.452 114.772  1.00  0.00     0.004 C 
ENDBRANCH   7   8
ENDBRANCH   6   7
ENDBRANCH   1   6
TORSDOF 5
ENDMDL
MODEL 3
REMARK VINA RESULT:    -3.163     21.148     22.032
REMARK INTER + INTRA:          -4.499
REMARK INTER:                  -4.062
REMARK INTRA:                  -0.437
REMARK UNBOUND:                -0.412
REMARK SMILES CCCCCCC(=O)[O-]
REMARK SMILES IDX 5 1 6 2 7 3 8 4 9 5 4 6 3 7 2 8 1 9
REMARK H PARENT
REMARK Flexibility Score: inf
ROOT
ATOM      1  C   UNL     1     127.963 142.227 116.436  1.00  0.00     0.006 C 
ENDROOT
BRANCH   1   2
ATOM      2  C   UNL     1     129.209 142.646 117.229  1.00  0.00     0.053 C 
BRANCH   2   3
ATOM      3  C   UNL     1     129.326 144.136 117.330  1.00  0.00     0.041 C 
ATOM      4  O   UNL     1     130.311 144.730 116.817  1.00  0.00    -0.550 OA
ATOM      5  O   UNL     1     128.363 144.865 118.016  1.00  0.00    -0.550 OA
ENDBRANCH   2   3
ENDBRANCH   1   2
BRANCH   1   6
ATOM      6  C   UNL     1     128.193 142.288 114.916  1.00  0.00     0.000 C 
BRANCH   6   7
ATOM      7  C   UNL     1     129.535 141.649 114.503  1.00  0.00    -0.000 C 
BRANCH   7   8
ATOM      8  C   UNL     1     130.426 142.577 113.660  1.00  0.00    -0.003 C 
ATOM      9  C   UNL     1     129.767 143.919 113.349  1.00  0.00     0.004 C 
ENDBRANCH   7   8
ENDBRANCH   6   7
ENDBRANCH   1   6
TORSDOF 5
ENDMDL
MODEL 4
REMARK VINA RESULT:    -3.142      1.865      2.534
REMARK INTER + INTRA:          -4.473
REMARK INTER:                  -4.175
REMARK INTRA:                  -0.298
REMARK UNBOUND:                -0.412
REMARK SMILES CCCCCCC(=O)[O-]
REMARK SMILES IDX 5 1 6 2 7 3 8 4 9 5 4 6 3 7 2 8 1 9
REMARK H PARENT
REMARK Flexibility Score: inf
ROOT
ATOM      1  C   UNL     1     144.958 127.532 114.827  1.00  0.00     0.006 C 
ENDROOT
BRANCH   1   2
ATOM      2  C   UNL     1     145.959 126.877 115.788  1.00  0.00     0.053 C 
BRANCH   2   3
ATOM      3  C   UNL     1     145.474 126.918 117.206  1.00  0.00     0.041 C 
ATOM      4  O   UNL     1     144.240 126.875 117.453  1.00  0.00    -0.550 OA
ATOM      5  O   UNL     1     146.382 127.033 118.250  1.00  0.00    -0.550 OA
ENDBRANCH   2   3
ENDBRANCH   1   2
BRANCH   1   6
ATOM      6  C   UNL     1     145.441 128.905 114.330  1.00  0.00     0.000 C 
BRANCH   6   7
ATOM      7  C   UNL     1     144.543 130.055 114.830  1.00  0.00    -0.000 C 
BRANCH   7   8
ATOM      8  C   UNL     1     145.091 130.767 116.078  1.00  0.00    -0.003 C 
ATOM      9  C   UNL     1     146.563 131.154 115.948  1.00  0.00     0.004 C 
ENDBRANCH   7   8
ENDBRANCH   6   7
ENDBRANCH   1   6
TORSDOF 5
ENDMDL
MODEL 5
REMARK VINA RESULT:    -3.122      2.922      4.089
REMARK INTER + INTRA:          -4.447
REMARK INTER:                  -4.275
REMARK INTRA:                  -0.172
REMARK UNBOUND:                -0.412
REMARK SMILES CCCCCCC(=O)[O-]
REMARK SMILES IDX 5 1 6 2 7 3 8 4 9 5 4 6 3 7 2 8 1 9
REMARK H PARENT
REMARK Flexibility Score: inf
ROOT
ATOM      1  C   UNL     1     146.020 129.904 115.863  1.00  0.00     0.006 C 
ENDROOT
BRANCH   1   2
ATOM      2  C   UNL     1     146.897 131.160 115.784  1.00  0.00     0.053 C 
BRANCH   2   3
ATOM      3  C   UNL     1     146.168 132.376 116.274  1.00  0.00     0.041 C 
ATOM      4  O   UNL     1     146.803 133.430 116.537  1.00  0.00    -0.550 OA
ATOM      5  O   UNL     1     144.794 132.333 116.467  1.00  0.00    -0.550 OA
ENDBRANCH   2   3
ENDBRANCH   1   2
BRANCH   1   6
ATOM      6  C   UNL     1     145.499 129.469 114.482  1.00  0.00     0.000 C 
BRANCH   6   7
ATOM      7  C   UNL     1     145.625 127.946 114.265  1.00  0.00    -0.000 C 
BRANCH   7   8
ATOM      8  C   UNL     1     144.660 127.119 115.133  1.00  0.00    -0.003 C 
ATOM      9  C   UNL     1     143.205 127.564 115.001  1.00  0.00     0.004 C 
ENDBRANCH   7   8
ENDBRANCH   6   7
ENDBRANCH   1   6
TORSDOF 5
ENDMDL
MODEL 6
REMARK VINA RESULT:    -3.098      1.543      2.972
REMARK INTER + INTRA:          -4.415
REMARK INTER:                  -4.095
REMARK INTRA:                  -0.320
REMARK UNBOUND:                -0.412
REMARK SMILES CCCCCCC(=O)[O-]
REMARK SMILES IDX 5 1 6 2 7 3 8 4 9 5 4 6 3 7 2 8 1 9
REMARK H PARENT
REMARK Flexibility Score: inf
ROOT
ATOM      1  C   UNL     1     145.020 129.826 115.035  1.00  0.00     0.006 C 
ENDROOT
BRANCH   1   2
ATOM      2  C   UNL     1     146.150 130.118 116.031  1.00  0.00     0.053 C 
BRANCH   2   3
ATOM      3  C   UNL     1     145.707 129.907 117.448  1.00  0.00     0.041 C 
ATOM      4  O   UNL     1     145.934 128.812 118.026  1.00  0.00    -0.550 OA
ATOM      5  O   UNL     1     145.017 130.910 118.118  1.00  0.00    -0.550 OA
ENDBRANCH   2   3
ENDBRANCH   1   2
BRANCH   1   6
ATOM      6  C   UNL     1     145.284 128.554 114.211  1.00  0.00     0.000 C 
BRANCH   6   7
ATOM      7  C   UNL     1     144.660 127.300 114.859  1.00  0.00    -0.000 C 
BRANCH   7   8
ATOM      8  C   UNL     1     143.423 127.604 115.722  1.00  0.00    -0.003 C 
ATOM      9  C   UNL     1     142.107 127.301 115.009  1.00  0.00     0.004 C 
ENDBRANCH   7   8
ENDBRANCH   6   7
ENDBRANCH   1   6
TORSDOF 5
ENDMDL
MODEL 7
REMARK VINA RESULT:    -3.026      2.772      3.747
REMARK INTER + INTRA:          -4.322
REMARK INTER:                  -4.089
REMARK INTRA:                  -0.233
REMARK UNBOUND:                -0.412
REMARK SMILES CCCCCCC(=O)[O-]
REMARK SMILES IDX 5 1 6 2 7 3 8 4 9 5 4 6 3 7 2 8 1 9
REMARK H PARENT
REMARK Flexibility Score: inf
ROOT
ATOM      1  C   UNL     1     144.160 127.368 115.630  1.00  0.00     0.006 C 
ENDROOT
BRANCH   1   2
ATOM      2  C   UNL     1     142.725 127.508 115.104  1.00  0.00     0.053 C 
BRANCH   2   3
ATOM      3  C   UNL     1     141.715 127.309 116.193  1.00  0.00     0.041 C 
ATOM      4  O   UNL     1     142.092 127.031 117.363  1.00  0.00    -0.550 OA
ATOM      5  O   UNL     1     140.359 127.401 115.910  1.00  0.00    -0.550 OA
ENDBRANCH   2   3
ENDBRANCH   1   2
BRANCH   1   6
ATOM      6  C   UNL     1     145.208 127.572 114.522  1.00  0.00     0.000 C 
BRANCH   6   7
ATOM      7  C   UNL     1     145.484 129.065 114.248  1.00  0.00    -0.000 C 
BRANCH   7   8
ATOM      8  C   UNL     1     145.873 129.860 115.505  1.00  0.00    -0.003 C 
ATOM      9  C   UNL     1     144.957 131.055 115.766  1.00  0.00     0.004 C 
ENDBRANCH   7   8
ENDBRANCH   6   7
ENDBRANCH   1   6
TORSDOF 5
ENDMDL
MODEL 8
REMARK VINA RESULT:    -3.017      1.438      2.299
REMARK INTER + INTRA:          -4.312
REMARK INTER:                  -3.953
REMARK INTRA:                  -0.358
REMARK UNBOUND:                -0.412
REMARK SMILES CCCCCCC(=O)[O-]
REMARK SMILES IDX 5 1 6 2 7 3 8 4 9 5 4 6 3 7 2 8 1 9
REMARK H PARENT
REMARK Flexibility Score: inf
ROOT
ATOM      1  C   UNL     1     145.882 128.441 115.726  1.00  0.00     0.006 C 
ENDROOT
BRANCH   1   2
ATOM      2  C   UNL     1     145.934 127.011 116.280  1.00  0.00     0.053 C 
BRANCH   2   3
ATOM      3  C   UNL     1     145.495 126.956 117.712  1.00  0.00     0.041 C 
ATOM      4  O   UNL     1     144.271 126.875 117.996  1.00  0.00    -0.550 OA
ATOM      5  O   UNL     1     146.435 127.024 118.732  1.00  0.00    -0.550 OA
ENDBRANCH   2   3
ENDBRANCH   1   2
BRANCH   1   6
ATOM      6  C   UNL     1     144.780 128.616 114.666  1.00  0.00     0.000 C 
BRANCH   6   7
ATOM      7  C   UNL     1     143.634 129.521 115.162  1.00  0.00    -0.000 C 
BRANCH   7   8
ATOM      8  C   UNL     1     142.243 128.874 115.043  1.00  0.00    -0.003 C 
ATOM      9  C   UNL     1     142.283 127.349 115.126  1.00  0.00     0.004 C 
ENDBRANCH   7   8
ENDBRANCH   6   7
ENDBRANCH   1   6
TORSDOF 5
ENDMDL
MODEL 9
REMARK VINA RESULT:    -2.995     15.025     15.977
REMARK INTER + INTRA:          -4.283
REMARK INTER:                  -4.065
REMARK INTRA:                  -0.218
REMARK UNBOUND:                -0.412
REMARK SMILES CCCCCCC(=O)[O-]
REMARK SMILES IDX 5 1 6 2 7 3 8 4 9 5 4 6 3 7 2 8 1 9
REMARK H PARENT
REMARK Flexibility Score: inf
ROOT
ATOM      1  C   UNL     1     129.182 130.064 115.292  1.00  0.00     0.006 C 
ENDROOT
BRANCH   1   2
ATOM      2  C   UNL     1     129.711 128.630 115.157  1.00  0.00     0.053 C 
BRANCH   2   3
ATOM      3  C   UNL     1     129.881 127.974 116.494  1.00  0.00     0.041 C 
ATOM      4  O   UNL     1     130.688 127.017 116.631  1.00  0.00    -0.550 OA
ATOM      5  O   UNL     1     129.127 128.401 117.580  1.00  0.00    -0.550 OA
ENDBRANCH   2   3
ENDBRANCH   1   2
BRANCH   1   6
ATOM      6  C   UNL     1     127.890 130.287 114.486  1.00  0.00     0.000 C 
BRANCH   6   7
ATOM      7  C   UNL     1     127.987 131.516 113.559  1.00  0.00    -0.000 C 
BRANCH   7   8
ATOM      8  C   UNL     1     129.060 132.531 113.991  1.00  0.00    -0.003 C 
ATOM      9  C   UNL     1     130.106 132.794 112.910  1.00  0.00     0.004 C 
ENDBRANCH   7   8
ENDBRANCH   6   7
ENDBRANCH   1   6
TORSDOF 5
ENDMDL
