MODEL 1
REMARK VINA RESULT:    -3.191      0.000      0.000
REMARK INTER + INTRA:          -3.841
REMARK INTER:                  -4.497
REMARK INTRA:                   0.656
REMARK UNBOUND:                 0.656
REMARK SMILES CC1=CCC(=C(C)C)C(=O)CC(C)=CCC1
REMARK SMILES IDX 12 1 14 2 13 3 15 4 16 5 2 6 1 7 3 8 11 10 9 11 10 12 5 13
REMARK SMILES IDX 6 14 7 15 8 16 4 17
REMARK H PARENT
REMARK Flexibility Score: 60.00
ROOT
ATOM      1  C   UNL     1     178.242 192.653 194.832  1.00  0.00    -0.070 C 
ATOM      2  C   UNL     1     177.038 192.829 194.236  1.00  0.00    -0.027 C 
ATOM      3  C   UNL     1     178.539 193.481 196.057  1.00  0.00     0.039 C 
ENDROOT
BRANCH   2   4
ATOM      4  C   UNL     1     176.491 192.038 193.073  1.00  0.00     0.032 C 
BRANCH   4   5
ATOM      5  C   UNL     1     176.030 192.938 191.909  1.00  0.00     0.034 C 
BRANCH   5   6
ATOM      6  C   UNL     1     177.184 193.689 191.274  1.00  0.00    -0.077 C 
ATOM      7  C   UNL     1     177.015 195.162 191.001  1.00  0.00     0.039 C 
ATOM      8  C   UNL     1     178.350 193.108 190.913  1.00  0.00    -0.023 CG0
ATOM      9  G   UNL     1     178.694 191.646 191.071  1.00  0.00     0.000 G0
ENDBRANCH   5   6
ENDBRANCH   4   5
ENDBRANCH   2   4
BRANCH   1  10
ATOM     10  C   UNL     1     179.267 191.628 194.375  1.00  0.00     0.111 C 
BRANCH  10  11
ATOM     11  C   UNL     1     180.067 192.131 193.199  1.00  0.00     0.163 C 
ATOM     12  O   UNL     1     180.777 193.160 193.359  1.00  0.00    -0.294 OA
BRANCH  11  13
ATOM     13  C   UNL     1     179.996 191.476 191.855  1.00  0.00    -0.002 C 
ATOM     14  C   UNL     1     181.019 190.707 191.374  1.00  0.00    -0.069 C 
ATOM     15  C   UNL     1     180.954 190.080 189.998  1.00  0.00     0.039 C 
ATOM     16  C   UNL     1     182.248 190.415 192.204  1.00  0.00     0.039 C 
BRANCH  13  17
ATOM     17  C   UNL     1     178.703 191.640 191.075  1.00  0.00     0.066 CG0
ATOM     18  G   UNL     1     178.379 193.107 190.922  1.00  0.00     0.000 G0
ENDBRANCH  13  17
ENDBRANCH  11  13
ENDBRANCH  10  11
ENDBRANCH   1  10
TORSDOF 0
ENDMDL
MODEL 2
REMARK VINA RESULT:    -3.191     15.964     17.489
REMARK INTER + INTRA:          -3.841
REMARK INTER:                  -4.199
REMARK INTRA:                   0.358
REMARK UNBOUND:                 0.656
REMARK SMILES CC1=CCC(=C(C)C)C(=O)CC(C)=CCC1
REMARK SMILES IDX 12 1 14 2 13 3 15 4 16 5 2 6 1 7 3 8 11 10 9 11 10 12 5 13
REMARK SMILES IDX 6 14 7 15 8 16 4 17
REMARK H PARENT
REMARK Flexibility Score: 60.00
ROOT
ATOM      1  C   UNL     1     188.073 179.688 200.017  1.00  0.00    -0.070 C 
ATOM      2  C   UNL     1     188.823 179.946 198.918  1.00  0.00    -0.027 C 
ATOM      3  C   UNL     1     188.747 179.803 201.362  1.00  0.00     0.039 C 
ENDROOT
BRANCH   2   4
ATOM      4  C   UNL     1     188.332 179.994 197.492  1.00  0.00     0.032 C 
BRANCH   4   5
ATOM      5  C   UNL     1     188.154 178.592 196.879  1.00  0.00     0.034 C 
BRANCH   5   6
ATOM      6  C   UNL     1     186.824 178.442 196.167  1.00  0.00    -0.077 C 
ATOM      7  C   UNL     1     186.543 179.331 194.983  1.00  0.00     0.039 C 
ATOM      8  C   UNL     1     185.861 177.575 196.550  1.00  0.00    -0.023 CG0
ATOM      9  G   UNL     1     185.940 176.631 197.726  1.00  0.00     0.000 G0
ENDBRANCH   5   6
ENDBRANCH   4   5
ENDBRANCH   2   4
BRANCH   1  10
ATOM     10  C   UNL     1     186.590 179.359 199.968  1.00  0.00     0.111 C 
BRANCH  10  11
ATOM     11  C   UNL     1     186.354 177.870 199.917  1.00  0.00     0.163 C 
ATOM     12  O   UNL     1     187.051 177.132 200.666  1.00  0.00    -0.294 OA
BRANCH  11  13
ATOM     13  C   UNL     1     185.366 177.256 198.977  1.00  0.00    -0.002 C 
ATOM     14  C   UNL     1     184.018 177.330 199.199  1.00  0.00    -0.069 C 
ATOM     15  C   UNL     1     183.028 176.675 198.262  1.00  0.00     0.039 C 
ATOM     16  C   UNL     1     183.450 178.101 200.369  1.00  0.00     0.039 C 
BRANCH  13  17
ATOM     17  C   UNL     1     185.919 176.609 197.719  1.00  0.00     0.066 CG0
ATOM     18  G   UNL     1     185.853 177.584 196.569  1.00  0.00     0.000 G0
ENDBRANCH  13  17
ENDBRANCH  11  13
ENDBRANCH  10  11
ENDBRANCH   1  10
TORSDOF 0
ENDMDL
MODEL 3
REMARK VINA RESULT:    -3.151      7.210     10.402
REMARK INTER + INTRA:          -3.785
REMARK INTER:                  -4.139
REMARK INTRA:                   0.354
REMARK UNBOUND:                 0.656
REMARK SMILES CC1=CCC(=C(C)C)C(=O)CC(C)=CCC1
REMARK SMILES IDX 12 1 14 2 13 3 15 4 16 5 2 6 1 7 3 8 11 10 9 11 10 12 5 13
REMARK SMILES IDX 6 14 7 15 8 16 4 17
REMARK H PARENT
REMARK Flexibility Score: 60.00
ROOT
ATOM      1  C   UNL     1     186.148 186.004 196.552  1.00  0.00    -0.070 C 
ATOM      2  C   UNL     1     187.040 184.997 196.402  1.00  0.00    -0.027 C 
ATOM      3  C   UNL     1     186.096 186.694 197.892  1.00  0.00     0.039 C 
ENDROOT
BRANCH   2   4
ATOM      4  C   UNL     1     187.335 184.244 195.128  1.00  0.00     0.032 C 
BRANCH   4   5
ATOM      5  C   UNL     1     188.307 185.003 194.203  1.00  0.00     0.034 C 
BRANCH   5   6
ATOM      6  C   UNL     1     187.822 185.036 192.767  1.00  0.00    -0.077 C 
ATOM      7  C   UNL     1     187.817 183.747 191.984  1.00  0.00     0.039 C 
ATOM      8  C   UNL     1     187.419 186.161 192.136  1.00  0.00    -0.023 CG0
ATOM      9  G   UNL     1     187.386 187.546 192.736  1.00  0.00     0.000 G0
ENDBRANCH   5   6
ENDBRANCH   4   5
ENDBRANCH   2   4
BRANCH   1  10
ATOM     10  C   UNL     1     185.255 186.515 195.432  1.00  0.00     0.111 C 
BRANCH  10  11
ATOM     11  C   UNL     1     185.836 187.744 194.777  1.00  0.00     0.163 C 
ATOM     12  O   UNL     1     186.145 188.719 195.514  1.00  0.00    -0.294 OA
BRANCH  11  13
ATOM     13  C   UNL     1     186.002 187.847 193.294  1.00  0.00    -0.002 C 
ATOM     14  C   UNL     1     184.978 188.250 192.482  1.00  0.00    -0.069 C 
ATOM     15  C   UNL     1     185.143 188.317 190.979  1.00  0.00     0.039 C 
ATOM     16  C   UNL     1     183.644 188.685 193.046  1.00  0.00     0.039 C 
BRANCH  13  17
ATOM     17  C   UNL     1     187.382 187.558 192.731  1.00  0.00     0.066 CG0
ATOM     18  G   UNL     1     187.405 186.181 192.112  1.00  0.00     0.000 G0
ENDBRANCH  13  17
ENDBRANCH  11  13
ENDBRANCH  10  11
ENDBRANCH   1  10
TORSDOF 0
ENDMDL
MODEL 4
REMARK VINA RESULT:    -3.145      7.959      9.839
REMARK INTER + INTRA:          -3.776
REMARK INTER:                  -4.171
REMARK INTRA:                   0.396
REMARK UNBOUND:                 0.656
REMARK SMILES CC1=CCC(=C(C)C)C(=O)CC(C)=CCC1
REMARK SMILES IDX 12 1 14 2 13 3 15 4 16 5 2 6 1 7 3 8 11 10 9 11 10 12 5 13
REMARK SMILES IDX 6 14 7 15 8 16 4 17
REMARK H PARENT
REMARK Flexibility Score: 60.00
ROOT
ATOM      1  C   UNL     1     186.456 187.028 196.580  1.00  0.00    -0.070 C 
ATOM      2  C   UNL     1     185.557 188.024 196.396  1.00  0.00    -0.027 C 
ATOM      3  C   UNL     1     186.515 186.389 197.946  1.00  0.00     0.039 C 
ENDROOT
BRANCH   2   4
ATOM      4  C   UNL     1     185.255 188.726 195.094  1.00  0.00     0.032 C 
BRANCH   4   5
ATOM      5  C   UNL     1     184.403 187.866 194.141  1.00  0.00     0.034 C 
BRANCH   5   6
ATOM      6  C   UNL     1     185.017 187.766 192.758  1.00  0.00    -0.077 C 
ATOM      7  C   UNL     1     185.142 189.024 191.937  1.00  0.00     0.039 C 
ATOM      8  C   UNL     1     185.437 186.605 192.205  1.00  0.00    -0.023 CG0
ATOM      9  G   UNL     1     185.364 185.243 192.852  1.00  0.00     0.000 G0
ENDBRANCH   5   6
ENDBRANCH   4   5
ENDBRANCH   2   4
BRANCH   1  10
ATOM     10  C   UNL     1     187.349 186.481 195.478  1.00  0.00     0.111 C 
BRANCH  10  11
ATOM     11  C   UNL     1     186.847 185.154 194.966  1.00  0.00     0.163 C 
ATOM     12  O   UNL     1     186.595 184.250 195.808  1.00  0.00    -0.294 OA
BRANCH  11  13
ATOM     13  C   UNL     1     186.694 184.875 193.504  1.00  0.00    -0.002 C 
ATOM     14  C   UNL     1     187.684 184.271 192.779  1.00  0.00    -0.069 C 
ATOM     15  C   UNL     1     187.536 184.027 191.293  1.00  0.00     0.039 C 
ATOM     16  C   UNL     1     188.958 183.783 193.432  1.00  0.00     0.039 C 
BRANCH  13  17
ATOM     17  C   UNL     1     185.360 185.225 192.870  1.00  0.00     0.066 CG0
ATOM     18  G   UNL     1     185.440 186.588 192.225  1.00  0.00     0.000 G0
ENDBRANCH  13  17
ENDBRANCH  11  13
ENDBRANCH  10  11
ENDBRANCH   1  10
TORSDOF 0
ENDMDL
MODEL 5
REMARK VINA RESULT:    -3.085      8.819     10.682
REMARK INTER + INTRA:          -3.692
REMARK INTER:                  -4.472
REMARK INTRA:                   0.780
REMARK UNBOUND:                 0.656
REMARK SMILES CC1=CCC(=C(C)C)C(=O)CC(C)=CCC1
REMARK SMILES IDX 12 1 14 2 13 3 15 4 16 5 2 6 1 7 3 8 11 10 9 11 10 12 5 13
REMARK SMILES IDX 6 14 7 15 8 16 4 17
REMARK H PARENT
REMARK Flexibility Score: 60.00
ROOT
ATOM      1  C   UNL     1     185.904 186.893 196.483  1.00  0.00    -0.070 C 
ATOM      2  C   UNL     1     185.716 188.191 196.148  1.00  0.00    -0.027 C 
ATOM      3  C   UNL     1     186.104 186.573 197.944  1.00  0.00     0.039 C 
ENDROOT
BRANCH   2   4
ATOM      4  C   UNL     1     185.394 188.722 194.772  1.00  0.00     0.032 C 
BRANCH   4   5
ATOM      5  C   UNL     1     186.646 189.209 194.017  1.00  0.00     0.034 C 
BRANCH   5   6
ATOM      6  C   UNL     1     186.986 188.318 192.838  1.00  0.00    -0.077 C 
ATOM      7  C   UNL     1     186.337 188.612 191.509  1.00  0.00     0.039 C 
ATOM      8  C   UNL     1     187.819 187.256 192.914  1.00  0.00    -0.023 CG0
ATOM      9  G   UNL     1     188.533 186.782 194.157  1.00  0.00     0.000 G0
ENDBRANCH   5   6
ENDBRANCH   4   5
ENDBRANCH   2   4
BRANCH   1  10
ATOM     10  C   UNL     1     185.857 185.748 195.484  1.00  0.00     0.111 C 
BRANCH  10  11
ATOM     11  C   UNL     1     187.168 185.001 195.436  1.00  0.00     0.163 C 
ATOM     12  O   UNL     1     187.382 184.121 196.313  1.00  0.00    -0.294 OA
BRANCH  11  13
ATOM     13  C   UNL     1     188.220 185.313 194.419  1.00  0.00    -0.002 C 
ATOM     14  C   UNL     1     188.832 184.331 193.692  1.00  0.00    -0.069 C 
ATOM     15  C   UNL     1     189.922 184.653 192.693  1.00  0.00     0.039 C 
ATOM     16  C   UNL     1     188.427 182.879 193.822  1.00  0.00     0.039 C 
BRANCH  13  17
ATOM     17  C   UNL     1     188.528 186.780 194.174  1.00  0.00     0.066 CG0
ATOM     18  G   UNL     1     187.828 187.248 192.921  1.00  0.00     0.000 G0
ENDBRANCH  13  17
ENDBRANCH  11  13
ENDBRANCH  10  11
ENDBRANCH   1  10
TORSDOF 0
ENDMDL
MODEL 6
REMARK VINA RESULT:    -3.044      6.503      8.591
REMARK INTER + INTRA:          -3.633
REMARK INTER:                  -4.047
REMARK INTRA:                   0.414
REMARK UNBOUND:                 0.656
REMARK SMILES CC1=CCC(=C(C)C)C(=O)CC(C)=CCC1
REMARK SMILES IDX 12 1 14 2 13 3 15 4 16 5 2 6 1 7 3 8 11 10 9 11 10 12 5 13
REMARK SMILES IDX 6 14 7 15 8 16 4 17
REMARK H PARENT
REMARK Flexibility Score: 60.00
ROOT
ATOM      1  C   UNL     1     185.029 189.722 194.756  1.00  0.00    -0.070 C 
ATOM      2  C   UNL     1     184.000 190.035 193.932  1.00  0.00    -0.027 C 
ATOM      3  C   UNL     1     185.991 190.826 195.117  1.00  0.00     0.039 C 
ENDROOT
BRANCH   2   4
ATOM      4  C   UNL     1     182.868 189.122 193.528  1.00  0.00     0.032 C 
BRANCH   4   5
ATOM      5  C   UNL     1     183.328 187.986 192.593  1.00  0.00     0.034 C 
BRANCH   5   6
ATOM      6  C   UNL     1     182.945 186.618 193.122  1.00  0.00    -0.077 C 
ATOM      7  C   UNL     1     181.498 186.360 193.457  1.00  0.00     0.039 C 
ATOM      8  C   UNL     1     183.833 185.621 193.337  1.00  0.00    -0.023 CG0
ATOM      9  G   UNL     1     185.321 185.698 193.098  1.00  0.00     0.000 G0
ENDBRANCH   5   6
ENDBRANCH   4   5
ENDBRANCH   2   4
BRANCH   1  10
ATOM     10  C   UNL     1     185.222 188.350 195.383  1.00  0.00     0.111 C 
BRANCH  10  11
ATOM     11  C   UNL     1     186.238 187.533 194.624  1.00  0.00     0.163 C 
ATOM     12  O   UNL     1     187.248 188.126 194.157  1.00  0.00    -0.294 OA
BRANCH  11  13
ATOM     13  C   UNL     1     186.049 186.070 194.373  1.00  0.00    -0.002 C 
ATOM     14  C   UNL     1     186.449 185.127 195.280  1.00  0.00    -0.069 C 
ATOM     15  C   UNL     1     186.289 183.649 195.001  1.00  0.00     0.039 C 
ATOM     16  C   UNL     1     187.037 185.514 196.618  1.00  0.00     0.039 C 
BRANCH  13  17
ATOM     17  C   UNL     1     185.324 185.676 193.099  1.00  0.00     0.066 CG0
ATOM     18  G   UNL     1     183.835 185.638 193.347  1.00  0.00     0.000 G0
ENDBRANCH  13  17
ENDBRANCH  11  13
ENDBRANCH  10  11
ENDBRANCH   1  10
TORSDOF 0
ENDMDL
MODEL 7
REMARK VINA RESULT:    -3.010      7.900     10.124
REMARK INTER + INTRA:          -3.585
REMARK INTER:                  -4.089
REMARK INTRA:                   0.504
REMARK UNBOUND:                 0.656
REMARK SMILES CC1=CCC(=C(C)C)C(=O)CC(C)=CCC1
REMARK SMILES IDX 12 1 14 2 13 3 15 4 16 5 2 6 1 7 3 8 11 10 9 11 10 12 5 13
REMARK SMILES IDX 6 14 7 15 8 16 4 17
REMARK H PARENT
REMARK Flexibility Score: 60.00
ROOT
ATOM      1  C   UNL     1     186.726 186.164 196.703  1.00  0.00    -0.070 C 
ATOM      2  C   UNL     1     186.767 184.815 196.585  1.00  0.00    -0.027 C 
ATOM      3  C   UNL     1     186.357 186.733 198.050  1.00  0.00     0.039 C 
ENDROOT
BRANCH   2   4
ATOM      4  C   UNL     1     187.211 184.037 195.370  1.00  0.00     0.032 C 
BRANCH   4   5
ATOM      5  C   UNL     1     186.043 183.693 194.427  1.00  0.00     0.034 C 
BRANCH   5   6
ATOM      6  C   UNL     1     186.231 184.283 193.043  1.00  0.00    -0.077 C 
ATOM      7  C   UNL     1     187.155 183.577 192.083  1.00  0.00     0.039 C 
ATOM      8  C   UNL     1     185.638 185.425 192.627  1.00  0.00    -0.023 CG0
ATOM      9  G   UNL     1     184.713 186.289 193.449  1.00  0.00     0.000 G0
ENDBRANCH   5   6
ENDBRANCH   4   5
ENDBRANCH   2   4
BRANCH   1  10
ATOM     10  C   UNL     1     187.097 187.121 195.582  1.00  0.00     0.111 C 
BRANCH  10  11
ATOM     11  C   UNL     1     185.891 187.875 195.077  1.00  0.00     0.163 C 
ATOM     12  O   UNL     1     185.330 188.689 195.858  1.00  0.00    -0.294 OA
BRANCH  11  13
ATOM     13  C   UNL     1     185.327 187.643 193.710  1.00  0.00    -0.002 C 
ATOM     14  C   UNL     1     185.440 188.576 192.717  1.00  0.00    -0.069 C 
ATOM     15  C   UNL     1     184.834 188.347 191.349  1.00  0.00     0.039 C 
ATOM     16  C   UNL     1     186.205 189.864 192.923  1.00  0.00     0.039 C 
BRANCH  13  17
ATOM     17  C   UNL     1     184.688 186.291 193.449  1.00  0.00     0.066 CG0
ATOM     18  G   UNL     1     185.620 185.432 192.628  1.00  0.00     0.000 G0
ENDBRANCH  13  17
ENDBRANCH  11  13
ENDBRANCH  10  11
ENDBRANCH   1  10
TORSDOF 0
ENDMDL
MODEL 8
REMARK VINA RESULT:    -2.982     16.299     17.282
REMARK INTER + INTRA:          -3.547
REMARK INTER:                  -4.190
REMARK INTRA:                   0.643
REMARK UNBOUND:                 0.656
REMARK SMILES CC1=CCC(=C(C)C)C(=O)CC(C)=CCC1
REMARK SMILES IDX 12 1 14 2 13 3 15 4 16 5 2 6 1 7 3 8 11 10 9 11 10 12 5 13
REMARK SMILES IDX 6 14 7 15 8 16 4 17
REMARK H PARENT
REMARK Flexibility Score: 60.00
ROOT
ATOM      1  C   UNL     1     187.902 178.253 199.354  1.00  0.00    -0.070 C 
ATOM      2  C   UNL     1     187.208 177.525 200.261  1.00  0.00    -0.027 C 
ATOM      3  C   UNL     1     188.727 179.406 199.871  1.00  0.00     0.039 C 
ENDROOT
BRANCH   2   4
ATOM      4  C   UNL     1     186.409 176.276 199.983  1.00  0.00     0.032 C 
BRANCH   4   5
ATOM      5  C   UNL     1     184.903 176.465 200.246  1.00  0.00     0.034 C 
BRANCH   5   6
ATOM      6  C   UNL     1     184.392 177.793 199.720  1.00  0.00    -0.077 C 
ATOM      7  C   UNL     1     183.915 178.820 200.715  1.00  0.00     0.039 C 
ATOM      8  C   UNL     1     184.314 178.100 198.406  1.00  0.00    -0.023 CG0
ATOM      9  G   UNL     1     184.708 177.195 197.263  1.00  0.00     0.000 G0
ENDBRANCH   5   6
ENDBRANCH   4   5
ENDBRANCH   2   4
BRANCH   1  10
ATOM     10  C   UNL     1     187.947 177.931 197.869  1.00  0.00     0.111 C 
BRANCH  10  11
ATOM     11  C   UNL     1     186.841 178.630 197.117  1.00  0.00     0.163 C 
ATOM     12  O   UNL     1     186.812 179.890 197.140  1.00  0.00    -0.294 OA
BRANCH  11  13
ATOM     13  C   UNL     1     185.768 177.871 196.401  1.00  0.00    -0.002 C 
ATOM     14  C   UNL     1     185.770 177.734 195.040  1.00  0.00    -0.069 C 
ATOM     15  C   UNL     1     184.661 176.998 194.321  1.00  0.00     0.039 C 
ATOM     16  C   UNL     1     186.896 178.279 194.190  1.00  0.00     0.039 C 
BRANCH  13  17
ATOM     17  C   UNL     1     184.714 177.193 197.257  1.00  0.00     0.066 CG0
ATOM     18  G   UNL     1     184.323 178.097 198.401  1.00  0.00     0.000 G0
ENDBRANCH  13  17
ENDBRANCH  11  13
ENDBRANCH  10  11
ENDBRANCH   1  10
TORSDOF 0
ENDMDL
MODEL 9
REMARK VINA RESULT:    -2.880     16.069     17.358
REMARK INTER + INTRA:          -3.403
REMARK INTER:                  -3.994
REMARK INTRA:                   0.591
REMARK UNBOUND:                 0.656
REMARK SMILES CC1=CCC(=C(C)C)C(=O)CC(C)=CCC1
REMARK SMILES IDX 12 1 14 2 13 3 15 4 16 5 2 6 1 7 3 8 11 10 9 11 10 12 5 13
REMARK SMILES IDX 6 14 7 15 8 16 4 17
REMARK H PARENT
REMARK Flexibility Score: 60.00
ROOT
ATOM      1  C   UNL     1     186.648 179.044 199.075  1.00  0.00    -0.070 C 
ATOM      2  C   UNL     1     187.519 179.557 198.174  1.00  0.00    -0.027 C 
ATOM      3  C   UNL     1     187.155 178.806 200.476  1.00  0.00     0.039 C 
ENDROOT
BRANCH   2   4
ATOM      4  C   UNL     1     187.202 179.970 196.758  1.00  0.00     0.032 C 
BRANCH   4   5
ATOM      5  C   UNL     1     188.002 179.169 195.713  1.00  0.00     0.034 C 
BRANCH   5   6
ATOM      6  C   UNL     1     187.966 177.678 195.985  1.00  0.00    -0.077 C 
ATOM      7  C   UNL     1     189.271 176.963 196.229  1.00  0.00     0.039 C 
ATOM      8  C   UNL     1     186.831 176.944 195.995  1.00  0.00    -0.023 CG0
ATOM      9  G   UNL     1     185.438 177.468 195.738  1.00  0.00     0.000 G0
ENDBRANCH   5   6
ENDBRANCH   4   5
ENDBRANCH   2   4
BRANCH   1  10
ATOM     10  C   UNL     1     185.185 178.765 198.770  1.00  0.00     0.111 C 
BRANCH  10  11
ATOM     11  C   UNL     1     184.983 177.357 198.267  1.00  0.00     0.163 C 
ATOM     12  O   UNL     1     185.269 176.404 199.040  1.00  0.00    -0.294 OA
BRANCH  11  13
ATOM     13  C   UNL     1     184.508 177.074 196.877  1.00  0.00    -0.002 C 
ATOM     14  C   UNL     1     183.270 176.546 196.633  1.00  0.00    -0.069 C 
ATOM     15  C   UNL     1     182.812 176.228 195.226  1.00  0.00     0.039 C 
ATOM     16  C   UNL     1     182.284 176.289 197.750  1.00  0.00     0.039 C 
BRANCH  13  17
ATOM     17  C   UNL     1     185.432 177.467 195.738  1.00  0.00     0.066 CG0
ATOM     18  G   UNL     1     186.822 176.943 196.001  1.00  0.00     0.000 G0
ENDBRANCH  13  17
ENDBRANCH  11  13
ENDBRANCH  10  11
ENDBRANCH   1  10
TORSDOF 0
ENDMDL
