MODEL 1
REMARK VINA RESULT:    -4.364      0.000      0.000
REMARK INTER + INTRA:          -9.769
REMARK INTER:                  -7.936
REMARK INTRA:                  -1.833
REMARK UNBOUND:                -1.833
REMARK SMILES CCCCCC=CCC=CCCCCCCCC(=O)[O-]
REMARK SMILES IDX 11 1 12 2 13 3 14 4 15 5 16 6 17 7 18 8 19 9 20 10 10 11
REMARK SMILES IDX 9 12 8 13 7 14 6 15 5 16 4 17 3 18 2 19 1 20
REMARK H PARENT
REMARK Flexibility Score: inf
ROOT
ATOM      1  C   UNL     1       0.154 -15.408  -8.349  1.00  0.00     0.027 C 
ENDROOT
BRANCH   1   2
ATOM      2  C   UNL     1       0.505 -15.085  -6.889  1.00  0.00     0.004 C 
BRANCH   2   3
ATOM      3  C   UNL     1      -0.571 -14.236  -6.188  1.00  0.00     0.000 C 
BRANCH   3   4
ATOM      4  C   UNL     1      -2.025 -14.630  -6.515  1.00  0.00     0.000 C 
BRANCH   4   5
ATOM      5  C   UNL     1      -2.494 -15.968  -5.911  1.00  0.00     0.000 C 
BRANCH   5   6
ATOM      6  C   UNL     1      -3.247 -16.891  -6.885  1.00  0.00     0.006 C 
BRANCH   6   7
ATOM      7  C   UNL     1      -3.536 -16.226  -8.235  1.00  0.00     0.053 C 
BRANCH   7   8
ATOM      8  C   UNL     1      -4.057 -17.232  -9.211  1.00  0.00     0.041 C 
ATOM      9  O   UNL     1      -4.462 -16.865 -10.346  1.00  0.00    -0.550 OA
ATOM     10  O   UNL     1      -4.149 -18.570  -8.849  1.00  0.00    -0.550 OA
ENDBRANCH   7   8
ENDBRANCH   6   7
ENDBRANCH   5   6
ENDBRANCH   4   5
ENDBRANCH   3   4
ENDBRANCH   2   3
ENDBRANCH   1   2
BRANCH   1  11
ATOM     11  C   UNL     1      -0.005 -16.890  -8.550  1.00  0.00    -0.031 C 
ATOM     12  C   UNL     1       0.740 -17.775  -7.870  1.00  0.00    -0.027 C 
BRANCH  12  13
ATOM     13  C   UNL     1       0.586 -19.254  -8.079  1.00  0.00     0.054 C 
BRANCH  13  14
ATOM     14  C   UNL     1      -0.768 -19.561  -8.668  1.00  0.00    -0.027 C 
ATOM     15  C   UNL     1      -1.183 -20.779  -9.066  1.00  0.00    -0.031 C 
BRANCH  15  16
ATOM     16  C   UNL     1      -0.373 -22.045  -8.950  1.00  0.00     0.027 C 
BRANCH  16  17
ATOM     17  C   UNL     1       0.157 -22.490 -10.319  1.00  0.00     0.004 C 
BRANCH  17  18
ATOM     18  C   UNL     1      -0.873 -23.360 -11.049  1.00  0.00     0.000 C 
BRANCH  18  19
ATOM     19  C   UNL     1      -1.371 -22.673 -12.325  1.00  0.00    -0.003 C 
ATOM     20  C   UNL     1      -2.310 -23.584 -13.110  1.00  0.00     0.004 C 
ENDBRANCH  18  19
ENDBRANCH  17  18
ENDBRANCH  16  17
ENDBRANCH  15  16
ENDBRANCH  13  14
ENDBRANCH  12  13
ENDBRANCH   1  11
TORSDOF 14
ENDMDL
MODEL 2
REMARK VINA RESULT:    -4.147      1.590      3.024
REMARK INTER + INTRA:          -9.373
REMARK INTER:                  -6.713
REMARK INTRA:                  -2.661
REMARK UNBOUND:                -1.833
REMARK SMILES CCCCCC=CCC=CCCCCCCCC(=O)[O-]
REMARK SMILES IDX 11 1 12 2 13 3 14 4 15 5 16 6 17 7 18 8 19 9 20 10 10 11
REMARK SMILES IDX 9 12 8 13 7 14 6 15 5 16 4 17 3 18 2 19 1 20
REMARK H PARENT
REMARK Flexibility Score: inf
ROOT
ATOM      1  C   UNL     1       0.162 -17.091  -8.511  1.00  0.00     0.027 C 
ENDROOT
BRANCH   1   2
ATOM      2  C   UNL     1       0.569 -16.995  -7.033  1.00  0.00     0.004 C 
BRANCH   2   3
ATOM      3  C   UNL     1       0.882 -15.554  -6.591  1.00  0.00     0.000 C 
BRANCH   3   4
ATOM      4  C   UNL     1      -0.170 -14.916  -5.664  1.00  0.00     0.000 C 
BRANCH   4   5
ATOM      5  C   UNL     1      -1.263 -15.875  -5.152  1.00  0.00     0.000 C 
BRANCH   5   6
ATOM      6  C   UNL     1      -2.700 -15.488  -5.540  1.00  0.00     0.006 C 
BRANCH   6   7
ATOM      7  C   UNL     1      -3.310 -16.428  -6.586  1.00  0.00     0.053 C 
BRANCH   7   8
ATOM      8  C   UNL     1      -3.219 -15.819  -7.949  1.00  0.00     0.041 C 
ATOM      9  O   UNL     1      -3.645 -16.446  -8.954  1.00  0.00    -0.550 OA
ATOM     10  O   UNL     1      -2.614 -14.580  -8.118  1.00  0.00    -0.550 OA
ENDBRANCH   7   8
ENDBRANCH   6   7
ENDBRANCH   5   6
ENDBRANCH   4   5
ENDBRANCH   3   4
ENDBRANCH   2   3
ENDBRANCH   1   2
BRANCH   1  11
ATOM     11  C   UNL     1      -0.717 -18.288  -8.751  1.00  0.00    -0.031 C 
ATOM     12  C   UNL     1      -1.135 -19.066  -7.740  1.00  0.00    -0.027 C 
BRANCH  12  13
ATOM     13  C   UNL     1      -2.005 -20.265  -7.983  1.00  0.00     0.054 C 
BRANCH  13  14
ATOM     14  C   UNL     1      -2.202 -20.479  -9.463  1.00  0.00    -0.027 C 
ATOM     15  C   UNL     1      -1.601 -21.436 -10.195  1.00  0.00    -0.031 C 
BRANCH  15  16
ATOM     16  C   UNL     1      -0.662 -22.479  -9.646  1.00  0.00     0.027 C 
BRANCH  16  17
ATOM     17  C   UNL     1       0.782 -21.960  -9.613  1.00  0.00     0.004 C 
BRANCH  17  18
ATOM     18  C   UNL     1       1.568 -22.599  -8.463  1.00  0.00     0.000 C 
BRANCH  18  19
ATOM     19  C   UNL     1       1.625 -21.666  -7.249  1.00  0.00    -0.003 C 
ATOM     20  C   UNL     1       2.240 -20.318  -7.619  1.00  0.00     0.004 C 
ENDBRANCH  18  19
ENDBRANCH  17  18
ENDBRANCH  16  17
ENDBRANCH  15  16
ENDBRANCH  13  14
ENDBRANCH  12  13
ENDBRANCH   1  11
TORSDOF 14
ENDMDL
MODEL 3
REMARK VINA RESULT:    -4.144      2.027      3.978
REMARK INTER + INTRA:          -9.367
REMARK INTER:                  -6.885
REMARK INTRA:                  -2.482
REMARK UNBOUND:                -1.833
REMARK SMILES CCCCCC=CCC=CCCCCCCCC(=O)[O-]
REMARK SMILES IDX 11 1 12 2 13 3 14 4 15 5 16 6 17 7 18 8 19 9 20 10 10 11
REMARK SMILES IDX 9 12 8 13 7 14 6 15 5 16 4 17 3 18 2 19 1 20
REMARK H PARENT
REMARK Flexibility Score: inf
ROOT
ATOM      1  C   UNL     1      -1.244 -17.671  -8.878  1.00  0.00     0.027 C 
ENDROOT
BRANCH   1   2
ATOM      2  C   UNL     1       0.162 -17.085  -8.684  1.00  0.00     0.004 C 
BRANCH   2   3
ATOM      3  C   UNL     1       1.013 -17.889  -7.683  1.00  0.00     0.000 C 
BRANCH   3   4
ATOM      4  C   UNL     1       1.050 -17.314  -6.254  1.00  0.00     0.000 C 
BRANCH   4   5
ATOM      5  C   UNL     1       1.165 -15.779  -6.166  1.00  0.00     0.000 C 
BRANCH   5   6
ATOM      6  C   UNL     1      -0.047 -15.072  -5.535  1.00  0.00     0.006 C 
BRANCH   6   7
ATOM      7  C   UNL     1      -0.768 -14.137  -6.514  1.00  0.00     0.053 C 
BRANCH   7   8
ATOM      8  C   UNL     1      -2.085 -14.720  -6.916  1.00  0.00     0.041 C 
ATOM      9  O   UNL     1      -2.543 -14.514  -8.071  1.00  0.00    -0.550 OA
ATOM     10  O   UNL     1      -2.834 -15.445  -5.999  1.00  0.00    -0.550 OA
ENDBRANCH   7   8
ENDBRANCH   6   7
ENDBRANCH   5   6
ENDBRANCH   4   5
ENDBRANCH   3   4
ENDBRANCH   2   3
ENDBRANCH   1   2
BRANCH   1  11
ATOM     11  C   UNL     1      -1.216 -19.173  -8.810  1.00  0.00    -0.031 C 
ATOM     12  C   UNL     1      -2.103 -19.923  -9.484  1.00  0.00    -0.027 C 
BRANCH  12  13
ATOM     13  C   UNL     1      -2.080 -21.422  -9.409  1.00  0.00     0.054 C 
BRANCH  13  14
ATOM     14  C   UNL     1      -1.384 -21.996 -10.618  1.00  0.00    -0.027 C 
ATOM     15  C   UNL     1      -0.234 -22.696 -10.591  1.00  0.00    -0.031 C 
BRANCH  15  16
ATOM     16  C   UNL     1       0.527 -23.055  -9.341  1.00  0.00     0.027 C 
BRANCH  16  17
ATOM     17  C   UNL     1       1.666 -22.059  -9.081  1.00  0.00     0.004 C 
BRANCH  17  18
ATOM     18  C   UNL     1       1.577 -21.484  -7.664  1.00  0.00     0.000 C 
BRANCH  18  19
ATOM     19  C   UNL     1       0.549 -22.249  -6.822  1.00  0.00    -0.003 C 
ATOM     20  C   UNL     1      -0.307 -21.292  -5.997  1.00  0.00     0.004 C 
ENDBRANCH  18  19
ENDBRANCH  17  18
ENDBRANCH  16  17
ENDBRANCH  15  16
ENDBRANCH  13  14
ENDBRANCH  12  13
ENDBRANCH   1  11
TORSDOF 14
ENDMDL
MODEL 4
REMARK VINA RESULT:    -4.129      2.430      4.135
REMARK INTER + INTRA:          -9.342
REMARK INTER:                  -6.817
REMARK INTRA:                  -2.524
REMARK UNBOUND:                -1.833
REMARK SMILES CCCCCC=CCC=CCCCCCCCC(=O)[O-]
REMARK SMILES IDX 11 1 12 2 13 3 14 4 15 5 16 6 17 7 18 8 19 9 20 10 10 11
REMARK SMILES IDX 9 12 8 13 7 14 6 15 5 16 4 17 3 18 2 19 1 20
REMARK H PARENT
REMARK Flexibility Score: inf
ROOT
ATOM      1  C   UNL     1      -2.731 -15.738  -5.782  1.00  0.00     0.027 C 
ENDROOT
BRANCH   1   2
ATOM      2  C   UNL     1      -2.065 -14.568  -6.521  1.00  0.00     0.004 C 
BRANCH   2   3
ATOM      3  C   UNL     1      -0.635 -14.284  -6.026  1.00  0.00     0.000 C 
BRANCH   3   4
ATOM      4  C   UNL     1       0.481 -14.975  -6.834  1.00  0.00     0.000 C 
BRANCH   4   5
ATOM      5  C   UNL     1       0.082 -15.424  -8.253  1.00  0.00     0.000 C 
BRANCH   5   6
ATOM      6  C   UNL     1       0.160 -16.941  -8.500  1.00  0.00     0.006 C 
BRANCH   6   7
ATOM      7  C   UNL     1       0.232 -17.754  -7.202  1.00  0.00     0.053 C 
BRANCH   7   8
ATOM      8  C   UNL     1       1.584 -18.374  -7.050  1.00  0.00     0.041 C 
ATOM      9  O   UNL     1       2.410 -17.902  -6.225  1.00  0.00    -0.550 OA
ATOM     10  O   UNL     1       1.955 -19.441  -7.859  1.00  0.00    -0.550 OA
ENDBRANCH   7   8
ENDBRANCH   6   7
ENDBRANCH   5   6
ENDBRANCH   4   5
ENDBRANCH   3   4
ENDBRANCH   2   3
ENDBRANCH   1   2
BRANCH   1  11
ATOM     11  C   UNL     1      -3.348 -16.708  -6.753  1.00  0.00    -0.031 C 
ATOM     12  C   UNL     1      -3.616 -16.357  -8.021  1.00  0.00    -0.027 C 
BRANCH  12  13
ATOM     13  C   UNL     1      -4.240 -17.323  -8.986  1.00  0.00     0.054 C 
BRANCH  13  14
ATOM     14  C   UNL     1      -3.213 -17.810  -9.978  1.00  0.00    -0.027 C 
ATOM     15  C   UNL     1      -2.431 -18.894  -9.816  1.00  0.00    -0.031 C 
BRANCH  15  16
ATOM     16  C   UNL     1      -2.482 -19.825  -8.632  1.00  0.00     0.027 C 
BRANCH  16  17
ATOM     17  C   UNL     1      -1.562 -21.035  -8.840  1.00  0.00     0.004 C 
BRANCH  17  18
ATOM     18  C   UNL     1      -1.729 -21.614 -10.250  1.00  0.00     0.000 C 
BRANCH  18  19
ATOM     19  C   UNL     1      -0.438 -22.288 -10.726  1.00  0.00    -0.003 C 
ATOM     20  C   UNL     1       0.655 -22.195  -9.665  1.00  0.00     0.004 C 
ENDBRANCH  18  19
ENDBRANCH  17  18
ENDBRANCH  16  17
ENDBRANCH  15  16
ENDBRANCH  13  14
ENDBRANCH  12  13
ENDBRANCH   1  11
TORSDOF 14
ENDMDL
MODEL 5
REMARK VINA RESULT:    -4.097      3.928      5.516
REMARK INTER + INTRA:          -9.284
REMARK INTER:                  -6.102
REMARK INTRA:                  -3.182
REMARK UNBOUND:                -1.833
REMARK SMILES CCCCCC=CCC=CCCCCCCCC(=O)[O-]
REMARK SMILES IDX 11 1 12 2 13 3 14 4 15 5 16 6 17 7 18 8 19 9 20 10 10 11
REMARK SMILES IDX 9 12 8 13 7 14 6 15 5 16 4 17 3 18 2 19 1 20
REMARK H PARENT
REMARK Flexibility Score: inf
ROOT
ATOM      1  C   UNL     1       1.466 -18.574  -7.742  1.00  0.00     0.027 C 
ENDROOT
BRANCH   1   2
ATOM      2  C   UNL     1       1.668 -18.185  -6.270  1.00  0.00     0.004 C 
BRANCH   2   3
ATOM      3  C   UNL     1       1.951 -16.684  -6.080  1.00  0.00     0.000 C 
BRANCH   3   4
ATOM      4  C   UNL     1       0.717 -15.829  -5.733  1.00  0.00     0.000 C 
BRANCH   4   5
ATOM      5  C   UNL     1       0.307 -14.802  -6.808  1.00  0.00     0.000 C 
BRANCH   5   6
ATOM      6  C   UNL     1      -1.007 -14.054  -6.523  1.00  0.00     0.006 C 
BRANCH   6   7
ATOM      7  C   UNL     1      -1.315 -13.939  -5.026  1.00  0.00     0.053 C 
BRANCH   7   8
ATOM      8  C   UNL     1      -1.082 -12.540  -4.551  1.00  0.00     0.041 C 
ATOM      9  O   UNL     1       0.089 -12.081  -4.482  1.00  0.00    -0.550 OA
ATOM     10  O   UNL     1      -2.152 -11.760  -4.132  1.00  0.00    -0.550 OA
ENDBRANCH   7   8
ENDBRANCH   6   7
ENDBRANCH   5   6
ENDBRANCH   4   5
ENDBRANCH   3   4
ENDBRANCH   2   3
ENDBRANCH   1   2
BRANCH   1  11
ATOM     11  C   UNL     1       0.004 -18.699  -8.071  1.00  0.00    -0.031 C 
ATOM     12  C   UNL     1      -0.651 -17.733  -8.735  1.00  0.00    -0.027 C 
BRANCH  12  13
ATOM     13  C   UNL     1      -2.113 -17.856  -9.055  1.00  0.00     0.054 C 
BRANCH  13  14
ATOM     14  C   UNL     1      -2.848 -16.607  -8.635  1.00  0.00    -0.027 C 
ATOM     15  C   UNL     1      -3.539 -16.464  -7.488  1.00  0.00    -0.031 C 
BRANCH  15  16
ATOM     16  C   UNL     1      -3.659 -17.516  -6.416  1.00  0.00     0.027 C 
BRANCH  16  17
ATOM     17  C   UNL     1      -2.484 -17.438  -5.432  1.00  0.00     0.004 C 
BRANCH  17  18
ATOM     18  C   UNL     1      -2.047 -18.839  -4.989  1.00  0.00     0.000 C 
BRANCH  18  19
ATOM     19  C   UNL     1      -2.841 -19.923  -5.727  1.00  0.00    -0.003 C 
ATOM     20  C   UNL     1      -1.927 -21.051  -6.196  1.00  0.00     0.004 C 
ENDBRANCH  18  19
ENDBRANCH  17  18
ENDBRANCH  16  17
ENDBRANCH  15  16
ENDBRANCH  13  14
ENDBRANCH  12  13
ENDBRANCH   1  11
TORSDOF 14
ENDMDL
MODEL 6
REMARK VINA RESULT:    -4.088     12.071     13.866
REMARK INTER + INTRA:          -9.267
REMARK INTER:                  -6.664
REMARK INTRA:                  -2.603
REMARK UNBOUND:                -1.833
REMARK SMILES CCCCCC=CCC=CCCCCCCCC(=O)[O-]
REMARK SMILES IDX 11 1 12 2 13 3 14 4 15 5 16 6 17 7 18 8 19 9 20 10 10 11
REMARK SMILES IDX 9 12 8 13 7 14 6 15 5 16 4 17 3 18 2 19 1 20
REMARK H PARENT
REMARK Flexibility Score: inf
ROOT
ATOM      1  C   UNL     1      13.981 -16.372  -7.078  1.00  0.00     0.027 C 
ENDROOT
BRANCH   1   2
ATOM      2  C   UNL     1      14.114 -14.878  -7.408  1.00  0.00     0.004 C 
BRANCH   2   3
ATOM      3  C   UNL     1      13.990 -13.977  -6.166  1.00  0.00     0.000 C 
BRANCH   3   4
ATOM      4  C   UNL     1      13.631 -14.714  -4.862  1.00  0.00     0.000 C 
BRANCH   4   5
ATOM      5  C   UNL     1      12.338 -14.236  -4.171  1.00  0.00     0.000 C 
BRANCH   5   6
ATOM      6  C   UNL     1      11.080 -15.053  -4.511  1.00  0.00     0.006 C 
BRANCH   6   7
ATOM      7  C   UNL     1      10.785 -16.150  -3.481  1.00  0.00     0.053 C 
BRANCH   7   8
ATOM      8  C   UNL     1       9.431 -16.739  -3.721  1.00  0.00     0.041 C 
ATOM      9  O   UNL     1       9.085 -17.796  -3.130  1.00  0.00    -0.550 OA
ATOM     10  O   UNL     1       8.570 -16.152  -4.640  1.00  0.00    -0.550 OA
ENDBRANCH   7   8
ENDBRANCH   6   7
ENDBRANCH   5   6
ENDBRANCH   4   5
ENDBRANCH   3   4
ENDBRANCH   2   3
ENDBRANCH   1   2
BRANCH   1  11
ATOM     11  C   UNL     1      12.589 -16.865  -7.361  1.00  0.00    -0.031 C 
ATOM     12  C   UNL     1      12.022 -17.831  -6.620  1.00  0.00    -0.027 C 
BRANCH  12  13
ATOM     13  C   UNL     1      10.635 -18.328  -6.909  1.00  0.00     0.054 C 
BRANCH  13  14
ATOM     14  C   UNL     1      10.692 -19.677  -7.581  1.00  0.00    -0.027 C 
ATOM     15  C   UNL     1      10.539 -19.892  -8.902  1.00  0.00    -0.031 C 
BRANCH  15  16
ATOM     16  C   UNL     1      10.326 -18.813  -9.932  1.00  0.00     0.027 C 
BRANCH  16  17
ATOM     17  C   UNL     1      11.663 -18.230 -10.407  1.00  0.00     0.004 C 
BRANCH  17  18
ATOM     18  C   UNL     1      12.684 -19.343 -10.666  1.00  0.00     0.000 C 
BRANCH  18  19
ATOM     19  C   UNL     1      14.042 -19.003 -10.041  1.00  0.00    -0.003 C 
ATOM     20  C   UNL     1      14.305 -19.852  -8.801  1.00  0.00     0.004 C 
ENDBRANCH  18  19
ENDBRANCH  17  18
ENDBRANCH  16  17
ENDBRANCH  15  16
ENDBRANCH  13  14
ENDBRANCH  12  13
ENDBRANCH   1  11
TORSDOF 14
ENDMDL
MODEL 7
REMARK VINA RESULT:    -4.035     12.414     15.173
REMARK INTER + INTRA:          -9.170
REMARK INTER:                  -6.229
REMARK INTRA:                  -2.941
REMARK UNBOUND:                -1.833
REMARK SMILES CCCCCC=CCC=CCCCCCCCC(=O)[O-]
REMARK SMILES IDX 11 1 12 2 13 3 14 4 15 5 16 6 17 7 18 8 19 9 20 10 10 11
REMARK SMILES IDX 9 12 8 13 7 14 6 15 5 16 4 17 3 18 2 19 1 20
REMARK H PARENT
REMARK Flexibility Score: inf
ROOT
ATOM      1  C   UNL     1      13.923 -17.715  -8.167  1.00  0.00     0.027 C 
ENDROOT
BRANCH   1   2
ATOM      2  C   UNL     1      13.209 -16.955  -9.294  1.00  0.00     0.004 C 
BRANCH   2   3
ATOM      3  C   UNL     1      13.175 -17.741 -10.618  1.00  0.00     0.000 C 
BRANCH   3   4
ATOM      4  C   UNL     1      12.092 -18.835 -10.697  1.00  0.00     0.000 C 
BRANCH   4   5
ATOM      5  C   UNL     1      10.746 -18.475 -10.038  1.00  0.00     0.000 C 
BRANCH   5   6
ATOM      6  C   UNL     1       9.988 -19.662  -9.418  1.00  0.00     0.006 C 
BRANCH   6   7
ATOM      7  C   UNL     1      10.878 -20.892  -9.204  1.00  0.00     0.053 C 
BRANCH   7   8
ATOM      8  C   UNL     1      11.252 -21.019  -7.762  1.00  0.00     0.041 C 
ATOM      9  O   UNL     1      10.393 -20.817  -6.863  1.00  0.00    -0.550 OA
ATOM     10  O   UNL     1      12.564 -21.307  -7.406  1.00  0.00    -0.550 OA
ENDBRANCH   7   8
ENDBRANCH   6   7
ENDBRANCH   5   6
ENDBRANCH   4   5
ENDBRANCH   3   4
ENDBRANCH   2   3
ENDBRANCH   1   2
BRANCH   1  11
ATOM     11  C   UNL     1      13.028 -17.868  -6.968  1.00  0.00    -0.031 C 
ATOM     12  C   UNL     1      11.799 -17.330  -6.936  1.00  0.00    -0.027 C 
BRANCH  12  13
ATOM     13  C   UNL     1      10.910 -17.476  -5.735  1.00  0.00     0.054 C 
BRANCH  13  14
ATOM     14  C   UNL     1      11.723 -17.384  -4.468  1.00  0.00    -0.027 C 
ATOM     15  C   UNL     1      12.015 -16.243  -3.815  1.00  0.00    -0.031 C 
BRANCH  15  16
ATOM     16  C   UNL     1      11.542 -14.871  -4.223  1.00  0.00     0.027 C 
BRANCH  16  17
ATOM     17  C   UNL     1      12.597 -14.154  -5.077  1.00  0.00     0.004 C 
BRANCH  17  18
ATOM     18  C   UNL     1      13.996 -14.716  -4.804  1.00  0.00     0.000 C 
BRANCH  18  19
ATOM     19  C   UNL     1      14.864 -14.670  -6.067  1.00  0.00    -0.003 C 
ATOM     20  C   UNL     1      14.108 -14.037  -7.232  1.00  0.00     0.004 C 
ENDBRANCH  18  19
ENDBRANCH  17  18
ENDBRANCH  16  17
ENDBRANCH  15  16
ENDBRANCH  13  14
ENDBRANCH  12  13
ENDBRANCH   1  11
TORSDOF 14
ENDMDL
MODEL 8
REMARK VINA RESULT:    -4.028      2.572      3.856
REMARK INTER + INTRA:          -9.158
REMARK INTER:                  -6.287
REMARK INTRA:                  -2.870
REMARK UNBOUND:                -1.833
REMARK SMILES CCCCCC=CCC=CCCCCCCCC(=O)[O-]
REMARK SMILES IDX 11 1 12 2 13 3 14 4 15 5 16 6 17 7 18 8 19 9 20 10 10 11
REMARK SMILES IDX 9 12 8 13 7 14 6 15 5 16 4 17 3 18 2 19 1 20
REMARK H PARENT
REMARK Flexibility Score: inf
ROOT
ATOM      1  C   UNL     1      -2.128 -18.433  -9.751  1.00  0.00     0.027 C 
ENDROOT
BRANCH   1   2
ATOM      2  C   UNL     1      -3.380 -18.344  -8.866  1.00  0.00     0.004 C 
BRANCH   2   3
ATOM      3  C   UNL     1      -3.984 -16.928  -8.825  1.00  0.00     0.000 C 
BRANCH   3   4
ATOM      4  C   UNL     1      -4.035 -16.284  -7.426  1.00  0.00     0.000 C 
BRANCH   4   5
ATOM      5  C   UNL     1      -2.675 -15.818  -6.868  1.00  0.00     0.000 C 
BRANCH   5   6
ATOM      6  C   UNL     1      -1.888 -14.867  -7.787  1.00  0.00     0.006 C 
BRANCH   6   7
ATOM      7  C   UNL     1      -0.369 -15.020  -7.642  1.00  0.00     0.053 C 
BRANCH   7   8
ATOM      8  C   UNL     1       0.050 -14.748  -6.233  1.00  0.00     0.041 C 
ATOM      9  O   UNL     1       0.714 -15.604  -5.592  1.00  0.00    -0.550 OA
ATOM     10  O   UNL     1      -0.340 -13.571  -5.606  1.00  0.00    -0.550 OA
ENDBRANCH   7   8
ENDBRANCH   6   7
ENDBRANCH   5   6
ENDBRANCH   4   5
ENDBRANCH   3   4
ENDBRANCH   2   3
ENDBRANCH   1   2
BRANCH   1  11
ATOM     11  C   UNL     1      -0.881 -18.513  -8.914  1.00  0.00    -0.031 C 
ATOM     12  C   UNL     1      -0.929 -18.825  -7.610  1.00  0.00    -0.027 C 
BRANCH  12  13
ATOM     13  C   UNL     1       0.316 -18.896  -6.774  1.00  0.00     0.054 C 
BRANCH  13  14
ATOM     14  C   UNL     1       1.514 -19.189  -7.642  1.00  0.00    -0.027 C 
ATOM     15  C   UNL     1       2.059 -20.406  -7.828  1.00  0.00    -0.031 C 
BRANCH  15  16
ATOM     16  C   UNL     1       1.534 -21.685  -7.228  1.00  0.00     0.027 C 
BRANCH  16  17
ATOM     17  C   UNL     1       0.434 -22.297  -8.106  1.00  0.00     0.004 C 
BRANCH  17  18
ATOM     18  C   UNL     1       0.762 -22.125  -9.593  1.00  0.00     0.000 C 
BRANCH  18  19
ATOM     19  C   UNL     1      -0.509 -22.175 -10.447  1.00  0.00    -0.003 C 
ATOM     20  C   UNL     1      -1.761 -22.123  -9.575  1.00  0.00     0.004 C 
ENDBRANCH  18  19
ENDBRANCH  17  18
ENDBRANCH  16  17
ENDBRANCH  15  16
ENDBRANCH  13  14
ENDBRANCH  12  13
ENDBRANCH   1  11
TORSDOF 14
ENDMDL
MODEL 9
REMARK VINA RESULT:    -4.010      3.225      4.163
REMARK INTER + INTRA:          -9.125
REMARK INTER:                  -6.956
REMARK INTRA:                  -2.169
REMARK UNBOUND:                -1.833
REMARK SMILES CCCCCC=CCC=CCCCCCCCC(=O)[O-]
REMARK SMILES IDX 11 1 12 2 13 3 14 4 15 5 16 6 17 7 18 8 19 9 20 10 10 11
REMARK SMILES IDX 9 12 8 13 7 14 6 15 5 16 4 17 3 18 2 19 1 20
REMARK H PARENT
REMARK Flexibility Score: inf
ROOT
ATOM      1  C   UNL     1       0.080 -15.478  -8.501  1.00  0.00     0.027 C 
ENDROOT
BRANCH   1   2
ATOM      2  C   UNL     1      -1.206 -15.152  -7.727  1.00  0.00     0.004 C 
BRANCH   2   3
ATOM      3  C   UNL     1      -0.993 -14.093  -6.631  1.00  0.00     0.000 C 
BRANCH   3   4
ATOM      4  C   UNL     1      -0.295 -14.608  -5.357  1.00  0.00     0.000 C 
BRANCH   4   5
ATOM      5  C   UNL     1      -0.669 -16.044  -4.938  1.00  0.00     0.000 C 
BRANCH   5   6
ATOM      6  C   UNL     1       0.527 -16.967  -4.647  1.00  0.00     0.006 C 
BRANCH   6   7
ATOM      7  C   UNL     1       1.802 -16.543  -5.385  1.00  0.00     0.053 C 
BRANCH   7   8
ATOM      8  C   UNL     1       2.950 -17.413  -4.984  1.00  0.00     0.041 C 
ATOM      9  O   UNL     1       2.740 -18.540  -4.462  1.00  0.00    -0.550 OA
ATOM     10  O   UNL     1       4.254 -16.959  -5.135  1.00  0.00    -0.550 OA
ENDBRANCH   7   8
ENDBRANCH   6   7
ENDBRANCH   5   6
ENDBRANCH   4   5
ENDBRANCH   3   4
ENDBRANCH   2   3
ENDBRANCH   1   2
BRANCH   1  11
ATOM     11  C   UNL     1       0.221 -16.961  -8.712  1.00  0.00    -0.031 C 
ATOM     12  C   UNL     1      -0.596 -17.837  -8.107  1.00  0.00    -0.027 C 
BRANCH  12  13
ATOM     13  C   UNL     1      -0.447 -19.317  -8.311  1.00  0.00     0.054 C 
BRANCH  13  14
ATOM     14  C   UNL     1       0.514 -19.892  -7.301  1.00  0.00    -0.027 C 
ATOM     15  C   UNL     1       1.390 -20.885  -7.542  1.00  0.00    -0.031 C 
BRANCH  15  16
ATOM     16  C   UNL     1       1.584 -21.559  -8.876  1.00  0.00     0.027 C 
BRANCH  16  17
ATOM     17  C   UNL     1       1.285 -23.061  -8.785  1.00  0.00     0.004 C 
BRANCH  17  18
ATOM     18  C   UNL     1       0.117 -23.443  -9.701  1.00  0.00     0.000 C 
BRANCH  18  19
ATOM     19  C   UNL     1      -0.292 -22.266 -10.594  1.00  0.00    -0.003 C 
ATOM     20  C   UNL     1      -1.006 -22.751 -11.852  1.00  0.00     0.004 C 
ENDBRANCH  18  19
ENDBRANCH  17  18
ENDBRANCH  16  17
ENDBRANCH  15  16
ENDBRANCH  13  14
ENDBRANCH  12  13
ENDBRANCH   1  11
TORSDOF 14
ENDMDL
