MODEL 1
REMARK VINA RESULT:    -6.562      0.000      0.000
REMARK INTER + INTRA:          -8.053
REMARK INTER:                  -7.905
REMARK INTRA:                  -0.149
REMARK UNBOUND:                -0.149
REMARK SMILES Oc1cc(O)c2c(c1)O[C@@H](c1ccc(O)c(O)c1)[C@@H](O)C2
REMARK SMILES IDX 21 1 19 2 10 3 9 4 7 5 8 6 2 7 3 8 4 9 6 10 20 11 11 13
REMARK SMILES IDX 18 14 12 15 16 16 13 17 14 18 17 19 15 21 5 23 1 25
REMARK H PARENT 20 12 17 20 15 22 5 24 1 26
REMARK Flexibility Score: inf
ROOT
ATOM      1  C   UNL     1      20.484  -1.281 -20.445  1.00  0.00     0.079 C 
ATOM      2  C   UNL     1      19.576  -1.136 -19.207  1.00  0.00     0.164 C 
ATOM      3  C   UNL     1      20.285  -0.271 -18.152  1.00  0.00     0.232 C 
ATOM      4  O   UNL     1      20.614   1.002 -18.708  1.00  0.00    -0.482 OA
ATOM      5  C   UNL     1      21.078   1.140 -20.021  1.00  0.00     0.131 A 
ATOM      6  C   UNL     1      21.564   2.380 -20.443  1.00  0.00     0.093 A 
ATOM      7  C   UNL     1      22.050   2.543 -21.742  1.00  0.00     0.122 A 
ATOM      8  C   UNL     1      22.059   1.456 -22.622  1.00  0.00     0.092 A 
ATOM      9  C   UNL     1      21.576   0.205 -22.217  1.00  0.00     0.126 A 
ATOM     10  C   UNL     1      21.043   0.047 -20.916  1.00  0.00     0.039 A 
ENDROOT
BRANCH   2  11
ATOM     11  O   UNL     1      18.358  -0.540 -19.575  1.00  0.00    -0.389 OA
ATOM     12  H   UNL     1      18.462  -0.232 -20.513  1.00  0.00     0.211 HD
ENDBRANCH   2  11
BRANCH   3  13
ATOM     13  C   UNL     1      19.437  -0.104 -16.912  1.00  0.00    -0.001 A 
ATOM     14  C   UNL     1      19.615   1.020 -16.088  1.00  0.00     0.057 A 
ATOM     15  C   UNL     1      18.510  -1.091 -16.531  1.00  0.00     0.012 A 
ATOM     16  C   UNL     1      18.859   1.170 -14.916  1.00  0.00     0.157 A 
ATOM     17  C   UNL     1      17.757  -0.941 -15.365  1.00  0.00     0.050 A 
ATOM     18  C   UNL     1      17.927   0.189 -14.554  1.00  0.00     0.157 A 
BRANCH  16  19
ATOM     19  O   UNL     1      19.032   2.290 -14.104  1.00  0.00    -0.504 OA
ATOM     20  H   UNL     1      19.052   3.227 -14.490  1.00  0.00     0.293 HD
ENDBRANCH  16  19
BRANCH  18  21
ATOM     21  O   UNL     1      17.178   0.343 -13.390  1.00  0.00    -0.504 OA
ATOM     22  H   UNL     1      16.552  -0.384 -13.061  1.00  0.00     0.293 HD
ENDBRANCH  18  21
ENDBRANCH   3  13
BRANCH   9  23
ATOM     23  O   UNL     1      21.653  -0.853 -23.125  1.00  0.00    -0.507 OA
ATOM     24  H   UNL     1      21.813  -1.813 -22.847  1.00  0.00     0.293 HD
ENDBRANCH   9  23
BRANCH   7  25
ATOM     25  O   UNL     1      22.529   3.788 -22.145  1.00  0.00    -0.508 OA
ATOM     26  H   UNL     1      23.044   4.388 -21.511  1.00  0.00     0.293 HD
ENDBRANCH   7  25
TORSDOF 6
ENDMDL
MODEL 2
REMARK VINA RESULT:    -6.113      3.494      4.837
REMARK INTER + INTRA:          -7.513
REMARK INTER:                  -7.224
REMARK INTRA:                  -0.289
REMARK UNBOUND:                -0.149
REMARK SMILES Oc1cc(O)c2c(c1)O[C@@H](c1ccc(O)c(O)c1)[C@@H](O)C2
REMARK SMILES IDX 21 1 19 2 10 3 9 4 7 5 8 6 2 7 3 8 4 9 6 10 20 11 11 13
REMARK SMILES IDX 18 14 12 15 16 16 13 17 14 18 17 19 15 21 5 23 1 25
REMARK H PARENT 20 12 17 20 15 22 5 24 1 26
REMARK Flexibility Score: inf
ROOT
ATOM      1  C   UNL     1      22.803   1.822 -17.802  1.00  0.00     0.079 C 
ATOM      2  C   UNL     1      23.124   1.584 -16.313  1.00  0.00     0.164 C 
ATOM      3  C   UNL     1      21.851   1.794 -15.476  1.00  0.00     0.232 C 
ATOM      4  O   UNL     1      20.820   0.918 -15.932  1.00  0.00    -0.482 OA
ATOM      5  C   UNL     1      20.618   0.655 -17.291  1.00  0.00     0.131 A 
ATOM      6  C   UNL     1      19.480  -0.052 -17.685  1.00  0.00     0.093 A 
ATOM      7  C   UNL     1      19.243  -0.314 -19.035  1.00  0.00     0.122 A 
ATOM      8  C   UNL     1      20.147   0.142 -20.001  1.00  0.00     0.092 A 
ATOM      9  C   UNL     1      21.294   0.851 -19.626  1.00  0.00     0.126 A 
ATOM     10  C   UNL     1      21.560   1.082 -18.255  1.00  0.00     0.039 A 
ENDROOT
BRANCH   2  11
ATOM     11  O   UNL     1      23.607   0.276 -16.131  1.00  0.00    -0.389 OA
ATOM     12  H   UNL     1      22.845  -0.266 -15.799  1.00  0.00     0.211 HD
ENDBRANCH   2  11
BRANCH   3  13
ATOM     13  C   UNL     1      22.116   1.579 -14.003  1.00  0.00    -0.001 A 
ATOM     14  C   UNL     1      23.293   2.083 -13.424  1.00  0.00     0.057 A 
ATOM     15  C   UNL     1      21.233   0.825 -13.211  1.00  0.00     0.012 A 
ATOM     16  C   UNL     1      23.569   1.861 -12.067  1.00  0.00     0.157 A 
ATOM     17  C   UNL     1      21.507   0.605 -11.859  1.00  0.00     0.050 A 
ATOM     18  C   UNL     1      22.675   1.123 -11.282  1.00  0.00     0.157 A 
BRANCH  16  19
ATOM     19  O   UNL     1      24.734   2.369 -11.492  1.00  0.00    -0.504 OA
ATOM     20  H   UNL     1      24.785   2.588 -10.504  1.00  0.00     0.293 HD
ENDBRANCH  16  19
BRANCH  18  21
ATOM     21  O   UNL     1      22.952   0.906  -9.935  1.00  0.00    -0.504 OA
ATOM     22  H   UNL     1      23.795   0.429  -9.636  1.00  0.00     0.293 HD
ENDBRANCH  18  21
ENDBRANCH   3  13
BRANCH   9  23
ATOM     23  O   UNL     1      22.136   1.320 -20.637  1.00  0.00    -0.507 OA
ATOM     24  H   UNL     1      22.896   0.777 -21.024  1.00  0.00     0.293 HD
ENDBRANCH   9  23
BRANCH   7  25
ATOM     25  O   UNL     1      18.102  -1.022 -19.409  1.00  0.00    -0.508 OA
ATOM     26  H   UNL     1      18.157  -1.976 -19.746  1.00  0.00     0.293 HD
ENDBRANCH   7  25
TORSDOF 6
ENDMDL
MODEL 3
REMARK VINA RESULT:    -5.921      7.004      9.065
REMARK INTER + INTRA:          -7.281
REMARK INTER:                  -7.016
REMARK INTRA:                  -0.265
REMARK UNBOUND:                -0.149
REMARK SMILES Oc1cc(O)c2c(c1)O[C@@H](c1ccc(O)c(O)c1)[C@@H](O)C2
REMARK SMILES IDX 21 1 19 2 10 3 9 4 7 5 8 6 2 7 3 8 4 9 6 10 20 11 11 13
REMARK SMILES IDX 18 14 12 15 16 16 13 17 14 18 17 19 15 21 5 23 1 25
REMARK H PARENT 20 12 17 20 15 22 5 24 1 26
REMARK Flexibility Score: inf
ROOT
ATOM      1  C   UNL     1      15.287  -5.820 -12.683  1.00  0.00     0.079 C 
ATOM      2  C   UNL     1      15.489  -4.694 -11.650  1.00  0.00     0.164 C 
ATOM      3  C   UNL     1      16.990  -4.382 -11.521  1.00  0.00     0.232 C 
ATOM      4  O   UNL     1      17.522  -4.021 -12.795  1.00  0.00    -0.482 OA
ATOM      5  C   UNL     1      17.134  -4.671 -13.972  1.00  0.00     0.131 A 
ATOM      6  C   UNL     1      17.828  -4.406 -15.155  1.00  0.00     0.093 A 
ATOM      7  C   UNL     1      17.475  -5.052 -16.341  1.00  0.00     0.122 A 
ATOM      8  C   UNL     1      16.425  -5.978 -16.342  1.00  0.00     0.092 A 
ATOM      9  C   UNL     1      15.717  -6.256 -15.166  1.00  0.00     0.126 A 
ATOM     10  C   UNL     1      16.044  -5.571 -13.972  1.00  0.00     0.039 A 
ENDROOT
BRANCH   2  11
ATOM     11  O   UNL     1      14.793  -3.542 -12.056  1.00  0.00    -0.389 OA
ATOM     12  H   UNL     1      14.258  -3.797 -12.852  1.00  0.00     0.211 HD
ENDBRANCH   2  11
BRANCH   3  13
ATOM     13  C   UNL     1      17.242  -3.286 -10.511  1.00  0.00    -0.001 A 
ATOM     14  C   UNL     1      17.261  -3.590  -9.139  1.00  0.00     0.057 A 
ATOM     15  C   UNL     1      17.395  -1.948 -10.917  1.00  0.00     0.012 A 
ATOM     16  C   UNL     1      17.458  -2.577  -8.189  1.00  0.00     0.157 A 
ATOM     17  C   UNL     1      17.593  -0.940  -9.971  1.00  0.00     0.050 A 
ATOM     18  C   UNL     1      17.627  -1.251  -8.604  1.00  0.00     0.157 A 
BRANCH  16  19
ATOM     19  O   UNL     1      17.485  -2.882  -6.828  1.00  0.00    -0.504 OA
ATOM     20  H   UNL     1      17.470  -3.841  -6.500  1.00  0.00     0.293 HD
ENDBRANCH  16  19
BRANCH  18  21
ATOM     21  O   UNL     1      17.824  -0.248  -7.658  1.00  0.00    -0.504 OA
ATOM     22  H   UNL     1      17.366  -0.274  -6.754  1.00  0.00     0.293 HD
ENDBRANCH  18  21
ENDBRANCH   3  13
BRANCH   9  23
ATOM     23  O   UNL     1      14.710  -7.222 -15.220  1.00  0.00    -0.507 OA
ATOM     24  H   UNL     1      14.077  -7.407 -14.454  1.00  0.00     0.293 HD
ENDBRANCH   9  23
BRANCH   7  25
ATOM     25  O   UNL     1      18.178  -4.774 -17.511  1.00  0.00    -0.508 OA
ATOM     26  H   UNL     1      17.706  -4.462 -18.351  1.00  0.00     0.293 HD
ENDBRANCH   7  25
TORSDOF 6
ENDMDL
MODEL 4
REMARK VINA RESULT:    -5.755      8.070     10.697
REMARK INTER + INTRA:          -7.081
REMARK INTER:                  -6.708
REMARK INTRA:                  -0.373
REMARK UNBOUND:                -0.149
REMARK SMILES Oc1cc(O)c2c(c1)O[C@@H](c1ccc(O)c(O)c1)[C@@H](O)C2
REMARK SMILES IDX 21 1 19 2 10 3 9 4 7 5 8 6 2 7 3 8 4 9 6 10 20 11 11 13
REMARK SMILES IDX 18 14 12 15 16 16 13 17 14 18 17 19 15 21 5 23 1 25
REMARK H PARENT 20 12 17 20 15 22 5 24 1 26
REMARK Flexibility Score: inf
ROOT
ATOM      1  C   UNL     1      15.808  -1.854 -12.660  1.00  0.00     0.079 C 
ATOM      2  C   UNL     1      15.335  -3.045 -13.517  1.00  0.00     0.164 C 
ATOM      3  C   UNL     1      16.399  -4.154 -13.483  1.00  0.00     0.232 C 
ATOM      4  O   UNL     1      16.645  -4.550 -12.133  1.00  0.00    -0.482 OA
ATOM      5  C   UNL     1      16.698  -3.622 -11.087  1.00  0.00     0.131 A 
ATOM      6  C   UNL     1      17.132  -4.043  -9.827  1.00  0.00     0.093 A 
ATOM      7  C   UNL     1      17.211  -3.137  -8.768  1.00  0.00     0.122 A 
ATOM      8  C   UNL     1      16.863  -1.797  -8.972  1.00  0.00     0.092 A 
ATOM      9  C   UNL     1      16.426  -1.357 -10.228  1.00  0.00     0.126 A 
ATOM     10  C   UNL     1      16.303  -2.281 -11.292  1.00  0.00     0.039 A 
ENDROOT
BRANCH   2  11
ATOM     11  O   UNL     1      14.115  -3.536 -13.021  1.00  0.00    -0.389 OA
ATOM     12  H   UNL     1      13.534  -2.748 -12.859  1.00  0.00     0.211 HD
ENDBRANCH   2  11
BRANCH   3  13
ATOM     13  C   UNL     1      15.985  -5.345 -14.317  1.00  0.00    -0.001 A 
ATOM     14  C   UNL     1      15.855  -5.211 -15.710  1.00  0.00     0.057 A 
ATOM     15  C   UNL     1      15.663  -6.574 -13.715  1.00  0.00     0.012 A 
ATOM     16  C   UNL     1      15.437  -6.298 -16.493  1.00  0.00     0.157 A 
ATOM     17  C   UNL     1      15.248  -7.656 -14.494  1.00  0.00     0.050 A 
ATOM     18  C   UNL     1      15.135  -7.522 -15.885  1.00  0.00     0.157 A 
BRANCH  16  19
ATOM     19  O   UNL     1      15.318  -6.166 -17.876  1.00  0.00    -0.504 OA
ATOM     20  H   UNL     1      16.132  -6.133 -18.477  1.00  0.00     0.293 HD
ENDBRANCH  16  19
BRANCH  18  21
ATOM     21  O   UNL     1      14.722  -8.599 -16.666  1.00  0.00    -0.504 OA
ATOM     22  H   UNL     1      15.008  -8.695 -17.633  1.00  0.00     0.293 HD
ENDBRANCH  18  21
ENDBRANCH   3  13
BRANCH   9  23
ATOM     23  O   UNL     1      16.136   0.001 -10.383  1.00  0.00    -0.507 OA
ATOM     24  H   UNL     1      16.820   0.684 -10.681  1.00  0.00     0.293 HD
ENDBRANCH   9  23
BRANCH   7  25
ATOM     25  O   UNL     1      17.644  -3.576  -7.519  1.00  0.00    -0.508 OA
ATOM     26  H   UNL     1      17.133  -4.278  -6.997  1.00  0.00     0.293 HD
ENDBRANCH   7  25
TORSDOF 6
ENDMDL
MODEL 5
REMARK VINA RESULT:    -5.706      2.714      7.978
REMARK INTER + INTRA:          -7.021
REMARK INTER:                  -6.886
REMARK INTRA:                  -0.135
REMARK UNBOUND:                -0.149
REMARK SMILES Oc1cc(O)c2c(c1)O[C@@H](c1ccc(O)c(O)c1)[C@@H](O)C2
REMARK SMILES IDX 21 1 19 2 10 3 9 4 7 5 8 6 2 7 3 8 4 9 6 10 20 11 11 13
REMARK SMILES IDX 18 14 12 15 16 16 13 17 14 18 17 19 15 21 5 23 1 25
REMARK H PARENT 20 12 17 20 15 22 5 24 1 26
REMARK Flexibility Score: inf
ROOT
ATOM      1  C   UNL     1      16.970  -0.242 -13.968  1.00  0.00     0.079 C 
ATOM      2  C   UNL     1      17.557   0.168 -15.334  1.00  0.00     0.164 C 
ATOM      3  C   UNL     1      18.600  -0.873 -15.775  1.00  0.00     0.232 C 
ATOM      4  O   UNL     1      18.000  -2.168 -15.832  1.00  0.00    -0.482 OA
ATOM      5  C   UNL     1      17.076  -2.600 -14.875  1.00  0.00     0.131 A 
ATOM      6  C   UNL     1      16.673  -3.938 -14.875  1.00  0.00     0.093 A 
ATOM      7  C   UNL     1      15.766  -4.402 -13.921  1.00  0.00     0.122 A 
ATOM      8  C   UNL     1      15.264  -3.524 -12.954  1.00  0.00     0.092 A 
ATOM      9  C   UNL     1      15.655  -2.179 -12.939  1.00  0.00     0.126 A 
ATOM     10  C   UNL     1      16.541  -1.695 -13.930  1.00  0.00     0.039 A 
ENDROOT
BRANCH   2  11
ATOM     11  O   UNL     1      16.528   0.250 -16.289  1.00  0.00    -0.389 OA
ATOM     12  H   UNL     1      16.551  -0.596 -16.808  1.00  0.00     0.211 HD
ENDBRANCH   2  11
BRANCH   3  13
ATOM     13  C   UNL     1      19.211  -0.512 -17.110  1.00  0.00    -0.001 A 
ATOM     14  C   UNL     1      20.389   0.253 -17.155  1.00  0.00     0.057 A 
ATOM     15  C   UNL     1      18.584  -0.875 -18.315  1.00  0.00     0.012 A 
ATOM     16  C   UNL     1      20.948   0.625 -18.387  1.00  0.00     0.157 A 
ATOM     17  C   UNL     1      19.141  -0.505 -19.541  1.00  0.00     0.050 A 
ATOM     18  C   UNL     1      20.325   0.244 -19.581  1.00  0.00     0.157 A 
BRANCH  16  19
ATOM     19  O   UNL     1      22.122   1.376 -18.429  1.00  0.00    -0.504 OA
ATOM     20  H   UNL     1      22.962   1.075 -17.949  1.00  0.00     0.293 HD
ENDBRANCH  16  19
BRANCH  18  21
ATOM     21  O   UNL     1      20.884   0.615 -20.802  1.00  0.00    -0.504 OA
ATOM     22  H   UNL     1      21.874   0.809 -20.896  1.00  0.00     0.293 HD
ENDBRANCH  18  21
ENDBRANCH   3  13
BRANCH   9  23
ATOM     23  O   UNL     1      15.156  -1.362 -11.922  1.00  0.00    -0.507 OA
ATOM     24  H   UNL     1      15.139  -0.353 -11.979  1.00  0.00     0.293 HD
ENDBRANCH   9  23
BRANCH   7  25
ATOM     25  O   UNL     1      15.375  -5.739 -13.938  1.00  0.00    -0.508 OA
ATOM     26  H   UNL     1      16.047  -6.486 -14.073  1.00  0.00     0.293 HD
ENDBRANCH   7  25
TORSDOF 6
ENDMDL
MODEL 6
REMARK VINA RESULT:    -5.602      7.384      9.515
REMARK INTER + INTRA:          -6.896
REMARK INTER:                  -6.522
REMARK INTRA:                  -0.374
REMARK UNBOUND:                -0.149
REMARK SMILES Oc1cc(O)c2c(c1)O[C@@H](c1ccc(O)c(O)c1)[C@@H](O)C2
REMARK SMILES IDX 21 1 19 2 10 3 9 4 7 5 8 6 2 7 3 8 4 9 6 10 20 11 11 13
REMARK SMILES IDX 18 14 12 15 16 16 13 17 14 18 17 19 15 21 5 23 1 25
REMARK H PARENT 20 12 17 20 15 22 5 24 1 26
REMARK Flexibility Score: inf
ROOT
ATOM      1  C   UNL     1      17.120  -3.836 -14.921  1.00  0.00     0.079 C 
ATOM      2  C   UNL     1      17.605  -3.232 -13.588  1.00  0.00     0.164 C 
ATOM      3  C   UNL     1      16.479  -3.329 -12.544  1.00  0.00     0.232 C 
ATOM      4  O   UNL     1      16.079  -4.690 -12.385  1.00  0.00    -0.482 OA
ATOM      5  C   UNL     1      15.978  -5.565 -13.472  1.00  0.00     0.131 A 
ATOM      6  C   UNL     1      15.400  -6.822 -13.281  1.00  0.00     0.093 A 
ATOM      7  C   UNL     1      15.270  -7.710 -14.350  1.00  0.00     0.122 A 
ATOM      8  C   UNL     1      15.714  -7.334 -15.623  1.00  0.00     0.092 A 
ATOM      9  C   UNL     1      16.297  -6.079 -15.834  1.00  0.00     0.126 A 
ATOM     10  C   UNL     1      16.470  -5.193 -14.744  1.00  0.00     0.039 A 
ENDROOT
BRANCH   2  11
ATOM     11  O   UNL     1      18.739  -3.927 -13.133  1.00  0.00    -0.389 OA
ATOM     12  H   UNL     1      19.530  -3.465 -13.517  1.00  0.00     0.211 HD
ENDBRANCH   2  11
BRANCH   3  13
ATOM     13  C   UNL     1      16.903  -2.742 -11.217  1.00  0.00    -0.001 A 
ATOM     14  C   UNL     1      17.094  -3.585 -10.109  1.00  0.00     0.057 A 
ATOM     15  C   UNL     1      17.049  -1.353 -11.053  1.00  0.00     0.012 A 
ATOM     16  C   UNL     1      17.454  -3.050  -8.863  1.00  0.00     0.157 A 
ATOM     17  C   UNL     1      17.408  -0.821  -9.813  1.00  0.00     0.050 A 
ATOM     18  C   UNL     1      17.613  -1.667  -8.714  1.00  0.00     0.157 A 
BRANCH  16  19
ATOM     19  O   UNL     1      17.652  -3.890  -7.767  1.00  0.00    -0.504 OA
ATOM     20  H   UNL     1      18.488  -4.454  -7.676  1.00  0.00     0.293 HD
ENDBRANCH  16  19
BRANCH  18  21
ATOM     21  O   UNL     1      17.971  -1.141  -7.475  1.00  0.00    -0.504 OA
ATOM     22  H   UNL     1      18.731  -0.477  -7.380  1.00  0.00     0.293 HD
ENDBRANCH  18  21
ENDBRANCH   3  13
BRANCH   9  23
ATOM     23  O   UNL     1      16.679  -5.743 -17.135  1.00  0.00    -0.507 OA
ATOM     24  H   UNL     1      17.581  -5.348 -17.364  1.00  0.00     0.293 HD
ENDBRANCH   9  23
BRANCH   7  25
ATOM     25  O   UNL     1      14.691  -8.960 -14.140  1.00  0.00    -0.508 OA
ATOM     26  H   UNL     1      13.974  -9.100 -13.437  1.00  0.00     0.293 HD
ENDBRANCH   7  25
TORSDOF 6
ENDMDL
MODEL 7
REMARK VINA RESULT:    -5.550      9.757     15.351
REMARK INTER + INTRA:          -6.834
REMARK INTER:                  -6.444
REMARK INTRA:                  -0.391
REMARK UNBOUND:                -0.149
REMARK SMILES Oc1cc(O)c2c(c1)O[C@@H](c1ccc(O)c(O)c1)[C@@H](O)C2
REMARK SMILES IDX 21 1 19 2 10 3 9 4 7 5 8 6 2 7 3 8 4 9 6 10 20 11 11 13
REMARK SMILES IDX 18 14 12 15 16 16 13 17 14 18 17 19 15 21 5 23 1 25
REMARK H PARENT 20 12 17 20 15 22 5 24 1 26
REMARK Flexibility Score: inf
ROOT
ATOM      1  C   UNL     1      14.035   4.438  -5.617  1.00  0.00     0.079 C 
ATOM      2  C   UNL     1      14.043   4.255  -7.147  1.00  0.00     0.164 C 
ATOM      3  C   UNL     1      13.815   2.772  -7.486  1.00  0.00     0.232 C 
ATOM      4  O   UNL     1      12.585   2.327  -6.914  1.00  0.00    -0.482 OA
ATOM      5  C   UNL     1      12.169   2.731  -5.641  1.00  0.00     0.131 A 
ATOM      6  C   UNL     1      11.059   2.114  -5.061  1.00  0.00     0.093 A 
ATOM      7  C   UNL     1      10.631   2.485  -3.785  1.00  0.00     0.122 A 
ATOM      8  C   UNL     1      11.324   3.474  -3.080  1.00  0.00     0.092 A 
ATOM      9  C   UNL     1      12.439   4.105  -3.645  1.00  0.00     0.126 A 
ATOM     10  C   UNL     1      12.850   3.763  -4.955  1.00  0.00     0.039 A 
ENDROOT
BRANCH   2  11
ATOM     11  O   UNL     1      13.031   5.039  -7.728  1.00  0.00    -0.389 OA
ATOM     12  H   UNL     1      13.287   5.987  -7.585  1.00  0.00     0.211 HD
ENDBRANCH   2  11
BRANCH   3  13
ATOM     13  C   UNL     1      13.822   2.538  -8.979  1.00  0.00    -0.001 A 
ATOM     14  C   UNL     1      12.728   1.904  -9.593  1.00  0.00     0.057 A 
ATOM     15  C   UNL     1      14.937   2.887  -9.762  1.00  0.00     0.012 A 
ATOM     16  C   UNL     1      12.735   1.649 -10.972  1.00  0.00     0.157 A 
ATOM     17  C   UNL     1      14.944   2.634 -11.135  1.00  0.00     0.050 A 
ATOM     18  C   UNL     1      13.843   2.016 -11.745  1.00  0.00     0.157 A 
BRANCH  16  19
ATOM     19  O   UNL     1      11.644   1.029 -11.580  1.00  0.00    -0.504 OA
ATOM     20  H   UNL     1      11.419   1.190 -12.555  1.00  0.00     0.293 HD
ENDBRANCH  16  19
BRANCH  18  21
ATOM     21  O   UNL     1      13.846   1.762 -13.115  1.00  0.00    -0.504 OA
ATOM     22  H   UNL     1      13.016   1.892 -13.681  1.00  0.00     0.293 HD
ENDBRANCH  18  21
ENDBRANCH   3  13
BRANCH   9  23
ATOM     23  O   UNL     1      13.118   5.052  -2.875  1.00  0.00    -0.507 OA
ATOM     24  H   UNL     1      13.852   5.643  -3.242  1.00  0.00     0.293 HD
ENDBRANCH   9  23
BRANCH   7  25
ATOM     25  O   UNL     1       9.520   1.859  -3.224  1.00  0.00    -0.508 OA
ATOM     26  H   UNL     1       9.172   2.118  -2.308  1.00  0.00     0.293 HD
ENDBRANCH   7  25
TORSDOF 6
ENDMDL
MODEL 8
REMARK VINA RESULT:    -5.546      9.078     11.275
REMARK INTER + INTRA:          -6.830
REMARK INTER:                  -6.481
REMARK INTRA:                  -0.349
REMARK UNBOUND:                -0.149
REMARK SMILES Oc1cc(O)c2c(c1)O[C@@H](c1ccc(O)c(O)c1)[C@@H](O)C2
REMARK SMILES IDX 21 1 19 2 10 3 9 4 7 5 8 6 2 7 3 8 4 9 6 10 20 11 11 13
REMARK SMILES IDX 18 14 12 15 16 16 13 17 14 18 17 19 15 21 5 23 1 25
REMARK H PARENT 20 12 17 20 15 22 5 24 1 26
REMARK Flexibility Score: inf
ROOT
ATOM      1  C   UNL     1       9.822   3.176 -20.075  1.00  0.00     0.079 C 
ATOM      2  C   UNL     1      11.194   3.290 -19.381  1.00  0.00     0.164 C 
ATOM      3  C   UNL     1      11.089   4.269 -18.200  1.00  0.00     0.232 C 
ATOM      4  O   UNL     1      10.080   3.828 -17.291  1.00  0.00    -0.482 OA
ATOM      5  C   UNL     1       8.873   3.277 -17.734  1.00  0.00     0.131 A 
ATOM      6  C   UNL     1       7.852   3.044 -16.809  1.00  0.00     0.093 A 
ATOM      7  C   UNL     1       6.631   2.511 -17.224  1.00  0.00     0.122 A 
ATOM      8  C   UNL     1       6.425   2.217 -18.576  1.00  0.00     0.092 A 
ATOM      9  C   UNL     1       7.436   2.442 -19.518  1.00  0.00     0.126 A 
ATOM     10  C   UNL     1       8.690   2.942 -19.095  1.00  0.00     0.039 A 
ENDROOT
BRANCH   2  11
ATOM     11  O   UNL     1      11.603   2.026 -18.920  1.00  0.00    -0.389 OA
ATOM     12  H   UNL     1      11.218   1.356 -19.543  1.00  0.00     0.211 HD
ENDBRANCH   2  11
BRANCH   3  13
ATOM     13  C   UNL     1      12.414   4.422 -17.488  1.00  0.00    -0.001 A 
ATOM     14  C   UNL     1      13.472   5.100 -18.118  1.00  0.00     0.057 A 
ATOM     15  C   UNL     1      12.630   3.840 -16.227  1.00  0.00     0.012 A 
ATOM     16  C   UNL     1      14.718   5.219 -17.484  1.00  0.00     0.157 A 
ATOM     17  C   UNL     1      13.870   3.959 -15.596  1.00  0.00     0.050 A 
ATOM     18  C   UNL     1      14.917   4.649 -16.221  1.00  0.00     0.157 A 
BRANCH  16  19
ATOM     19  O   UNL     1      15.763   5.899 -18.107  1.00  0.00    -0.504 OA
ATOM     20  H   UNL     1      15.593   6.570 -18.847  1.00  0.00     0.293 HD
ENDBRANCH  16  19
BRANCH  18  21
ATOM     21  O   UNL     1      16.155   4.770 -15.595  1.00  0.00    -0.504 OA
ATOM     22  H   UNL     1      17.023   4.656 -16.106  1.00  0.00     0.293 HD
ENDBRANCH  18  21
ENDBRANCH   3  13
BRANCH   9  23
ATOM     23  O   UNL     1       7.156   2.172 -20.859  1.00  0.00    -0.507 OA
ATOM     24  H   UNL     1       7.714   2.523 -21.626  1.00  0.00     0.293 HD
ENDBRANCH   9  23
BRANCH   7  25
ATOM     25  O   UNL     1       5.625   2.285 -16.286  1.00  0.00    -0.508 OA
ATOM     26  H   UNL     1       5.619   1.454 -15.707  1.00  0.00     0.293 HD
ENDBRANCH   7  25
TORSDOF 6
ENDMDL
MODEL 9
REMARK VINA RESULT:    -5.534      9.115     11.597
REMARK INTER + INTRA:          -6.815
REMARK INTER:                  -6.447
REMARK INTRA:                  -0.367
REMARK UNBOUND:                -0.149
REMARK SMILES Oc1cc(O)c2c(c1)O[C@@H](c1ccc(O)c(O)c1)[C@@H](O)C2
REMARK SMILES IDX 21 1 19 2 10 3 9 4 7 5 8 6 2 7 3 8 4 9 6 10 20 11 11 13
REMARK SMILES IDX 18 14 12 15 16 16 13 17 14 18 17 19 15 21 5 23 1 25
REMARK H PARENT 20 12 17 20 15 22 5 24 1 26
REMARK Flexibility Score: inf
ROOT
ATOM      1  C   UNL     1      20.498  -2.448  -6.279  1.00  0.00     0.079 C 
ATOM      2  C   UNL     1      19.181  -2.329  -7.071  1.00  0.00     0.164 C 
ATOM      3  C   UNL     1      19.450  -1.617  -8.408  1.00  0.00     0.232 C 
ATOM      4  O   UNL     1      20.441  -2.330  -9.148  1.00  0.00    -0.482 OA
ATOM      5  C   UNL     1      21.556  -2.907  -8.530  1.00  0.00     0.131 A 
ATOM      6  C   UNL     1      22.583  -3.422  -9.325  1.00  0.00     0.093 A 
ATOM      7  C   UNL     1      23.715  -3.988  -8.737  1.00  0.00     0.122 A 
ATOM      8  C   UNL     1      23.826  -4.032  -7.343  1.00  0.00     0.092 A 
ATOM      9  C   UNL     1      22.806  -3.522  -6.529  1.00  0.00     0.126 A 
ATOM     10  C   UNL     1      21.638  -2.986  -7.121  1.00  0.00     0.039 A 
ENDROOT
BRANCH   2  11
ATOM     11  O   UNL     1      18.650  -3.609  -7.310  1.00  0.00    -0.389 OA
ATOM     12  H   UNL     1      19.092  -4.226  -6.670  1.00  0.00     0.211 HD
ENDBRANCH   2  11
BRANCH   3  13
ATOM     13  C   UNL     1      18.185  -1.469  -9.221  1.00  0.00    -0.001 A 
ATOM     14  C   UNL     1      18.016  -2.223 -10.394  1.00  0.00     0.057 A 
ATOM     15  C   UNL     1      17.195  -0.539  -8.857  1.00  0.00     0.012 A 
ATOM     16  C   UNL     1      16.862  -2.071 -11.177  1.00  0.00     0.157 A 
ATOM     17  C   UNL     1      16.046  -0.388  -9.636  1.00  0.00     0.050 A 
ATOM     18  C   UNL     1      15.874  -1.154 -10.797  1.00  0.00     0.157 A 
BRANCH  16  19
ATOM     19  O   UNL     1      16.692  -2.827 -12.337  1.00  0.00    -0.504 OA
ATOM     20  H   UNL     1      15.907  -2.674 -12.959  1.00  0.00     0.293 HD
ENDBRANCH  16  19
BRANCH  18  21
ATOM     21  O   UNL     1      14.730  -1.006 -11.577  1.00  0.00    -0.504 OA
ATOM     22  H   UNL     1      14.607  -1.519 -12.443  1.00  0.00     0.293 HD
ENDBRANCH  18  21
ENDBRANCH   3  13
BRANCH   9  23
ATOM     23  O   UNL     1      22.994  -3.552  -5.146  1.00  0.00    -0.507 OA
ATOM     24  H   UNL     1      23.719  -4.096  -4.695  1.00  0.00     0.293 HD
ENDBRANCH   9  23
BRANCH   7  25
ATOM     25  O   UNL     1      24.728  -4.497  -9.546  1.00  0.00    -0.508 OA
ATOM     26  H   UNL     1      25.615  -4.797  -9.159  1.00  0.00     0.293 HD
ENDBRANCH   7  25
TORSDOF 6
ENDMDL
