MODEL 1
REMARK VINA RESULT:    -2.691      0.000      0.000
REMARK INTER + INTRA:          -5.706
REMARK INTER:                  -4.736
REMARK INTRA:                  -0.970
REMARK UNBOUND:                -0.970
REMARK SMILES CCCCCCC=CCCCCCCCC(=O)[O-]
REMARK SMILES IDX 10 1 11 2 12 3 13 4 14 5 15 6 16 7 17 8 18 9 9 10 8 11 7 12
REMARK SMILES IDX 6 13 5 14 4 15 3 16 2 17 1 18
REMARK H PARENT
REMARK Flexibility Score: inf
ROOT
ATOM      1  C   UNL     1      -7.399  17.478 -14.639  1.00  0.00     0.004 C 
ENDROOT
BRANCH   1   2
ATOM      2  C   UNL     1      -6.214  16.626 -15.120  1.00  0.00     0.000 C 
BRANCH   2   3
ATOM      3  C   UNL     1      -4.875  17.374 -15.041  1.00  0.00     0.000 C 
BRANCH   3   4
ATOM      4  C   UNL     1      -5.095  18.894 -15.059  1.00  0.00     0.000 C 
BRANCH   4   5
ATOM      5  C   UNL     1      -4.875  19.542 -13.682  1.00  0.00     0.006 C 
BRANCH   5   6
ATOM      6  C   UNL     1      -5.691  20.827 -13.496  1.00  0.00     0.053 C 
BRANCH   6   7
ATOM      7  C   UNL     1      -7.156  20.529 -13.559  1.00  0.00     0.041 C 
ATOM      8  O   UNL     1      -7.696  19.815 -12.673  1.00  0.00    -0.550 OA
ATOM      9  O   UNL     1      -7.916  20.997 -14.623  1.00  0.00    -0.550 OA
ENDBRANCH   6   7
ENDBRANCH   5   6
ENDBRANCH   4   5
ENDBRANCH   3   4
ENDBRANCH   2   3
ENDBRANCH   1   2
BRANCH   1  10
ATOM     10  C   UNL     1      -8.669  16.646 -14.406  1.00  0.00     0.027 C 
BRANCH  10  11
ATOM     11  C   UNL     1      -9.127  16.764 -12.975  1.00  0.00    -0.031 C 
ATOM     12  C   UNL     1      -8.456  16.279 -11.915  1.00  0.00    -0.031 C 
BRANCH  12  13
ATOM     13  C   UNL     1      -7.190  15.460 -12.000  1.00  0.00     0.027 C 
BRANCH  13  14
ATOM     14  C   UNL     1      -7.479  13.953 -12.112  1.00  0.00     0.004 C 
BRANCH  14  15
ATOM     15  C   UNL     1      -6.334  13.133 -12.736  1.00  0.00     0.000 C 
BRANCH  15  16
ATOM     16  C   UNL     1      -6.809  12.219 -13.877  1.00  0.00    -0.000 C 
BRANCH  16  17
ATOM     17  C   UNL     1      -7.428  13.040 -15.014  1.00  0.00    -0.003 C 
ATOM     18  C   UNL     1      -8.928  12.786 -15.124  1.00  0.00     0.004 C 
ENDBRANCH  16  17
ENDBRANCH  15  16
ENDBRANCH  14  15
ENDBRANCH  13  14
ENDBRANCH  12  13
ENDBRANCH  10  11
ENDBRANCH   1  10
TORSDOF 13
ENDMDL
MODEL 2
REMARK VINA RESULT:    -2.432      3.045      6.313
REMARK INTER + INTRA:          -5.250
REMARK INTER:                  -4.562
REMARK INTRA:                  -0.688
REMARK UNBOUND:                -0.970
REMARK SMILES CCCCCCC=CCCCCCCCC(=O)[O-]
REMARK SMILES IDX 10 1 11 2 12 3 13 4 14 5 15 6 16 7 17 8 18 9 9 10 8 11 7 12
REMARK SMILES IDX 6 13 5 14 4 15 3 16 2 17 1 18
REMARK H PARENT
REMARK Flexibility Score: inf
ROOT
ATOM      1  C   UNL     1      -8.538  15.401 -11.662  1.00  0.00     0.004 C 
ENDROOT
BRANCH   1   2
ATOM      2  C   UNL     1      -7.508  14.852 -12.663  1.00  0.00     0.000 C 
BRANCH   2   3
ATOM      3  C   UNL     1      -8.145  13.958 -13.738  1.00  0.00     0.000 C 
BRANCH   3   4
ATOM      4  C   UNL     1      -7.395  14.087 -15.072  1.00  0.00     0.000 C 
BRANCH   4   5
ATOM      5  C   UNL     1      -5.990  14.691 -14.907  1.00  0.00     0.006 C 
BRANCH   5   6
ATOM      6  C   UNL     1      -4.875  13.660 -15.125  1.00  0.00     0.053 C 
BRANCH   6   7
ATOM      7  C   UNL     1      -5.032  12.514 -14.177  1.00  0.00     0.041 C 
ATOM      8  O   UNL     1      -5.189  11.344 -14.617  1.00  0.00    -0.550 OA
ATOM      9  O   UNL     1      -5.056  12.743 -12.807  1.00  0.00    -0.550 OA
ENDBRANCH   6   7
ENDBRANCH   5   6
ENDBRANCH   4   5
ENDBRANCH   3   4
ENDBRANCH   2   3
ENDBRANCH   1   2
BRANCH   1  10
ATOM     10  C   UNL     1      -8.585  16.936 -11.645  1.00  0.00     0.027 C 
BRANCH  10  11
ATOM     11  C   UNL     1      -8.932  17.472 -13.011  1.00  0.00    -0.031 C 
ATOM     12  C   UNL     1      -8.032  17.887 -13.921  1.00  0.00    -0.031 C 
BRANCH  12  13
ATOM     13  C   UNL     1      -6.544  17.971 -13.682  1.00  0.00     0.027 C 
BRANCH  13  14
ATOM     14  C   UNL     1      -5.785  18.490 -14.915  1.00  0.00     0.004 C 
BRANCH  14  15
ATOM     15  C   UNL     1      -5.472  19.997 -14.879  1.00  0.00     0.000 C 
BRANCH  15  16
ATOM     16  C   UNL     1      -4.889  20.453 -13.533  1.00  0.00    -0.000 C 
BRANCH  16  17
ATOM     17  C   UNL     1      -5.963  21.124 -12.670  1.00  0.00    -0.003 C 
ATOM     18  C   UNL     1      -7.316  21.125 -13.376  1.00  0.00     0.004 C 
ENDBRANCH  16  17
ENDBRANCH  15  16
ENDBRANCH  14  15
ENDBRANCH  13  14
ENDBRANCH  12  13
ENDBRANCH  10  11
ENDBRANCH   1  10
TORSDOF 13
ENDMDL
MODEL 3
REMARK VINA RESULT:    -2.207      1.571      2.781
REMARK INTER + INTRA:          -4.854
REMARK INTER:                  -4.988
REMARK INTRA:                   0.134
REMARK UNBOUND:                -0.970
REMARK SMILES CCCCCCC=CCCCCCCCC(=O)[O-]
REMARK SMILES IDX 10 1 11 2 12 3 13 4 14 5 15 6 16 7 17 8 18 9 9 10 8 11 7 12
REMARK SMILES IDX 6 13 5 14 4 15 3 16 2 17 1 18
REMARK H PARENT
REMARK Flexibility Score: inf
ROOT
ATOM      1  C   UNL     1      -9.005  16.729 -12.034  1.00  0.00     0.004 C 
ENDROOT
BRANCH   1   2
ATOM      2  C   UNL     1      -8.960  18.248 -12.267  1.00  0.00     0.000 C 
BRANCH   2   3
ATOM      3  C   UNL     1      -8.424  18.619 -13.657  1.00  0.00     0.000 C 
BRANCH   3   4
ATOM      4  C   UNL     1      -8.178  20.131 -13.764  1.00  0.00     0.000 C 
BRANCH   4   5
ATOM      5  C   UNL     1      -7.188  20.493 -14.884  1.00  0.00     0.006 C 
BRANCH   5   6
ATOM      6  C   UNL     1      -5.869  21.060 -14.344  1.00  0.00     0.053 C 
BRANCH   6   7
ATOM      7  C   UNL     1      -5.482  20.364 -13.078  1.00  0.00     0.041 C 
ATOM      8  O   UNL     1      -5.662  20.925 -11.965  1.00  0.00    -0.550 OA
ATOM      9  O   UNL     1      -4.875  19.115 -13.129  1.00  0.00    -0.550 OA
ENDBRANCH   6   7
ENDBRANCH   5   6
ENDBRANCH   4   5
ENDBRANCH   3   4
ENDBRANCH   2   3
ENDBRANCH   1   2
BRANCH   1  10
ATOM     10  C   UNL     1      -7.844  15.992 -12.717  1.00  0.00     0.027 C 
BRANCH  10  11
ATOM     11  C   UNL     1      -7.885  16.203 -14.209  1.00  0.00    -0.031 C 
ATOM     12  C   UNL     1      -6.844  16.003 -15.038  1.00  0.00    -0.031 C 
BRANCH  12  13
ATOM     13  C   UNL     1      -5.450  15.631 -14.593  1.00  0.00     0.027 C 
BRANCH  13  14
ATOM     14  C   UNL     1      -5.018  14.254 -15.125  1.00  0.00     0.004 C 
BRANCH  14  15
ATOM     15  C   UNL     1      -4.891  13.167 -14.042  1.00  0.00     0.000 C 
BRANCH  15  16
ATOM     16  C   UNL     1      -6.199  12.392 -13.818  1.00  0.00    -0.000 C 
BRANCH  16  17
ATOM     17  C   UNL     1      -7.097  12.465 -15.058  1.00  0.00    -0.003 C 
ATOM     18  C   UNL     1      -8.515  12.889 -14.687  1.00  0.00     0.004 C 
ENDBRANCH  16  17
ENDBRANCH  15  16
ENDBRANCH  14  15
ENDBRANCH  13  14
ENDBRANCH  12  13
ENDBRANCH  10  11
ENDBRANCH   1  10
TORSDOF 13
ENDMDL
MODEL 4
REMARK VINA RESULT:    -2.201      2.906      6.045
REMARK INTER + INTRA:          -4.843
REMARK INTER:                  -4.380
REMARK INTRA:                  -0.463
REMARK UNBOUND:                -0.970
REMARK SMILES CCCCCCC=CCCCCCCCC(=O)[O-]
REMARK SMILES IDX 10 1 11 2 12 3 13 4 14 5 15 6 16 7 17 8 18 9 9 10 8 11 7 12
REMARK SMILES IDX 6 13 5 14 4 15 3 16 2 17 1 18
REMARK H PARENT
REMARK Flexibility Score: inf
ROOT
ATOM      1  C   UNL     1      -7.642  15.737 -12.831  1.00  0.00     0.004 C 
ENDROOT
BRANCH   1   2
ATOM      2  C   UNL     1      -7.071  15.847 -14.254  1.00  0.00     0.000 C 
BRANCH   2   3
ATOM      3  C   UNL     1      -5.539  15.950 -14.272  1.00  0.00     0.000 C 
BRANCH   3   4
ATOM      4  C   UNL     1      -4.925  14.830 -15.125  1.00  0.00     0.000 C 
BRANCH   4   5
ATOM      5  C   UNL     1      -5.031  13.450 -14.456  1.00  0.00     0.006 C 
BRANCH   5   6
ATOM      6  C   UNL     1      -6.129  12.577 -15.076  1.00  0.00     0.053 C 
BRANCH   6   7
ATOM      7  C   UNL     1      -7.349  12.579 -14.209  1.00  0.00     0.041 C 
ATOM      8  O   UNL     1      -7.246  12.392 -12.969  1.00  0.00    -0.550 OA
ATOM      9  O   UNL     1      -8.606  12.739 -14.779  1.00  0.00    -0.550 OA
ENDBRANCH   6   7
ENDBRANCH   5   6
ENDBRANCH   4   5
ENDBRANCH   3   4
ENDBRANCH   2   3
ENDBRANCH   1   2
BRANCH   1  10
ATOM     10  C   UNL     1      -8.928  16.555 -12.646  1.00  0.00     0.027 C 
BRANCH  10  11
ATOM     11  C   UNL     1      -8.620  17.897 -12.031  1.00  0.00    -0.031 C 
ATOM     12  C   UNL     1      -8.395  19.024 -12.730  1.00  0.00    -0.031 C 
BRANCH  12  13
ATOM     13  C   UNL     1      -8.320  19.102 -14.236  1.00  0.00     0.027 C 
BRANCH  13  14
ATOM     14  C   UNL     1      -7.785  20.459 -14.723  1.00  0.00     0.004 C 
BRANCH  14  15
ATOM     15  C   UNL     1      -6.704  21.077 -13.818  1.00  0.00     0.000 C 
BRANCH  15  16
ATOM     16  C   UNL     1      -5.322  21.125 -14.487  1.00  0.00    -0.000 C 
BRANCH  16  17
ATOM     17  C   UNL     1      -4.888  19.729 -14.949  1.00  0.00    -0.003 C 
ATOM     18  C   UNL     1      -4.900  18.737 -13.789  1.00  0.00     0.004 C 
ENDBRANCH  16  17
ENDBRANCH  15  16
ENDBRANCH  14  15
ENDBRANCH  13  14
ENDBRANCH  12  13
ENDBRANCH  10  11
ENDBRANCH   1  10
TORSDOF 13
ENDMDL
MODEL 5
REMARK VINA RESULT:    -1.732      2.323      6.184
REMARK INTER + INTRA:          -4.018
REMARK INTER:                  -4.375
REMARK INTRA:                   0.356
REMARK UNBOUND:                -0.970
REMARK SMILES CCCCCCC=CCCCCCCCC(=O)[O-]
REMARK SMILES IDX 10 1 11 2 12 3 13 4 14 5 15 6 16 7 17 8 18 9 9 10 8 11 7 12
REMARK SMILES IDX 6 13 5 14 4 15 3 16 2 17 1 18
REMARK H PARENT
REMARK Flexibility Score: inf
ROOT
ATOM      1  C   UNL     1      -8.712  15.973 -11.980  1.00  0.00     0.004 C 
ENDROOT
BRANCH   1   2
ATOM      2  C   UNL     1      -7.361  15.241 -11.931  1.00  0.00     0.000 C 
BRANCH   2   3
ATOM      3  C   UNL     1      -7.513  13.713 -11.971  1.00  0.00     0.000 C 
BRANCH   3   4
ATOM      4  C   UNL     1      -6.228  13.049 -12.488  1.00  0.00     0.000 C 
BRANCH   4   5
ATOM      5  C   UNL     1      -6.040  13.221 -14.004  1.00  0.00     0.006 C 
BRANCH   5   6
ATOM      6  C   UNL     1      -7.148  12.541 -14.818  1.00  0.00     0.053 C 
BRANCH   6   7
ATOM      7  C   UNL     1      -8.368  13.407 -14.863  1.00  0.00     0.041 C 
ATOM      8  O   UNL     1      -9.511  12.901 -14.709  1.00  0.00    -0.550 OA
ATOM      9  O   UNL     1      -8.246  14.766 -15.125  1.00  0.00    -0.550 OA
ENDBRANCH   6   7
ENDBRANCH   5   6
ENDBRANCH   4   5
ENDBRANCH   3   4
ENDBRANCH   2   3
ENDBRANCH   1   2
BRANCH   1  10
ATOM     10  C   UNL     1      -8.590  17.399 -12.538  1.00  0.00     0.027 C 
BRANCH  10  11
ATOM     11  C   UNL     1      -8.606  17.384 -14.045  1.00  0.00    -0.031 C 
ATOM     12  C   UNL     1      -7.522  17.557 -14.822  1.00  0.00    -0.031 C 
BRANCH  12  13
ATOM     13  C   UNL     1      -6.141  17.888 -14.311  1.00  0.00     0.027 C 
BRANCH  13  14
ATOM     14  C   UNL     1      -5.495  19.050 -15.086  1.00  0.00     0.004 C 
BRANCH  14  15
ATOM     15  C   UNL     1      -5.004  20.208 -14.199  1.00  0.00     0.000 C 
BRANCH  15  16
ATOM     16  C   UNL     1      -5.744  20.286 -12.855  1.00  0.00    -0.000 C 
BRANCH  16  17
ATOM     17  C   UNL     1      -7.021  21.125 -12.980  1.00  0.00    -0.003 C 
ATOM     18  C   UNL     1      -7.580  21.069 -14.399  1.00  0.00     0.004 C 
ENDBRANCH  16  17
ENDBRANCH  15  16
ENDBRANCH  14  15
ENDBRANCH  13  14
ENDBRANCH  12  13
ENDBRANCH  10  11
ENDBRANCH   1  10
TORSDOF 13
ENDMDL
MODEL 6
REMARK VINA RESULT:    -1.333      2.863      6.109
REMARK INTER + INTRA:          -3.316
REMARK INTER:                  -2.454
REMARK INTRA:                  -0.862
REMARK UNBOUND:                -0.970
REMARK SMILES CCCCCCC=CCCCCCCCC(=O)[O-]
REMARK SMILES IDX 10 1 11 2 12 3 13 4 14 5 15 6 16 7 17 8 18 9 9 10 8 11 7 12
REMARK SMILES IDX 6 13 5 14 4 15 3 16 2 17 1 18
REMARK H PARENT
REMARK Flexibility Score: inf
ROOT
ATOM      1  C   UNL     1      -8.450  17.286 -12.317  1.00  0.00     0.004 C 
ENDROOT
BRANCH   1   2
ATOM      2  C   UNL     1      -8.728  16.025 -13.151  1.00  0.00     0.000 C 
BRANCH   2   3
ATOM      3  C   UNL     1      -7.830  15.926 -14.393  1.00  0.00     0.000 C 
BRANCH   3   4
ATOM      4  C   UNL     1      -7.919  14.527 -15.022  1.00  0.00     0.000 C 
BRANCH   4   5
ATOM      5  C   UNL     1      -8.081  13.414 -13.973  1.00  0.00     0.006 C 
BRANCH   5   6
ATOM      6  C   UNL     1      -7.048  12.293 -14.137  1.00  0.00     0.053 C 
BRANCH   6   7
ATOM      7  C   UNL     1      -5.688  12.775 -13.739  1.00  0.00     0.041 C 
ATOM      8  O   UNL     1      -4.928  13.303 -14.592  1.00  0.00    -0.550 OA
ATOM      9  O   UNL     1      -5.241  12.596 -12.436  1.00  0.00    -0.550 OA
ENDBRANCH   6   7
ENDBRANCH   5   6
ENDBRANCH   4   5
ENDBRANCH   3   4
ENDBRANCH   2   3
ENDBRANCH   1   2
BRANCH   1  10
ATOM     10  C   UNL     1      -8.250  18.537 -13.186  1.00  0.00     0.027 C 
BRANCH  10  11
ATOM     11  C   UNL     1      -8.606  19.783 -12.415  1.00  0.00    -0.031 C 
ATOM     12  C   UNL     1      -7.819  20.869 -12.313  1.00  0.00    -0.031 C 
BRANCH  12  13
ATOM     13  C   UNL     1      -6.420  20.973 -12.871  1.00  0.00     0.027 C 
BRANCH  13  14
ATOM     14  C   UNL     1      -6.414  21.121 -14.402  1.00  0.00     0.004 C 
BRANCH  14  15
ATOM     15  C   UNL     1      -5.350  20.268 -15.117  1.00  0.00     0.000 C 
BRANCH  15  16
ATOM     16  C   UNL     1      -4.875  19.075 -14.273  1.00  0.00    -0.000 C 
BRANCH  16  17
ATOM     17  C   UNL     1      -4.879  17.784 -15.099  1.00  0.00    -0.003 C 
ATOM     18  C   UNL     1      -4.902  16.553 -14.197  1.00  0.00     0.004 C 
ENDBRANCH  16  17
ENDBRANCH  15  16
ENDBRANCH  14  15
ENDBRANCH  13  14
ENDBRANCH  12  13
ENDBRANCH  10  11
ENDBRANCH   1  10
TORSDOF 13
ENDMDL
MODEL 7
REMARK VINA RESULT:    -1.226      1.037      3.328
REMARK INTER + INTRA:          -3.127
REMARK INTER:                  -2.874
REMARK INTRA:                  -0.252
REMARK UNBOUND:                -0.970
REMARK SMILES CCCCCCC=CCCCCCCCC(=O)[O-]
REMARK SMILES IDX 10 1 11 2 12 3 13 4 14 5 15 6 16 7 17 8 18 9 9 10 8 11 7 12
REMARK SMILES IDX 6 13 5 14 4 15 3 16 2 17 1 18
REMARK H PARENT
REMARK Flexibility Score: inf
ROOT
ATOM      1  C   UNL     1      -8.591  14.570 -14.507  1.00  0.00     0.004 C 
ENDROOT
BRANCH   1   2
ATOM      2  C   UNL     1      -7.428  15.363 -15.125  1.00  0.00     0.000 C 
BRANCH   2   3
ATOM      3  C   UNL     1      -7.628  16.882 -15.025  1.00  0.00     0.000 C 
BRANCH   3   4
ATOM      4  C   UNL     1      -6.509  17.529 -14.195  1.00  0.00     0.000 C 
BRANCH   4   5
ATOM      5  C   UNL     1      -5.624  18.472 -15.025  1.00  0.00     0.006 C 
BRANCH   5   6
ATOM      6  C   UNL     1      -5.201  19.724 -14.246  1.00  0.00     0.053 C 
BRANCH   6   7
ATOM      7  C   UNL     1      -6.403  20.438 -13.714  1.00  0.00     0.041 C 
ATOM      8  O   UNL     1      -6.522  20.645 -12.478  1.00  0.00    -0.550 OA
ATOM      9  O   UNL     1      -7.418  20.830 -14.578  1.00  0.00    -0.550 OA
ENDBRANCH   6   7
ENDBRANCH   5   6
ENDBRANCH   4   5
ENDBRANCH   3   4
ENDBRANCH   2   3
ENDBRANCH   1   2
BRANCH   1  10
ATOM     10  C   UNL     1      -8.607  13.101 -14.956  1.00  0.00     0.027 C 
BRANCH  10  11
ATOM     11  C   UNL     1      -7.202  12.578 -15.117  1.00  0.00    -0.031 C 
ATOM     12  C   UNL     1      -6.369  12.299 -14.098  1.00  0.00    -0.031 C 
BRANCH  12  13
ATOM     13  C   UNL     1      -6.676  12.554 -12.642  1.00  0.00     0.027 C 
BRANCH  13  14
ATOM     14  C   UNL     1      -6.561  14.043 -12.274  1.00  0.00     0.004 C 
BRANCH  14  15
ATOM     15  C   UNL     1      -7.675  14.555 -11.344  1.00  0.00     0.000 C 
BRANCH  15  16
ATOM     16  C   UNL     1      -7.715  16.088 -11.249  1.00  0.00    -0.000 C 
BRANCH  16  17
ATOM     17  C   UNL     1      -9.053  16.634 -11.762  1.00  0.00    -0.003 C 
ATOM     18  C   UNL     1      -8.937  18.107 -12.144  1.00  0.00     0.004 C 
ENDBRANCH  16  17
ENDBRANCH  15  16
ENDBRANCH  14  15
ENDBRANCH  13  14
ENDBRANCH  12  13
ENDBRANCH  10  11
ENDBRANCH   1  10
TORSDOF 13
ENDMDL
