MODEL 1
REMARK VINA RESULT:    37.358      0.000      0.000
REMARK INTER + INTRA:          49.721
REMARK INTER:                  49.370
REMARK INTRA:                   0.350
REMARK UNBOUND:                 0.350
REMARK SMILES CC[C@H](C=C[C@@H](C)[C@@H]1CC[C@@H]2[C@@H]3CC[C@@H]4C[C@H](O)CC[C@]4(C)[C@H]3CC[C@@]21C)C(C)C
REMARK SMILES IDX 6 1 7 2 5 3 4 4 3 5 2 6 1 7 28 8 29 9 30 10 8 11 9 12 26 13
REMARK SMILES IDX 10 14 11 15 25 16 27 17 12 18 24 19 23 20 13 21 21 22 14 23
REMARK SMILES IDX 15 24 20 25 22 26 16 27 19 28 17 29 18 30
REMARK H PARENT 18 31
REMARK Flexibility Score: inf
ROOT
ATOM      1  C   UNL     1       5.284  40.914  51.146  1.00  0.00     0.012 C 
ATOM      2  C   UNL     1       6.538  41.643  50.612  1.00  0.00     0.012 C 
ENDROOT
BRANCH   1   3
ATOM      3  C   UNL     1       5.587  39.435  51.299  1.00  0.00    -0.028 C 
ATOM      4  C   UNL     1       6.833  38.936  51.226  1.00  0.00    -0.027 C 
BRANCH   4   5
ATOM      5  C   UNL     1       7.119  37.458  51.411  1.00  0.00     0.014 C 
BRANCH   5   6
ATOM      6  C   UNL     1       5.842  36.618  51.138  1.00  0.00     0.004 C 
ATOM      7  C   UNL     1       5.215  36.912  49.774  1.00  0.00     0.004 C 
ENDBRANCH   5   6
BRANCH   5   8
ATOM      8  C   UNL     1       8.329  37.034  50.520  1.00  0.00    -0.011 C 
ATOM      9  C   UNL     1       7.973  35.960  49.476  1.00  0.00     0.008 C 
ATOM     10  C   UNL     1       9.529  36.581  51.365  1.00  0.00     0.008 C 
ENDBRANCH   5   8
ENDBRANCH   4   5
ENDBRANCH   1   3
BRANCH   1  11
ATOM     11  C   UNL     1       3.927  41.126  50.376  1.00  0.00     0.002 C 
ATOM     12  C   UNL     1       3.988  41.077  48.841  1.00  0.00     0.005 C 
ATOM     13  C   UNL     1       3.054  42.372  50.722  1.00  0.00    -0.026 C 
ATOM     14  C   UNL     1       2.766  41.850  48.337  1.00  0.00     0.005 C 
ATOM     15  C   UNL     1       2.004  42.337  49.585  1.00  0.00    -0.001 C 
ATOM     16  C   UNL     1       3.870  43.695  50.669  1.00  0.00     0.007 C 
ATOM     17  C   UNL     1       2.372  42.208  52.105  1.00  0.00     0.012 C 
ATOM     18  C   UNL     1       1.188  43.652  49.408  1.00  0.00    -0.004 C 
ATOM     19  C   UNL     1       3.006  44.956  50.554  1.00  0.00     0.005 C 
ATOM     20  C   UNL     1       2.075  44.920  49.316  1.00  0.00    -0.001 C 
ATOM     21  C   UNL     1       0.263  43.570  48.187  1.00  0.00     0.004 C 
ATOM     22  C   UNL     1       1.239  46.263  49.027  1.00  0.00    -0.026 C 
ATOM     23  C   UNL     1      -0.702  44.759  48.091  1.00  0.00     0.004 C 
ATOM     24  C   UNL     1      -0.312  45.995  48.945  1.00  0.00    -0.002 C 
ATOM     25  C   UNL     1       1.701  46.855  47.659  1.00  0.00     0.010 C 
ATOM     26  C   UNL     1       1.487  47.331  50.141  1.00  0.00     0.012 C 
ATOM     27  C   UNL     1      -1.124  47.240  48.479  1.00  0.00     0.036 C 
ATOM     28  C   UNL     1       0.944  48.125  47.241  1.00  0.00     0.032 C 
ATOM     29  C   UNL     1      -0.579  47.924  47.202  1.00  0.00     0.114 C 
BRANCH  29  30
ATOM     30  O   UNL     1      -0.924  47.189  46.054  1.00  0.00    -0.393 OA
ATOM     31  H   UNL     1      -0.347  47.513  45.314  1.00  0.00     0.210 HD
ENDBRANCH  29  30
ENDBRANCH   1  11
TORSDOF 6
ENDMDL
