MODEL 1
REMARK VINA RESULT:     8.374      0.000      0.000
REMARK INTER + INTRA:          10.629
REMARK INTER:                  10.088
REMARK INTRA:                   0.541
REMARK UNBOUND:                 0.541
REMARK SMILES O=c1c(O)c(-c2ccc(O)c(O)c2)oc2cc(O)cc(O)c12
REMARK SMILES IDX 5 1 3 2 2 3 1 4 22 5 20 6 19 7 17 8 16 9 15 10 14 11 6 12
REMARK SMILES IDX 7 13 8 14 9 15 13 16 11 17 10 18 12 20 4 22 21 24 18 26
REMARK H PARENT 10 19 12 21 4 23 21 25 18 27
REMARK Flexibility Score: inf
ROOT
ATOM      1  C   UNL     1      39.076 -14.729  18.978  1.00  0.00     0.180 A 
ATOM      2  C   UNL     1      40.028 -14.565  17.956  1.00  0.00     0.208 A 
ATOM      3  C   UNL     1      39.591 -14.489  16.624  1.00  0.00     0.238 A 
ATOM      4  O   UNL     1      40.451 -14.397  15.710  1.00  0.00    -0.285 OA
ATOM      5  C   UNL     1      38.208 -14.559  16.331  1.00  0.00     0.111 A 
ATOM      6  C   UNL     1      37.651 -14.452  15.021  1.00  0.00     0.134 A 
ATOM      7  C   UNL     1      36.279 -14.667  14.835  1.00  0.00     0.093 A 
ATOM      8  C   UNL     1      35.436 -14.921  15.916  1.00  0.00     0.123 A 
ATOM      9  C   UNL     1      35.961 -14.970  17.208  1.00  0.00     0.094 A 
ATOM     10  C   UNL     1      37.331 -14.795  17.423  1.00  0.00     0.146 A 
ATOM     11  O   UNL     1      37.792 -14.858  18.665  1.00  0.00    -0.452 OA
ENDROOT
BRANCH   1  12
ATOM     12  C   UNL     1      39.457 -14.794  20.407  1.00  0.00     0.025 A 
ATOM     13  C   UNL     1      40.816 -14.810  20.760  1.00  0.00     0.016 A 
ATOM     14  C   UNL     1      41.198 -14.891  22.101  1.00  0.00     0.051 A 
ATOM     15  C   UNL     1      40.232 -14.974  23.108  1.00  0.00     0.157 A 
ATOM     16  C   UNL     1      38.487 -14.897  21.420  1.00  0.00     0.062 A 
ATOM     17  C   UNL     1      38.869 -14.982  22.767  1.00  0.00     0.158 A 
BRANCH  15  18
ATOM     18  O   UNL     1      40.644 -15.052  24.438  1.00  0.00    -0.504 OA
ATOM     19  H   UNL     1      40.988 -15.914  24.844  1.00  0.00     0.293 HD
ENDBRANCH  15  18
BRANCH  17  20
ATOM     20  O   UNL     1      37.900 -15.078  23.765  1.00  0.00    -0.504 OA
ATOM     21  H   UNL     1      36.994 -15.496  23.587  1.00  0.00     0.293 HD
ENDBRANCH  17  20
ENDBRANCH   1  12
BRANCH   2  22
ATOM     22  O   UNL     1      41.390 -14.520  18.266  1.00  0.00    -0.502 OA
ATOM     23  H   UNL     1      42.065 -15.147  17.844  1.00  0.00     0.293 HD
ENDBRANCH   2  22
BRANCH   6  24
ATOM     24  O   UNL     1      38.389 -14.112  13.884  1.00  0.00    -0.507 OA
ATOM     25  H   UNL     1      38.422 -13.190  13.475  1.00  0.00     0.293 HD
ENDBRANCH   6  24
BRANCH   8  26
ATOM     26  O   UNL     1      34.074 -15.114  15.694  1.00  0.00    -0.508 OA
ATOM     27  H   UNL     1      33.486 -15.576  16.380  1.00  0.00     0.293 HD
ENDBRANCH   8  26
TORSDOF 6
ENDMDL
