MODEL 1
REMARK VINA RESULT:    -6.499      0.000      0.000
REMARK INTER + INTRA:          -9.514
REMARK INTER:                  -8.779
REMARK INTRA:                  -0.735
REMARK UNBOUND:                -0.735
REMARK SMILES O=c1c(-c2ccc(O)cc2)coc2c([C@H]3O[C@H](CO)[C@H](O)[C@H](O)[C@@H]3O)c(O)ccc12
REMARK SMILES IDX 3 1 11 2 12 3 13 4 30 5 2 6 1 7 29 8 28 9 26 10 14 11 4 12
REMARK SMILES IDX 5 13 6 14 7 15 10 16 9 17 8 18 15 20 24 21 16 22 22 23 17 24
REMARK SMILES IDX 20 25 25 26 23 28 18 30 19 31 21 33 27 35
REMARK H PARENT 8 19 25 27 23 29 19 32 21 34 27 36
REMARK Flexibility Score: inf
ROOT
ATOM      1  C   UNL     1      23.233   0.705 102.672  1.00  0.00     0.065 A 
ATOM      2  C   UNL     1      22.410  -0.245 102.053  1.00  0.00     0.208 A 
ATOM      3  O   UNL     1      22.922  -1.354 101.531  1.00  0.00    -0.463 OA
ATOM      4  C   UNL     1      24.222  -1.635 101.551  1.00  0.00     0.147 A 
ATOM      5  C   UNL     1      25.127  -0.727 102.150  1.00  0.00     0.066 A 
ATOM      6  C   UNL     1      24.618   0.456 102.715  1.00  0.00     0.200 A 
ATOM      7  O   UNL     1      25.399   1.300 103.236  1.00  0.00    -0.288 OA
ATOM      8  C   UNL     1      26.500  -1.015 102.152  1.00  0.00     0.020 A 
ATOM      9  C   UNL     1      26.970  -2.190 101.570  1.00  0.00     0.047 A 
ATOM     10  C   UNL     1      26.085  -3.099 100.978  1.00  0.00     0.125 A 
ATOM     11  C   UNL     1      24.695  -2.838 100.974  1.00  0.00     0.069 A 
ENDROOT
BRANCH   1  12
ATOM     12  C   UNL     1      22.637   1.933 103.255  1.00  0.00    -0.011 A 
ATOM     13  C   UNL     1      21.559   1.840 104.155  1.00  0.00     0.013 A 
ATOM     14  C   UNL     1      20.997   2.994 104.707  1.00  0.00     0.047 A 
ATOM     15  C   UNL     1      21.508   4.256 104.374  1.00  0.00     0.115 A 
ATOM     16  C   UNL     1      23.147   3.203 102.931  1.00  0.00     0.013 A 
ATOM     17  C   UNL     1      22.584   4.356 103.487  1.00  0.00     0.047 A 
BRANCH  15  18
ATOM     18  O   UNL     1      20.953   5.414 104.917  1.00  0.00    -0.508 OA
ATOM     19  H   UNL     1      21.472   6.283 104.954  1.00  0.00     0.293 HD
ENDBRANCH  15  18
ENDBRANCH   1  12
BRANCH  11  20
ATOM     20  C   UNL     1      23.729  -3.816 100.319  1.00  0.00     0.188 C 
ATOM     21  C   UNL     1      23.379  -4.958 101.303  1.00  0.00     0.179 C 
ATOM     22  O   UNL     1      24.325  -4.322  99.134  1.00  0.00    -0.362 OA
ATOM     23  C   UNL     1      22.403  -5.952 100.651  1.00  0.00     0.177 C 
ATOM     24  C   UNL     1      23.488  -5.220  98.416  1.00  0.00     0.176 C 
ATOM     25  C   UNL     1      22.952  -6.396  99.282  1.00  0.00     0.177 C 
BRANCH  21  26
ATOM     26  O   UNL     1      22.860  -4.466 102.515  1.00  0.00    -0.387 OA
ATOM     27  H   UNL     1      22.741  -5.233 103.134  1.00  0.00     0.211 HD
ENDBRANCH  21  26
BRANCH  23  28
ATOM     28  O   UNL     1      21.126  -5.385 100.505  1.00  0.00    -0.387 OA
ATOM     29  H   UNL     1      21.209  -4.633  99.862  1.00  0.00     0.211 HD
ENDBRANCH  23  28
BRANCH  24  30
ATOM     30  C   UNL     1      22.457  -4.485  97.530  1.00  0.00     0.191 C 
BRANCH  30  31
ATOM     31  O   UNL     1      21.137  -4.796  97.875  1.00  0.00    -0.394 OA
ATOM     32  H   UNL     1      21.176  -5.634  98.406  1.00  0.00     0.210 HD
ENDBRANCH  30  31
ENDBRANCH  24  30
BRANCH  25  33
ATOM     33  O   UNL     1      21.981  -7.123  98.572  1.00  0.00    -0.388 OA
ATOM     34  H   UNL     1      22.449  -7.569  97.818  1.00  0.00     0.211 HD
ENDBRANCH  25  33
ENDBRANCH  11  20
BRANCH  10  35
ATOM     35  O   UNL     1      26.590  -4.258 100.387  1.00  0.00    -0.507 OA
ATOM     36  H   UNL     1      27.400  -4.238  99.778  1.00  0.00     0.293 HD
ENDBRANCH  10  35
TORSDOF 9
ENDMDL
MODEL 2
REMARK VINA RESULT:    -6.450      5.420      9.530
REMARK INTER + INTRA:          -9.448
REMARK INTER:                  -8.541
REMARK INTRA:                  -0.907
REMARK UNBOUND:                -0.735
REMARK SMILES O=c1c(-c2ccc(O)cc2)coc2c([C@H]3O[C@H](CO)[C@H](O)[C@H](O)[C@@H]3O)c(O)ccc12
REMARK SMILES IDX 3 1 11 2 12 3 13 4 30 5 2 6 1 7 29 8 28 9 26 10 14 11 4 12
REMARK SMILES IDX 5 13 6 14 7 15 10 16 9 17 8 18 15 20 24 21 16 22 22 23 17 24
REMARK SMILES IDX 20 25 25 26 23 28 18 30 19 31 21 33 27 35
REMARK H PARENT 8 19 25 27 23 29 19 32 21 34 27 36
REMARK Flexibility Score: inf
ROOT
ATOM      1  C   UNL     1      25.895   3.351 103.222  1.00  0.00     0.065 A 
ATOM      2  C   UNL     1      26.907   4.076 103.865  1.00  0.00     0.208 A 
ATOM      3  O   UNL     1      28.033   3.484 104.246  1.00  0.00    -0.463 OA
ATOM      4  C   UNL     1      28.276   2.189 104.055  1.00  0.00     0.147 A 
ATOM      5  C   UNL     1      27.304   1.380 103.420  1.00  0.00     0.066 A 
ATOM      6  C   UNL     1      26.100   1.976 103.002  1.00  0.00     0.200 A 
ATOM      7  O   UNL     1      25.202   1.279 102.454  1.00  0.00    -0.288 OA
ATOM      8  C   UNL     1      27.552   0.011 103.238  1.00  0.00     0.020 A 
ATOM      9  C   UNL     1      28.749  -0.549 103.678  1.00  0.00     0.047 A 
ATOM     10  C   UNL     1      29.721   0.242 104.304  1.00  0.00     0.125 A 
ATOM     11  C   UNL     1      29.500   1.627 104.488  1.00  0.00     0.069 A 
ENDROOT
BRANCH   1  12
ATOM     12  C   UNL     1      24.647   4.037 102.800  1.00  0.00    -0.011 A 
ATOM     13  C   UNL     1      24.693   5.062 101.838  1.00  0.00     0.013 A 
ATOM     14  C   UNL     1      23.520   5.708 101.436  1.00  0.00     0.047 A 
ATOM     15  C   UNL     1      22.286   5.334 101.985  1.00  0.00     0.115 A 
ATOM     16  C   UNL     1      23.404   3.663 103.341  1.00  0.00     0.013 A 
ATOM     17  C   UNL     1      22.233   4.310 102.936  1.00  0.00     0.047 A 
BRANCH  15  18
ATOM     18  O   UNL     1      21.111   5.973 101.593  1.00  0.00    -0.508 OA
ATOM     19  H   UNL     1      20.305   6.022 102.205  1.00  0.00     0.293 HD
ENDBRANCH  15  18
ENDBRANCH   1  12
BRANCH  11  20
ATOM     20  C   UNL     1      30.547   2.489 105.180  1.00  0.00     0.188 C 
ATOM     21  C   UNL     1      31.655   2.890 104.177  1.00  0.00     0.179 C 
ATOM     22  O   UNL     1      31.083   1.764 106.277  1.00  0.00    -0.362 OA
ATOM     23  C   UNL     1      32.718   3.762 104.867  1.00  0.00     0.177 C 
ATOM     24  C   UNL     1      32.048   2.494 107.024  1.00  0.00     0.176 C 
ATOM     25  C   UNL     1      33.203   3.068 106.154  1.00  0.00     0.177 C 
BRANCH  21  26
ATOM     26  O   UNL     1      31.129   3.541 103.046  1.00  0.00    -0.387 OA
ATOM     27  H   UNL     1      30.145   3.406 103.042  1.00  0.00     0.211 HD
ENDBRANCH  21  26
BRANCH  23  28
ATOM     28  O   UNL     1      32.212   5.039 105.162  1.00  0.00    -0.387 OA
ATOM     29  H   UNL     1      32.921   5.696 104.938  1.00  0.00     0.211 HD
ENDBRANCH  23  28
BRANCH  24  30
ATOM     30  C   UNL     1      31.398   3.461 108.040  1.00  0.00     0.191 C 
BRANCH  30  31
ATOM     31  O   UNL     1      31.564   4.803 107.681  1.00  0.00    -0.394 OA
ATOM     32  H   UNL     1      30.656   5.160 107.499  1.00  0.00     0.210 HD
ENDBRANCH  30  31
ENDBRANCH  24  30
BRANCH  25  33
ATOM     33  O   UNL     1      34.002   3.938 106.915  1.00  0.00    -0.388 OA
ATOM     34  H   UNL     1      34.728   3.389 107.313  1.00  0.00     0.211 HD
ENDBRANCH  25  33
ENDBRANCH  11  20
BRANCH  10  35
ATOM     35  O   UNL     1      30.902  -0.352 104.750  1.00  0.00    -0.507 OA
ATOM     36  H   UNL     1      31.584  -0.734 104.104  1.00  0.00     0.293 HD
ENDBRANCH  10  35
TORSDOF 9
ENDMDL
MODEL 3
REMARK VINA RESULT:    -6.402      5.360      9.345
REMARK INTER + INTRA:          -9.382
REMARK INTER:                  -8.925
REMARK INTRA:                  -0.458
REMARK UNBOUND:                -0.735
REMARK SMILES O=c1c(-c2ccc(O)cc2)coc2c([C@H]3O[C@H](CO)[C@H](O)[C@H](O)[C@@H]3O)c(O)ccc12
REMARK SMILES IDX 3 1 11 2 12 3 13 4 30 5 2 6 1 7 29 8 28 9 26 10 14 11 4 12
REMARK SMILES IDX 5 13 6 14 7 15 10 16 9 17 8 18 15 20 24 21 16 22 22 23 17 24
REMARK SMILES IDX 20 25 25 26 23 28 18 30 19 31 21 33 27 35
REMARK H PARENT 8 19 25 27 23 29 19 32 21 34 27 36
REMARK Flexibility Score: inf
ROOT
ATOM      1  C   UNL     1      25.618   3.455 103.172  1.00  0.00     0.065 A 
ATOM      2  C   UNL     1      26.695   4.219 103.642  1.00  0.00     0.208 A 
ATOM      3  O   UNL     1      27.868   3.655 103.903  1.00  0.00    -0.463 OA
ATOM      4  C   UNL     1      28.101   2.354 103.747  1.00  0.00     0.147 A 
ATOM      5  C   UNL     1      27.067   1.507 103.283  1.00  0.00     0.066 A 
ATOM      6  C   UNL     1      25.812   2.073 102.995  1.00  0.00     0.200 A 
ATOM      7  O   UNL     1      24.860   1.343 102.603  1.00  0.00    -0.288 OA
ATOM      8  C   UNL     1      27.308   0.132 103.139  1.00  0.00     0.020 A 
ATOM      9  C   UNL     1      28.559  -0.396 103.449  1.00  0.00     0.047 A 
ATOM     10  C   UNL     1      29.593   0.432 103.904  1.00  0.00     0.125 A 
ATOM     11  C   UNL     1      29.379   1.823 104.046  1.00  0.00     0.069 A 
ENDROOT
BRANCH   1  12
ATOM     12  C   UNL     1      24.318   4.111 102.880  1.00  0.00    -0.011 A 
ATOM     13  C   UNL     1      24.194   4.984 101.784  1.00  0.00     0.013 A 
ATOM     14  C   UNL     1      22.971   5.600 101.505  1.00  0.00     0.047 A 
ATOM     15  C   UNL     1      21.854   5.347 102.313  1.00  0.00     0.115 A 
ATOM     16  C   UNL     1      23.190   3.857 103.682  1.00  0.00     0.013 A 
ATOM     17  C   UNL     1      21.968   4.474 103.399  1.00  0.00     0.047 A 
BRANCH  15  18
ATOM     18  O   UNL     1      20.630   5.958 102.045  1.00  0.00    -0.508 OA
ATOM     19  H   UNL     1      19.858   5.443 101.639  1.00  0.00     0.293 HD
ENDBRANCH  15  18
ENDBRANCH   1  12
BRANCH  11  20
ATOM     20  C   UNL     1      30.494   2.726 104.554  1.00  0.00     0.188 C 
ATOM     21  C   UNL     1      30.360   2.931 106.082  1.00  0.00     0.179 C 
ATOM     22  O   UNL     1      30.431   3.963 103.861  1.00  0.00    -0.362 OA
ATOM     23  C   UNL     1      31.483   3.841 106.605  1.00  0.00     0.177 C 
ATOM     24  C   UNL     1      31.459   4.874 104.230  1.00  0.00     0.176 C 
ATOM     25  C   UNL     1      31.542   5.130 105.762  1.00  0.00     0.177 C 
BRANCH  21  26
ATOM     26  O   UNL     1      30.342   1.706 106.776  1.00  0.00    -0.387 OA
ATOM     27  H   UNL     1      31.224   1.268 106.653  1.00  0.00     0.211 HD
ENDBRANCH  21  26
BRANCH  23  28
ATOM     28  O   UNL     1      32.724   3.182 106.577  1.00  0.00    -0.387 OA
ATOM     29  H   UNL     1      33.219   3.521 105.786  1.00  0.00     0.211 HD
ENDBRANCH  23  28
BRANCH  24  30
ATOM     30  C   UNL     1      32.792   4.586 103.502  1.00  0.00     0.191 C 
BRANCH  30  31
ATOM     31  O   UNL     1      33.502   5.755 103.206  1.00  0.00    -0.394 OA
ATOM     32  H   UNL     1      32.948   6.265 102.560  1.00  0.00     0.210 HD
ENDBRANCH  30  31
ENDBRANCH  24  30
BRANCH  25  33
ATOM     33  O   UNL     1      32.694   5.872 106.073  1.00  0.00    -0.388 OA
ATOM     34  H   UNL     1      32.389   6.779 106.341  1.00  0.00     0.211 HD
ENDBRANCH  25  33
ENDBRANCH  11  20
BRANCH  10  35
ATOM     35  O   UNL     1      30.829  -0.131 104.223  1.00  0.00    -0.507 OA
ATOM     36  H   UNL     1      31.686   0.175 103.775  1.00  0.00     0.293 HD
ENDBRANCH  10  35
TORSDOF 9
ENDMDL
MODEL 4
REMARK VINA RESULT:    -6.344      4.785      8.283
REMARK INTER + INTRA:          -9.305
REMARK INTER:                  -8.631
REMARK INTRA:                  -0.674
REMARK UNBOUND:                -0.735
REMARK SMILES O=c1c(-c2ccc(O)cc2)coc2c([C@H]3O[C@H](CO)[C@H](O)[C@H](O)[C@@H]3O)c(O)ccc12
REMARK SMILES IDX 3 1 11 2 12 3 13 4 30 5 2 6 1 7 29 8 28 9 26 10 14 11 4 12
REMARK SMILES IDX 5 13 6 14 7 15 10 16 9 17 8 18 15 20 24 21 16 22 22 23 17 24
REMARK SMILES IDX 20 25 25 26 23 28 18 30 19 31 21 33 27 35
REMARK H PARENT 8 19 25 27 23 29 19 32 21 34 27 36
REMARK Flexibility Score: inf
ROOT
ATOM      1  C   UNL     1      24.690   3.289 103.092  1.00  0.00     0.065 A 
ATOM      2  C   UNL     1      25.924   3.932 103.259  1.00  0.00     0.208 A 
ATOM      3  O   UNL     1      27.056   3.238 103.292  1.00  0.00    -0.463 OA
ATOM      4  C   UNL     1      27.101   1.913 103.178  1.00  0.00     0.147 A 
ATOM      5  C   UNL     1      25.900   1.182 103.015  1.00  0.00     0.066 A 
ATOM      6  C   UNL     1      24.684   1.886 102.974  1.00  0.00     0.200 A 
ATOM      7  O   UNL     1      23.592   1.264 102.853  1.00  0.00    -0.288 OA
ATOM      8  C   UNL     1      25.947  -0.217 102.917  1.00  0.00     0.020 A 
ATOM      9  C   UNL     1      27.170  -0.883 102.978  1.00  0.00     0.047 A 
ATOM     10  C   UNL     1      28.365  -0.171 103.135  1.00  0.00     0.125 A 
ATOM     11  C   UNL     1      28.345   1.241 103.224  1.00  0.00     0.069 A 
ENDROOT
BRANCH   1  12
ATOM     12  C   UNL     1      23.439   4.087 103.051  1.00  0.00    -0.011 A 
ATOM     13  C   UNL     1      23.083   4.787 101.884  1.00  0.00     0.013 A 
ATOM     14  C   UNL     1      21.904   5.537 101.841  1.00  0.00     0.047 A 
ATOM     15  C   UNL     1      21.062   5.593 102.961  1.00  0.00     0.115 A 
ATOM     16  C   UNL     1      22.586   4.143 104.168  1.00  0.00     0.013 A 
ATOM     17  C   UNL     1      21.407   4.893 104.121  1.00  0.00     0.047 A 
BRANCH  15  18
ATOM     18  O   UNL     1      19.886   6.340 102.929  1.00  0.00    -0.508 OA
ATOM     19  H   UNL     1      19.892   7.343 103.067  1.00  0.00     0.293 HD
ENDBRANCH  15  18
ENDBRANCH   1  12
BRANCH  11  20
ATOM     20  C   UNL     1      29.641   2.019 103.408  1.00  0.00     0.188 C 
ATOM     21  C   UNL     1      30.623   1.702 102.255  1.00  0.00     0.179 C 
ATOM     22  O   UNL     1      30.201   1.681 104.668  1.00  0.00    -0.362 OA
ATOM     23  C   UNL     1      31.934   2.485 102.432  1.00  0.00     0.177 C 
ATOM     24  C   UNL     1      31.400   2.386 104.964  1.00  0.00     0.176 C 
ATOM     25  C   UNL     1      32.483   2.263 103.855  1.00  0.00     0.177 C 
BRANCH  21  26
ATOM     26  O   UNL     1      30.051   1.959 100.994  1.00  0.00    -0.387 OA
ATOM     27  H   UNL     1      30.317   1.225 100.380  1.00  0.00     0.211 HD
ENDBRANCH  21  26
BRANCH  23  28
ATOM     28  O   UNL     1      31.743   3.856 102.191  1.00  0.00    -0.387 OA
ATOM     29  H   UNL     1      32.562   4.193 101.743  1.00  0.00     0.211 HD
ENDBRANCH  23  28
BRANCH  24  30
ATOM     30  C   UNL     1      31.130   3.804 105.516  1.00  0.00     0.191 C 
BRANCH  30  31
ATOM     31  O   UNL     1      30.395   3.783 106.706  1.00  0.00    -0.394 OA
ATOM     32  H   UNL     1      29.802   4.578 106.685  1.00  0.00     0.210 HD
ENDBRANCH  30  31
ENDBRANCH  24  30
BRANCH  25  33
ATOM     33  O   UNL     1      33.552   3.137 104.115  1.00  0.00    -0.388 OA
ATOM     34  H   UNL     1      33.676   3.155 105.100  1.00  0.00     0.211 HD
ENDBRANCH  25  33
ENDBRANCH  11  20
BRANCH  10  35
ATOM     35  O   UNL     1      29.571  -0.868 103.210  1.00  0.00    -0.507 OA
ATOM     36  H   UNL     1      29.605  -1.849 103.466  1.00  0.00     0.293 HD
ENDBRANCH  10  35
TORSDOF 9
ENDMDL
MODEL 5
REMARK VINA RESULT:    -6.288      3.834      6.573
REMARK INTER + INTRA:          -9.229
REMARK INTER:                  -8.284
REMARK INTRA:                  -0.945
REMARK UNBOUND:                -0.735
REMARK SMILES O=c1c(-c2ccc(O)cc2)coc2c([C@H]3O[C@H](CO)[C@H](O)[C@H](O)[C@@H]3O)c(O)ccc12
REMARK SMILES IDX 3 1 11 2 12 3 13 4 30 5 2 6 1 7 29 8 28 9 26 10 14 11 4 12
REMARK SMILES IDX 5 13 6 14 7 15 10 16 9 17 8 18 15 20 24 21 16 22 22 23 17 24
REMARK SMILES IDX 20 25 25 26 23 28 18 30 19 31 21 33 27 35
REMARK H PARENT 8 19 25 27 23 29 19 32 21 34 27 36
REMARK Flexibility Score: inf
ROOT
ATOM      1  C   UNL     1      23.654   2.493 103.018  1.00  0.00     0.065 A 
ATOM      2  C   UNL     1      25.018   2.803 102.937  1.00  0.00     0.208 A 
ATOM      3  O   UNL     1      25.935   1.843 102.893  1.00  0.00    -0.463 OA
ATOM      4  C   UNL     1      25.634   0.547 102.928  1.00  0.00     0.147 A 
ATOM      5  C   UNL     1      24.280   0.144 103.018  1.00  0.00     0.066 A 
ATOM      6  C   UNL     1      23.284   1.136 103.064  1.00  0.00     0.200 A 
ATOM      7  O   UNL     1      22.069   0.812 103.168  1.00  0.00    -0.288 OA
ATOM      8  C   UNL     1      23.966  -1.222 103.075  1.00  0.00     0.020 A 
ATOM      9  C   UNL     1      24.980  -2.177 103.043  1.00  0.00     0.047 A 
ATOM     10  C   UNL     1      26.323  -1.791 102.950  1.00  0.00     0.125 A 
ATOM     11  C   UNL     1      26.665  -0.420 102.878  1.00  0.00     0.069 A 
ENDROOT
BRANCH   1  12
ATOM     12  C   UNL     1      22.648   3.584 103.059  1.00  0.00    -0.011 A 
ATOM     13  C   UNL     1      22.049   3.950 104.278  1.00  0.00     0.013 A 
ATOM     14  C   UNL     1      21.104   4.979 104.321  1.00  0.00     0.047 A 
ATOM     15  C   UNL     1      20.750   5.660 103.148  1.00  0.00     0.115 A 
ATOM     16  C   UNL     1      22.293   4.277 101.888  1.00  0.00     0.013 A 
ATOM     17  C   UNL     1      21.348   5.307 101.934  1.00  0.00     0.047 A 
BRANCH  15  18
ATOM     18  O   UNL     1      19.807   6.686 103.179  1.00  0.00    -0.508 OA
ATOM     19  H   UNL     1      20.056   7.626 103.463  1.00  0.00     0.293 HD
ENDBRANCH  15  18
ENDBRANCH   1  12
BRANCH  11  20
ATOM     20  C   UNL     1      28.124   0.005 102.790  1.00  0.00     0.188 C 
ATOM     21  C   UNL     1      28.774  -0.577 101.512  1.00  0.00     0.179 C 
ATOM     22  O   UNL     1      28.800  -0.437 103.958  1.00  0.00    -0.362 OA
ATOM     23  C   UNL     1      30.249  -0.151 101.414  1.00  0.00     0.177 C 
ATOM     24  C   UNL     1      30.169  -0.055 104.001  1.00  0.00     0.176 C 
ATOM     25  C   UNL     1      30.971  -0.475 102.736  1.00  0.00     0.177 C 
BRANCH  21  26
ATOM     26  O   UNL     1      28.068  -0.210 100.351  1.00  0.00    -0.387 OA
ATOM     27  H   UNL     1      27.313   0.375 100.621  1.00  0.00     0.211 HD
ENDBRANCH  21  26
BRANCH  23  28
ATOM     28  O   UNL     1      30.363   1.218 101.118  1.00  0.00    -0.387 OA
ATOM     29  H   UNL     1      31.329   1.414 101.004  1.00  0.00     0.211 HD
ENDBRANCH  23  28
BRANCH  24  30
ATOM     30  C   UNL     1      30.362   1.397 104.495  1.00  0.00     0.191 C 
BRANCH  30  31
ATOM     31  O   UNL     1      31.572   1.573 105.175  1.00  0.00    -0.394 OA
ATOM     32  H   UNL     1      32.200   0.895 104.812  1.00  0.00     0.210 HD
ENDBRANCH  30  31
ENDBRANCH  24  30
BRANCH  25  33
ATOM     33  O   UNL     1      32.252   0.103 102.755  1.00  0.00    -0.388 OA
ATOM     34  H   UNL     1      32.197   0.942 102.225  1.00  0.00     0.211 HD
ENDBRANCH  25  33
ENDBRANCH  11  20
BRANCH  10  35
ATOM     35  O   UNL     1      27.316  -2.771 102.937  1.00  0.00    -0.507 OA
ATOM     36  H   UNL     1      27.987  -2.861 103.692  1.00  0.00     0.293 HD
ENDBRANCH  10  35
TORSDOF 9
ENDMDL
MODEL 6
REMARK VINA RESULT:    -6.140      0.916      1.988
REMARK INTER + INTRA:          -9.028
REMARK INTER:                  -8.722
REMARK INTRA:                  -0.307
REMARK UNBOUND:                -0.735
REMARK SMILES O=c1c(-c2ccc(O)cc2)coc2c([C@H]3O[C@H](CO)[C@H](O)[C@H](O)[C@@H]3O)c(O)ccc12
REMARK SMILES IDX 3 1 11 2 12 3 13 4 30 5 2 6 1 7 29 8 28 9 26 10 14 11 4 12
REMARK SMILES IDX 5 13 6 14 7 15 10 16 9 17 8 18 15 20 24 21 16 22 22 23 17 24
REMARK SMILES IDX 20 25 25 26 23 28 18 30 19 31 21 33 27 35
REMARK H PARENT 8 19 25 27 23 29 19 32 21 34 27 36
REMARK Flexibility Score: inf
ROOT
ATOM      1  C   UNL     1      23.097   0.718 102.739  1.00  0.00     0.065 A 
ATOM      2  C   UNL     1      22.274  -0.312 102.264  1.00  0.00     0.208 A 
ATOM      3  O   UNL     1      22.792  -1.464 101.853  1.00  0.00    -0.463 OA
ATOM      4  C   UNL     1      24.098  -1.717 101.856  1.00  0.00     0.147 A 
ATOM      5  C   UNL     1      25.003  -0.729 102.312  1.00  0.00     0.066 A 
ATOM      6  C   UNL     1      24.488   0.501 102.756  1.00  0.00     0.200 A 
ATOM      7  O   UNL     1      25.268   1.414 103.147  1.00  0.00    -0.288 OA
ATOM      8  C   UNL     1      26.382  -0.990 102.294  1.00  0.00     0.020 A 
ATOM      9  C   UNL     1      26.857  -2.215 101.831  1.00  0.00     0.047 A 
ATOM     10  C   UNL     1      25.972  -3.202 101.381  1.00  0.00     0.125 A 
ATOM     11  C   UNL     1      24.577  -2.969 101.401  1.00  0.00     0.069 A 
ENDROOT
BRANCH   1  12
ATOM     12  C   UNL     1      22.494   1.994 103.200  1.00  0.00    -0.011 A 
ATOM     13  C   UNL     1      21.534   1.993 104.229  1.00  0.00     0.013 A 
ATOM     14  C   UNL     1      20.966   3.193 104.667  1.00  0.00     0.047 A 
ATOM     15  C   UNL     1      21.355   4.409 104.089  1.00  0.00     0.115 A 
ATOM     16  C   UNL     1      22.883   3.219 102.630  1.00  0.00     0.013 A 
ATOM     17  C   UNL     1      22.315   4.418 103.072  1.00  0.00     0.047 A 
BRANCH  15  18
ATOM     18  O   UNL     1      20.794   5.611 104.517  1.00  0.00    -0.508 OA
ATOM     19  H   UNL     1      21.368   6.373 104.858  1.00  0.00     0.293 HD
ENDBRANCH  15  18
ENDBRANCH   1  12
BRANCH  11  20
ATOM     20  C   UNL     1      23.611  -4.033 100.900  1.00  0.00     0.188 C 
ATOM     21  C   UNL     1      23.272  -3.787  99.411  1.00  0.00     0.179 C 
ATOM     22  O   UNL     1      22.442  -4.005 101.706  1.00  0.00    -0.362 OA
ATOM     23  C   UNL     1      22.297  -4.859  98.895  1.00  0.00     0.177 C 
ATOM     24  C   UNL     1      21.482  -4.992 101.350  1.00  0.00     0.176 C 
ATOM     25  C   UNL     1      21.088  -4.961  99.845  1.00  0.00     0.177 C 
BRANCH  21  26
ATOM     26  O   UNL     1      24.429  -3.735  98.611  1.00  0.00    -0.387 OA
ATOM     27  H   UNL     1      24.435  -2.865  98.132  1.00  0.00     0.211 HD
ENDBRANCH  21  26
BRANCH  23  28
ATOM     28  O   UNL     1      22.931  -6.106  98.775  1.00  0.00    -0.387 OA
ATOM     29  H   UNL     1      23.598  -6.169  99.508  1.00  0.00     0.211 HD
ENDBRANCH  23  28
BRANCH  24  30
ATOM     30  C   UNL     1      21.809  -6.377 101.954  1.00  0.00     0.191 C 
BRANCH  30  31
ATOM     31  O   UNL     1      20.658  -7.125 102.226  1.00  0.00    -0.394 OA
ATOM     32  H   UNL     1      20.774  -7.996 101.765  1.00  0.00     0.210 HD
ENDBRANCH  30  31
ENDBRANCH  24  30
BRANCH  25  33
ATOM     33  O   UNL     1      20.299  -6.078  99.524  1.00  0.00    -0.388 OA
ATOM     34  H   UNL     1      20.732  -6.523  98.747  1.00  0.00     0.211 HD
ENDBRANCH  25  33
ENDBRANCH  11  20
BRANCH  10  35
ATOM     35  O   UNL     1      26.481  -4.412 100.908  1.00  0.00    -0.507 OA
ATOM     36  H   UNL     1      27.157  -4.448 100.153  1.00  0.00     0.293 HD
ENDBRANCH  10  35
TORSDOF 9
ENDMDL
MODEL 7
REMARK VINA RESULT:    -6.137      4.106      8.503
REMARK INTER + INTRA:          -9.024
REMARK INTER:                  -8.055
REMARK INTRA:                  -0.969
REMARK UNBOUND:                -0.735
REMARK SMILES O=c1c(-c2ccc(O)cc2)coc2c([C@H]3O[C@H](CO)[C@H](O)[C@H](O)[C@@H]3O)c(O)ccc12
REMARK SMILES IDX 3 1 11 2 12 3 13 4 30 5 2 6 1 7 29 8 28 9 26 10 14 11 4 12
REMARK SMILES IDX 5 13 6 14 7 15 10 16 9 17 8 18 15 20 24 21 16 22 22 23 17 24
REMARK SMILES IDX 20 25 25 26 23 28 18 30 19 31 21 33 27 35
REMARK H PARENT 8 19 25 27 23 29 19 32 21 34 27 36
REMARK Flexibility Score: inf
ROOT
ATOM      1  C   UNL     1      25.265  -3.423 103.187  1.00  0.00     0.065 A 
ATOM      2  C   UNL     1      25.435  -2.263 103.954  1.00  0.00     0.208 A 
ATOM      3  O   UNL     1      26.401  -1.396 103.673  1.00  0.00    -0.463 OA
ATOM      4  C   UNL     1      27.261  -1.563 102.670  1.00  0.00     0.147 A 
ATOM      5  C   UNL     1      27.165  -2.712 101.850  1.00  0.00     0.066 A 
ATOM      6  C   UNL     1      26.152  -3.649 102.119  1.00  0.00     0.200 A 
ATOM      7  O   UNL     1      26.054  -4.697 101.422  1.00  0.00    -0.288 OA
ATOM      8  C   UNL     1      28.085  -2.898 100.807  1.00  0.00     0.020 A 
ATOM      9  C   UNL     1      29.086  -1.955 100.579  1.00  0.00     0.047 A 
ATOM     10  C   UNL     1      29.188  -0.812 101.381  1.00  0.00     0.125 A 
ATOM     11  C   UNL     1      28.265  -0.596 102.431  1.00  0.00     0.069 A 
ENDROOT
BRANCH   1  12
ATOM     12  C   UNL     1      24.173  -4.374 103.518  1.00  0.00    -0.011 A 
ATOM     13  C   UNL     1      23.115  -4.580 102.614  1.00  0.00     0.013 A 
ATOM     14  C   UNL     1      22.087  -5.476 102.920  1.00  0.00     0.047 A 
ATOM     15  C   UNL     1      22.106  -6.184 104.130  1.00  0.00     0.115 A 
ATOM     16  C   UNL     1      24.188  -5.093 104.727  1.00  0.00     0.013 A 
ATOM     17  C   UNL     1      23.159  -5.990 105.029  1.00  0.00     0.047 A 
BRANCH  15  18
ATOM     18  O   UNL     1      21.085  -7.078 104.446  1.00  0.00    -0.508 OA
ATOM     19  H   UNL     1      20.493  -6.941 105.256  1.00  0.00     0.293 HD
ENDBRANCH  15  18
ENDBRANCH   1  12
BRANCH  11  20
ATOM     20  C   UNL     1      28.380   0.638 103.315  1.00  0.00     0.188 C 
ATOM     21  C   UNL     1      27.838   1.881 102.569  1.00  0.00     0.179 C 
ATOM     22  O   UNL     1      29.741   0.812 103.683  1.00  0.00    -0.362 OA
ATOM     23  C   UNL     1      27.949   3.133 103.454  1.00  0.00     0.177 C 
ATOM     24  C   UNL     1      29.958   1.920 104.548  1.00  0.00     0.176 C 
ATOM     25  C   UNL     1      29.384   3.258 104.001  1.00  0.00     0.177 C 
BRANCH  21  26
ATOM     26  O   UNL     1      26.514   1.693 102.129  1.00  0.00    -0.387 OA
ATOM     27  H   UNL     1      25.925   2.295 102.655  1.00  0.00     0.211 HD
ENDBRANCH  21  26
BRANCH  23  28
ATOM     28  O   UNL     1      27.026   3.089 104.513  1.00  0.00    -0.387 OA
ATOM     29  H   UNL     1      27.292   2.337 105.104  1.00  0.00     0.211 HD
ENDBRANCH  23  28
BRANCH  24  30
ATOM     30  C   UNL     1      29.650   1.584 106.025  1.00  0.00     0.191 C 
BRANCH  30  31
ATOM     31  O   UNL     1      28.491   2.220 106.485  1.00  0.00    -0.394 OA
ATOM     32  H   UNL     1      28.185   1.706 107.277  1.00  0.00     0.210 HD
ENDBRANCH  30  31
ENDBRANCH  24  30
BRANCH  25  33
ATOM     33  O   UNL     1      29.455   4.258 104.984  1.00  0.00    -0.388 OA
ATOM     34  H   UNL     1      28.689   4.111 105.601  1.00  0.00     0.211 HD
ENDBRANCH  25  33
ENDBRANCH  11  20
BRANCH  10  35
ATOM     35  O   UNL     1      30.212   0.104 101.138  1.00  0.00    -0.507 OA
ATOM     36  H   UNL     1      30.050   0.962 100.624  1.00  0.00     0.293 HD
ENDBRANCH  10  35
TORSDOF 9
ENDMDL
MODEL 8
REMARK VINA RESULT:    -6.114      4.215      6.363
REMARK INTER + INTRA:          -8.993
REMARK INTER:                  -8.009
REMARK INTRA:                  -0.984
REMARK UNBOUND:                -0.735
REMARK SMILES O=c1c(-c2ccc(O)cc2)coc2c([C@H]3O[C@H](CO)[C@H](O)[C@H](O)[C@@H]3O)c(O)ccc12
REMARK SMILES IDX 3 1 11 2 12 3 13 4 30 5 2 6 1 7 29 8 28 9 26 10 14 11 4 12
REMARK SMILES IDX 5 13 6 14 7 15 10 16 9 17 8 18 15 20 24 21 16 22 22 23 17 24
REMARK SMILES IDX 20 25 25 26 23 28 18 30 19 31 21 33 27 35
REMARK H PARENT 8 19 25 27 23 29 19 32 21 34 27 36
REMARK Flexibility Score: inf
ROOT
ATOM      1  C   UNL     1      29.669   1.205 102.624  1.00  0.00     0.065 A 
ATOM      2  C   UNL     1      28.492   1.097 101.870  1.00  0.00     0.208 A 
ATOM      3  O   UNL     1      27.620   0.123 102.103  1.00  0.00    -0.463 OA
ATOM      4  C   UNL     1      27.797  -0.804 103.042  1.00  0.00     0.147 A 
ATOM      5  C   UNL     1      28.962  -0.775 103.844  1.00  0.00     0.066 A 
ATOM      6  C   UNL     1      29.905   0.245 103.626  1.00  0.00     0.200 A 
ATOM      7  O   UNL     1      30.967   0.286 104.308  1.00  0.00    -0.288 OA
ATOM      8  C   UNL     1      29.156  -1.765 104.820  1.00  0.00     0.020 A 
ATOM      9  C   UNL     1      28.208  -2.770 104.998  1.00  0.00     0.047 A 
ATOM     10  C   UNL     1      27.049  -2.807 104.212  1.00  0.00     0.125 A 
ATOM     11  C   UNL     1      26.823  -1.813 103.232  1.00  0.00     0.069 A 
ENDROOT
BRANCH   1  12
ATOM     12  C   UNL     1      30.625   2.307 102.350  1.00  0.00    -0.011 A 
ATOM     13  C   UNL     1      31.318   2.356 101.127  1.00  0.00     0.013 A 
ATOM     14  C   UNL     1      32.217   3.394 100.864  1.00  0.00     0.047 A 
ATOM     15  C   UNL     1      32.430   4.400 101.817  1.00  0.00     0.115 A 
ATOM     16  C   UNL     1      30.839   3.324 103.298  1.00  0.00     0.013 A 
ATOM     17  C   UNL     1      31.737   4.362 103.031  1.00  0.00     0.047 A 
BRANCH  15  18
ATOM     18  O   UNL     1      33.325   5.438 101.566  1.00  0.00    -0.508 OA
ATOM     19  H   UNL     1      33.800   5.921 102.318  1.00  0.00     0.293 HD
ENDBRANCH  15  18
ENDBRANCH   1  12
BRANCH  11  20
ATOM     20  C   UNL     1      25.572  -1.856 102.366  1.00  0.00     0.188 C 
ATOM     21  C   UNL     1      24.372  -1.250 103.132  1.00  0.00     0.179 C 
ATOM     22  O   UNL     1      25.319  -3.203 101.995  1.00  0.00    -0.362 OA
ATOM     23  C   UNL     1      23.102  -1.288 102.265  1.00  0.00     0.177 C 
ATOM     24  C   UNL     1      24.188  -3.356 101.146  1.00  0.00     0.176 C 
ATOM     25  C   UNL     1      22.892  -2.712 101.715  1.00  0.00     0.177 C 
BRANCH  21  26
ATOM     26  O   UNL     1      24.639   0.059 103.575  1.00  0.00    -0.387 OA
ATOM     27  H   UNL     1      24.398   0.116 104.536  1.00  0.00     0.211 HD
ENDBRANCH  21  26
BRANCH  23  28
ATOM     28  O   UNL     1      23.181  -0.364 101.210  1.00  0.00    -0.387 OA
ATOM     29  H   UNL     1      23.812  -0.737 100.539  1.00  0.00     0.211 HD
ENDBRANCH  23  28
BRANCH  24  30
ATOM     30  C   UNL     1      24.518  -3.059  99.665  1.00  0.00     0.191 C 
BRANCH  30  31
ATOM     31  O   UNL     1      23.939  -1.866  99.218  1.00  0.00    -0.394 OA
ATOM     32  H   UNL     1      24.689  -1.252  99.006  1.00  0.00     0.210 HD
ENDBRANCH  30  31
ENDBRANCH  24  30
BRANCH  25  33
ATOM     33  O   UNL     1      21.874  -2.723 100.747  1.00  0.00    -0.388 OA
ATOM     34  H   UNL     1      21.125  -3.258 101.121  1.00  0.00     0.211 HD
ENDBRANCH  25  33
ENDBRANCH  11  20
BRANCH  10  35
ATOM     35  O   UNL     1      26.127  -3.836 104.404  1.00  0.00    -0.507 OA
ATOM     36  H   UNL     1      25.248  -3.683 104.886  1.00  0.00     0.293 HD
ENDBRANCH  10  35
TORSDOF 9
ENDMDL
MODEL 9
REMARK VINA RESULT:    -6.023      3.873      5.040
REMARK INTER + INTRA:          -8.871
REMARK INTER:                  -7.924
REMARK INTRA:                  -0.947
REMARK UNBOUND:                -0.735
REMARK SMILES O=c1c(-c2ccc(O)cc2)coc2c([C@H]3O[C@H](CO)[C@H](O)[C@H](O)[C@@H]3O)c(O)ccc12
REMARK SMILES IDX 3 1 11 2 12 3 13 4 30 5 2 6 1 7 29 8 28 9 26 10 14 11 4 12
REMARK SMILES IDX 5 13 6 14 7 15 10 16 9 17 8 18 15 20 24 21 16 22 22 23 17 24
REMARK SMILES IDX 20 25 25 26 23 28 18 30 19 31 21 33 27 35
REMARK H PARENT 8 19 25 27 23 29 19 32 21 34 27 36
REMARK Flexibility Score: inf
ROOT
ATOM      1  C   UNL     1      24.485   3.254 103.093  1.00  0.00     0.065 A 
ATOM      2  C   UNL     1      24.421   1.910 102.700  1.00  0.00     0.208 A 
ATOM      3  O   UNL     1      25.507   1.147 102.701  1.00  0.00    -0.463 OA
ATOM      4  C   UNL     1      26.709   1.592 103.062  1.00  0.00     0.147 A 
ATOM      5  C   UNL     1      26.866   2.939 103.465  1.00  0.00     0.066 A 
ATOM      6  C   UNL     1      25.735   3.774 103.478  1.00  0.00     0.200 A 
ATOM      7  O   UNL     1      25.843   4.987 103.809  1.00  0.00    -0.288 OA
ATOM      8  C   UNL     1      28.138   3.412 103.825  1.00  0.00     0.020 A 
ATOM      9  C   UNL     1      29.239   2.559 103.786  1.00  0.00     0.047 A 
ATOM     10  C   UNL     1      29.096   1.223 103.392  1.00  0.00     0.125 A 
ATOM     11  C   UNL     1      27.823   0.719 103.037  1.00  0.00     0.069 A 
ENDROOT
BRANCH   1  12
ATOM     12  C   UNL     1      23.255   4.085 103.090  1.00  0.00    -0.011 A 
ATOM     13  C   UNL     1      22.873   4.782 101.929  1.00  0.00     0.013 A 
ATOM     14  C   UNL     1      21.714   5.563 101.921  1.00  0.00     0.047 A 
ATOM     15  C   UNL     1      20.917   5.653 103.071  1.00  0.00     0.115 A 
ATOM     16  C   UNL     1      22.445   4.175 104.237  1.00  0.00     0.013 A 
ATOM     17  C   UNL     1      21.286   4.956 104.225  1.00  0.00     0.047 A 
BRANCH  15  18
ATOM     18  O   UNL     1      19.760   6.430 103.074  1.00  0.00    -0.508 OA
ATOM     19  H   UNL     1      19.292   6.679 103.937  1.00  0.00     0.293 HD
ENDBRANCH  15  18
ENDBRANCH   1  12
BRANCH  11  20
ATOM     20  C   UNL     1      27.664  -0.729 102.595  1.00  0.00     0.188 C 
ATOM     21  C   UNL     1      27.533  -1.653 103.830  1.00  0.00     0.179 C 
ATOM     22  O   UNL     1      28.783  -1.089 101.800  1.00  0.00    -0.362 OA
ATOM     23  C   UNL     1      27.371  -3.118 103.394  1.00  0.00     0.177 C 
ATOM     24  C   UNL     1      28.719  -2.418 101.296  1.00  0.00     0.176 C 
ATOM     25  C   UNL     1      28.487  -3.490 102.399  1.00  0.00     0.177 C 
BRANCH  21  26
ATOM     26  O   UNL     1      26.474  -1.259 104.670  1.00  0.00    -0.387 OA
ATOM     27  H   UNL     1      26.319  -1.983 105.332  1.00  0.00     0.211 HD
ENDBRANCH  21  26
BRANCH  23  28
ATOM     28  O   UNL     1      26.109  -3.338 102.817  1.00  0.00    -0.387 OA
ATOM     29  H   UNL     1      26.073  -4.292 102.544  1.00  0.00     0.211 HD
ENDBRANCH  23  28
BRANCH  24  30
ATOM     30  C   UNL     1      27.841  -2.526 100.028  1.00  0.00     0.191 C 
BRANCH  30  31
ATOM     31  O   UNL     1      28.571  -2.314  98.854  1.00  0.00    -0.394 OA
ATOM     32  H   UNL     1      27.907  -2.201  98.125  1.00  0.00     0.210 HD
ENDBRANCH  30  31
ENDBRANCH  24  30
BRANCH  25  33
ATOM     33  O   UNL     1      28.234  -4.743 101.817  1.00  0.00    -0.388 OA
ATOM     34  H   UNL     1      28.726  -4.765 100.954  1.00  0.00     0.211 HD
ENDBRANCH  25  33
ENDBRANCH  11  20
BRANCH  10  35
ATOM     35  O   UNL     1      30.222   0.400 103.347  1.00  0.00    -0.507 OA
ATOM     36  H   UNL     1      31.159   0.781 103.285  1.00  0.00     0.293 HD
ENDBRANCH  10  35
TORSDOF 9
ENDMDL
