MODEL 1
REMARK VINA RESULT:    -8.313      0.000      0.000
REMARK INTER + INTRA:         -11.276
REMARK INTER:                 -11.229
REMARK INTRA:                  -0.047
REMARK UNBOUND:                -0.047
REMARK SMILES O=c1c(-c2ccc(O)cc2)coc2c([C@H]3O[C@@H](CO)[C@H](O)[C@H](O)[C@@H]3O)c(O)ccc12
REMARK SMILES IDX 3 1 11 2 12 3 13 4 30 5 2 6 1 7 29 8 28 9 26 10 14 11 4 12
REMARK SMILES IDX 5 13 6 14 7 15 10 16 9 17 8 18 15 20 24 21 16 22 22 23 17 24
REMARK SMILES IDX 20 25 25 26 23 28 18 30 19 31 21 33 27 35
REMARK H PARENT 8 19 25 27 23 29 19 32 21 34 27 36
REMARK Flexibility Score: inf
ROOT
ATOM      1  C   UNL     1      35.315  32.491  36.248  1.00  0.00     0.065 A 
ATOM      2  C   UNL     1      35.502  33.464  37.237  1.00  0.00     0.208 A 
ATOM      3  O   UNL     1      36.613  33.496  37.961  1.00  0.00    -0.463 OA
ATOM      4  C   UNL     1      37.614  32.635  37.814  1.00  0.00     0.147 A 
ATOM      5  C   UNL     1      37.487  31.591  36.863  1.00  0.00     0.066 A 
ATOM      6  C   UNL     1      36.326  31.531  36.070  1.00  0.00     0.200 A 
ATOM      7  O   UNL     1      36.180  30.607  35.222  1.00  0.00    -0.288 OA
ATOM      8  C   UNL     1      38.498  30.630  36.747  1.00  0.00     0.020 A 
ATOM      9  C   UNL     1      39.583  30.651  37.614  1.00  0.00     0.047 A 
ATOM     10  C   UNL     1      39.710  31.652  38.577  1.00  0.00     0.125 A 
ATOM     11  C   UNL     1      38.793  32.743  38.611  1.00  0.00     0.069 A 
ENDROOT
BRANCH   1  12
ATOM     12  C   UNL     1      34.072  32.485  35.437  1.00  0.00    -0.011 A 
ATOM     13  C   UNL     1      33.355  31.291  35.246  1.00  0.00     0.013 A 
ATOM     14  C   UNL     1      32.179  31.284  34.490  1.00  0.00     0.047 A 
ATOM     15  C   UNL     1      31.701  32.468  33.922  1.00  0.00     0.115 A 
ATOM     16  C   UNL     1      33.582  33.674  34.868  1.00  0.00     0.013 A 
ATOM     17  C   UNL     1      32.405  33.664  34.112  1.00  0.00     0.047 A 
BRANCH  15  18
ATOM     18  O   UNL     1      30.528  32.447  33.170  1.00  0.00    -0.508 OA
ATOM     19  H   UNL     1      30.179  33.279  32.710  1.00  0.00     0.293 HD
ENDBRANCH  15  18
ENDBRANCH   1  12
BRANCH  11  20
ATOM     20  C   UNL     1      39.092  33.949  39.529  1.00  0.00     0.188 C 
ATOM     21  C   UNL     1      40.481  33.991  40.244  1.00  0.00     0.179 C 
ATOM     22  O   UNL     1      38.000  34.179  40.421  1.00  0.00    -0.362 OA
ATOM     23  C   UNL     1      40.404  34.745  41.578  1.00  0.00     0.177 C 
ATOM     24  C   UNL     1      38.111  33.599  41.713  1.00  0.00     0.176 C 
ATOM     25  C   UNL     1      39.376  34.060  42.498  1.00  0.00     0.177 C 
BRANCH  21  26
ATOM     26  O   UNL     1      41.432  34.602  39.408  1.00  0.00    -0.387 OA
ATOM     27  H   UNL     1      42.317  34.221  39.649  1.00  0.00     0.211 HD
ENDBRANCH  21  26
BRANCH  23  28
ATOM     28  O   UNL     1      40.138  36.116  41.385  1.00  0.00    -0.387 OA
ATOM     29  H   UNL     1      40.833  36.494  40.788  1.00  0.00     0.211 HD
ENDBRANCH  23  28
BRANCH  24  30
ATOM     30  C   UNL     1      37.892  32.071  41.701  1.00  0.00     0.191 C 
BRANCH  30  31
ATOM     31  O   UNL     1      39.030  31.380  42.133  1.00  0.00    -0.394 OA
ATOM     32  H   UNL     1      39.565  31.190  41.317  1.00  0.00     0.210 HD
ENDBRANCH  30  31
ENDBRANCH  24  30
BRANCH  25  33
ATOM     33  O   UNL     1      39.026  34.939  43.537  1.00  0.00    -0.388 OA
ATOM     34  H   UNL     1      39.798  35.552  43.667  1.00  0.00     0.211 HD
ENDBRANCH  25  33
ENDBRANCH  11  20
BRANCH  10  35
ATOM     35  O   UNL     1      40.745  31.509  39.504  1.00  0.00    -0.507 OA
ATOM     36  H   UNL     1      41.717  31.672  39.283  1.00  0.00     0.293 HD
ENDBRANCH  10  35
TORSDOF 9
ENDMDL
MODEL 2
REMARK VINA RESULT:    -8.106      2.738      6.231
REMARK INTER + INTRA:         -10.996
REMARK INTER:                 -10.294
REMARK INTRA:                  -0.702
REMARK UNBOUND:                -0.047
REMARK SMILES O=c1c(-c2ccc(O)cc2)coc2c([C@H]3O[C@@H](CO)[C@H](O)[C@H](O)[C@@H]3O)c(O)ccc12
REMARK SMILES IDX 3 1 11 2 12 3 13 4 30 5 2 6 1 7 29 8 28 9 26 10 14 11 4 12
REMARK SMILES IDX 5 13 6 14 7 15 10 16 9 17 8 18 15 20 24 21 16 22 22 23 17 24
REMARK SMILES IDX 20 25 25 26 23 28 18 30 19 31 21 33 27 35
REMARK H PARENT 8 19 25 27 23 29 19 32 21 34 27 36
REMARK Flexibility Score: inf
ROOT
ATOM      1  C   UNL     1      40.516  29.950  37.898  1.00  0.00     0.065 A 
ATOM      2  C   UNL     1      40.967  30.980  38.731  1.00  0.00     0.208 A 
ATOM      3  O   UNL     1      40.181  32.004  39.036  1.00  0.00    -0.463 OA
ATOM      4  C   UNL     1      38.935  32.136  38.593  1.00  0.00     0.147 A 
ATOM      5  C   UNL     1      38.415  31.157  37.709  1.00  0.00     0.066 A 
ATOM      6  C   UNL     1      39.217  30.051  37.371  1.00  0.00     0.200 A 
ATOM      7  O   UNL     1      38.785  29.168  36.578  1.00  0.00    -0.288 OA
ATOM      8  C   UNL     1      37.132  31.317  37.173  1.00  0.00     0.020 A 
ATOM      9  C   UNL     1      36.404  32.468  37.440  1.00  0.00     0.047 A 
ATOM     10  C   UNL     1      36.912  33.457  38.282  1.00  0.00     0.125 A 
ATOM     11  C   UNL     1      38.135  33.251  38.982  1.00  0.00     0.069 A 
ENDROOT
BRANCH   1  12
ATOM     12  C   UNL     1      41.406  28.804  37.584  1.00  0.00    -0.011 A 
ATOM     13  C   UNL     1      42.679  29.025  37.031  1.00  0.00     0.013 A 
ATOM     14  C   UNL     1      43.523  27.948  36.742  1.00  0.00     0.047 A 
ATOM     15  C   UNL     1      43.109  26.640  37.008  1.00  0.00     0.115 A 
ATOM     16  C   UNL     1      40.999  27.485  37.855  1.00  0.00     0.013 A 
ATOM     17  C   UNL     1      41.845  26.410  37.565  1.00  0.00     0.047 A 
BRANCH  15  18
ATOM     18  O   UNL     1      43.960  25.577  36.715  1.00  0.00    -0.508 OA
ATOM     19  H   UNL     1      44.722  25.674  36.055  1.00  0.00     0.293 HD
ENDBRANCH  15  18
ENDBRANCH   1  12
BRANCH  11  20
ATOM     20  C   UNL     1      38.553  34.256  40.080  1.00  0.00     0.188 C 
ATOM     21  C   UNL     1      40.025  34.191  40.602  1.00  0.00     0.179 C 
ATOM     22  O   UNL     1      37.589  34.271  41.135  1.00  0.00    -0.362 OA
ATOM     23  C   UNL     1      40.126  34.658  42.059  1.00  0.00     0.177 C 
ATOM     24  C   UNL     1      37.872  33.445  42.256  1.00  0.00     0.176 C 
ATOM     25  C   UNL     1      39.230  33.773  42.946  1.00  0.00     0.177 C 
BRANCH  21  26
ATOM     26  O   UNL     1      40.855  34.985  39.791  1.00  0.00    -0.387 OA
ATOM     27  H   UNL     1      40.286  35.704  39.409  1.00  0.00     0.211 HD
ENDBRANCH  21  26
BRANCH  23  28
ATOM     28  O   UNL     1      39.835  36.032  42.185  1.00  0.00    -0.387 OA
ATOM     29  H   UNL     1      39.076  36.254  41.588  1.00  0.00     0.211 HD
ENDBRANCH  23  28
BRANCH  24  30
ATOM     30  C   UNL     1      37.654  31.946  41.963  1.00  0.00     0.191 C 
BRANCH  30  31
ATOM     31  O   UNL     1      38.862  31.236  41.958  1.00  0.00    -0.394 OA
ATOM     32  H   UNL     1      38.794  30.569  42.690  1.00  0.00     0.210 HD
ENDBRANCH  30  31
ENDBRANCH  24  30
BRANCH  25  33
ATOM     33  O   UNL     1      39.021  34.415  44.180  1.00  0.00    -0.388 OA
ATOM     34  H   UNL     1      38.860  35.375  43.979  1.00  0.00     0.211 HD
ENDBRANCH  25  33
ENDBRANCH  11  20
BRANCH  10  35
ATOM     35  O   UNL     1      36.184  34.647  38.370  1.00  0.00    -0.507 OA
ATOM     36  H   UNL     1      35.886  35.054  39.246  1.00  0.00     0.293 HD
ENDBRANCH  10  35
TORSDOF 9
ENDMDL
MODEL 3
REMARK VINA RESULT:    -7.880      9.944     12.841
REMARK INTER + INTRA:         -10.690
REMARK INTER:                  -9.987
REMARK INTRA:                  -0.703
REMARK UNBOUND:                -0.047
REMARK SMILES O=c1c(-c2ccc(O)cc2)coc2c([C@H]3O[C@@H](CO)[C@H](O)[C@H](O)[C@@H]3O)c(O)ccc12
REMARK SMILES IDX 3 1 11 2 12 3 13 4 30 5 2 6 1 7 29 8 28 9 26 10 14 11 4 12
REMARK SMILES IDX 5 13 6 14 7 15 10 16 9 17 8 18 15 20 24 21 16 22 22 23 17 24
REMARK SMILES IDX 20 25 25 26 23 28 18 30 19 31 21 33 27 35
REMARK H PARENT 8 19 25 27 23 29 19 32 21 34 27 36
REMARK Flexibility Score: inf
ROOT
ATOM      1  C   UNL     1      39.445  23.621  36.710  1.00  0.00     0.065 A 
ATOM      2  C   UNL     1      39.924  22.339  37.006  1.00  0.00     0.208 A 
ATOM      3  O   UNL     1      39.354  21.598  37.947  1.00  0.00    -0.463 OA
ATOM      4  C   UNL     1      38.310  21.996  38.668  1.00  0.00     0.147 A 
ATOM      5  C   UNL     1      37.790  23.299  38.461  1.00  0.00     0.066 A 
ATOM      6  C   UNL     1      38.364  24.109  37.464  1.00  0.00     0.200 A 
ATOM      7  O   UNL     1      37.929  25.278  37.264  1.00  0.00    -0.288 OA
ATOM      8  C   UNL     1      36.741  23.763  39.262  1.00  0.00     0.020 A 
ATOM      9  C   UNL     1      36.264  22.983  40.308  1.00  0.00     0.047 A 
ATOM     10  C   UNL     1      36.785  21.711  40.546  1.00  0.00     0.125 A 
ATOM     11  C   UNL     1      37.730  21.137  39.648  1.00  0.00     0.069 A 
ENDROOT
BRANCH   1  12
ATOM     12  C   UNL     1      40.086  24.426  35.641  1.00  0.00    -0.011 A 
ATOM     13  C   UNL     1      39.756  24.205  34.292  1.00  0.00     0.013 A 
ATOM     14  C   UNL     1      40.352  24.968  33.283  1.00  0.00     0.047 A 
ATOM     15  C   UNL     1      41.278  25.963  33.608  1.00  0.00     0.115 A 
ATOM     16  C   UNL     1      41.014  25.433  35.961  1.00  0.00     0.013 A 
ATOM     17  C   UNL     1      41.609  26.194  34.949  1.00  0.00     0.047 A 
BRANCH  15  18
ATOM     18  O   UNL     1      41.865  26.715  32.593  1.00  0.00    -0.508 OA
ATOM     19  H   UNL     1      42.139  27.679  32.738  1.00  0.00     0.293 HD
ENDBRANCH  15  18
ENDBRANCH   1  12
BRANCH  11  20
ATOM     20  C   UNL     1      38.109  19.647  39.806  1.00  0.00     0.188 C 
ATOM     21  C   UNL     1      39.227  19.080  38.872  1.00  0.00     0.179 C 
ATOM     22  O   UNL     1      36.935  18.833  39.826  1.00  0.00    -0.362 OA
ATOM     23  C   UNL     1      39.027  17.583  38.601  1.00  0.00     0.177 C 
ATOM     24  C   UNL     1      36.550  18.255  38.587  1.00  0.00     0.176 C 
ATOM     25  C   UNL     1      37.652  17.357  37.947  1.00  0.00     0.177 C 
BRANCH  21  26
ATOM     26  O   UNL     1      40.490  19.292  39.452  1.00  0.00    -0.387 OA
ATOM     27  H   UNL     1      40.490  18.820  40.326  1.00  0.00     0.211 HD
ENDBRANCH  21  26
BRANCH  23  28
ATOM     28  O   UNL     1      39.211  16.815  39.770  1.00  0.00    -0.387 OA
ATOM     29  H   UNL     1      38.769  17.277  40.527  1.00  0.00     0.211 HD
ENDBRANCH  23  28
BRANCH  24  30
ATOM     30  C   UNL     1      35.925  19.282  37.619  1.00  0.00     0.191 C 
BRANCH  30  31
ATOM     31  O   UNL     1      34.526  19.268  37.679  1.00  0.00    -0.394 OA
ATOM     32  H   UNL     1      34.291  18.973  38.598  1.00  0.00     0.210 HD
ENDBRANCH  30  31
ENDBRANCH  24  30
BRANCH  25  33
ATOM     33  O   UNL     1      37.308  15.998  38.047  1.00  0.00    -0.388 OA
ATOM     34  H   UNL     1      37.855  15.618  38.786  1.00  0.00     0.211 HD
ENDBRANCH  25  33
ENDBRANCH  11  20
BRANCH  10  35
ATOM     35  O   UNL     1      36.359  21.062  41.709  1.00  0.00    -0.507 OA
ATOM     36  H   UNL     1      35.970  21.547  42.506  1.00  0.00     0.293 HD
ENDBRANCH  10  35
TORSDOF 9
ENDMDL
MODEL 4
REMARK VINA RESULT:    -7.783      5.267      8.237
REMARK INTER + INTRA:         -10.560
REMARK INTER:                 -10.060
REMARK INTRA:                  -0.500
REMARK UNBOUND:                -0.047
REMARK SMILES O=c1c(-c2ccc(O)cc2)coc2c([C@H]3O[C@@H](CO)[C@H](O)[C@H](O)[C@@H]3O)c(O)ccc12
REMARK SMILES IDX 3 1 11 2 12 3 13 4 30 5 2 6 1 7 29 8 28 9 26 10 14 11 4 12
REMARK SMILES IDX 5 13 6 14 7 15 10 16 9 17 8 18 15 20 24 21 16 22 22 23 17 24
REMARK SMILES IDX 20 25 25 26 23 28 18 30 19 31 21 33 27 35
REMARK H PARENT 8 19 25 27 23 29 19 32 21 34 27 36
REMARK Flexibility Score: inf
ROOT
ATOM      1  C   UNL     1      36.938  29.421  44.089  1.00  0.00     0.065 A 
ATOM      2  C   UNL     1      37.371  29.828  42.822  1.00  0.00     0.208 A 
ATOM      3  O   UNL     1      37.448  31.115  42.508  1.00  0.00    -0.463 OA
ATOM      4  C   UNL     1      37.133  32.098  43.345  1.00  0.00     0.147 A 
ATOM      5  C   UNL     1      36.644  31.771  44.635  1.00  0.00     0.066 A 
ATOM      6  C   UNL     1      36.557  30.416  45.005  1.00  0.00     0.200 A 
ATOM      7  O   UNL     1      36.116  30.093  46.144  1.00  0.00    -0.288 OA
ATOM      8  C   UNL     1      36.235  32.790  45.502  1.00  0.00     0.020 A 
ATOM      9  C   UNL     1      36.231  34.111  45.072  1.00  0.00     0.047 A 
ATOM     10  C   UNL     1      36.678  34.449  43.796  1.00  0.00     0.125 A 
ATOM     11  C   UNL     1      37.263  33.463  42.950  1.00  0.00     0.069 A 
ENDROOT
BRANCH   1  12
ATOM     12  C   UNL     1      36.877  27.976  44.425  1.00  0.00    -0.011 A 
ATOM     13  C   UNL     1      37.995  27.328  44.978  1.00  0.00     0.013 A 
ATOM     14  C   UNL     1      37.936  25.969  45.303  1.00  0.00     0.047 A 
ATOM     15  C   UNL     1      36.761  25.244  45.087  1.00  0.00     0.115 A 
ATOM     16  C   UNL     1      35.695  27.242  44.216  1.00  0.00     0.013 A 
ATOM     17  C   UNL     1      35.640  25.883  44.542  1.00  0.00     0.047 A 
BRANCH  15  18
ATOM     18  O   UNL     1      36.718  23.891  45.415  1.00  0.00    -0.508 OA
ATOM     19  H   UNL     1      36.069  23.534  46.107  1.00  0.00     0.293 HD
ENDBRANCH  15  18
ENDBRANCH   1  12
BRANCH  11  20
ATOM     20  C   UNL     1      37.959  33.908  41.644  1.00  0.00     0.188 C 
ATOM     21  C   UNL     1      39.022  32.944  41.023  1.00  0.00     0.179 C 
ATOM     22  O   UNL     1      38.430  35.252  41.763  1.00  0.00    -0.362 OA
ATOM     23  C   UNL     1      40.090  33.716  40.238  1.00  0.00     0.177 C 
ATOM     24  C   UNL     1      39.789  35.410  42.144  1.00  0.00     0.176 C 
ATOM     25  C   UNL     1      40.794  34.716  41.175  1.00  0.00     0.177 C 
BRANCH  21  26
ATOM     26  O   UNL     1      38.389  32.017  40.175  1.00  0.00    -0.387 OA
ATOM     27  H   UNL     1      39.102  31.585  39.635  1.00  0.00     0.211 HD
ENDBRANCH  21  26
BRANCH  23  28
ATOM     28  O   UNL     1      39.550  34.330  39.089  1.00  0.00    -0.387 OA
ATOM     29  H   UNL     1      39.052  35.141  39.365  1.00  0.00     0.211 HD
ENDBRANCH  23  28
BRANCH  24  30
ATOM     30  C   UNL     1      40.030  35.103  43.637  1.00  0.00     0.191 C 
BRANCH  30  31
ATOM     31  O   UNL     1      40.797  36.099  44.255  1.00  0.00    -0.394 OA
ATOM     32  H   UNL     1      40.411  36.223  45.161  1.00  0.00     0.210 HD
ENDBRANCH  30  31
ENDBRANCH  24  30
BRANCH  25  33
ATOM     33  O   UNL     1      41.483  35.668  40.404  1.00  0.00    -0.388 OA
ATOM     34  H   UNL     1      40.981  35.763  39.551  1.00  0.00     0.211 HD
ENDBRANCH  25  33
ENDBRANCH  11  20
BRANCH  10  35
ATOM     35  O   UNL     1      36.494  35.774  43.392  1.00  0.00    -0.507 OA
ATOM     36  H   UNL     1      36.549  36.076  42.429  1.00  0.00     0.293 HD
ENDBRANCH  10  35
TORSDOF 9
ENDMDL
MODEL 5
REMARK VINA RESULT:    -7.779     11.811     14.151
REMARK INTER + INTRA:         -10.554
REMARK INTER:                  -9.693
REMARK INTRA:                  -0.861
REMARK UNBOUND:                -0.047
REMARK SMILES O=c1c(-c2ccc(O)cc2)coc2c([C@H]3O[C@@H](CO)[C@H](O)[C@H](O)[C@@H]3O)c(O)ccc12
REMARK SMILES IDX 3 1 11 2 12 3 13 4 30 5 2 6 1 7 29 8 28 9 26 10 14 11 4 12
REMARK SMILES IDX 5 13 6 14 7 15 10 16 9 17 8 18 15 20 24 21 16 22 22 23 17 24
REMARK SMILES IDX 20 25 25 26 23 28 18 30 19 31 21 33 27 35
REMARK H PARENT 8 19 25 27 23 29 19 32 21 34 27 36
REMARK Flexibility Score: inf
ROOT
ATOM      1  C   UNL     1      35.522  19.669  41.708  1.00  0.00     0.065 A 
ATOM      2  C   UNL     1      36.563  18.852  41.252  1.00  0.00     0.208 A 
ATOM      3  O   UNL     1      37.404  19.276  40.317  1.00  0.00    -0.463 OA
ATOM      4  C   UNL     1      37.333  20.477  39.752  1.00  0.00     0.147 A 
ATOM      5  C   UNL     1      36.281  21.350  40.126  1.00  0.00     0.066 A 
ATOM      6  C   UNL     1      35.377  20.938  41.121  1.00  0.00     0.200 A 
ATOM      7  O   UNL     1      34.424  21.690  41.469  1.00  0.00    -0.288 OA
ATOM      8  C   UNL     1      36.146  22.589  39.487  1.00  0.00     0.020 A 
ATOM      9  C   UNL     1      36.988  22.926  38.436  1.00  0.00     0.047 A 
ATOM     10  C   UNL     1      38.009  22.066  38.032  1.00  0.00     0.125 A 
ATOM     11  C   UNL     1      38.287  20.878  38.769  1.00  0.00     0.069 A 
ENDROOT
BRANCH   1  12
ATOM     12  C   UNL     1      34.604  19.181  42.768  1.00  0.00    -0.011 A 
ATOM     13  C   UNL     1      33.414  18.516  42.425  1.00  0.00     0.013 A 
ATOM     14  C   UNL     1      32.552  18.048  43.421  1.00  0.00     0.047 A 
ATOM     15  C   UNL     1      32.871  18.231  44.770  1.00  0.00     0.115 A 
ATOM     16  C   UNL     1      34.922  19.356  44.127  1.00  0.00     0.013 A 
ATOM     17  C   UNL     1      34.058  18.887  45.121  1.00  0.00     0.047 A 
BRANCH  15  18
ATOM     18  O   UNL     1      32.003  17.760  45.752  1.00  0.00    -0.508 OA
ATOM     19  H   UNL     1      31.613  16.826  45.711  1.00  0.00     0.293 HD
ENDBRANCH  15  18
ENDBRANCH   1  12
BRANCH  11  20
ATOM     20  C   UNL     1      39.563  20.071  38.442  1.00  0.00     0.188 C 
ATOM     21  C   UNL     1      39.905  18.851  39.358  1.00  0.00     0.179 C 
ATOM     22  O   UNL     1      40.673  20.949  38.250  1.00  0.00    -0.362 OA
ATOM     23  C   UNL     1      41.417  18.601  39.420  1.00  0.00     0.177 C 
ATOM     24  C   UNL     1      41.507  21.166  39.380  1.00  0.00     0.176 C 
ATOM     25  C   UNL     1      42.124  19.858  39.960  1.00  0.00     0.177 C 
BRANCH  21  26
ATOM     26  O   UNL     1      39.253  17.699  38.882  1.00  0.00    -0.387 OA
ATOM     27  H   UNL     1      39.404  16.983  39.554  1.00  0.00     0.211 HD
ENDBRANCH  21  26
BRANCH  23  28
ATOM     28  O   UNL     1      41.926  18.179  38.174  1.00  0.00    -0.387 OA
ATOM     29  H   UNL     1      42.188  17.226  38.244  1.00  0.00     0.211 HD
ENDBRANCH  23  28
BRANCH  24  30
ATOM     30  C   UNL     1      40.854  22.084  40.435  1.00  0.00     0.191 C 
BRANCH  30  31
ATOM     31  O   UNL     1      40.662  23.382  39.947  1.00  0.00    -0.394 OA
ATOM     32  H   UNL     1      41.461  23.591  39.396  1.00  0.00     0.210 HD
ENDBRANCH  30  31
ENDBRANCH  24  30
BRANCH  25  33
ATOM     33  O   UNL     1      43.497  19.780  39.665  1.00  0.00    -0.388 OA
ATOM     34  H   UNL     1      43.710  20.558  39.085  1.00  0.00     0.211 HD
ENDBRANCH  25  33
ENDBRANCH  11  20
BRANCH  10  35
ATOM     35  O   UNL     1      38.705  22.413  36.871  1.00  0.00    -0.507 OA
ATOM     36  H   UNL     1      38.264  22.823  36.060  1.00  0.00     0.293 HD
ENDBRANCH  10  35
TORSDOF 9
ENDMDL
MODEL 6
REMARK VINA RESULT:    -7.688      5.614      9.274
REMARK INTER + INTRA:         -10.431
REMARK INTER:                  -9.616
REMARK INTRA:                  -0.814
REMARK UNBOUND:                -0.047
REMARK SMILES O=c1c(-c2ccc(O)cc2)coc2c([C@H]3O[C@@H](CO)[C@H](O)[C@H](O)[C@@H]3O)c(O)ccc12
REMARK SMILES IDX 3 1 11 2 12 3 13 4 30 5 2 6 1 7 29 8 28 9 26 10 14 11 4 12
REMARK SMILES IDX 5 13 6 14 7 15 10 16 9 17 8 18 15 20 24 21 16 22 22 23 17 24
REMARK SMILES IDX 20 25 25 26 23 28 18 30 19 31 21 33 27 35
REMARK H PARENT 8 19 25 27 23 29 19 32 21 34 27 36
REMARK Flexibility Score: inf
ROOT
ATOM      1  C   UNL     1      33.813  29.648  34.588  1.00  0.00     0.065 A 
ATOM      2  C   UNL     1      33.758  28.784  33.489  1.00  0.00     0.208 A 
ATOM      3  O   UNL     1      34.610  27.774  33.371  1.00  0.00    -0.463 OA
ATOM      4  C   UNL     1      35.560  27.503  34.261  1.00  0.00     0.147 A 
ATOM      5  C   UNL     1      35.712  28.356  35.383  1.00  0.00     0.066 A 
ATOM      6  C   UNL     1      34.819  29.432  35.545  1.00  0.00     0.200 A 
ATOM      7  O   UNL     1      34.936  30.215  36.530  1.00  0.00    -0.288 OA
ATOM      8  C   UNL     1      36.753  28.131  36.291  1.00  0.00     0.020 A 
ATOM      9  C   UNL     1      37.683  27.128  36.050  1.00  0.00     0.047 A 
ATOM     10  C   UNL     1      37.568  26.299  34.934  1.00  0.00     0.125 A 
ATOM     11  C   UNL     1      36.427  26.384  34.085  1.00  0.00     0.069 A 
ENDROOT
BRANCH   1  12
ATOM     12  C   UNL     1      32.838  30.761  34.709  1.00  0.00    -0.011 A 
ATOM     13  C   UNL     1      33.210  32.072  34.364  1.00  0.00     0.013 A 
ATOM     14  C   UNL     1      32.291  33.120  34.468  1.00  0.00     0.047 A 
ATOM     15  C   UNL     1      30.989  32.872  34.911  1.00  0.00     0.115 A 
ATOM     16  C   UNL     1      31.524  30.517  35.147  1.00  0.00     0.013 A 
ATOM     17  C   UNL     1      30.606  31.568  35.250  1.00  0.00     0.047 A 
BRANCH  15  18
ATOM     18  O   UNL     1      30.083  33.926  35.010  1.00  0.00    -0.508 OA
ATOM     19  H   UNL     1      30.288  34.839  34.621  1.00  0.00     0.293 HD
ENDBRANCH  15  18
ENDBRANCH   1  12
BRANCH  11  20
ATOM     20  C   UNL     1      36.214  25.304  33.001  1.00  0.00     0.188 C 
ATOM     21  C   UNL     1      34.816  25.242  32.303  1.00  0.00     0.179 C 
ATOM     22  O   UNL     1      36.657  24.030  33.472  1.00  0.00    -0.362 OA
ATOM     23  C   UNL     1      34.482  23.819  31.840  1.00  0.00     0.177 C 
ATOM     24  C   UNL     1      35.660  23.186  34.031  1.00  0.00     0.176 C 
ATOM     25  C   UNL     1      34.489  22.869  33.052  1.00  0.00     0.177 C 
BRANCH  21  26
ATOM     26  O   UNL     1      34.792  26.117  31.202  1.00  0.00    -0.387 OA
ATOM     27  H   UNL     1      35.734  26.251  30.917  1.00  0.00     0.211 HD
ENDBRANCH  21  26
BRANCH  23  28
ATOM     28  O   UNL     1      35.340  23.394  30.805  1.00  0.00    -0.387 OA
ATOM     29  H   UNL     1      35.632  24.187  30.287  1.00  0.00     0.211 HD
ENDBRANCH  23  28
BRANCH  24  30
ATOM     30  C   UNL     1      35.208  23.644  35.434  1.00  0.00     0.191 C 
BRANCH  30  31
ATOM     31  O   UNL     1      33.845  23.963  35.462  1.00  0.00    -0.394 OA
ATOM     32  H   UNL     1      33.357  23.099  35.430  1.00  0.00     0.210 HD
ENDBRANCH  30  31
ENDBRANCH  24  30
BRANCH  25  33
ATOM     33  O   UNL     1      34.564  21.540  32.598  1.00  0.00    -0.388 OA
ATOM     34  H   UNL     1      33.635  21.188  32.587  1.00  0.00     0.211 HD
ENDBRANCH  25  33
ENDBRANCH  11  20
BRANCH  10  35
ATOM     35  O   UNL     1      38.628  25.423  34.687  1.00  0.00    -0.507 OA
ATOM     36  H   UNL     1      39.548  25.535  35.090  1.00  0.00     0.293 HD
ENDBRANCH  10  35
TORSDOF 9
ENDMDL
MODEL 7
REMARK VINA RESULT:    -7.653      2.006      3.290
REMARK INTER + INTRA:         -10.384
REMARK INTER:                  -9.650
REMARK INTRA:                  -0.734
REMARK UNBOUND:                -0.047
REMARK SMILES O=c1c(-c2ccc(O)cc2)coc2c([C@H]3O[C@@H](CO)[C@H](O)[C@H](O)[C@@H]3O)c(O)ccc12
REMARK SMILES IDX 3 1 11 2 12 3 13 4 30 5 2 6 1 7 29 8 28 9 26 10 14 11 4 12
REMARK SMILES IDX 5 13 6 14 7 15 10 16 9 17 8 18 15 20 24 21 16 22 22 23 17 24
REMARK SMILES IDX 20 25 25 26 23 28 18 30 19 31 21 33 27 35
REMARK H PARENT 8 19 25 27 23 29 19 32 21 34 27 36
REMARK Flexibility Score: inf
ROOT
ATOM      1  C   UNL     1      33.898  31.109  36.072  1.00  0.00     0.065 A 
ATOM      2  C   UNL     1      34.299  31.665  37.292  1.00  0.00     0.208 A 
ATOM      3  O   UNL     1      35.372  31.212  37.929  1.00  0.00    -0.463 OA
ATOM      4  C   UNL     1      36.136  30.224  37.476  1.00  0.00     0.147 A 
ATOM      5  C   UNL     1      35.775  29.576  36.267  1.00  0.00     0.066 A 
ATOM      6  C   UNL     1      34.648  30.036  35.560  1.00  0.00     0.200 A 
ATOM      7  O   UNL     1      34.296  29.473  34.486  1.00  0.00    -0.288 OA
ATOM      8  C   UNL     1      36.523  28.484  35.813  1.00  0.00     0.020 A 
ATOM      9  C   UNL     1      37.565  27.985  36.584  1.00  0.00     0.047 A 
ATOM     10  C   UNL     1      37.915  28.589  37.792  1.00  0.00     0.125 A 
ATOM     11  C   UNL     1      37.291  29.803  38.200  1.00  0.00     0.069 A 
ENDROOT
BRANCH   1  12
ATOM     12  C   UNL     1      32.706  31.643  35.368  1.00  0.00    -0.011 A 
ATOM     13  C   UNL     1      31.434  31.094  35.610  1.00  0.00     0.013 A 
ATOM     14  C   UNL     1      30.308  31.601  34.955  1.00  0.00     0.047 A 
ATOM     15  C   UNL     1      30.436  32.665  34.057  1.00  0.00     0.115 A 
ATOM     16  C   UNL     1      32.826  32.717  34.468  1.00  0.00     0.013 A 
ATOM     17  C   UNL     1      31.698  33.221  33.814  1.00  0.00     0.047 A 
BRANCH  15  18
ATOM     18  O   UNL     1      29.305  33.159  33.411  1.00  0.00    -0.508 OA
ATOM     19  H   UNL     1      28.832  32.628  32.689  1.00  0.00     0.293 HD
ENDBRANCH  15  18
ENDBRANCH   1  12
BRANCH  11  20
ATOM     20  C   UNL     1      37.859  30.570  39.416  1.00  0.00     0.188 C 
ATOM     21  C   UNL     1      37.318  32.012  39.682  1.00  0.00     0.179 C 
ATOM     22  O   UNL     1      39.286  30.500  39.427  1.00  0.00    -0.362 OA
ATOM     23  C   UNL     1      38.369  32.887  40.376  1.00  0.00     0.177 C 
ATOM     24  C   UNL     1      39.973  31.597  38.841  1.00  0.00     0.176 C 
ATOM     25  C   UNL     1      39.631  32.970  39.497  1.00  0.00     0.177 C 
BRANCH  21  26
ATOM     26  O   UNL     1      36.157  31.949  40.473  1.00  0.00    -0.387 OA
ATOM     27  H   UNL     1      36.228  32.672  41.150  1.00  0.00     0.211 HD
ENDBRANCH  21  26
BRANCH  23  28
ATOM     28  O   UNL     1      38.641  32.435  41.684  1.00  0.00    -0.387 OA
ATOM     29  H   UNL     1      37.996  31.719  41.913  1.00  0.00     0.211 HD
ENDBRANCH  23  28
BRANCH  24  30
ATOM     30  C   UNL     1      39.900  31.593  37.300  1.00  0.00     0.191 C 
BRANCH  30  31
ATOM     31  O   UNL     1      41.174  31.589  36.719  1.00  0.00    -0.394 OA
ATOM     32  H   UNL     1      41.766  32.080  37.347  1.00  0.00     0.210 HD
ENDBRANCH  30  31
ENDBRANCH  24  30
BRANCH  25  33
ATOM     33  O   UNL     1      40.707  33.433  40.274  1.00  0.00    -0.388 OA
ATOM     34  H   UNL     1      41.296  33.955  39.666  1.00  0.00     0.211 HD
ENDBRANCH  25  33
ENDBRANCH  11  20
BRANCH  10  35
ATOM     35  O   UNL     1      38.868  27.931  38.574  1.00  0.00    -0.507 OA
ATOM     36  H   UNL     1      39.609  28.409  39.067  1.00  0.00     0.293 HD
ENDBRANCH  10  35
TORSDOF 9
ENDMDL
MODEL 8
REMARK VINA RESULT:    -7.579      9.696     11.288
REMARK INTER + INTRA:         -10.284
REMARK INTER:                  -9.409
REMARK INTRA:                  -0.875
REMARK UNBOUND:                -0.047
REMARK SMILES O=c1c(-c2ccc(O)cc2)coc2c([C@H]3O[C@@H](CO)[C@H](O)[C@H](O)[C@@H]3O)c(O)ccc12
REMARK SMILES IDX 3 1 11 2 12 3 13 4 30 5 2 6 1 7 29 8 28 9 26 10 14 11 4 12
REMARK SMILES IDX 5 13 6 14 7 15 10 16 9 17 8 18 15 20 24 21 16 22 22 23 17 24
REMARK SMILES IDX 20 25 25 26 23 28 18 30 19 31 21 33 27 35
REMARK H PARENT 8 19 25 27 23 29 19 32 21 34 27 36
REMARK Flexibility Score: inf
ROOT
ATOM      1  C   UNL     1      30.866  25.229  43.551  1.00  0.00     0.065 A 
ATOM      2  C   UNL     1      31.937  25.717  44.308  1.00  0.00     0.208 A 
ATOM      3  O   UNL     1      32.979  24.947  44.590  1.00  0.00    -0.463 OA
ATOM      4  C   UNL     1      33.094  23.685  44.189  1.00  0.00     0.147 A 
ATOM      5  C   UNL     1      32.033  23.099  43.453  1.00  0.00     0.066 A 
ATOM      6  C   UNL     1      30.915  23.890  43.127  1.00  0.00     0.200 A 
ATOM      7  O   UNL     1      29.950  23.394  42.481  1.00  0.00    -0.288 OA
ATOM      8  C   UNL     1      32.102  21.750  43.088  1.00  0.00     0.020 A 
ATOM      9  C   UNL     1      33.167  20.967  43.513  1.00  0.00     0.047 A 
ATOM     10  C   UNL     1      34.205  21.517  44.265  1.00  0.00     0.125 A 
ATOM     11  C   UNL     1      34.256  22.920  44.507  1.00  0.00     0.069 A 
ENDROOT
BRANCH   1  12
ATOM     12  C   UNL     1      29.718  26.114  43.231  1.00  0.00    -0.011 A 
ATOM     13  C   UNL     1      28.484  25.939  43.882  1.00  0.00     0.013 A 
ATOM     14  C   UNL     1      27.404  26.777  43.589  1.00  0.00     0.047 A 
ATOM     15  C   UNL     1      27.543  27.802  42.650  1.00  0.00     0.115 A 
ATOM     16  C   UNL     1      29.853  27.152  42.291  1.00  0.00     0.013 A 
ATOM     17  C   UNL     1      28.770  27.988  42.001  1.00  0.00     0.047 A 
BRANCH  15  18
ATOM     18  O   UNL     1      26.458  28.629  42.367  1.00  0.00    -0.508 OA
ATOM     19  H   UNL     1      26.584  29.607  42.135  1.00  0.00     0.293 HD
ENDBRANCH  15  18
ENDBRANCH   1  12
BRANCH  11  20
ATOM     20  C   UNL     1      35.529  23.529  45.136  1.00  0.00     0.188 C 
ATOM     21  C   UNL     1      35.419  24.959  45.759  1.00  0.00     0.179 C 
ATOM     22  O   UNL     1      36.639  23.395  44.246  1.00  0.00    -0.362 OA
ATOM     23  C   UNL     1      36.755  25.709  45.685  1.00  0.00     0.177 C 
ATOM     24  C   UNL     1      36.920  24.515  43.418  1.00  0.00     0.176 C 
ATOM     25  C   UNL     1      37.199  25.825  44.214  1.00  0.00     0.177 C 
BRANCH  21  26
ATOM     26  O   UNL     1      35.001  24.866  47.099  1.00  0.00    -0.387 OA
ATOM     27  H   UNL     1      34.009  24.913  47.096  1.00  0.00     0.211 HD
ENDBRANCH  21  26
BRANCH  23  28
ATOM     28  O   UNL     1      37.733  25.111  46.506  1.00  0.00    -0.387 OA
ATOM     29  H   UNL     1      38.403  25.797  46.755  1.00  0.00     0.211 HD
ENDBRANCH  23  28
BRANCH  24  30
ATOM     30  C   UNL     1      35.905  24.675  42.266  1.00  0.00     0.191 C 
BRANCH  30  31
ATOM     31  O   UNL     1      35.128  25.831  42.415  1.00  0.00    -0.394 OA
ATOM     32  H   UNL     1      34.196  25.522  42.559  1.00  0.00     0.210 HD
ENDBRANCH  30  31
ENDBRANCH  24  30
BRANCH  25  33
ATOM     33  O   UNL     1      38.564  26.157  44.167  1.00  0.00    -0.388 OA
ATOM     34  H   UNL     1      39.063  25.303  44.071  1.00  0.00     0.211 HD
ENDBRANCH  25  33
ENDBRANCH  11  20
BRANCH  10  35
ATOM     35  O   UNL     1      35.151  20.628  44.781  1.00  0.00    -0.507 OA
ATOM     36  H   UNL     1      36.073  20.910  45.084  1.00  0.00     0.293 HD
ENDBRANCH  10  35
TORSDOF 9
ENDMDL
MODEL 9
REMARK VINA RESULT:    -7.547      4.606      7.412
REMARK INTER + INTRA:         -10.240
REMARK INTER:                  -9.555
REMARK INTRA:                  -0.686
REMARK UNBOUND:                -0.047
REMARK SMILES O=c1c(-c2ccc(O)cc2)coc2c([C@H]3O[C@@H](CO)[C@H](O)[C@H](O)[C@@H]3O)c(O)ccc12
REMARK SMILES IDX 3 1 11 2 12 3 13 4 30 5 2 6 1 7 29 8 28 9 26 10 14 11 4 12
REMARK SMILES IDX 5 13 6 14 7 15 10 16 9 17 8 18 15 20 24 21 16 22 22 23 17 24
REMARK SMILES IDX 20 25 25 26 23 28 18 30 19 31 21 33 27 35
REMARK H PARENT 8 19 25 27 23 29 19 32 21 34 27 36
REMARK Flexibility Score: inf
ROOT
ATOM      1  C   UNL     1      35.957  27.936  43.112  1.00  0.00     0.065 A 
ATOM      2  C   UNL     1      36.842  28.953  43.487  1.00  0.00     0.208 A 
ATOM      3  O   UNL     1      37.465  29.686  42.573  1.00  0.00    -0.463 OA
ATOM      4  C   UNL     1      37.307  29.524  41.264  1.00  0.00     0.147 A 
ATOM      5  C   UNL     1      36.460  28.486  40.799  1.00  0.00     0.066 A 
ATOM      6  C   UNL     1      35.775  27.695  41.739  1.00  0.00     0.200 A 
ATOM      7  O   UNL     1      35.022  26.756  41.355  1.00  0.00    -0.288 OA
ATOM      8  C   UNL     1      36.340  28.251  39.424  1.00  0.00     0.020 A 
ATOM      9  C   UNL     1      37.108  28.977  38.523  1.00  0.00     0.047 A 
ATOM     10  C   UNL     1      37.970  29.980  38.964  1.00  0.00     0.125 A 
ATOM     11  C   UNL     1      37.990  30.365  40.336  1.00  0.00     0.069 A 
ENDROOT
BRANCH   1  12
ATOM     12  C   UNL     1      35.256  27.140  44.151  1.00  0.00    -0.011 A 
ATOM     13  C   UNL     1      35.814  25.938  44.621  1.00  0.00     0.013 A 
ATOM     14  C   UNL     1      35.160  25.191  45.605  1.00  0.00     0.047 A 
ATOM     15  C   UNL     1      33.947  25.638  46.137  1.00  0.00     0.115 A 
ATOM     16  C   UNL     1      34.038  27.587  44.695  1.00  0.00     0.013 A 
ATOM     17  C   UNL     1      33.387  26.837  45.680  1.00  0.00     0.047 A 
BRANCH  15  18
ATOM     18  O   UNL     1      33.306  24.883  47.118  1.00  0.00    -0.508 OA
ATOM     19  H   UNL     1      32.367  25.103  47.425  1.00  0.00     0.293 HD
ENDBRANCH  15  18
ENDBRANCH   1  12
BRANCH  11  20
ATOM     20  C   UNL     1      38.776  31.629  40.752  1.00  0.00     0.188 C 
ATOM     21  C   UNL     1      38.471  32.244  42.156  1.00  0.00     0.179 C 
ATOM     22  O   UNL     1      38.754  32.598  39.703  1.00  0.00    -0.362 OA
ATOM     23  C   UNL     1      38.715  33.759  42.171  1.00  0.00     0.177 C 
ATOM     24  C   UNL     1      37.752  33.602  39.796  1.00  0.00     0.176 C 
ATOM     25  C   UNL     1      37.823  34.434  41.112  1.00  0.00     0.177 C 
BRANCH  21  26
ATOM     26  O   UNL     1      39.270  31.626  43.134  1.00  0.00    -0.387 OA
ATOM     27  H   UNL     1      38.653  31.189  43.778  1.00  0.00     0.211 HD
ENDBRANCH  21  26
BRANCH  23  28
ATOM     28  O   UNL     1      40.082  34.066  42.012  1.00  0.00    -0.387 OA
ATOM     29  H   UNL     1      40.369  34.640  42.767  1.00  0.00     0.211 HD
ENDBRANCH  23  28
BRANCH  24  30
ATOM     30  C   UNL     1      36.344  33.072  39.453  1.00  0.00     0.191 C 
BRANCH  30  31
ATOM     31  O   UNL     1      35.392  34.100  39.440  1.00  0.00    -0.394 OA
ATOM     32  H   UNL     1      34.504  33.655  39.436  1.00  0.00     0.210 HD
ENDBRANCH  30  31
ENDBRANCH  24  30
BRANCH  25  33
ATOM     33  O   UNL     1      38.305  35.730  40.858  1.00  0.00    -0.388 OA
ATOM     34  H   UNL     1      37.554  36.355  41.037  1.00  0.00     0.211 HD
ENDBRANCH  25  33
ENDBRANCH  11  20
BRANCH  10  35
ATOM     35  O   UNL     1      38.817  30.550  38.009  1.00  0.00    -0.507 OA
ATOM     36  H   UNL     1      39.215  31.475  38.100  1.00  0.00     0.293 HD
ENDBRANCH  10  35
TORSDOF 9
ENDMDL
