MODEL 1
REMARK VINA RESULT:    -6.784      0.000      0.000
REMARK INTER + INTRA:          -8.295
REMARK INTER:                  -7.973
REMARK INTRA:                  -0.322
REMARK UNBOUND:                -0.322
REMARK SMILES O=c1c(O)c(-c2ccc(O)c(O)c2)oc2cc(O)ccc12
REMARK SMILES IDX 5 1 3 2 2 3 1 4 21 5 15 6 14 7 16 8 17 9 19 10 20 11 6 12
REMARK SMILES IDX 7 13 8 14 9 15 13 16 11 17 10 18 12 20 4 22 18 24
REMARK H PARENT 10 19 12 21 4 23 18 25
REMARK Flexibility Score: inf
ROOT
ATOM      1  C   UNL     1     -22.139 -47.300 102.406  1.00  0.00     0.180 A 
ATOM      2  C   UNL     1     -22.457 -47.182 103.776  1.00  0.00     0.208 A 
ATOM      3  C   UNL     1     -23.159 -48.225 104.399  1.00  0.00     0.235 A 
ATOM      4  O   UNL     1     -23.446 -48.147 105.625  1.00  0.00    -0.285 OA
ATOM      5  C   UNL     1     -23.545 -49.345 103.645  1.00  0.00     0.069 A 
ATOM      6  C   UNL     1     -23.209 -49.377 102.275  1.00  0.00     0.142 A 
ATOM      7  O   UNL     1     -22.536 -48.373 101.725  1.00  0.00    -0.452 OA
ATOM      8  C   UNL     1     -23.585 -50.471 101.488  1.00  0.00     0.094 A 
ATOM      9  C   UNL     1     -24.290 -51.538 102.053  1.00  0.00     0.119 A 
ATOM     10  C   UNL     1     -24.624 -51.510 103.415  1.00  0.00     0.047 A 
ATOM     11  C   UNL     1     -24.255 -50.421 104.209  1.00  0.00     0.020 A 
ENDROOT
BRANCH   1  12
ATOM     12  C   UNL     1     -21.385 -46.253 101.682  1.00  0.00     0.025 A 
ATOM     13  C   UNL     1     -19.978 -46.241 101.666  1.00  0.00     0.016 A 
ATOM     14  C   UNL     1     -19.288 -45.256 100.955  1.00  0.00     0.051 A 
ATOM     15  C   UNL     1     -19.990 -44.278 100.238  1.00  0.00     0.157 A 
ATOM     16  C   UNL     1     -22.084 -45.283 100.944  1.00  0.00     0.062 A 
ATOM     17  C   UNL     1     -21.395 -44.294 100.231  1.00  0.00     0.158 A 
BRANCH  15  18
ATOM     18  O   UNL     1     -19.299 -43.296  99.532  1.00  0.00    -0.504 OA
ATOM     19  H   UNL     1     -18.489 -42.830  99.925  1.00  0.00     0.293 HD
ENDBRANCH  15  18
BRANCH  17  20
ATOM     20  O   UNL     1     -22.123 -43.339  99.522  1.00  0.00    -0.504 OA
ATOM     21  H   UNL     1     -22.572 -43.551  98.640  1.00  0.00     0.293 HD
ENDBRANCH  17  20
ENDBRANCH   1  12
BRANCH   2  22
ATOM     22  O   UNL     1     -22.103 -46.034 104.488  1.00  0.00    -0.502 OA
ATOM     23  H   UNL     1     -21.693 -45.223 104.040  1.00  0.00     0.293 HD
ENDBRANCH   2  22
BRANCH   9  24
ATOM     24  O   UNL     1     -24.655 -52.619 101.255  1.00  0.00    -0.508 OA
ATOM     25  H   UNL     1     -24.047 -52.965 100.521  1.00  0.00     0.293 HD
ENDBRANCH   9  24
TORSDOF 5
ENDMDL
MODEL 2
REMARK VINA RESULT:    -6.757      3.213      6.705
REMARK INTER + INTRA:          -8.263
REMARK INTER:                  -8.299
REMARK INTRA:                   0.036
REMARK UNBOUND:                -0.322
REMARK SMILES O=c1c(O)c(-c2ccc(O)c(O)c2)oc2cc(O)ccc12
REMARK SMILES IDX 5 1 3 2 2 3 1 4 21 5 15 6 14 7 16 8 17 9 19 10 20 11 6 12
REMARK SMILES IDX 7 13 8 14 9 15 13 16 11 17 10 18 12 20 4 22 18 24
REMARK H PARENT 10 19 12 21 4 23 18 25
REMARK Flexibility Score: inf
ROOT
ATOM      1  C   UNL     1     -20.952 -48.041 104.701  1.00  0.00     0.180 A 
ATOM      2  C   UNL     1     -22.237 -47.498 104.490  1.00  0.00     0.208 A 
ATOM      3  C   UNL     1     -22.540 -46.945 103.237  1.00  0.00     0.235 A 
ATOM      4  O   UNL     1     -23.686 -46.462 103.021  1.00  0.00    -0.285 OA
ATOM      5  C   UNL     1     -21.557 -46.927 102.234  1.00  0.00     0.069 A 
ATOM      6  C   UNL     1     -20.289 -47.468 102.531  1.00  0.00     0.142 A 
ATOM      7  O   UNL     1     -20.045 -47.991 103.728  1.00  0.00    -0.452 OA
ATOM      8  C   UNL     1     -19.279 -47.460 101.562  1.00  0.00     0.094 A 
ATOM      9  C   UNL     1     -19.522 -46.918 100.296  1.00  0.00     0.119 A 
ATOM     10  C   UNL     1     -20.782 -46.380  99.996  1.00  0.00     0.047 A 
ATOM     11  C   UNL     1     -21.795 -46.382 100.958  1.00  0.00     0.020 A 
ENDROOT
BRANCH   1  12
ATOM     12  C   UNL     1     -20.561 -48.658 105.988  1.00  0.00     0.025 A 
ATOM     13  C   UNL     1     -19.393 -48.264 106.665  1.00  0.00     0.016 A 
ATOM     14  C   UNL     1     -19.057 -48.843 107.891  1.00  0.00     0.051 A 
ATOM     15  C   UNL     1     -19.889 -49.814 108.466  1.00  0.00     0.157 A 
ATOM     16  C   UNL     1     -21.402 -49.616 106.579  1.00  0.00     0.062 A 
ATOM     17  C   UNL     1     -21.068 -50.199 107.807  1.00  0.00     0.158 A 
BRANCH  15  18
ATOM     18  O   UNL     1     -19.549 -50.392 109.688  1.00  0.00    -0.504 OA
ATOM     19  H   UNL     1     -20.257 -50.718 110.336  1.00  0.00     0.293 HD
ENDBRANCH  15  18
BRANCH  17  20
ATOM     20  O   UNL     1     -21.920 -51.157 108.356  1.00  0.00    -0.504 OA
ATOM     21  H   UNL     1     -22.039 -51.260 109.356  1.00  0.00     0.293 HD
ENDBRANCH  17  20
ENDBRANCH   1  12
BRANCH   2  22
ATOM     22  O   UNL     1     -23.178 -47.486 105.522  1.00  0.00    -0.502 OA
ATOM     23  H   UNL     1     -23.386 -46.650 106.056  1.00  0.00     0.293 HD
ENDBRANCH   2  22
BRANCH   9  24
ATOM     24  O   UNL     1     -18.506 -46.918  99.343  1.00  0.00    -0.508 OA
ATOM     25  H   UNL     1     -17.583 -46.556  99.553  1.00  0.00     0.293 HD
ENDBRANCH   9  24
TORSDOF 5
ENDMDL
MODEL 3
REMARK VINA RESULT:    -6.726      1.838      6.928
REMARK INTER + INTRA:          -8.228
REMARK INTER:                  -8.167
REMARK INTRA:                  -0.061
REMARK UNBOUND:                -0.322
REMARK SMILES O=c1c(O)c(-c2ccc(O)c(O)c2)oc2cc(O)ccc12
REMARK SMILES IDX 5 1 3 2 2 3 1 4 21 5 15 6 14 7 16 8 17 9 19 10 20 11 6 12
REMARK SMILES IDX 7 13 8 14 9 15 13 16 11 17 10 18 12 20 4 22 18 24
REMARK H PARENT 10 19 12 21 4 23 18 25
REMARK Flexibility Score: inf
ROOT
ATOM      1  C   UNL     1     -23.042 -50.010 103.403  1.00  0.00     0.180 A 
ATOM      2  C   UNL     1     -22.229 -49.911 104.552  1.00  0.00     0.208 A 
ATOM      3  C   UNL     1     -21.490 -48.737 104.758  1.00  0.00     0.235 A 
ATOM      4  O   UNL     1     -20.763 -48.621 105.783  1.00  0.00    -0.285 OA
ATOM      5  C   UNL     1     -21.560 -47.701 103.812  1.00  0.00     0.069 A 
ATOM      6  C   UNL     1     -22.378 -47.886 102.677  1.00  0.00     0.142 A 
ATOM      7  O   UNL     1     -23.069 -49.010 102.524  1.00  0.00    -0.452 OA
ATOM      8  C   UNL     1     -22.467 -46.882 101.707  1.00  0.00     0.094 A 
ATOM      9  C   UNL     1     -21.749 -45.692 101.856  1.00  0.00     0.119 A 
ATOM     10  C   UNL     1     -20.936 -45.503 102.983  1.00  0.00     0.047 A 
ATOM     11  C   UNL     1     -20.840 -46.501 103.957  1.00  0.00     0.020 A 
ENDROOT
BRANCH   1  12
ATOM     12  C   UNL     1     -23.866 -51.207 103.124  1.00  0.00     0.025 A 
ATOM     13  C   UNL     1     -24.776 -51.708 104.072  1.00  0.00     0.016 A 
ATOM     14  C   UNL     1     -25.561 -52.826 103.777  1.00  0.00     0.051 A 
ATOM     15  C   UNL     1     -25.459 -53.451 102.527  1.00  0.00     0.157 A 
ATOM     16  C   UNL     1     -23.784 -51.825 101.865  1.00  0.00     0.062 A 
ATOM     17  C   UNL     1     -24.568 -52.945 101.566  1.00  0.00     0.158 A 
BRANCH  15  18
ATOM     18  O   UNL     1     -26.241 -54.567 102.237  1.00  0.00    -0.504 OA
ATOM     19  H   UNL     1     -26.626 -55.152 102.970  1.00  0.00     0.293 HD
ENDBRANCH  15  18
BRANCH  17  20
ATOM     20  O   UNL     1     -24.449 -53.540 100.310  1.00  0.00    -0.504 OA
ATOM     21  H   UNL     1     -23.975 -53.083  99.542  1.00  0.00     0.293 HD
ENDBRANCH  17  20
ENDBRANCH   1  12
BRANCH   2  22
ATOM     22  O   UNL     1     -22.142 -50.977 105.450  1.00  0.00    -0.502 OA
ATOM     23  H   UNL     1     -21.610 -50.918 106.311  1.00  0.00     0.293 HD
ENDBRANCH   2  22
BRANCH   9  24
ATOM     24  O   UNL     1     -21.849 -44.702 100.881  1.00  0.00    -0.508 OA
ATOM     25  H   UNL     1     -21.351 -43.823 100.965  1.00  0.00     0.293 HD
ENDBRANCH   9  24
TORSDOF 5
ENDMDL
MODEL 4
REMARK VINA RESULT:    -6.672      2.981      4.304
REMARK INTER + INTRA:          -8.164
REMARK INTER:                  -7.879
REMARK INTRA:                  -0.286
REMARK UNBOUND:                -0.322
REMARK SMILES O=c1c(O)c(-c2ccc(O)c(O)c2)oc2cc(O)ccc12
REMARK SMILES IDX 5 1 3 2 2 3 1 4 21 5 15 6 14 7 16 8 17 9 19 10 20 11 6 12
REMARK SMILES IDX 7 13 8 14 9 15 13 16 11 17 10 18 12 20 4 22 18 24
REMARK H PARENT 10 19 12 21 4 23 18 25
REMARK Flexibility Score: inf
ROOT
ATOM      1  C   UNL     1     -20.850 -47.885 103.855  1.00  0.00     0.180 A 
ATOM      2  C   UNL     1     -21.871 -48.857 103.797  1.00  0.00     0.208 A 
ATOM      3  C   UNL     1     -22.062 -49.703 104.900  1.00  0.00     0.235 A 
ATOM      4  O   UNL     1     -22.975 -50.573 104.877  1.00  0.00    -0.285 OA
ATOM      5  C   UNL     1     -21.224 -49.577 106.020  1.00  0.00     0.069 A 
ATOM      6  C   UNL     1     -20.210 -48.595 105.990  1.00  0.00     0.142 A 
ATOM      7  O   UNL     1     -20.069 -47.808 104.930  1.00  0.00    -0.452 OA
ATOM      8  C   UNL     1     -19.348 -48.446 107.083  1.00  0.00     0.094 A 
ATOM      9  C   UNL     1     -19.488 -49.263 108.208  1.00  0.00     0.119 A 
ATOM     10  C   UNL     1     -20.495 -50.239 108.242  1.00  0.00     0.047 A 
ATOM     11  C   UNL     1     -21.359 -50.397 107.156  1.00  0.00     0.020 A 
ENDROOT
BRANCH   1  12
ATOM     12  C   UNL     1     -20.598 -46.943 102.740  1.00  0.00     0.025 A 
ATOM     13  C   UNL     1     -19.578 -47.178 101.800  1.00  0.00     0.016 A 
ATOM     14  C   UNL     1     -19.374 -46.288 100.743  1.00  0.00     0.051 A 
ATOM     15  C   UNL     1     -20.194 -45.159 100.600  1.00  0.00     0.157 A 
ATOM     16  C   UNL     1     -21.430 -45.823 102.581  1.00  0.00     0.062 A 
ATOM     17  C   UNL     1     -21.228 -44.929 101.522  1.00  0.00     0.158 A 
BRANCH  15  18
ATOM     18  O   UNL     1     -19.986 -44.272  99.546  1.00  0.00    -0.504 OA
ATOM     19  H   UNL     1     -20.387 -44.434  98.628  1.00  0.00     0.293 HD
ENDBRANCH  15  18
BRANCH  17  20
ATOM     20  O   UNL     1     -22.064 -43.819 101.404  1.00  0.00    -0.504 OA
ATOM     21  H   UNL     1     -23.061 -43.877 101.570  1.00  0.00     0.293 HD
ENDBRANCH  17  20
ENDBRANCH   1  12
BRANCH   2  22
ATOM     22  O   UNL     1     -22.657 -48.991 102.651  1.00  0.00    -0.502 OA
ATOM     23  H   UNL     1     -22.825 -49.888 102.210  1.00  0.00     0.293 HD
ENDBRANCH   2  22
BRANCH   9  24
ATOM     24  O   UNL     1     -18.622 -49.100 109.287  1.00  0.00    -0.508 OA
ATOM     25  H   UNL     1     -18.885 -49.382 110.224  1.00  0.00     0.293 HD
ENDBRANCH   9  24
TORSDOF 5
ENDMDL
MODEL 5
REMARK VINA RESULT:    -6.613      3.505      4.742
REMARK INTER + INTRA:          -8.095
REMARK INTER:                  -7.837
REMARK INTRA:                  -0.258
REMARK UNBOUND:                -0.322
REMARK SMILES O=c1c(O)c(-c2ccc(O)c(O)c2)oc2cc(O)ccc12
REMARK SMILES IDX 5 1 3 2 2 3 1 4 21 5 15 6 14 7 16 8 17 9 19 10 20 11 6 12
REMARK SMILES IDX 7 13 8 14 9 15 13 16 11 17 10 18 12 20 4 22 18 24
REMARK H PARENT 10 19 12 21 4 23 18 25
REMARK Flexibility Score: inf
ROOT
ATOM      1  C   UNL     1     -19.918 -47.229 104.227  1.00  0.00     0.180 A 
ATOM      2  C   UNL     1     -18.886 -46.607 104.962  1.00  0.00     0.208 A 
ATOM      3  C   UNL     1     -18.629 -47.047 106.270  1.00  0.00     0.235 A 
ATOM      4  O   UNL     1     -17.705 -46.513 106.944  1.00  0.00    -0.285 OA
ATOM      5  C   UNL     1     -19.411 -48.074 106.820  1.00  0.00     0.069 A 
ATOM      6  C   UNL     1     -20.440 -48.629 106.028  1.00  0.00     0.142 A 
ATOM      7  O   UNL     1     -20.646 -48.190 104.792  1.00  0.00    -0.452 OA
ATOM      8  C   UNL     1     -21.248 -49.648 106.545  1.00  0.00     0.094 A 
ATOM      9  C   UNL     1     -21.041 -50.123 107.843  1.00  0.00     0.119 A 
ATOM     10  C   UNL     1     -20.019 -49.576 108.632  1.00  0.00     0.047 A 
ATOM     11  C   UNL     1     -19.208 -48.557 108.126  1.00  0.00     0.020 A 
ENDROOT
BRANCH   1  12
ATOM     12  C   UNL     1     -20.240 -46.835 102.837  1.00  0.00     0.025 A 
ATOM     13  C   UNL     1     -21.349 -46.022 102.544  1.00  0.00     0.016 A 
ATOM     14  C   UNL     1     -21.619 -45.642 101.227  1.00  0.00     0.051 A 
ATOM     15  C   UNL     1     -20.778 -46.057 100.185  1.00  0.00     0.157 A 
ATOM     16  C   UNL     1     -19.388 -47.230 101.792  1.00  0.00     0.062 A 
ATOM     17  C   UNL     1     -19.656 -46.853 100.471  1.00  0.00     0.158 A 
BRANCH  15  18
ATOM     18  O   UNL     1     -21.052 -45.680  98.872  1.00  0.00    -0.504 OA
ATOM     19  H   UNL     1     -21.991 -45.717  98.493  1.00  0.00     0.293 HD
ENDBRANCH  15  18
BRANCH  17  20
ATOM     20  O   UNL     1     -18.796 -47.277  99.458  1.00  0.00    -0.504 OA
ATOM     21  H   UNL     1     -18.012 -47.890  99.640  1.00  0.00     0.293 HD
ENDBRANCH  17  20
ENDBRANCH   1  12
BRANCH   2  22
ATOM     22  O   UNL     1     -18.157 -45.554 104.406  1.00  0.00    -0.502 OA
ATOM     23  H   UNL     1     -18.051 -45.437 103.406  1.00  0.00     0.293 HD
ENDBRANCH   2  22
BRANCH   9  24
ATOM     24  O   UNL     1     -21.854 -51.139 108.340  1.00  0.00    -0.508 OA
ATOM     25  H   UNL     1     -22.727 -51.387 107.888  1.00  0.00     0.293 HD
ENDBRANCH   9  24
TORSDOF 5
ENDMDL
MODEL 6
REMARK VINA RESULT:    -6.559      2.894      4.304
REMARK INTER + INTRA:          -8.031
REMARK INTER:                  -7.748
REMARK INTRA:                  -0.283
REMARK UNBOUND:                -0.322
REMARK SMILES O=c1c(O)c(-c2ccc(O)c(O)c2)oc2cc(O)ccc12
REMARK SMILES IDX 5 1 3 2 2 3 1 4 21 5 15 6 14 7 16 8 17 9 19 10 20 11 6 12
REMARK SMILES IDX 7 13 8 14 9 15 13 16 11 17 10 18 12 20 4 22 18 24
REMARK H PARENT 10 19 12 21 4 23 18 25
REMARK Flexibility Score: inf
ROOT
ATOM      1  C   UNL     1     -20.849 -47.671 103.684  1.00  0.00     0.180 A 
ATOM      2  C   UNL     1     -21.914 -48.587 103.553  1.00  0.00     0.208 A 
ATOM      3  C   UNL     1     -22.166 -49.486 104.601  1.00  0.00     0.235 A 
ATOM      4  O   UNL     1     -23.119 -50.308 104.511  1.00  0.00    -0.285 OA
ATOM      5  C   UNL     1     -21.344 -49.467 105.739  1.00  0.00     0.069 A 
ATOM      6  C   UNL     1     -20.284 -48.536 105.784  1.00  0.00     0.142 A 
ATOM      7  O   UNL     1     -20.085 -47.696 104.775  1.00  0.00    -0.452 OA
ATOM      8  C   UNL     1     -19.437 -48.493 106.897  1.00  0.00     0.094 A 
ATOM      9  C   UNL     1     -19.636 -49.367 107.970  1.00  0.00     0.119 A 
ATOM     10  C   UNL     1     -20.689 -50.293 107.930  1.00  0.00     0.047 A 
ATOM     11  C   UNL     1     -21.539 -50.345 106.822  1.00  0.00     0.020 A 
ENDROOT
BRANCH   1  12
ATOM     12  C   UNL     1     -20.531 -46.680 102.632  1.00  0.00     0.025 A 
ATOM     13  C   UNL     1     -20.899 -45.329 102.764  1.00  0.00     0.016 A 
ATOM     14  C   UNL     1     -20.567 -44.406 101.769  1.00  0.00     0.051 A 
ATOM     15  C   UNL     1     -19.851 -44.815 100.635  1.00  0.00     0.157 A 
ATOM     16  C   UNL     1     -19.795 -47.080 101.505  1.00  0.00     0.062 A 
ATOM     17  C   UNL     1     -19.461 -46.158 100.506  1.00  0.00     0.158 A 
BRANCH  15  18
ATOM     18  O   UNL     1     -19.523 -43.893  99.643  1.00  0.00    -0.504 OA
ATOM     19  H   UNL     1     -18.563 -43.742  99.354  1.00  0.00     0.293 HD
ENDBRANCH  15  18
BRANCH  17  20
ATOM     20  O   UNL     1     -18.742 -46.596  99.393  1.00  0.00    -0.504 OA
ATOM     21  H   UNL     1     -18.503 -45.976  98.630  1.00  0.00     0.293 HD
ENDBRANCH  17  20
ENDBRANCH   1  12
BRANCH   2  22
ATOM     22  O   UNL     1     -22.684 -48.615 102.388  1.00  0.00    -0.502 OA
ATOM     23  H   UNL     1     -22.391 -48.156 101.534  1.00  0.00     0.293 HD
ENDBRANCH   2  22
BRANCH   9  24
ATOM     24  O   UNL     1     -18.784 -49.310 109.070  1.00  0.00    -0.508 OA
ATOM     25  H   UNL     1     -18.114 -48.557 109.182  1.00  0.00     0.293 HD
ENDBRANCH   9  24
TORSDOF 5
ENDMDL
MODEL 7
REMARK VINA RESULT:    -6.460      3.280      7.243
REMARK INTER + INTRA:          -7.914
REMARK INTER:                  -8.127
REMARK INTRA:                   0.212
REMARK UNBOUND:                -0.322
REMARK SMILES O=c1c(O)c(-c2ccc(O)c(O)c2)oc2cc(O)ccc12
REMARK SMILES IDX 5 1 3 2 2 3 1 4 21 5 15 6 14 7 16 8 17 9 19 10 20 11 6 12
REMARK SMILES IDX 7 13 8 14 9 15 13 16 11 17 10 18 12 20 4 22 18 24
REMARK H PARENT 10 19 12 21 4 23 18 25
REMARK Flexibility Score: inf
ROOT
ATOM      1  C   UNL     1     -20.868 -47.902 104.898  1.00  0.00     0.180 A 
ATOM      2  C   UNL     1     -21.637 -48.547 103.906  1.00  0.00     0.208 A 
ATOM      3  C   UNL     1     -21.947 -47.846 102.731  1.00  0.00     0.235 A 
ATOM      4  O   UNL     1     -22.625 -48.405 101.824  1.00  0.00    -0.285 OA
ATOM      5  C   UNL     1     -21.507 -46.522 102.579  1.00  0.00     0.069 A 
ATOM      6  C   UNL     1     -20.763 -45.940 103.628  1.00  0.00     0.142 A 
ATOM      7  O   UNL     1     -20.483 -46.640 104.721  1.00  0.00    -0.452 OA
ATOM      8  C   UNL     1     -20.316 -44.618 103.519  1.00  0.00     0.094 A 
ATOM      9  C   UNL     1     -20.599 -43.870 102.373  1.00  0.00     0.119 A 
ATOM     10  C   UNL     1     -21.337 -44.445 101.328  1.00  0.00     0.047 A 
ATOM     11  C   UNL     1     -21.790 -45.763 101.428  1.00  0.00     0.020 A 
ENDROOT
BRANCH   1  12
ATOM     12  C   UNL     1     -20.484 -48.579 106.157  1.00  0.00     0.025 A 
ATOM     13  C   UNL     1     -19.232 -48.353 106.758  1.00  0.00     0.016 A 
ATOM     14  C   UNL     1     -18.900 -48.984 107.959  1.00  0.00     0.051 A 
ATOM     15  C   UNL     1     -19.817 -49.839 108.586  1.00  0.00     0.157 A 
ATOM     16  C   UNL     1     -21.407 -49.420 106.800  1.00  0.00     0.062 A 
ATOM     17  C   UNL     1     -21.077 -50.055 108.004  1.00  0.00     0.158 A 
BRANCH  15  18
ATOM     18  O   UNL     1     -19.482 -50.469 109.782  1.00  0.00    -0.504 OA
ATOM     19  H   UNL     1     -18.993 -49.979 110.522  1.00  0.00     0.293 HD
ENDBRANCH  15  18
BRANCH  17  20
ATOM     20  O   UNL     1     -22.015 -50.894 108.606  1.00  0.00    -0.504 OA
ATOM     21  H   UNL     1     -21.744 -51.732 109.104  1.00  0.00     0.293 HD
ENDBRANCH  17  20
ENDBRANCH   1  12
BRANCH   2  22
ATOM     22  O   UNL     1     -22.102 -49.848 104.106  1.00  0.00    -0.502 OA
ATOM     23  H   UNL     1     -22.779 -50.077 104.824  1.00  0.00     0.293 HD
ENDBRANCH   2  22
BRANCH   9  24
ATOM     24  O   UNL     1     -20.144 -42.556 102.281  1.00  0.00    -0.508 OA
ATOM     25  H   UNL     1     -20.114 -42.068 101.393  1.00  0.00     0.293 HD
ENDBRANCH   9  24
TORSDOF 5
ENDMDL
MODEL 8
REMARK VINA RESULT:    -6.214     11.025     13.380
REMARK INTER + INTRA:          -7.625
REMARK INTER:                  -7.399
REMARK INTRA:                  -0.227
REMARK UNBOUND:                -0.322
REMARK SMILES O=c1c(O)c(-c2ccc(O)c(O)c2)oc2cc(O)ccc12
REMARK SMILES IDX 5 1 3 2 2 3 1 4 21 5 15 6 14 7 16 8 17 9 19 10 20 11 6 12
REMARK SMILES IDX 7 13 8 14 9 15 13 16 11 17 10 18 12 20 4 22 18 24
REMARK H PARENT 10 19 12 21 4 23 18 25
REMARK Flexibility Score: inf
ROOT
ATOM      1  C   UNL     1     -19.017 -58.811  97.936  1.00  0.00     0.180 A 
ATOM      2  C   UNL     1     -19.563 -57.526  98.139  1.00  0.00     0.208 A 
ATOM      3  C   UNL     1     -20.922 -57.317  97.859  1.00  0.00     0.235 A 
ATOM      4  O   UNL     1     -21.436 -56.179  98.041  1.00  0.00    -0.285 OA
ATOM      5  C   UNL     1     -21.697 -58.380  97.368  1.00  0.00     0.069 A 
ATOM      6  C   UNL     1     -21.072 -59.629  97.170  1.00  0.00     0.142 A 
ATOM      7  O   UNL     1     -19.784 -59.788  97.456  1.00  0.00    -0.452 OA
ATOM      8  C   UNL     1     -21.808 -60.710  96.672  1.00  0.00     0.094 A 
ATOM      9  C   UNL     1     -23.165 -60.560  96.372  1.00  0.00     0.119 A 
ATOM     10  C   UNL     1     -23.791 -59.320  96.568  1.00  0.00     0.047 A 
ATOM     11  C   UNL     1     -23.064 -58.235  97.063  1.00  0.00     0.020 A 
ENDROOT
BRANCH   1  12
ATOM     12  C   UNL     1     -17.598 -59.117  98.225  1.00  0.00     0.025 A 
ATOM     13  C   UNL     1     -17.108 -59.144  99.543  1.00  0.00     0.016 A 
ATOM     14  C   UNL     1     -15.770 -59.458  99.793  1.00  0.00     0.051 A 
ATOM     15  C   UNL     1     -14.905 -59.764  98.733  1.00  0.00     0.157 A 
ATOM     16  C   UNL     1     -16.733 -59.445  97.168  1.00  0.00     0.062 A 
ATOM     17  C   UNL     1     -15.391 -59.760  97.415  1.00  0.00     0.158 A 
BRANCH  15  18
ATOM     18  O   UNL     1     -13.571 -60.075  98.986  1.00  0.00    -0.504 OA
ATOM     19  H   UNL     1     -13.310 -60.845  99.591  1.00  0.00     0.293 HD
ENDBRANCH  15  18
BRANCH  17  20
ATOM     20  O   UNL     1     -14.558 -60.066  96.339  1.00  0.00    -0.504 OA
ATOM     21  H   UNL     1     -14.617 -60.949  95.848  1.00  0.00     0.293 HD
ENDBRANCH  17  20
ENDBRANCH   1  12
BRANCH   2  22
ATOM     22  O   UNL     1     -18.756 -56.476  98.581  1.00  0.00    -0.502 OA
ATOM     23  H   UNL     1     -17.877 -56.633  99.061  1.00  0.00     0.293 HD
ENDBRANCH   2  22
BRANCH   9  24
ATOM     24  O   UNL     1     -23.883 -61.647  95.878  1.00  0.00    -0.508 OA
ATOM     25  H   UNL     1     -23.451 -62.556  95.757  1.00  0.00     0.293 HD
ENDBRANCH   9  24
TORSDOF 5
ENDMDL
MODEL 9
REMARK VINA RESULT:    -6.128      3.861      5.862
REMARK INTER + INTRA:          -7.524
REMARK INTER:                  -7.205
REMARK INTRA:                  -0.319
REMARK UNBOUND:                -0.322
REMARK SMILES O=c1c(O)c(-c2ccc(O)c(O)c2)oc2cc(O)ccc12
REMARK SMILES IDX 5 1 3 2 2 3 1 4 21 5 15 6 14 7 16 8 17 9 19 10 20 11 6 12
REMARK SMILES IDX 7 13 8 14 9 15 13 16 11 17 10 18 12 20 4 22 18 24
REMARK H PARENT 10 19 12 21 4 23 18 25
REMARK Flexibility Score: inf
ROOT
ATOM      1  C   UNL     1     -19.834 -47.054 103.856  1.00  0.00     0.180 A 
ATOM      2  C   UNL     1     -20.413 -48.178 104.484  1.00  0.00     0.208 A 
ATOM      3  C   UNL     1     -20.056 -48.470 105.809  1.00  0.00     0.235 A 
ATOM      4  O   UNL     1     -20.567 -49.464 106.395  1.00  0.00    -0.285 OA
ATOM      5  C   UNL     1     -19.122 -47.655 106.469  1.00  0.00     0.069 A 
ATOM      6  C   UNL     1     -18.571 -46.564 105.764  1.00  0.00     0.142 A 
ATOM      7  O   UNL     1     -18.942 -46.316 104.513  1.00  0.00    -0.452 OA
ATOM      8  C   UNL     1     -17.629 -45.734 106.384  1.00  0.00     0.094 A 
ATOM      9  C   UNL     1     -17.232 -45.979 107.701  1.00  0.00     0.119 A 
ATOM     10  C   UNL     1     -17.778 -47.062 108.406  1.00  0.00     0.047 A 
ATOM     11  C   UNL     1     -18.718 -47.897 107.795  1.00  0.00     0.020 A 
ENDROOT
BRANCH   1  12
ATOM     12  C   UNL     1     -20.172 -46.669 102.468  1.00  0.00     0.025 A 
ATOM     13  C   UNL     1     -21.290 -45.865 102.183  1.00  0.00     0.016 A 
ATOM     14  C   UNL     1     -21.576 -45.494 100.866  1.00  0.00     0.051 A 
ATOM     15  C   UNL     1     -20.743 -45.907  99.818  1.00  0.00     0.157 A 
ATOM     16  C   UNL     1     -19.328 -47.063 101.416  1.00  0.00     0.062 A 
ATOM     17  C   UNL     1     -19.612 -46.693 100.096  1.00  0.00     0.158 A 
BRANCH  15  18
ATOM     18  O   UNL     1     -21.032 -45.538  98.506  1.00  0.00    -0.504 OA
ATOM     19  H   UNL     1     -21.319 -44.594  98.271  1.00  0.00     0.293 HD
ENDBRANCH  15  18
BRANCH  17  20
ATOM     20  O   UNL     1     -18.760 -47.115  99.076  1.00  0.00    -0.504 OA
ATOM     21  H   UNL     1     -17.922 -47.651  99.263  1.00  0.00     0.293 HD
ENDBRANCH  17  20
ENDBRANCH   1  12
BRANCH   2  22
ATOM     22  O   UNL     1     -21.301 -48.999 103.786  1.00  0.00    -0.502 OA
ATOM     23  H   UNL     1     -22.288 -49.044 104.011  1.00  0.00     0.293 HD
ENDBRANCH   2  22
BRANCH   9  24
ATOM     24  O   UNL     1     -16.294 -45.143 108.303  1.00  0.00    -0.508 OA
ATOM     25  H   UNL     1     -16.550 -44.521 109.061  1.00  0.00     0.293 HD
ENDBRANCH   9  24
TORSDOF 5
ENDMDL
