MODEL 1
REMARK VINA RESULT:    -1.840      0.000      0.000
REMARK INTER + INTRA:          -2.475
REMARK INTER:                  -2.216
REMARK INTRA:                  -0.259
REMARK UNBOUND:                -0.259
REMARK SMILES NC(=O)C[C@@H]([NH3+])C(=O)[O-]
REMARK SMILES IDX 4 1 5 2 6 3 7 7 8 8 9 9 2 10 3 11 1 12
REMARK H PARENT 6 4 6 5 6 6 1 13 1 14
REMARK Flexibility Score: inf
ROOT
ATOM      1  C   UNL     1       0.167   0.680  -6.613  1.00  0.00     0.171 C 
ENDROOT
BRANCH   1   2
ATOM      2  C   UNL     1       1.575   0.463  -7.205  1.00  0.00     0.237 C 
BRANCH   2   3
ATOM      3  N   UNL     1       2.383  -0.426  -6.359  1.00  0.00    -0.350 N 
ATOM      4  H   UNL     1       3.370  -0.470  -6.702  1.00  0.00     0.345 HD
ATOM      5  H   UNL     1       1.975  -1.389  -6.357  1.00  0.00     0.345 HD
ATOM      6  H   UNL     1       2.379  -0.076  -5.372  1.00  0.00     0.345 HD
ENDBRANCH   2   3
BRANCH   2   7
ATOM      7  C   UNL     1       1.462  -0.102  -8.596  1.00  0.00     0.100 C 
ATOM      8  O   UNL     1       0.536  -0.907  -8.886  1.00  0.00    -0.544 OA
ATOM      9  O   UNL     1       2.371   0.277  -9.575  1.00  0.00    -0.544 OA
ENDBRANCH   2   7
ENDBRANCH   1   2
BRANCH   1  10
ATOM     10  C   UNL     1       0.158   1.778  -5.589  1.00  0.00     0.223 C 
ATOM     11  O   UNL     1       1.154   1.936  -4.834  1.00  0.00    -0.275 OA
ATOM     12  N   UNL     1      -0.983   2.622  -5.441  1.00  0.00    -0.369 N 
ATOM     13  H   UNL     1      -1.826   2.491  -6.043  1.00  0.00     0.159 HD
ATOM     14  H   UNL     1      -0.988   3.379  -4.721  1.00  0.00     0.159 HD
ENDBRANCH   1  10
TORSDOF 4
ENDMDL
MODEL 2
REMARK VINA RESULT:    -1.517      2.941      5.665
REMARK INTER + INTRA:          -2.086
REMARK INTER:                  -2.013
REMARK INTRA:                  -0.073
REMARK UNBOUND:                -0.259
REMARK SMILES NC(=O)C[C@@H]([NH3+])C(=O)[O-]
REMARK SMILES IDX 4 1 5 2 6 3 7 7 8 8 9 9 2 10 3 11 1 12
REMARK H PARENT 6 4 6 5 6 6 1 13 1 14
REMARK Flexibility Score: inf
ROOT
ATOM      1  C   UNL     1      -1.210   2.230  -4.979  1.00  0.00     0.171 C 
ENDROOT
BRANCH   1   2
ATOM      2  C   UNL     1      -1.127   3.745  -4.706  1.00  0.00     0.237 C 
BRANCH   2   3
ATOM      3  N   UNL     1      -1.887   4.514  -5.701  1.00  0.00    -0.350 N 
ATOM      4  H   UNL     1      -1.833   4.060  -6.642  1.00  0.00     0.345 HD
ATOM      5  H   UNL     1      -1.510   5.488  -5.765  1.00  0.00     0.345 HD
ATOM      6  H   UNL     1      -2.890   4.579  -5.408  1.00  0.00     0.345 HD
ENDBRANCH   2   3
BRANCH   2   7
ATOM      7  C   UNL     1      -1.635   4.043  -3.319  1.00  0.00     0.100 C 
ATOM      8  O   UNL     1      -2.800   3.705  -2.979  1.00  0.00    -0.544 OA
ATOM      9  O   UNL     1      -0.810   4.677  -2.399  1.00  0.00    -0.544 OA
ENDBRANCH   2   7
ENDBRANCH   1   2
BRANCH   1  10
ATOM     10  C   UNL     1       0.043   1.712  -5.622  1.00  0.00     0.223 C 
ATOM     11  O   UNL     1      -0.027   1.079  -6.708  1.00  0.00    -0.275 OA
ATOM     12  N   UNL     1       1.311   1.903  -4.994  1.00  0.00    -0.369 N 
ATOM     13  H   UNL     1       1.386   2.405  -4.082  1.00  0.00     0.159 HD
ATOM     14  H   UNL     1       2.180   1.532  -5.440  1.00  0.00     0.159 HD
ENDBRANCH   1  10
TORSDOF 4
ENDMDL
MODEL 3
REMARK VINA RESULT:    -1.441      2.222      4.086
REMARK INTER + INTRA:          -1.994
REMARK INTER:                  -1.757
REMARK INTRA:                  -0.237
REMARK UNBOUND:                -0.259
REMARK SMILES NC(=O)C[C@@H]([NH3+])C(=O)[O-]
REMARK SMILES IDX 4 1 5 2 6 3 7 7 8 8 9 9 2 10 3 11 1 12
REMARK H PARENT 6 4 6 5 6 6 1 13 1 14
REMARK Flexibility Score: inf
ROOT
ATOM      1  C   UNL     1       0.393   0.853  -6.796  1.00  0.00     0.171 C 
ENDROOT
BRANCH   1   2
ATOM      2  C   UNL     1       0.300   1.395  -5.355  1.00  0.00     0.237 C 
BRANCH   2   3
ATOM      3  N   UNL     1       1.558   2.029  -4.935  1.00  0.00    -0.350 N 
ATOM      4  H   UNL     1       2.372   1.610  -5.442  1.00  0.00     0.345 HD
ATOM      5  H   UNL     1       1.694   1.909  -3.905  1.00  0.00     0.345 HD
ATOM      6  H   UNL     1       1.522   3.055  -5.135  1.00  0.00     0.345 HD
ENDBRANCH   2   3
BRANCH   2   7
ATOM      7  C   UNL     1      -0.838   2.377  -5.251  1.00  0.00     0.100 C 
ATOM      8  O   UNL     1      -1.767   2.369  -6.102  1.00  0.00    -0.544 OA
ATOM      9  O   UNL     1      -0.876   3.286  -4.203  1.00  0.00    -0.544 OA
ENDBRANCH   2   7
ENDBRANCH   1   2
BRANCH   1  10
ATOM     10  C   UNL     1       1.704   0.167  -7.047  1.00  0.00     0.223 C 
ATOM     11  O   UNL     1       2.301  -0.407  -6.098  1.00  0.00    -0.275 OA
ATOM     12  N   UNL     1       2.297   0.190  -8.345  1.00  0.00    -0.369 N 
ATOM     13  H   UNL     1       1.828   0.682  -9.138  1.00  0.00     0.159 HD
ATOM     14  H   UNL     1       3.215  -0.280  -8.513  1.00  0.00     0.159 HD
ENDBRANCH   1  10
TORSDOF 4
ENDMDL
MODEL 4
REMARK VINA RESULT:    -1.421      2.868      4.126
REMARK INTER + INTRA:          -1.970
REMARK INTER:                  -1.899
REMARK INTRA:                  -0.071
REMARK UNBOUND:                -0.259
REMARK SMILES NC(=O)C[C@@H]([NH3+])C(=O)[O-]
REMARK SMILES IDX 4 1 5 2 6 3 7 7 8 8 9 9 2 10 3 11 1 12
REMARK H PARENT 6 4 6 5 6 6 1 13 1 14
REMARK Flexibility Score: inf
ROOT
ATOM      1  C   UNL     1      -0.669   3.501  -4.141  1.00  0.00     0.171 C 
ENDROOT
BRANCH   1   2
ATOM      2  C   UNL     1      -1.039   2.371  -5.124  1.00  0.00     0.237 C 
BRANCH   2   3
ATOM      3  N   UNL     1      -1.785   2.887  -6.280  1.00  0.00    -0.350 N 
ATOM      4  H   UNL     1      -2.644   3.398  -5.971  1.00  0.00     0.345 HD
ATOM      5  H   UNL     1      -2.061   2.098  -6.909  1.00  0.00     0.345 HD
ATOM      6  H   UNL     1      -1.179   3.537  -6.832  1.00  0.00     0.345 HD
ENDBRANCH   2   3
BRANCH   2   7
ATOM      7  C   UNL     1       0.210   1.664  -5.582  1.00  0.00     0.100 C 
ATOM      8  O   UNL     1       0.213   1.006  -6.656  1.00  0.00    -0.544 OA
ATOM      9  O   UNL     1       1.372   1.750  -4.828  1.00  0.00    -0.544 OA
ENDBRANCH   2   7
ENDBRANCH   1   2
BRANCH   1  10
ATOM     10  C   UNL     1      -1.887   4.220  -3.638  1.00  0.00     0.223 C 
ATOM     11  O   UNL     1      -2.642   3.660  -2.801  1.00  0.00    -0.275 OA
ATOM     12  N   UNL     1      -2.215   5.520  -4.128  1.00  0.00    -0.369 N 
ATOM     13  H   UNL     1      -1.613   5.990  -4.840  1.00  0.00     0.159 HD
ATOM     14  H   UNL     1      -3.069   6.013  -3.783  1.00  0.00     0.159 HD
ENDBRANCH   1  10
TORSDOF 4
ENDMDL
MODEL 5
REMARK VINA RESULT:    -1.418      1.999      4.014
REMARK INTER + INTRA:          -1.966
REMARK INTER:                  -1.701
REMARK INTRA:                  -0.266
REMARK UNBOUND:                -0.259
REMARK SMILES NC(=O)C[C@@H]([NH3+])C(=O)[O-]
REMARK SMILES IDX 4 1 5 2 6 3 7 7 8 8 9 9 2 10 3 11 1 12
REMARK H PARENT 6 4 6 5 6 6 1 13 1 14
REMARK Flexibility Score: inf
ROOT
ATOM      1  C   UNL     1       0.781   0.383  -7.717  1.00  0.00     0.171 C 
ENDROOT
BRANCH   1   2
ATOM      2  C   UNL     1       1.421   0.047  -6.354  1.00  0.00     0.237 C 
BRANCH   2   3
ATOM      3  N   UNL     1       2.857  -0.234  -6.489  1.00  0.00    -0.350 N 
ATOM      4  H   UNL     1       3.403   0.654  -6.575  1.00  0.00     0.345 HD
ATOM      5  H   UNL     1       3.029  -0.828  -7.332  1.00  0.00     0.345 HD
ATOM      6  H   UNL     1       3.194  -0.764  -5.652  1.00  0.00     0.345 HD
ENDBRANCH   2   3
BRANCH   2   7
ATOM      7  C   UNL     1       1.200   1.185  -5.392  1.00  0.00     0.100 C 
ATOM      8  O   UNL     1       2.111   1.533  -4.595  1.00  0.00    -0.544 OA
ATOM      9  O   UNL     1      -0.008   1.869  -5.392  1.00  0.00    -0.544 OA
ENDBRANCH   2   7
ENDBRANCH   1   2
BRANCH   1  10
ATOM     10  C   UNL     1       1.577  -0.180  -8.858  1.00  0.00     0.223 C 
ATOM     11  O   UNL     1       2.618   0.412  -9.246  1.00  0.00    -0.275 OA
ATOM     12  N   UNL     1       1.143  -1.363  -9.530  1.00  0.00    -0.369 N 
ATOM     13  H   UNL     1       0.269  -1.854  -9.237  1.00  0.00     0.159 HD
ATOM     14  H   UNL     1       1.695  -1.746 -10.330  1.00  0.00     0.159 HD
ENDBRANCH   1  10
TORSDOF 4
ENDMDL
MODEL 6
REMARK VINA RESULT:    -1.075      2.043      2.443
REMARK INTER + INTRA:          -1.553
REMARK INTER:                  -1.312
REMARK INTRA:                  -0.241
REMARK UNBOUND:                -0.259
REMARK SMILES NC(=O)C[C@@H]([NH3+])C(=O)[O-]
REMARK SMILES IDX 4 1 5 2 6 3 7 7 8 8 9 9 2 10 3 11 1 12
REMARK H PARENT 6 4 6 5 6 6 1 13 1 14
REMARK Flexibility Score: inf
ROOT
ATOM      1  C   UNL     1      -0.837   1.871  -5.376  1.00  0.00     0.171 C 
ENDROOT
BRANCH   1   2
ATOM      2  C   UNL     1       0.632   1.810  -5.842  1.00  0.00     0.237 C 
BRANCH   2   3
ATOM      3  N   UNL     1       1.562   1.915  -4.708  1.00  0.00    -0.350 N 
ATOM      4  H   UNL     1       1.593   1.019  -4.169  1.00  0.00     0.345 HD
ATOM      5  H   UNL     1       1.265   2.690  -4.072  1.00  0.00     0.345 HD
ATOM      6  H   UNL     1       2.522   2.140  -5.057  1.00  0.00     0.345 HD
ENDBRANCH   2   3
BRANCH   2   7
ATOM      7  C   UNL     1       0.875   0.530  -6.598  1.00  0.00     0.100 C 
ATOM      8  O   UNL     1       0.205   0.261  -7.631  1.00  0.00    -0.544 OA
ATOM      9  O   UNL     1       1.855  -0.354  -6.168  1.00  0.00    -0.544 OA
ENDBRANCH   2   7
ENDBRANCH   1   2
BRANCH   1  10
ATOM     10  C   UNL     1      -1.200   3.235  -4.863  1.00  0.00     0.223 C 
ATOM     11  O   UNL     1      -0.993   3.523  -3.655  1.00  0.00    -0.275 OA
ATOM     12  N   UNL     1      -1.809   4.195  -5.726  1.00  0.00    -0.369 N 
ATOM     13  H   UNL     1      -2.009   3.964  -6.725  1.00  0.00     0.159 HD
ATOM     14  H   UNL     1      -2.069   5.139  -5.363  1.00  0.00     0.159 HD
ENDBRANCH   1  10
TORSDOF 4
ENDMDL
MODEL 7
REMARK VINA RESULT:    -0.766      3.144      5.815
REMARK INTER + INTRA:          -1.181
REMARK INTER:                  -0.922
REMARK INTRA:                  -0.260
REMARK UNBOUND:                -0.259
REMARK SMILES NC(=O)C[C@@H]([NH3+])C(=O)[O-]
REMARK SMILES IDX 4 1 5 2 6 3 7 7 8 8 9 9 2 10 3 11 1 12
REMARK H PARENT 6 4 6 5 6 6 1 13 1 14
REMARK Flexibility Score: inf
ROOT
ATOM      1  C   UNL     1      -0.322   2.814  -4.693  1.00  0.00     0.171 C 
ENDROOT
BRANCH   1   2
ATOM      2  C   UNL     1      -1.726   3.389  -4.414  1.00  0.00     0.237 C 
BRANCH   2   3
ATOM      3  N   UNL     1      -2.604   2.389  -3.790  1.00  0.00    -0.350 N 
ATOM      4  H   UNL     1      -3.492   2.285  -4.332  1.00  0.00     0.345 HD
ATOM      5  H   UNL     1      -2.829   2.673  -2.809  1.00  0.00     0.345 HD
ATOM      6  H   UNL     1      -2.115   1.465  -3.750  1.00  0.00     0.345 HD
ENDBRANCH   2   3
BRANCH   2   7
ATOM      7  C   UNL     1      -1.613   4.606  -3.533  1.00  0.00     0.100 C 
ATOM      8  O   UNL     1      -1.060   4.528  -2.404  1.00  0.00    -0.544 OA
ATOM      9  O   UNL     1      -2.103   5.828  -3.973  1.00  0.00    -0.544 OA
ENDBRANCH   2   7
ENDBRANCH   1   2
BRANCH   1  10
ATOM     10  C   UNL     1      -0.339   1.839  -5.834  1.00  0.00     0.223 C 
ATOM     11  O   UNL     1      -1.427   1.564  -6.405  1.00  0.00    -0.275 OA
ATOM     12  N   UNL     1       0.863   1.195  -6.255  1.00  0.00    -0.369 N 
ATOM     13  H   UNL     1       1.771   1.393  -5.778  1.00  0.00     0.159 HD
ATOM     14  H   UNL     1       0.845   0.510  -7.043  1.00  0.00     0.159 HD
ENDBRANCH   1  10
TORSDOF 4
ENDMDL
MODEL 8
REMARK VINA RESULT:    -0.677      3.706      4.802
REMARK INTER + INTRA:          -1.074
REMARK INTER:                  -0.817
REMARK INTRA:                  -0.257
REMARK UNBOUND:                -0.259
REMARK SMILES NC(=O)C[C@@H]([NH3+])C(=O)[O-]
REMARK SMILES IDX 4 1 5 2 6 3 7 7 8 8 9 9 2 10 3 11 1 12
REMARK H PARENT 6 4 6 5 6 6 1 13 1 14
REMARK Flexibility Score: inf
ROOT
ATOM      1  C   UNL     1      -1.827   4.448  -4.965  1.00  0.00     0.171 C 
ENDROOT
BRANCH   1   2
ATOM      2  C   UNL     1      -1.399   3.070  -4.418  1.00  0.00     0.237 C 
BRANCH   2   3
ATOM      3  N   UNL     1      -2.508   2.396  -3.729  1.00  0.00    -0.350 N 
ATOM      4  H   UNL     1      -2.179   1.518  -3.267  1.00  0.00     0.345 HD
ATOM      5  H   UNL     1      -3.266   2.164  -4.412  1.00  0.00     0.345 HD
ATOM      6  H   UNL     1      -2.915   3.033  -3.005  1.00  0.00     0.345 HD
ENDBRANCH   2   3
BRANCH   2   7
ATOM      7  C   UNL     1      -0.885   2.211  -5.544  1.00  0.00     0.100 C 
ATOM      8  O   UNL     1      -1.643   1.887  -6.497  1.00  0.00    -0.544 OA
ATOM      9  O   UNL     1       0.436   1.787  -5.546  1.00  0.00    -0.544 OA
ENDBRANCH   2   7
ENDBRANCH   1   2
BRANCH   1  10
ATOM     10  C   UNL     1      -1.810   5.499  -3.895  1.00  0.00     0.223 C 
ATOM     11  O   UNL     1      -1.563   5.175  -2.703  1.00  0.00    -0.275 OA
ATOM     12  N   UNL     1      -2.106   6.860  -4.210  1.00  0.00    -0.369 N 
ATOM     13  H   UNL     1      -2.336   7.143  -5.188  1.00  0.00     0.159 HD
ATOM     14  H   UNL     1      -2.103   7.587  -3.460  1.00  0.00     0.159 HD
ENDBRANCH   1  10
TORSDOF 4
ENDMDL
MODEL 9
REMARK VINA RESULT:    -0.488      3.870      5.021
REMARK INTER + INTRA:          -0.847
REMARK INTER:                  -1.507
REMARK INTRA:                   0.660
REMARK UNBOUND:                -0.259
REMARK SMILES NC(=O)C[C@@H]([NH3+])C(=O)[O-]
REMARK SMILES IDX 4 1 5 2 6 3 7 7 8 8 9 9 2 10 3 11 1 12
REMARK H PARENT 6 4 6 5 6 6 1 13 1 14
REMARK Flexibility Score: inf
ROOT
ATOM      1  C   UNL     1      -2.175   3.740  -3.571  1.00  0.00     0.171 C 
ENDROOT
BRANCH   1   2
ATOM      2  C   UNL     1      -1.959   3.547  -5.086  1.00  0.00     0.237 C 
BRANCH   2   3
ATOM      3  N   UNL     1      -1.612   4.813  -5.746  1.00  0.00    -0.350 N 
ATOM      4  H   UNL     1      -2.376   5.517  -5.623  1.00  0.00     0.345 HD
ATOM      5  H   UNL     1      -1.452   4.653  -6.767  1.00  0.00     0.345 HD
ATOM      6  H   UNL     1      -0.726   5.194  -5.340  1.00  0.00     0.345 HD
ENDBRANCH   2   3
BRANCH   2   7
ATOM      7  C   UNL     1      -0.878   2.524  -5.320  1.00  0.00     0.100 C 
ATOM      8  O   UNL     1       0.190   2.558  -4.652  1.00  0.00    -0.544 OA
ATOM      9  O   UNL     1      -1.062   1.524  -6.266  1.00  0.00    -0.544 OA
ENDBRANCH   2   7
ENDBRANCH   1   2
BRANCH   1  10
ATOM     10  C   UNL     1      -1.465   4.959  -3.059  1.00  0.00     0.223 C 
ATOM     11  O   UNL     1      -0.561   4.838  -2.191  1.00  0.00    -0.275 OA
ATOM     12  N   UNL     1      -1.830   6.259  -3.524  1.00  0.00    -0.369 N 
ATOM     13  H   UNL     1      -2.593   6.380  -4.226  1.00  0.00     0.159 HD
ATOM     14  H   UNL     1      -1.340   7.105  -3.158  1.00  0.00     0.159 HD
ENDBRANCH   1  10
TORSDOF 4
ENDMDL
