MODEL 1
REMARK VINA RESULT:    -2.920      0.000      0.000
REMARK INTER + INTRA:          -4.256
REMARK INTER:                  -3.945
REMARK INTRA:                  -0.311
REMARK UNBOUND:                -0.311
REMARK SMILES CCCCCCCC(=O)[O-]
REMARK SMILES IDX 5 1 6 2 7 3 8 4 9 5 10 6 4 7 3 8 2 9 1 10
REMARK H PARENT
REMARK Flexibility Score: inf
ROOT
ATOM      1  C   UNL     1     -15.643  15.029  -9.297  1.00  0.00     0.000 C 
ENDROOT
BRANCH   1   2
ATOM      2  C   UNL     1     -16.251  15.132  -7.887  1.00  0.00     0.006 C 
BRANCH   2   3
ATOM      3  C   UNL     1     -17.112  13.917  -7.521  1.00  0.00     0.053 C 
BRANCH   3   4
ATOM      4  C   UNL     1     -16.441  13.104  -6.459  1.00  0.00     0.041 C 
ATOM      5  O   UNL     1     -17.125  12.543  -5.564  1.00  0.00    -0.550 OA
ATOM      6  O   UNL     1     -15.055  13.007  -6.430  1.00  0.00    -0.550 OA
ENDBRANCH   3   4
ENDBRANCH   2   3
ENDBRANCH   1   2
BRANCH   1   7
ATOM      7  C   UNL     1     -15.895  13.690 -10.019  1.00  0.00     0.000 C 
BRANCH   7   8
ATOM      8  C   UNL     1     -14.699  12.718 -10.033  1.00  0.00    -0.000 C 
BRANCH   8   9
ATOM      9  C   UNL     1     -14.570  11.870 -11.310  1.00  0.00    -0.003 C 
ATOM     10  C   UNL     1     -13.602  12.470 -12.329  1.00  0.00     0.004 C 
ENDBRANCH   8   9
ENDBRANCH   7   8
ENDBRANCH   1   7
TORSDOF 6
ENDMDL
MODEL 2
REMARK VINA RESULT:    -2.887      3.343      4.949
REMARK INTER + INTRA:          -4.210
REMARK INTER:                  -3.756
REMARK INTRA:                  -0.454
REMARK UNBOUND:                -0.311
REMARK SMILES CCCCCCCC(=O)[O-]
REMARK SMILES IDX 5 1 6 2 7 3 8 4 9 5 10 6 4 7 3 8 2 9 1 10
REMARK H PARENT
REMARK Flexibility Score: inf
ROOT
ATOM      1  C   UNL     1     -16.602  13.705 -10.033  1.00  0.00     0.000 C 
ENDROOT
BRANCH   1   2
ATOM      2  C   UNL     1     -16.111  12.396 -10.676  1.00  0.00     0.006 C 
BRANCH   2   3
ATOM      3  C   UNL     1     -14.586  12.344 -10.828  1.00  0.00     0.053 C 
BRANCH   3   4
ATOM      4  C   UNL     1     -14.213  12.134 -12.262  1.00  0.00     0.041 C 
ATOM      5  O   UNL     1     -15.026  11.596 -13.057  1.00  0.00    -0.550 OA
ATOM      6  O   UNL     1     -12.945  12.489 -12.709  1.00  0.00    -0.550 OA
ENDBRANCH   3   4
ENDBRANCH   2   3
ENDBRANCH   1   2
BRANCH   1   7
ATOM      7  C   UNL     1     -15.572  14.414  -9.131  1.00  0.00     0.000 C 
BRANCH   7   8
ATOM      8  C   UNL     1     -15.950  14.488  -7.638  1.00  0.00    -0.000 C 
BRANCH   8   9
ATOM      9  C   UNL     1     -15.408  13.335  -6.776  1.00  0.00    -0.003 C 
ATOM     10  C   UNL     1     -14.040  12.836  -7.239  1.00  0.00     0.004 C 
ENDBRANCH   8   9
ENDBRANCH   7   8
ENDBRANCH   1   7
TORSDOF 6
ENDMDL
MODEL 3
REMARK VINA RESULT:    -2.860      2.533      4.647
REMARK INTER + INTRA:          -4.174
REMARK INTER:                  -3.784
REMARK INTRA:                  -0.391
REMARK UNBOUND:                -0.311
REMARK SMILES CCCCCCCC(=O)[O-]
REMARK SMILES IDX 5 1 6 2 7 3 8 4 9 5 10 6 4 7 3 8 2 9 1 10
REMARK H PARENT
REMARK Flexibility Score: inf
ROOT
ATOM      1  C   UNL     1     -15.397  13.486  -6.964  1.00  0.00     0.000 C 
ENDROOT
BRANCH   1   2
ATOM      2  C   UNL     1     -14.538  13.005  -8.147  1.00  0.00     0.006 C 
BRANCH   2   3
ATOM      3  C   UNL     1     -14.953  13.639  -9.480  1.00  0.00     0.053 C 
BRANCH   3   4
ATOM      4  C   UNL     1     -14.589  12.741 -10.620  1.00  0.00     0.041 C 
ATOM      5  O   UNL     1     -14.679  13.154 -11.806  1.00  0.00    -0.550 OA
ATOM      6  O   UNL     1     -14.198  11.429 -10.375  1.00  0.00    -0.550 OA
ENDBRANCH   3   4
ENDBRANCH   2   3
ENDBRANCH   1   2
BRANCH   1   7
ATOM      7  C   UNL     1     -16.754  14.106  -7.354  1.00  0.00     0.000 C 
BRANCH   7   8
ATOM      8  C   UNL     1     -16.876  15.623  -7.107  1.00  0.00    -0.000 C 
BRANCH   8   9
ATOM      9  C   UNL     1     -17.100  16.468  -8.373  1.00  0.00    -0.003 C 
ATOM     10  C   UNL     1     -15.874  17.290  -8.766  1.00  0.00     0.004 C 
ENDBRANCH   8   9
ENDBRANCH   7   8
ENDBRANCH   1   7
TORSDOF 6
ENDMDL
MODEL 4
REMARK VINA RESULT:    -2.858      3.168      5.079
REMARK INTER + INTRA:          -4.172
REMARK INTER:                  -3.853
REMARK INTRA:                  -0.318
REMARK UNBOUND:                -0.311
REMARK SMILES CCCCCCCC(=O)[O-]
REMARK SMILES IDX 5 1 6 2 7 3 8 4 9 5 10 6 4 7 3 8 2 9 1 10
REMARK H PARENT
REMARK Flexibility Score: inf
ROOT
ATOM      1  C   UNL     1     -14.518  13.125  -8.160  1.00  0.00     0.000 C 
ENDROOT
BRANCH   1   2
ATOM      2  C   UNL     1     -14.989  13.219  -9.622  1.00  0.00     0.006 C 
BRANCH   2   3
ATOM      3  C   UNL     1     -14.499  12.048 -10.481  1.00  0.00     0.053 C 
BRANCH   3   4
ATOM      4  C   UNL     1     -14.271  12.496 -11.891  1.00  0.00     0.041 C 
ATOM      5  O   UNL     1     -15.234  12.906 -12.590  1.00  0.00    -0.550 OA
ATOM      6  O   UNL     1     -13.001  12.413 -12.450  1.00  0.00    -0.550 OA
ENDBRANCH   3   4
ENDBRANCH   2   3
ENDBRANCH   1   2
BRANCH   1   7
ATOM      7  C   UNL     1     -15.568  13.536  -7.108  1.00  0.00     0.000 C 
BRANCH   7   8
ATOM      8  C   UNL     1     -16.660  14.498  -7.615  1.00  0.00    -0.000 C 
BRANCH   8   9
ATOM      9  C   UNL     1     -16.404  15.985  -7.312  1.00  0.00    -0.003 C 
ATOM     10  C   UNL     1     -15.917  16.766  -8.532  1.00  0.00     0.004 C 
ENDBRANCH   8   9
ENDBRANCH   7   8
ENDBRANCH   1   7
TORSDOF 6
ENDMDL
MODEL 5
REMARK VINA RESULT:    -2.729      3.188      5.119
REMARK INTER + INTRA:          -3.997
REMARK INTER:                  -3.646
REMARK INTRA:                  -0.351
REMARK UNBOUND:                -0.311
REMARK SMILES CCCCCCCC(=O)[O-]
REMARK SMILES IDX 5 1 6 2 7 3 8 4 9 5 10 6 4 7 3 8 2 9 1 10
REMARK H PARENT
REMARK Flexibility Score: inf
ROOT
ATOM      1  C   UNL     1     -14.611  13.142  -8.432  1.00  0.00     0.000 C 
ENDROOT
BRANCH   1   2
ATOM      2  C   UNL     1     -14.942  13.312  -9.925  1.00  0.00     0.006 C 
BRANCH   2   3
ATOM      3  C   UNL     1     -15.152  11.973 -10.642  1.00  0.00     0.053 C 
BRANCH   3   4
ATOM      4  C   UNL     1     -14.463  11.979 -11.970  1.00  0.00     0.041 C 
ATOM      5  O   UNL     1     -13.303  12.456 -12.080  1.00  0.00    -0.550 OA
ATOM      6  O   UNL     1     -15.121  11.502 -13.098  1.00  0.00    -0.550 OA
ENDBRANCH   3   4
ENDBRANCH   2   3
ENDBRANCH   1   2
BRANCH   1   7
ATOM      7  C   UNL     1     -15.641  13.756  -7.462  1.00  0.00     0.000 C 
BRANCH   7   8
ATOM      8  C   UNL     1     -16.642  14.737  -8.104  1.00  0.00    -0.000 C 
BRANCH   8   9
ATOM      9  C   UNL     1     -16.435  16.213  -7.724  1.00  0.00    -0.003 C 
ATOM     10  C   UNL     1     -15.679  17.004  -8.790  1.00  0.00     0.004 C 
ENDBRANCH   8   9
ENDBRANCH   7   8
ENDBRANCH   1   7
TORSDOF 6
ENDMDL
MODEL 6
REMARK VINA RESULT:    -2.703      1.022      1.501
REMARK INTER + INTRA:          -3.962
REMARK INTER:                  -3.537
REMARK INTRA:                  -0.425
REMARK UNBOUND:                -0.311
REMARK SMILES CCCCCCCC(=O)[O-]
REMARK SMILES IDX 5 1 6 2 7 3 8 4 9 5 10 6 4 7 3 8 2 9 1 10
REMARK H PARENT
REMARK Flexibility Score: inf
ROOT
ATOM      1  C   UNL     1     -16.478  14.876 -10.067  1.00  0.00     0.000 C 
ENDROOT
BRANCH   1   2
ATOM      2  C   UNL     1     -17.074  14.356  -8.748  1.00  0.00     0.006 C 
BRANCH   2   3
ATOM      3  C   UNL     1     -16.211  14.703  -7.529  1.00  0.00     0.053 C 
BRANCH   3   4
ATOM      4  C   UNL     1     -15.687  13.455  -6.889  1.00  0.00     0.041 C 
ATOM      5  O   UNL     1     -14.542  13.023  -7.186  1.00  0.00    -0.550 OA
ATOM      6  O   UNL     1     -16.484  12.742  -6.001  1.00  0.00    -0.550 OA
ENDBRANCH   3   4
ENDBRANCH   2   3
ENDBRANCH   1   2
BRANCH   1   7
ATOM      7  C   UNL     1     -16.431  13.845 -11.213  1.00  0.00     0.000 C 
BRANCH   7   8
ATOM      8  C   UNL     1     -16.081  12.406 -10.785  1.00  0.00    -0.000 C 
BRANCH   8   9
ATOM      9  C   UNL     1     -14.577  12.128 -10.623  1.00  0.00    -0.003 C 
ATOM     10  C   UNL     1     -13.791  12.322 -11.919  1.00  0.00     0.004 C 
ENDBRANCH   8   9
ENDBRANCH   7   8
ENDBRANCH   1   7
TORSDOF 6
ENDMDL
MODEL 7
REMARK VINA RESULT:    -2.611      3.123      4.556
REMARK INTER + INTRA:          -3.837
REMARK INTER:                  -3.640
REMARK INTRA:                  -0.198
REMARK UNBOUND:                -0.311
REMARK SMILES CCCCCCCC(=O)[O-]
REMARK SMILES IDX 5 1 6 2 7 3 8 4 9 5 10 6 4 7 3 8 2 9 1 10
REMARK H PARENT
REMARK Flexibility Score: inf
ROOT
ATOM      1  C   UNL     1     -15.648  17.162  -8.883  1.00  0.00     0.000 C 
ENDROOT
BRANCH   1   2
ATOM      2  C   UNL     1     -15.976  15.659  -8.893  1.00  0.00     0.006 C 
BRANCH   2   3
ATOM      3  C   UNL     1     -16.217  15.095  -7.488  1.00  0.00     0.053 C 
BRANCH   3   4
ATOM      4  C   UNL     1     -15.599  13.738  -7.357  1.00  0.00     0.041 C 
ATOM      5  O   UNL     1     -15.901  12.994  -6.388  1.00  0.00    -0.550 OA
ATOM      6  O   UNL     1     -14.650  13.315  -8.281  1.00  0.00    -0.550 OA
ENDBRANCH   3   4
ENDBRANCH   2   3
ENDBRANCH   1   2
BRANCH   1   7
ATOM      7  C   UNL     1     -16.872  18.097  -8.956  1.00  0.00     0.000 C 
BRANCH   7   8
ATOM      8  C   UNL     1     -16.715  19.312  -9.891  1.00  0.00    -0.000 C 
BRANCH   8   9
ATOM      9  C   UNL     1     -15.596  19.181 -10.939  1.00  0.00    -0.003 C 
ATOM     10  C   UNL     1     -15.326  20.484 -11.689  1.00  0.00     0.004 C 
ENDBRANCH   8   9
ENDBRANCH   7   8
ENDBRANCH   1   7
TORSDOF 6
ENDMDL
MODEL 8
REMARK VINA RESULT:    -2.587      1.954      2.851
REMARK INTER + INTRA:          -3.806
REMARK INTER:                  -3.433
REMARK INTRA:                  -0.373
REMARK UNBOUND:                -0.311
REMARK SMILES CCCCCCCC(=O)[O-]
REMARK SMILES IDX 5 1 6 2 7 3 8 4 9 5 10 6 4 7 3 8 2 9 1 10
REMARK H PARENT
REMARK Flexibility Score: inf
ROOT
ATOM      1  C   UNL     1     -14.776  13.136  -9.472  1.00  0.00     0.000 C 
ENDROOT
BRANCH   1   2
ATOM      2  C   UNL     1     -16.264  13.528  -9.480  1.00  0.00     0.006 C 
BRANCH   2   3
ATOM      3  C   UNL     1     -16.485  15.016  -9.780  1.00  0.00     0.053 C 
BRANCH   3   4
ATOM      4  C   UNL     1     -16.090  15.849  -8.602  1.00  0.00     0.041 C 
ATOM      5  O   UNL     1     -15.476  16.935  -8.770  1.00  0.00    -0.550 OA
ATOM      6  O   UNL     1     -16.358  15.402  -7.313  1.00  0.00    -0.550 OA
ENDBRANCH   3   4
ENDBRANCH   2   3
ENDBRANCH   1   2
BRANCH   1   7
ATOM      7  C   UNL     1     -14.408  11.955 -10.393  1.00  0.00     0.000 C 
BRANCH   7   8
ATOM      8  C   UNL     1     -15.389  11.699 -11.554  1.00  0.00    -0.000 C 
BRANCH   8   9
ATOM      9  C   UNL     1     -14.839  12.035 -12.951  1.00  0.00    -0.003 C 
ATOM     10  C   UNL     1     -13.397  12.538 -12.919  1.00  0.00     0.004 C 
ENDBRANCH   8   9
ENDBRANCH   7   8
ENDBRANCH   1   7
TORSDOF 6
ENDMDL
MODEL 9
REMARK VINA RESULT:    -2.577      3.200      4.590
REMARK INTER + INTRA:          -3.792
REMARK INTER:                  -3.649
REMARK INTRA:                  -0.143
REMARK UNBOUND:                -0.311
REMARK SMILES CCCCCCCC(=O)[O-]
REMARK SMILES IDX 5 1 6 2 7 3 8 4 9 5 10 6 4 7 3 8 2 9 1 10
REMARK H PARENT
REMARK Flexibility Score: inf
ROOT
ATOM      1  C   UNL     1     -15.698  17.171  -8.631  1.00  0.00     0.000 C 
ENDROOT
BRANCH   1   2
ATOM      2  C   UNL     1     -15.988  15.703  -8.990  1.00  0.00     0.006 C 
BRANCH   2   3
ATOM      3  C   UNL     1     -16.184  14.817  -7.754  1.00  0.00     0.053 C 
BRANCH   3   4
ATOM      4  C   UNL     1     -15.228  13.666  -7.781  1.00  0.00     0.041 C 
ATOM      5  O   UNL     1     -14.802  13.221  -8.878  1.00  0.00    -0.550 OA
ATOM      6  O   UNL     1     -14.845  13.053  -6.593  1.00  0.00    -0.550 OA
ENDBRANCH   3   4
ENDBRANCH   2   3
ENDBRANCH   1   2
BRANCH   1   7
ATOM      7  C   UNL     1     -16.531  18.209  -9.411  1.00  0.00     0.000 C 
BRANCH   7   8
ATOM      8  C   UNL     1     -16.054  18.484 -10.851  1.00  0.00    -0.000 C 
BRANCH   8   9
ATOM      9  C   UNL     1     -15.664  19.945 -11.135  1.00  0.00    -0.003 C 
ATOM     10  C   UNL     1     -14.406  20.070 -11.993  1.00  0.00     0.004 C 
ENDBRANCH   8   9
ENDBRANCH   7   8
ENDBRANCH   1   7
TORSDOF 6
ENDMDL
