MODEL 1
REMARK VINA RESULT:    -5.342      0.000      0.000
REMARK INTER + INTRA:          -8.242
REMARK INTER:                  -8.153
REMARK INTRA:                  -0.090
REMARK UNBOUND:                -0.090
REMARK SMILES CC1=CCC[C@@H](C)C(=O)C[C@@H](C(C)C)C(=O)C1
REMARK SMILES IDX 8 1 9 2 6 3 7 4 5 5 4 6 3 7 2 8 1 9 10 11 11 12 15 13 16 14
REMARK SMILES IDX 17 15 12 17 13 18 14 19
REMARK H PARENT
REMARK Flexibility Score: 70.00
ROOT
ATOM      1  C   UNL     1      -8.110  32.879  22.373  1.00  0.00     0.136 C 
ATOM      2  O   UNL     1      -8.550  32.597  21.267  1.00  0.00    -0.299 OA
ENDROOT
BRANCH   1   3
ATOM      3  C   UNL     1      -8.096  34.325  22.827  1.00  0.00     0.053 C 
ATOM      4  C   UNL     1      -7.295  35.163  21.824  1.00  0.00     0.016 C 
BRANCH   3   5
ATOM      5  C   UNL     1      -7.505  34.487  24.249  1.00  0.00     0.015 C 
BRANCH   5   6
ATOM      6  C   UNL     1      -8.562  34.568  25.360  1.00  0.00     0.028 C 
BRANCH   6   7
ATOM      7  C   UNL     1      -8.260  33.605  26.484  1.00  0.00    -0.028 C 
ATOM      8  C   UNL     1      -8.777  32.361  26.603  1.00  0.00    -0.070 CG0
ATOM      9  C   UNL     1      -8.349  31.525  27.782  1.00  0.00     0.039 C 
ATOM     10  G   UNL     1      -9.757  31.777  25.602  1.00  0.00     0.000 G0
ENDBRANCH   6   7
ENDBRANCH   5   6
ENDBRANCH   3   5
ENDBRANCH   1   3
BRANCH   1  11
ATOM     11  C   UNL     1      -7.639  31.766  23.280  1.00  0.00     0.087 C 
BRANCH  11  12
ATOM     12  C   UNL     1      -8.668  30.618  23.432  1.00  0.00     0.066 C 
BRANCH  12  13
ATOM     13  C   UNL     1      -9.225  30.548  24.851  1.00  0.00     0.140 C 
ATOM     14  O   UNL     1      -9.296  29.462  25.408  1.00  0.00    -0.299 OA
BRANCH  13  15
ATOM     15  C   UNL     1      -9.743  31.763  25.595  1.00  0.00     0.106 CG0
ATOM     16  G   UNL     1      -8.774  32.332  26.615  1.00  0.00     0.000 G0
ENDBRANCH  13  15
ENDBRANCH  12  13
BRANCH  12  17
ATOM     17  C   UNL     1      -8.079  29.255  22.950  1.00  0.00    -0.006 C 
ATOM     18  C   UNL     1      -8.943  28.529  21.902  1.00  0.00     0.008 C 
ATOM     19  C   UNL     1      -6.647  29.419  22.419  1.00  0.00     0.008 C 
ENDBRANCH  12  17
ENDBRANCH  11  12
ENDBRANCH   1  11
TORSDOF 1
ENDMDL
MODEL 2
REMARK VINA RESULT:    -5.214      1.974      3.999
REMARK INTER + INTRA:          -8.047
REMARK INTER:                  -7.735
REMARK INTRA:                  -0.311
REMARK UNBOUND:                -0.090
REMARK SMILES CC1=CCC[C@@H](C)C(=O)C[C@@H](C(C)C)C(=O)C1
REMARK SMILES IDX 8 1 9 2 6 3 7 4 5 5 4 6 3 7 2 8 1 9 10 11 11 12 15 13 16 14
REMARK SMILES IDX 17 15 12 17 13 18 14 19
REMARK H PARENT
REMARK Flexibility Score: 70.00
ROOT
ATOM      1  C   UNL     1      -7.391  30.025  23.217  1.00  0.00     0.136 C 
ATOM      2  O   UNL     1      -6.317  29.675  22.748  1.00  0.00    -0.299 OA
ENDROOT
BRANCH   1   3
ATOM      3  C   UNL     1      -8.663  29.798  22.426  1.00  0.00     0.053 C 
ATOM      4  C   UNL     1      -8.680  28.360  21.893  1.00  0.00     0.016 C 
BRANCH   3   5
ATOM      5  C   UNL     1      -8.812  30.801  21.255  1.00  0.00     0.015 C 
BRANCH   5   6
ATOM      6  C   UNL     1      -9.506  32.115  21.643  1.00  0.00     0.028 C 
BRANCH   6   7
ATOM      7  C   UNL     1      -8.505  33.171  22.049  1.00  0.00    -0.028 C 
ATOM      8  C   UNL     1      -8.470  33.787  23.253  1.00  0.00    -0.070 CG0
ATOM      9  C   UNL     1      -7.387  34.806  23.497  1.00  0.00     0.039 C 
ATOM     10  G   UNL     1      -9.467  33.491  24.359  1.00  0.00     0.000 G0
ENDBRANCH   6   7
ENDBRANCH   5   6
ENDBRANCH   3   5
ENDBRANCH   1   3
BRANCH   1  11
ATOM     11  C   UNL     1      -7.425  30.628  24.602  1.00  0.00     0.087 C 
BRANCH  11  12
ATOM     12  C   UNL     1      -8.853  30.987  25.083  1.00  0.00     0.066 C 
BRANCH  12  13
ATOM     13  C   UNL     1      -8.984  32.476  25.390  1.00  0.00     0.140 C 
ATOM     14  O   UNL     1      -8.724  32.876  26.516  1.00  0.00    -0.299 OA
BRANCH  13  15
ATOM     15  C   UNL     1      -9.468  33.489  24.372  1.00  0.00     0.106 CG0
ATOM     16  G   UNL     1      -8.478  33.779  23.258  1.00  0.00     0.000 G0
ENDBRANCH  13  15
ENDBRANCH  12  13
BRANCH  12  17
ATOM     17  C   UNL     1      -9.297  30.087  26.279  1.00  0.00    -0.006 C 
ATOM     18  C   UNL     1      -9.983  28.773  25.860  1.00  0.00     0.008 C 
ATOM     19  C   UNL     1      -8.119  29.781  27.217  1.00  0.00     0.008 C 
ENDBRANCH  12  17
ENDBRANCH  11  12
ENDBRANCH   1  11
TORSDOF 1
ENDMDL
MODEL 3
REMARK VINA RESULT:    -5.028      1.817      3.856
REMARK INTER + INTRA:          -7.763
REMARK INTER:                  -7.821
REMARK INTRA:                   0.058
REMARK UNBOUND:                -0.090
REMARK SMILES CC1=CCC[C@@H](C)C(=O)C[C@@H](C(C)C)C(=O)C1
REMARK SMILES IDX 8 1 9 2 6 3 7 4 5 5 4 6 3 7 2 8 1 9 10 11 11 12 15 13 16 14
REMARK SMILES IDX 17 15 12 17 13 18 14 19
REMARK H PARENT
REMARK Flexibility Score: 70.00
ROOT
ATOM      1  C   UNL     1      -7.830  30.483  23.911  1.00  0.00     0.136 C 
ATOM      2  O   UNL     1      -6.774  30.173  23.378  1.00  0.00    -0.299 OA
ENDROOT
BRANCH   1   3
ATOM      3  C   UNL     1      -8.170  29.925  25.278  1.00  0.00     0.053 C 
ATOM      4  C   UNL     1      -9.654  29.545  25.316  1.00  0.00     0.016 C 
BRANCH   3   5
ATOM      5  C   UNL     1      -7.846  30.923  26.416  1.00  0.00     0.015 C 
BRANCH   5   6
ATOM      6  C   UNL     1      -8.965  31.939  26.693  1.00  0.00     0.028 C 
BRANCH   6   7
ATOM      7  C   UNL     1      -8.422  33.344  26.807  1.00  0.00    -0.028 C 
ATOM      8  C   UNL     1      -8.519  34.295  25.850  1.00  0.00    -0.070 CG0
ATOM      9  C   UNL     1      -7.936  35.654  26.139  1.00  0.00     0.039 C 
ATOM     10  G   UNL     1      -9.190  34.050  24.510  1.00  0.00     0.000 G0
ENDBRANCH   6   7
ENDBRANCH   5   6
ENDBRANCH   3   5
ENDBRANCH   1   3
BRANCH   1  11
ATOM     11  C   UNL     1      -8.746  31.460  23.211  1.00  0.00     0.087 C 
BRANCH  11  12
ATOM     12  C   UNL     1      -7.996  32.648  22.558  1.00  0.00     0.066 C 
BRANCH  12  13
ATOM     13  C   UNL     1      -8.211  33.943  23.337  1.00  0.00     0.140 C 
ATOM     14  O   UNL     1      -7.550  34.929  23.044  1.00  0.00    -0.299 OA
BRANCH  13  15
ATOM     15  C   UNL     1      -9.180  34.057  24.497  1.00  0.00     0.106 CG0
ATOM     16  G   UNL     1      -8.519  34.301  25.842  1.00  0.00     0.000 G0
ENDBRANCH  13  15
ENDBRANCH  12  13
BRANCH  12  17
ATOM     17  C   UNL     1      -8.355  32.790  21.046  1.00  0.00    -0.006 C 
ATOM     18  C   UNL     1      -7.141  33.023  20.127  1.00  0.00     0.008 C 
ATOM     19  C   UNL     1      -9.160  31.582  20.545  1.00  0.00     0.008 C 
ENDBRANCH  12  17
ENDBRANCH  11  12
ENDBRANCH   1  11
TORSDOF 1
ENDMDL
MODEL 4
REMARK VINA RESULT:    -4.816      1.603      3.989
REMARK INTER + INTRA:          -7.440
REMARK INTER:                  -7.552
REMARK INTRA:                   0.112
REMARK UNBOUND:                -0.090
REMARK SMILES CC1=CCC[C@@H](C)C(=O)C[C@@H](C(C)C)C(=O)C1
REMARK SMILES IDX 8 1 9 2 6 3 7 4 5 5 4 6 3 7 2 8 1 9 10 11 11 12 15 13 16 14
REMARK SMILES IDX 17 15 12 17 13 18 14 19
REMARK H PARENT
REMARK Flexibility Score: 70.00
ROOT
ATOM      1  C   UNL     1      -9.096  32.620  22.255  1.00  0.00     0.136 C 
ATOM      2  O   UNL     1     -10.051  32.181  21.630  1.00  0.00    -0.299 OA
ENDROOT
BRANCH   1   3
ATOM      3  C   UNL     1      -7.689  32.310  21.785  1.00  0.00     0.053 C 
ATOM      4  C   UNL     1      -7.427  33.030  20.458  1.00  0.00     0.016 C 
BRANCH   3   5
ATOM      5  C   UNL     1      -7.446  30.790  21.623  1.00  0.00     0.015 C 
BRANCH   5   6
ATOM      6  C   UNL     1      -7.119  30.064  22.937  1.00  0.00     0.028 C 
BRANCH   6   7
ATOM      7  C   UNL     1      -8.350  29.432  23.542  1.00  0.00    -0.028 C 
ATOM      8  C   UNL     1      -8.874  29.749  24.748  1.00  0.00    -0.070 CG0
ATOM      9  C   UNL     1     -10.122  29.029  25.190  1.00  0.00     0.039 C 
ATOM     10  G   UNL     1      -8.263  30.795  25.663  1.00  0.00     0.000 G0
ENDBRANCH   6   7
ENDBRANCH   5   6
ENDBRANCH   3   5
ENDBRANCH   1   3
BRANCH   1  11
ATOM     11  C   UNL     1      -9.348  33.505  23.453  1.00  0.00     0.087 C 
BRANCH  11  12
ATOM     12  C   UNL     1      -8.369  33.247  24.626  1.00  0.00     0.066 C 
BRANCH  12  13
ATOM     13  C   UNL     1      -8.892  32.165  25.566  1.00  0.00     0.140 C 
ATOM     14  O   UNL     1      -9.836  32.421  26.300  1.00  0.00    -0.299 OA
BRANCH  13  15
ATOM     15  C   UNL     1      -8.266  30.789  25.671  1.00  0.00     0.106 CG0
ATOM     16  G   UNL     1      -8.872  29.753  24.741  1.00  0.00     0.000 G0
ENDBRANCH  13  15
ENDBRANCH  12  13
BRANCH  12  17
ATOM     17  C   UNL     1      -8.010  34.569  25.374  1.00  0.00    -0.006 C 
ATOM     18  C   UNL     1      -9.018  35.713  25.154  1.00  0.00     0.008 C 
ATOM     19  C   UNL     1      -7.820  34.328  26.879  1.00  0.00     0.008 C 
ENDBRANCH  12  17
ENDBRANCH  11  12
ENDBRANCH   1  11
TORSDOF 1
ENDMDL
MODEL 5
REMARK VINA RESULT:    -4.791      1.678      3.991
REMARK INTER + INTRA:          -7.402
REMARK INTER:                  -7.226
REMARK INTRA:                  -0.175
REMARK UNBOUND:                -0.090
REMARK SMILES CC1=CCC[C@@H](C)C(=O)C[C@@H](C(C)C)C(=O)C1
REMARK SMILES IDX 8 1 9 2 6 3 7 4 5 5 4 6 3 7 2 8 1 9 10 11 11 12 15 13 16 14
REMARK SMILES IDX 17 15 12 17 13 18 14 19
REMARK H PARENT
REMARK Flexibility Score: 70.00
ROOT
ATOM      1  C   UNL     1      -9.202  31.837  23.096  1.00  0.00     0.136 C 
ATOM      2  O   UNL     1      -9.722  31.978  21.998  1.00  0.00    -0.299 OA
ENDROOT
BRANCH   1   3
ATOM      3  C   UNL     1      -8.209  30.714  23.314  1.00  0.00     0.053 C 
ATOM      4  C   UNL     1      -7.472  30.426  22.001  1.00  0.00     0.016 C 
BRANCH   3   5
ATOM      5  C   UNL     1      -8.887  29.424  23.838  1.00  0.00     0.015 C 
BRANCH   5   6
ATOM      6  C   UNL     1      -9.992  29.676  24.875  1.00  0.00     0.028 C 
BRANCH   6   7
ATOM      7  C   UNL     1      -9.489  29.463  26.284  1.00  0.00    -0.028 C 
ATOM      8  C   UNL     1      -9.388  30.426  27.227  1.00  0.00    -0.070 CG0
ATOM      9  C   UNL     1      -8.882  30.032  28.591  1.00  0.00     0.039 C 
ATOM     10  G   UNL     1      -9.765  31.874  26.970  1.00  0.00     0.000 G0
ENDBRANCH   6   7
ENDBRANCH   5   6
ENDBRANCH   3   5
ENDBRANCH   1   3
BRANCH   1  11
ATOM     11  C   UNL     1      -9.529  32.821  24.195  1.00  0.00     0.087 C 
BRANCH  11  12
ATOM     12  C   UNL     1      -8.327  33.131  25.122  1.00  0.00     0.066 C 
BRANCH  12  13
ATOM     13  C   UNL     1      -8.636  32.781  26.575  1.00  0.00     0.140 C 
ATOM     14  O   UNL     1      -7.911  33.218  27.458  1.00  0.00    -0.299 OA
BRANCH  13  15
ATOM     15  C   UNL     1      -9.779  31.872  26.981  1.00  0.00     0.106 CG0
ATOM     16  G   UNL     1      -9.372  30.433  27.240  1.00  0.00     0.000 G0
ENDBRANCH  13  15
ENDBRANCH  12  13
BRANCH  12  17
ATOM     17  C   UNL     1      -7.836  34.602  24.950  1.00  0.00    -0.006 C 
ATOM     18  C   UNL     1      -7.029  34.853  23.663  1.00  0.00     0.008 C 
ATOM     19  C   UNL     1      -9.005  35.596  25.030  1.00  0.00     0.008 C 
ENDBRANCH  12  17
ENDBRANCH  11  12
ENDBRANCH   1  11
TORSDOF 1
ENDMDL
MODEL 6
REMARK VINA RESULT:    -4.464      1.600      3.922
REMARK INTER + INTRA:          -6.903
REMARK INTER:                  -7.903
REMARK INTRA:                   1.000
REMARK UNBOUND:                -0.090
REMARK SMILES CC1=CCC[C@@H](C)C(=O)C[C@@H](C(C)C)C(=O)C1
REMARK SMILES IDX 8 1 9 2 6 3 7 4 5 5 4 6 3 7 2 8 1 9 10 11 11 12 15 13 16 14
REMARK SMILES IDX 17 15 12 17 13 18 14 19
REMARK H PARENT
REMARK Flexibility Score: 70.00
ROOT
ATOM      1  C   UNL     1      -8.994  30.521  21.995  1.00  0.00     0.136 C 
ATOM      2  O   UNL     1      -9.402  29.989  20.972  1.00  0.00    -0.299 OA
ENDROOT
BRANCH   1   3
ATOM      3  C   UNL     1      -8.212  29.704  23.002  1.00  0.00     0.053 C 
ATOM      4  C   UNL     1      -7.880  28.335  22.398  1.00  0.00     0.016 C 
BRANCH   3   5
ATOM      5  C   UNL     1      -8.980  29.524  24.335  1.00  0.00     0.015 C 
BRANCH   5   6
ATOM      6  C   UNL     1      -9.833  30.738  24.733  1.00  0.00     0.028 C 
BRANCH   6   7
ATOM      7  C   UNL     1      -9.221  31.490  25.892  1.00  0.00    -0.028 C 
ATOM      8  C   UNL     1      -8.836  32.786  25.861  1.00  0.00    -0.070 CG0
ATOM      9  C   UNL     1      -8.260  33.384  27.119  1.00  0.00     0.039 C 
ATOM     10  G   UNL     1      -8.965  33.656  24.623  1.00  0.00     0.000 G0
ENDBRANCH   6   7
ENDBRANCH   5   6
ENDBRANCH   3   5
ENDBRANCH   1   3
BRANCH   1  11
ATOM     11  C   UNL     1      -9.238  31.998  22.201  1.00  0.00     0.087 C 
BRANCH  11  12
ATOM     12  C   UNL     1      -7.935  32.832  22.286  1.00  0.00     0.066 C 
BRANCH  12  13
ATOM     13  C   UNL     1      -7.810  33.541  23.631  1.00  0.00     0.140 C 
ATOM     14  O   UNL     1      -6.729  34.010  23.957  1.00  0.00    -0.299 OA
BRANCH  13  15
ATOM     15  C   UNL     1      -8.958  33.654  24.615  1.00  0.00     0.106 CG0
ATOM     16  G   UNL     1      -8.796  32.808  25.865  1.00  0.00     0.000 G0
ENDBRANCH  13  15
ENDBRANCH  12  13
BRANCH  12  17
ATOM     17  C   UNL     1      -7.802  33.810  21.077  1.00  0.00    -0.006 C 
ATOM     18  C   UNL     1      -7.130  35.152  21.421  1.00  0.00     0.008 C 
ATOM     19  C   UNL     1      -7.069  33.150  19.900  1.00  0.00     0.008 C 
ENDBRANCH  12  17
ENDBRANCH  11  12
ENDBRANCH   1  11
TORSDOF 1
ENDMDL
MODEL 7
REMARK VINA RESULT:    -4.293      2.121      5.349
REMARK INTER + INTRA:          -6.642
REMARK INTER:                  -7.363
REMARK INTRA:                   0.721
REMARK UNBOUND:                -0.090
REMARK SMILES CC1=CCC[C@@H](C)C(=O)C[C@@H](C(C)C)C(=O)C1
REMARK SMILES IDX 8 1 9 2 6 3 7 4 5 5 4 6 3 7 2 8 1 9 10 11 11 12 15 13 16 14
REMARK SMILES IDX 17 15 12 17 13 18 14 19
REMARK H PARENT
REMARK Flexibility Score: 70.00
ROOT
ATOM      1  C   UNL     1      -9.171  31.803  25.592  1.00  0.00     0.136 C 
ATOM      2  O   UNL     1      -9.279  32.329  26.691  1.00  0.00    -0.299 OA
ENDROOT
BRANCH   1   3
ATOM      3  C   UNL     1      -8.386  30.515  25.453  1.00  0.00     0.053 C 
ATOM      4  C   UNL     1      -7.745  30.163  26.800  1.00  0.00     0.016 C 
BRANCH   3   5
ATOM      5  C   UNL     1      -7.299  30.607  24.354  1.00  0.00     0.015 C 
BRANCH   5   6
ATOM      6  C   UNL     1      -7.754  30.095  22.979  1.00  0.00     0.028 C 
BRANCH   6   7
ATOM      7  C   UNL     1      -7.087  30.854  21.856  1.00  0.00    -0.028 C 
ATOM      8  C   UNL     1      -7.589  31.957  21.257  1.00  0.00    -0.070 CG0
ATOM      9  C   UNL     1      -6.778  32.601  20.162  1.00  0.00     0.039 C 
ATOM     10  G   UNL     1      -8.923  32.571  21.645  1.00  0.00     0.000 G0
ENDBRANCH   6   7
ENDBRANCH   5   6
ENDBRANCH   3   5
ENDBRANCH   1   3
BRANCH   1  11
ATOM     11  C   UNL     1      -9.870  32.430  24.408  1.00  0.00     0.087 C 
BRANCH  11  12
ATOM     12  C   UNL     1      -9.278  33.802  23.998  1.00  0.00     0.066 C 
BRANCH  12  13
ATOM     13  C   UNL     1      -8.801  33.795  22.548  1.00  0.00     0.140 C 
ATOM     14  O   UNL     1      -8.332  34.820  22.073  1.00  0.00    -0.299 OA
BRANCH  13  15
ATOM     15  C   UNL     1      -8.923  32.585  21.644  1.00  0.00     0.106 CG0
ATOM     16  G   UNL     1      -7.595  31.962  21.251  1.00  0.00     0.000 G0
ENDBRANCH  13  15
ENDBRANCH  12  13
BRANCH  12  17
ATOM     17  C   UNL     1      -8.168  34.266  24.993  1.00  0.00    -0.006 C 
ATOM     18  C   UNL     1      -6.781  34.450  24.351  1.00  0.00     0.008 C 
ATOM     19  C   UNL     1      -8.576  35.554  25.725  1.00  0.00     0.008 C 
ENDBRANCH  12  17
ENDBRANCH  11  12
ENDBRANCH   1  11
TORSDOF 1
ENDMDL
MODEL 8
REMARK VINA RESULT:    -4.228      1.675      2.369
REMARK INTER + INTRA:          -6.543
REMARK INTER:                  -6.819
REMARK INTRA:                   0.276
REMARK UNBOUND:                -0.090
REMARK SMILES CC1=CCC[C@@H](C)C(=O)C[C@@H](C(C)C)C(=O)C1
REMARK SMILES IDX 8 1 9 2 6 3 7 4 5 5 4 6 3 7 2 8 1 9 10 11 11 12 15 13 16 14
REMARK SMILES IDX 17 15 12 17 13 18 14 19
REMARK H PARENT
REMARK Flexibility Score: 70.00
ROOT
ATOM      1  C   UNL     1      -7.951  34.303  23.663  1.00  0.00     0.136 C 
ATOM      2  O   UNL     1      -8.149  34.999  22.677  1.00  0.00    -0.299 OA
ENDROOT
BRANCH   1   3
ATOM      3  C   UNL     1      -8.361  34.810  25.031  1.00  0.00     0.053 C 
ATOM      4  C   UNL     1      -7.121  35.308  25.781  1.00  0.00     0.016 C 
BRANCH   3   5
ATOM      5  C   UNL     1      -9.087  33.725  25.864  1.00  0.00     0.015 C 
BRANCH   5   6
ATOM      6  C   UNL     1      -8.236  33.135  26.999  1.00  0.00     0.028 C 
BRANCH   6   7
ATOM      7  C   UNL     1      -8.669  31.729  27.344  1.00  0.00    -0.028 C 
ATOM      8  C   UNL     1      -8.369  30.624  26.624  1.00  0.00    -0.070 CG0
ATOM      9  C   UNL     1      -8.868  29.294  27.127  1.00  0.00     0.039 C 
ATOM     10  G   UNL     1      -7.551  30.671  25.346  1.00  0.00     0.000 G0
ENDBRANCH   6   7
ENDBRANCH   5   6
ENDBRANCH   3   5
ENDBRANCH   1   3
BRANCH   1  11
ATOM     11  C   UNL     1      -7.347  32.930  23.482  1.00  0.00     0.087 C 
BRANCH  11  12
ATOM     12  C   UNL     1      -8.384  31.847  23.094  1.00  0.00     0.066 C 
BRANCH  12  13
ATOM     13  C   UNL     1      -8.330  30.653  24.042  1.00  0.00     0.140 C 
ATOM     14  O   UNL     1      -8.986  29.655  23.779  1.00  0.00    -0.299 OA
BRANCH  13  15
ATOM     15  C   UNL     1      -7.533  30.658  25.332  1.00  0.00     0.106 CG0
ATOM     16  G   UNL     1      -8.381  30.643  26.591  1.00  0.00     0.000 G0
ENDBRANCH  13  15
ENDBRANCH  12  13
BRANCH  12  17
ATOM     17  C   UNL     1      -8.243  31.430  21.596  1.00  0.00    -0.006 C 
ATOM     18  C   UNL     1      -9.583  31.299  20.848  1.00  0.00     0.008 C 
ATOM     19  C   UNL     1      -7.315  32.388  20.833  1.00  0.00     0.008 C 
ENDBRANCH  12  17
ENDBRANCH  11  12
ENDBRANCH   1  11
TORSDOF 1
ENDMDL
MODEL 9
REMARK VINA RESULT:    -3.887      2.063      4.026
REMARK INTER + INTRA:          -6.022
REMARK INTER:                  -6.587
REMARK INTRA:                   0.565
REMARK UNBOUND:                -0.090
REMARK SMILES CC1=CCC[C@@H](C)C(=O)C[C@@H](C(C)C)C(=O)C1
REMARK SMILES IDX 8 1 9 2 6 3 7 4 5 5 4 6 3 7 2 8 1 9 10 11 11 12 15 13 16 14
REMARK SMILES IDX 17 15 12 17 13 18 14 19
REMARK H PARENT
REMARK Flexibility Score: 70.00
ROOT
ATOM      1  C   UNL     1      -8.581  32.669  26.032  1.00  0.00     0.136 C 
ATOM      2  O   UNL     1      -9.715  32.703  26.489  1.00  0.00    -0.299 OA
ENDROOT
BRANCH   1   3
ATOM      3  C   UNL     1      -7.948  33.941  25.505  1.00  0.00     0.053 C 
ATOM      4  C   UNL     1      -8.235  35.091  26.477  1.00  0.00     0.016 C 
BRANCH   3   5
ATOM      5  C   UNL     1      -8.455  34.304  24.088  1.00  0.00     0.015 C 
BRANCH   5   6
ATOM      6  C   UNL     1      -7.491  33.908  22.959  1.00  0.00     0.028 C 
BRANCH   6   7
ATOM      7  C   UNL     1      -8.230  33.318  21.781  1.00  0.00    -0.028 C 
ATOM      8  C   UNL     1      -8.495  32.003  21.609  1.00  0.00    -0.070 CG0
ATOM      9  C   UNL     1      -9.263  31.590  20.380  1.00  0.00     0.039 C 
ATOM     10  G   UNL     1      -8.059  30.938  22.599  1.00  0.00     0.000 G0
ENDBRANCH   6   7
ENDBRANCH   5   6
ENDBRANCH   3   5
ENDBRANCH   1   3
BRANCH   1  11
ATOM     11  C   UNL     1      -7.821  31.363  26.053  1.00  0.00     0.087 C 
BRANCH  11  12
ATOM     12  C   UNL     1      -8.468  30.260  25.180  1.00  0.00     0.066 C 
BRANCH  12  13
ATOM     13  C   UNL     1      -8.956  30.815  23.844  1.00  0.00     0.140 C 
ATOM     14  O   UNL     1     -10.125  31.157  23.735  1.00  0.00    -0.299 OA
BRANCH  13  15
ATOM     15  C   UNL     1      -8.067  30.923  22.621  1.00  0.00     0.106 CG0
ATOM     16  G   UNL     1      -8.493  31.992  21.631  1.00  0.00     0.000 G0
ENDBRANCH  13  15
ENDBRANCH  12  13
BRANCH  12  17
ATOM     17  C   UNL     1      -9.587  29.498  25.957  1.00  0.00    -0.006 C 
ATOM     18  C   UNL     1      -9.991  28.153  25.325  1.00  0.00     0.008 C 
ATOM     19  C   UNL     1      -9.200  29.284  27.428  1.00  0.00     0.008 C 
ENDBRANCH  12  17
ENDBRANCH  11  12
ENDBRANCH   1  11
TORSDOF 1
ENDMDL
