MODEL 1
REMARK VINA RESULT:    -4.291      0.000      0.000
REMARK INTER + INTRA:          -4.715
REMARK INTER:                  -4.542
REMARK INTRA:                  -0.173
REMARK UNBOUND:                -0.173
REMARK SMILES CC1=CC=C(C(C)C)CC1
REMARK SMILES IDX 1 1 2 2 3 3 4 4 5 5 9 6 10 7 6 8 7 9 8 10
REMARK H PARENT
REMARK Flexibility Score: inf
ROOT
ATOM      1  C   UNL     1      30.176   5.965  29.957  1.00  0.00     0.039 C 
ATOM      2  C   UNL     1      30.601   7.246  30.615  1.00  0.00    -0.073 C 
ATOM      3  C   UNL     1      31.166   7.218  31.832  1.00  0.00    -0.001 C 
ATOM      4  C   UNL     1      31.590   8.465  32.497  1.00  0.00    -0.001 C 
ATOM      5  C   UNL     1      31.214   9.666  32.020  1.00  0.00    -0.067 C 
ATOM      6  C   UNL     1      30.249   9.721  30.850  1.00  0.00     0.035 C 
ATOM      7  C   UNL     1      30.486   8.558  29.875  1.00  0.00     0.035 C 
ENDROOT
BRANCH   5   8
ATOM      8  C   UNL     1      31.714  10.939  32.678  1.00  0.00     0.009 C 
ATOM      9  C   UNL     1      33.063  10.703  33.366  1.00  0.00     0.012 C 
ATOM     10  C   UNL     1      31.804  12.088  31.667  1.00  0.00     0.012 C 
ENDBRANCH   5   8
TORSDOF 1
ENDMDL
MODEL 2
REMARK VINA RESULT:    -4.121      1.447      2.840
REMARK INTER + INTRA:          -4.535
REMARK INTER:                  -4.391
REMARK INTRA:                  -0.144
REMARK UNBOUND:                -0.173
REMARK SMILES CC1=CC=C(C(C)C)CC1
REMARK SMILES IDX 1 1 2 2 3 3 4 4 5 5 9 6 10 7 6 8 7 9 8 10
REMARK H PARENT
REMARK Flexibility Score: inf
ROOT
ATOM      1  C   UNL     1      29.343   8.433  27.229  1.00  0.00     0.039 C 
ATOM      2  C   UNL     1      29.805   8.406  28.656  1.00  0.00    -0.073 C 
ATOM      3  C   UNL     1      29.855   9.545  29.365  1.00  0.00    -0.001 C 
ATOM      4  C   UNL     1      30.308   9.541  30.769  1.00  0.00    -0.001 C 
ATOM      5  C   UNL     1      30.901   8.456  31.302  1.00  0.00    -0.067 C 
ATOM      6  C   UNL     1      31.205   7.271  30.404  1.00  0.00     0.035 C 
ATOM      7  C   UNL     1      30.123   7.091  29.330  1.00  0.00     0.035 C 
ENDROOT
BRANCH   5   8
ATOM      8  C   UNL     1      31.301   8.447  32.767  1.00  0.00     0.009 C 
ATOM      9  C   UNL     1      31.837   7.071  33.176  1.00  0.00     0.012 C 
ATOM     10  C   UNL     1      32.321   9.550  33.071  1.00  0.00     0.012 C 
ENDBRANCH   5   8
TORSDOF 1
ENDMDL
MODEL 3
REMARK VINA RESULT:    -4.041      1.444      4.033
REMARK INTER + INTRA:          -4.450
REMARK INTER:                  -4.277
REMARK INTRA:                  -0.173
REMARK UNBOUND:                -0.173
REMARK SMILES CC1=CC=C(C(C)C)CC1
REMARK SMILES IDX 1 1 2 2 3 3 4 4 5 5 9 6 10 7 6 8 7 9 8 10
REMARK H PARENT
REMARK Flexibility Score: inf
ROOT
ATOM      1  C   UNL     1      31.760  12.263  31.381  1.00  0.00     0.039 C 
ATOM      2  C   UNL     1      31.557  10.872  31.907  1.00  0.00    -0.073 C 
ATOM      3  C   UNL     1      32.242  10.458  32.984  1.00  0.00    -0.001 C 
ATOM      4  C   UNL     1      32.059   9.094  33.517  1.00  0.00    -0.001 C 
ATOM      5  C   UNL     1      31.392   8.160  32.813  1.00  0.00    -0.067 C 
ATOM      6  C   UNL     1      30.928   8.493  31.408  1.00  0.00     0.035 C 
ATOM      7  C   UNL     1      30.515   9.967  31.290  1.00  0.00     0.035 C 
ENDROOT
BRANCH   5   8
ATOM      8  C   UNL     1      31.156   6.782  33.406  1.00  0.00     0.009 C 
ATOM      9  C   UNL     1      31.328   6.807  34.928  1.00  0.00     0.012 C 
ATOM     10  C   UNL     1      29.776   6.239  33.016  1.00  0.00     0.012 C 
ENDBRANCH   5   8
TORSDOF 1
ENDMDL
MODEL 4
REMARK VINA RESULT:    -4.023      1.230      4.396
REMARK INTER + INTRA:          -4.431
REMARK INTER:                  -4.260
REMARK INTRA:                  -0.172
REMARK UNBOUND:                -0.173
REMARK SMILES CC1=CC=C(C(C)C)CC1
REMARK SMILES IDX 1 1 2 2 3 3 4 4 5 5 9 6 10 7 6 8 7 9 8 10
REMARK H PARENT
REMARK Flexibility Score: inf
ROOT
ATOM      1  C   UNL     1      31.933  10.021  34.460  1.00  0.00     0.039 C 
ATOM      2  C   UNL     1      31.580   9.306  33.188  1.00  0.00    -0.073 C 
ATOM      3  C   UNL     1      31.012   9.981  32.177  1.00  0.00    -0.001 C 
ATOM      4  C   UNL     1      30.656   9.298  30.919  1.00  0.00    -0.001 C 
ATOM      5  C   UNL     1      30.668   7.955  30.833  1.00  0.00    -0.067 C 
ATOM      6  C   UNL     1      30.941   7.143  32.086  1.00  0.00     0.035 C 
ATOM      7  C   UNL     1      31.948   7.852  33.003  1.00  0.00     0.035 C 
ENDROOT
BRANCH   5   8
ATOM      8  C   UNL     1      30.363   7.271  29.512  1.00  0.00     0.009 C 
ATOM      9  C   UNL     1      30.000   8.302  28.437  1.00  0.00     0.012 C 
ATOM     10  C   UNL     1      31.534   6.391  29.060  1.00  0.00     0.012 C 
ENDBRANCH   5   8
TORSDOF 1
ENDMDL
MODEL 5
REMARK VINA RESULT:    -4.020      2.634      4.915
REMARK INTER + INTRA:          -4.428
REMARK INTER:                  -4.282
REMARK INTRA:                  -0.146
REMARK UNBOUND:                -0.173
REMARK SMILES CC1=CC=C(C(C)C)CC1
REMARK SMILES IDX 1 1 2 2 3 3 4 4 5 5 9 6 10 7 6 8 7 9 8 10
REMARK H PARENT
REMARK Flexibility Score: inf
ROOT
ATOM      1  C   UNL     1      32.300  11.465  32.686  1.00  0.00     0.039 C 
ATOM      2  C   UNL     1      32.011  10.146  33.342  1.00  0.00    -0.073 C 
ATOM      3  C   UNL     1      31.883   9.040  32.593  1.00  0.00    -0.001 C 
ATOM      4  C   UNL     1      31.597   7.734  33.217  1.00  0.00    -0.001 C 
ATOM      5  C   UNL     1      31.227   7.650  34.508  1.00  0.00    -0.067 C 
ATOM      6  C   UNL     1      30.992   8.930  35.288  1.00  0.00     0.035 C 
ATOM      7  C   UNL     1      31.960  10.038  34.849  1.00  0.00     0.035 C 
ENDROOT
BRANCH   5   8
ATOM      8  C   UNL     1      31.002   6.293  35.151  1.00  0.00     0.009 C 
ATOM      9  C   UNL     1      31.648   6.236  36.540  1.00  0.00     0.012 C 
ATOM     10  C   UNL     1      29.509   5.953  35.223  1.00  0.00     0.012 C 
ENDBRANCH   5   8
TORSDOF 1
ENDMDL
MODEL 6
REMARK VINA RESULT:    -3.982      3.118      4.046
REMARK INTER + INTRA:          -4.388
REMARK INTER:                  -4.244
REMARK INTRA:                  -0.144
REMARK UNBOUND:                -0.173
REMARK SMILES CC1=CC=C(C(C)C)CC1
REMARK SMILES IDX 1 1 2 2 3 3 4 4 5 5 9 6 10 7 6 8 7 9 8 10
REMARK H PARENT
REMARK Flexibility Score: inf
ROOT
ATOM      1  C   UNL     1      31.245   7.196  31.302  1.00  0.00     0.039 C 
ATOM      2  C   UNL     1      31.377   7.534  32.758  1.00  0.00    -0.073 C 
ATOM      3  C   UNL     1      31.091   6.610  33.688  1.00  0.00    -0.001 C 
ATOM      4  C   UNL     1      31.213   6.922  35.125  1.00  0.00    -0.001 C 
ATOM      5  C   UNL     1      31.382   8.189  35.547  1.00  0.00    -0.067 C 
ATOM      6  C   UNL     1      31.329   9.313  34.529  1.00  0.00     0.035 C 
ATOM      7  C   UNL     1      31.925   8.877  33.183  1.00  0.00     0.035 C 
ENDROOT
BRANCH   5   8
ATOM      8  C   UNL     1      31.572   8.483  37.024  1.00  0.00     0.009 C 
ATOM      9  C   UNL     1      31.920   9.960  37.244  1.00  0.00     0.012 C 
ATOM     10  C   UNL     1      30.335   8.081  37.834  1.00  0.00     0.012 C 
ENDBRANCH   5   8
TORSDOF 1
ENDMDL
MODEL 7
REMARK VINA RESULT:    -3.971      1.013      2.000
REMARK INTER + INTRA:          -4.376
REMARK INTER:                  -4.231
REMARK INTRA:                  -0.145
REMARK UNBOUND:                -0.173
REMARK SMILES CC1=CC=C(C(C)C)CC1
REMARK SMILES IDX 1 1 2 2 3 3 4 4 5 5 9 6 10 7 6 8 7 9 8 10
REMARK H PARENT
REMARK Flexibility Score: inf
ROOT
ATOM      1  C   UNL     1      30.140   6.238  29.446  1.00  0.00     0.039 C 
ATOM      2  C   UNL     1      30.491   7.232  30.516  1.00  0.00    -0.073 C 
ATOM      3  C   UNL     1      30.506   8.543  30.231  1.00  0.00    -0.001 C 
ATOM      4  C   UNL     1      30.849   9.536  31.267  1.00  0.00    -0.001 C 
ATOM      5  C   UNL     1      31.380   9.154  32.443  1.00  0.00    -0.067 C 
ATOM      6  C   UNL     1      31.732   7.693  32.649  1.00  0.00     0.035 C 
ATOM      7  C   UNL     1      30.732   6.771  31.935  1.00  0.00     0.035 C 
ENDROOT
BRANCH   5   8
ATOM      8  C   UNL     1      31.665  10.184  33.522  1.00  0.00     0.009 C 
ATOM      9  C   UNL     1      31.411   9.597  34.915  1.00  0.00     0.012 C 
ATOM     10  C   UNL     1      33.093  10.729  33.406  1.00  0.00     0.012 C 
ENDBRANCH   5   8
TORSDOF 1
ENDMDL
MODEL 8
REMARK VINA RESULT:    -3.960      2.737      4.075
REMARK INTER + INTRA:          -4.365
REMARK INTER:                  -4.224
REMARK INTRA:                  -0.141
REMARK UNBOUND:                -0.173
REMARK SMILES CC1=CC=C(C(C)C)CC1
REMARK SMILES IDX 1 1 2 2 3 3 4 4 5 5 9 6 10 7 6 8 7 9 8 10
REMARK H PARENT
REMARK Flexibility Score: inf
ROOT
ATOM      1  C   UNL     1      30.838   6.262  37.120  1.00  0.00     0.039 C 
ATOM      2  C   UNL     1      31.195   7.161  35.972  1.00  0.00    -0.073 C 
ATOM      3  C   UNL     1      31.237   8.490  36.152  1.00  0.00    -0.001 C 
ATOM      4  C   UNL     1      31.584   9.392  35.037  1.00  0.00    -0.001 C 
ATOM      5  C   UNL     1      31.635   8.939  33.770  1.00  0.00    -0.067 C 
ATOM      6  C   UNL     1      31.216   7.508  33.486  1.00  0.00     0.035 C 
ATOM      7  C   UNL     1      31.602   6.573  34.641  1.00  0.00     0.035 C 
ENDROOT
BRANCH   5   8
ATOM      8  C   UNL     1      32.059   9.865  32.645  1.00  0.00     0.009 C 
ATOM      9  C   UNL     1      30.852  10.277  31.795  1.00  0.00     0.012 C 
ATOM     10  C   UNL     1      32.797  11.095  33.186  1.00  0.00     0.012 C 
ENDBRANCH   5   8
TORSDOF 1
ENDMDL
MODEL 9
REMARK VINA RESULT:    -3.869      1.575      3.034
REMARK INTER + INTRA:          -4.268
REMARK INTER:                  -4.123
REMARK INTRA:                  -0.145
REMARK UNBOUND:                -0.173
REMARK SMILES CC1=CC=C(C(C)C)CC1
REMARK SMILES IDX 1 1 2 2 3 3 4 4 5 5 9 6 10 7 6 8 7 9 8 10
REMARK H PARENT
REMARK Flexibility Score: inf
ROOT
ATOM      1  C   UNL     1      28.948  10.396  28.252  1.00  0.00     0.039 C 
ATOM      2  C   UNL     1      29.734   9.954  29.452  1.00  0.00    -0.073 C 
ATOM      3  C   UNL     1      30.090   8.667  29.581  1.00  0.00    -0.001 C 
ATOM      4  C   UNL     1      30.861   8.210  30.754  1.00  0.00    -0.001 C 
ATOM      5  C   UNL     1      31.025   9.006  31.827  1.00  0.00    -0.067 C 
ATOM      6  C   UNL     1      30.306  10.342  31.866  1.00  0.00     0.035 C 
ATOM      7  C   UNL     1      30.212  10.967  30.467  1.00  0.00     0.035 C 
ENDROOT
BRANCH   5   8
ATOM      8  C   UNL     1      31.877   8.546  32.996  1.00  0.00     0.009 C 
ATOM      9  C   UNL     1      31.596   9.393  34.242  1.00  0.00     0.012 C 
ATOM     10  C   UNL     1      31.666   7.055  33.284  1.00  0.00     0.012 C 
ENDBRANCH   5   8
TORSDOF 1
ENDMDL
