MODEL 1
REMARK VINA RESULT:    -4.185      0.000      0.000
REMARK INTER + INTRA:          -4.886
REMARK INTER:                  -4.675
REMARK INTRA:                  -0.211
REMARK UNBOUND:                -0.211
REMARK SMILES CC(C)c1ccc(C(=O)[O-])cc1
REMARK SMILES IDX 7 1 6 2 11 3 5 4 12 5 4 6 8 7 9 8 10 9 2 10 1 11 3 12
REMARK H PARENT
REMARK Flexibility Score: inf
ROOT
ATOM      1  C   UNL     1      30.203  13.634   2.155  1.00  0.00    -0.003 A 
ATOM      2  C   UNL     1      29.518  14.593   1.390  1.00  0.00     0.010 A 
ATOM      3  C   UNL     1      31.596  13.745   2.296  1.00  0.00     0.010 A 
ATOM      4  C   UNL     1      30.210  15.643   0.781  1.00  0.00     0.004 A 
ATOM      5  C   UNL     1      32.290  14.795   1.688  1.00  0.00     0.004 A 
ATOM      6  C   UNL     1      31.604  15.756   0.922  1.00  0.00    -0.045 A 
ENDROOT
BRANCH   1   7
ATOM      7  C   UNL     1      29.465  12.524   2.798  1.00  0.00     0.071 C 
ATOM      8  O   UNL     1      28.251  12.655   3.107  1.00  0.00    -0.545 OA
ATOM      9  O   UNL     1      30.103  11.319   3.070  1.00  0.00    -0.545 OA
ENDBRANCH   1   7
BRANCH   6  10
ATOM     10  C   UNL     1      32.343  16.901   0.255  1.00  0.00     0.013 C 
ATOM     11  C   UNL     1      32.470  16.671  -1.255  1.00  0.00     0.012 C 
ATOM     12  C   UNL     1      33.719  17.119   0.896  1.00  0.00     0.012 C 
ENDBRANCH   6  10
TORSDOF 2
ENDMDL
MODEL 2
REMARK VINA RESULT:    -4.176      0.076      1.681
REMARK INTER + INTRA:          -4.875
REMARK INTER:                  -4.662
REMARK INTRA:                  -0.213
REMARK UNBOUND:                -0.211
REMARK SMILES CC(C)c1ccc(C(=O)[O-])cc1
REMARK SMILES IDX 7 1 6 2 11 3 5 4 12 5 4 6 8 7 9 8 10 9 2 10 1 11 3 12
REMARK H PARENT
REMARK Flexibility Score: inf
ROOT
ATOM      1  C   UNL     1      30.195  13.634   2.142  1.00  0.00    -0.003 A 
ATOM      2  C   UNL     1      31.585  13.749   2.306  1.00  0.00     0.010 A 
ATOM      3  C   UNL     1      29.521  14.588   1.360  1.00  0.00     0.010 A 
ATOM      4  C   UNL     1      32.288  14.794   1.701  1.00  0.00     0.004 A 
ATOM      5  C   UNL     1      30.224  15.632   0.754  1.00  0.00     0.004 A 
ATOM      6  C   UNL     1      31.616  15.748   0.917  1.00  0.00    -0.045 A 
ENDROOT
BRANCH   1   7
ATOM      7  C   UNL     1      29.454  12.526   2.786  1.00  0.00     0.071 C 
ATOM      8  O   UNL     1      30.042  11.457   3.095  1.00  0.00    -0.545 OA
ATOM      9  O   UNL     1      28.096  12.652   3.058  1.00  0.00    -0.545 OA
ENDBRANCH   1   7
BRANCH   6  10
ATOM     10  C   UNL     1      32.393  16.877   0.266  1.00  0.00     0.013 C 
ATOM     11  C   UNL     1      32.495  16.674  -1.250  1.00  0.00     0.012 C 
ATOM     12  C   UNL     1      33.782  17.028   0.896  1.00  0.00     0.012 C 
ENDBRANCH   6  10
TORSDOF 2
ENDMDL
MODEL 3
REMARK VINA RESULT:    -4.151      3.115      5.070
REMARK INTER + INTRA:          -4.847
REMARK INTER:                  -4.630
REMARK INTRA:                  -0.217
REMARK UNBOUND:                -0.211
REMARK SMILES CC(C)c1ccc(C(=O)[O-])cc1
REMARK SMILES IDX 7 1 6 2 11 3 5 4 12 5 4 6 8 7 9 8 10 9 2 10 1 11 3 12
REMARK H PARENT
REMARK Flexibility Score: inf
ROOT
ATOM      1  C   UNL     1      31.945  15.822   0.864  1.00  0.00    -0.003 A 
ATOM      2  C   UNL     1      30.544  15.730   0.837  1.00  0.00     0.010 A 
ATOM      3  C   UNL     1      32.682  14.814   1.510  1.00  0.00     0.010 A 
ATOM      4  C   UNL     1      29.891  14.652   1.442  1.00  0.00     0.004 A 
ATOM      5  C   UNL     1      32.030  13.735   2.113  1.00  0.00     0.004 A 
ATOM      6  C   UNL     1      30.626  13.642   2.087  1.00  0.00    -0.045 A 
ENDROOT
BRANCH   1   7
ATOM      7  C   UNL     1      32.632  16.965   0.224  1.00  0.00     0.071 C 
ATOM      8  O   UNL     1      33.717  17.405   0.689  1.00  0.00    -0.545 OA
ATOM      9  O   UNL     1      32.088  17.572  -0.904  1.00  0.00    -0.545 OA
ENDBRANCH   1   7
BRANCH   6  10
ATOM     10  C   UNL     1      29.904  12.477   2.738  1.00  0.00     0.013 C 
ATOM     11  C   UNL     1      30.453  11.137   2.236  1.00  0.00     0.012 C 
ATOM     12  C   UNL     1      28.391  12.571   2.515  1.00  0.00     0.012 C 
ENDBRANCH   6  10
TORSDOF 2
ENDMDL
MODEL 4
REMARK VINA RESULT:    -4.130      3.116      5.260
REMARK INTER + INTRA:          -4.824
REMARK INTER:                  -4.608
REMARK INTRA:                  -0.217
REMARK UNBOUND:                -0.211
REMARK SMILES CC(C)c1ccc(C(=O)[O-])cc1
REMARK SMILES IDX 7 1 6 2 11 3 5 4 12 5 4 6 8 7 9 8 10 9 2 10 1 11 3 12
REMARK H PARENT
REMARK Flexibility Score: inf
ROOT
ATOM      1  C   UNL     1      31.928  15.853   0.891  1.00  0.00    -0.003 A 
ATOM      2  C   UNL     1      32.637  14.859   1.586  1.00  0.00     0.010 A 
ATOM      3  C   UNL     1      30.530  15.750   0.794  1.00  0.00     0.010 A 
ATOM      4  C   UNL     1      31.963  13.785   2.174  1.00  0.00     0.004 A 
ATOM      5  C   UNL     1      29.855  14.677   1.382  1.00  0.00     0.004 A 
ATOM      6  C   UNL     1      30.564  13.681   2.079  1.00  0.00    -0.045 A 
ENDROOT
BRANCH   1   7
ATOM      7  C   UNL     1      32.646  16.988   0.270  1.00  0.00     0.071 C 
ATOM      8  O   UNL     1      33.716  17.422   0.773  1.00  0.00    -0.545 OA
ATOM      9  O   UNL     1      32.149  17.591  -0.880  1.00  0.00    -0.545 OA
ENDBRANCH   1   7
BRANCH   6  10
ATOM     10  C   UNL     1      29.845  12.510   2.722  1.00  0.00     0.013 C 
ATOM     11  C   UNL     1      30.464  11.176   2.287  1.00  0.00     0.012 C 
ATOM     12  C   UNL     1      28.344  12.547   2.415  1.00  0.00     0.012 C 
ENDBRANCH   6  10
TORSDOF 2
ENDMDL
MODEL 5
REMARK VINA RESULT:    -3.958      2.904      5.174
REMARK INTER + INTRA:          -4.631
REMARK INTER:                  -4.414
REMARK INTRA:                  -0.218
REMARK UNBOUND:                -0.211
REMARK SMILES CC(C)c1ccc(C(=O)[O-])cc1
REMARK SMILES IDX 7 1 6 2 11 3 5 4 12 5 4 6 8 7 9 8 10 9 2 10 1 11 3 12
REMARK H PARENT
REMARK Flexibility Score: inf
ROOT
ATOM      1  C   UNL     1      31.329  15.509   1.636  1.00  0.00    -0.003 A 
ATOM      2  C   UNL     1      32.049  14.327   1.880  1.00  0.00     0.010 A 
ATOM      3  C   UNL     1      29.927  15.484   1.734  1.00  0.00     0.010 A 
ATOM      4  C   UNL     1      31.382  13.146   2.215  1.00  0.00     0.004 A 
ATOM      5  C   UNL     1      29.260  14.303   2.070  1.00  0.00     0.004 A 
ATOM      6  C   UNL     1      29.980  13.119   2.314  1.00  0.00    -0.045 A 
ENDROOT
BRANCH   1   7
ATOM      7  C   UNL     1      32.039  16.757   1.281  1.00  0.00     0.071 C 
ATOM      8  O   UNL     1      31.545  17.561   0.447  1.00  0.00    -0.545 OA
ATOM      9  O   UNL     1      33.264  17.062   1.865  1.00  0.00    -0.545 OA
ENDBRANCH   1   7
BRANCH   6  10
ATOM     10  C   UNL     1      29.270  11.830   2.679  1.00  0.00     0.013 C 
ATOM     11  C   UNL     1      29.956  10.620   2.033  1.00  0.00     0.012 C 
ATOM     12  C   UNL     1      27.786  11.889   2.299  1.00  0.00     0.012 C 
ENDBRANCH   6  10
TORSDOF 2
ENDMDL
MODEL 6
REMARK VINA RESULT:    -3.629      1.861      2.806
REMARK INTER + INTRA:          -4.265
REMARK INTER:                  -4.046
REMARK INTRA:                  -0.219
REMARK UNBOUND:                -0.211
REMARK SMILES CC(C)c1ccc(C(=O)[O-])cc1
REMARK SMILES IDX 7 1 6 2 11 3 5 4 12 5 4 6 8 7 9 8 10 9 2 10 1 11 3 12
REMARK H PARENT
REMARK Flexibility Score: inf
ROOT
ATOM      1  C   UNL     1      31.635  13.063   2.124  1.00  0.00    -0.003 A 
ATOM      2  C   UNL     1      32.767  13.890   2.041  1.00  0.00     0.010 A 
ATOM      3  C   UNL     1      30.360  13.654   2.162  1.00  0.00     0.010 A 
ATOM      4  C   UNL     1      32.629  15.280   1.995  1.00  0.00     0.004 A 
ATOM      5  C   UNL     1      30.222  15.044   2.115  1.00  0.00     0.004 A 
ATOM      6  C   UNL     1      31.355  15.873   2.031  1.00  0.00    -0.045 A 
ENDROOT
BRANCH   1   7
ATOM      7  C   UNL     1      31.785  11.591   2.174  1.00  0.00     0.071 C 
ATOM      8  O   UNL     1      30.912  10.875   2.731  1.00  0.00    -0.545 OA
ATOM      9  O   UNL     1      32.896  10.978   1.604  1.00  0.00    -0.545 OA
ENDBRANCH   1   7
BRANCH   6  10
ATOM     10  C   UNL     1      31.220  17.383   1.980  1.00  0.00     0.013 C 
ATOM     11  C   UNL     1      32.477  18.069   2.529  1.00  0.00     0.012 C 
ATOM     12  C   UNL     1      29.966  17.852   2.727  1.00  0.00     0.012 C 
ENDBRANCH   6  10
TORSDOF 2
ENDMDL
MODEL 7
REMARK VINA RESULT:    -3.604     15.311     16.556
REMARK INTER + INTRA:          -4.236
REMARK INTER:                  -4.019
REMARK INTRA:                  -0.217
REMARK UNBOUND:                -0.211
REMARK SMILES CC(C)c1ccc(C(=O)[O-])cc1
REMARK SMILES IDX 7 1 6 2 11 3 5 4 12 5 4 6 8 7 9 8 10 9 2 10 1 11 3 12
REMARK H PARENT
REMARK Flexibility Score: inf
ROOT
ATOM      1  C   UNL     1      28.870  10.391 -13.313  1.00  0.00    -0.003 A 
ATOM      2  C   UNL     1      28.538  11.495 -14.115  1.00  0.00     0.010 A 
ATOM      3  C   UNL     1      27.838   9.613 -12.763  1.00  0.00     0.010 A 
ATOM      4  C   UNL     1      27.200  11.815 -14.363  1.00  0.00     0.004 A 
ATOM      5  C   UNL     1      26.500   9.932 -13.011  1.00  0.00     0.004 A 
ATOM      6  C   UNL     1      26.165  11.038 -13.814  1.00  0.00    -0.045 A 
ENDROOT
BRANCH   1   7
ATOM      7  C   UNL     1      30.288  10.056 -13.053  1.00  0.00     0.071 C 
ATOM      8  O   UNL     1      31.183  10.365 -13.884  1.00  0.00    -0.545 OA
ATOM      9  O   UNL     1      30.652   9.395 -11.885  1.00  0.00    -0.545 OA
ENDBRANCH   1   7
BRANCH   6  10
ATOM     10  C   UNL     1      24.718  11.397 -14.092  1.00  0.00     0.013 C 
ATOM     11  C   UNL     1      23.947  10.194 -14.649  1.00  0.00     0.012 C 
ATOM     12  C   UNL     1      24.619  12.599 -15.038  1.00  0.00     0.012 C 
ENDBRANCH   6  10
TORSDOF 2
ENDMDL
MODEL 8
REMARK VINA RESULT:    -3.593     15.308     16.557
REMARK INTER + INTRA:          -4.224
REMARK INTER:                  -4.007
REMARK INTRA:                  -0.216
REMARK UNBOUND:                -0.211
REMARK SMILES CC(C)c1ccc(C(=O)[O-])cc1
REMARK SMILES IDX 7 1 6 2 11 3 5 4 12 5 4 6 8 7 9 8 10 9 2 10 1 11 3 12
REMARK H PARENT
REMARK Flexibility Score: inf
ROOT
ATOM      1  C   UNL     1      28.906  10.385 -13.312  1.00  0.00    -0.003 A 
ATOM      2  C   UNL     1      27.865   9.619 -12.761  1.00  0.00     0.010 A 
ATOM      3  C   UNL     1      28.585  11.491 -14.117  1.00  0.00     0.010 A 
ATOM      4  C   UNL     1      26.531   9.952 -13.009  1.00  0.00     0.004 A 
ATOM      5  C   UNL     1      27.251  11.825 -14.365  1.00  0.00     0.004 A 
ATOM      6  C   UNL     1      26.208  11.059 -13.814  1.00  0.00    -0.045 A 
ENDROOT
BRANCH   1   7
ATOM      7  C   UNL     1      30.318  10.028 -13.047  1.00  0.00     0.071 C 
ATOM      8  O   UNL     1      31.216  10.297 -13.888  1.00  0.00    -0.545 OA
ATOM      9  O   UNL     1      30.673   9.389 -11.864  1.00  0.00    -0.545 OA
ENDBRANCH   1   7
BRANCH   6  10
ATOM     10  C   UNL     1      24.755  11.409 -14.074  1.00  0.00     0.013 C 
ATOM     11  C   UNL     1      23.978  10.192 -14.591  1.00  0.00     0.012 C 
ATOM     12  C   UNL     1      24.636  12.590 -15.044  1.00  0.00     0.012 C 
ENDBRANCH   6  10
TORSDOF 2
ENDMDL
MODEL 9
REMARK VINA RESULT:    -3.467     12.529     13.694
REMARK INTER + INTRA:          -4.084
REMARK INTER:                  -3.868
REMARK INTRA:                  -0.216
REMARK UNBOUND:                -0.211
REMARK SMILES CC(C)c1ccc(C(=O)[O-])cc1
REMARK SMILES IDX 7 1 6 2 11 3 5 4 12 5 4 6 8 7 9 8 10 9 2 10 1 11 3 12
REMARK H PARENT
REMARK Flexibility Score: inf
ROOT
ATOM      1  C   UNL     1      20.156  20.889   2.359  1.00  0.00    -0.003 A 
ATOM      2  C   UNL     1      18.845  21.368   2.205  1.00  0.00     0.010 A 
ATOM      3  C   UNL     1      21.220  21.807   2.379  1.00  0.00     0.010 A 
ATOM      4  C   UNL     1      18.601  22.738   2.075  1.00  0.00     0.004 A 
ATOM      5  C   UNL     1      20.976  23.177   2.249  1.00  0.00     0.004 A 
ATOM      6  C   UNL     1      19.663  23.659   2.095  1.00  0.00    -0.045 A 
ENDROOT
BRANCH   1   7
ATOM      7  C   UNL     1      20.410  19.437   2.497  1.00  0.00     0.071 C 
ATOM      8  O   UNL     1      19.557  18.597   2.106  1.00  0.00    -0.545 OA
ATOM      9  O   UNL     1      21.597  18.980   3.060  1.00  0.00    -0.545 OA
ENDBRANCH   1   7
BRANCH   6  10
ATOM     10  C   UNL     1      19.383  25.143   1.952  1.00  0.00     0.013 C 
ATOM     11  C   UNL     1      17.875  25.421   1.933  1.00  0.00     0.012 C 
ATOM     12  C   UNL     1      20.065  25.717   0.705  1.00  0.00     0.012 C 
ENDBRANCH   6  10
TORSDOF 2
ENDMDL
