MODEL 1
REMARK VINA RESULT:    -3.521      0.000      0.000
REMARK INTER + INTRA:          -5.235
REMARK INTER:                  -4.962
REMARK INTRA:                  -0.273
REMARK UNBOUND:                -0.273
REMARK SMILES CCCCCCCCC(=O)[O-]
REMARK SMILES IDX 6 1 7 2 8 3 9 4 10 5 11 6 5 7 4 8 3 9 2 10 1 11
REMARK H PARENT
REMARK Flexibility Score: inf
ROOT
ATOM      1  C   UNL     1      -1.280 -51.809   3.362  1.00  0.00     0.000 C 
ENDROOT
BRANCH   1   2
ATOM      2  C   UNL     1      -2.176 -51.813   4.610  1.00  0.00     0.006 C 
BRANCH   2   3
ATOM      3  C   UNL     1      -1.375 -51.699   5.914  1.00  0.00     0.053 C 
BRANCH   3   4
ATOM      4  C   UNL     1      -2.259 -51.242   7.031  1.00  0.00     0.041 C 
ATOM      5  O   UNL     1      -3.289 -50.561   6.786  1.00  0.00    -0.550 OA
ATOM      6  O   UNL     1      -1.972 -51.609   8.339  1.00  0.00    -0.550 OA
ENDBRANCH   3   4
ENDBRANCH   2   3
ENDBRANCH   1   2
BRANCH   1   7
ATOM      7  C   UNL     1      -1.712 -50.760   2.326  1.00  0.00     0.000 C 
BRANCH   7   8
ATOM      8  C   UNL     1      -1.686 -51.348   0.907  1.00  0.00    -0.000 C 
BRANCH   8   9
ATOM      9  C   UNL     1      -2.911 -50.938   0.073  1.00  0.00    -0.000 C 
BRANCH   9  10
ATOM     10  C   UNL     1      -4.239 -51.244   0.783  1.00  0.00    -0.003 C 
ATOM     11  C   UNL     1      -5.414 -51.137  -0.184  1.00  0.00     0.004 C 
ENDBRANCH   9  10
ENDBRANCH   8   9
ENDBRANCH   7   8
ENDBRANCH   1   7
TORSDOF 7
ENDMDL
MODEL 2
REMARK VINA RESULT:    -3.480      1.144      1.733
REMARK INTER + INTRA:          -5.177
REMARK INTER:                  -4.539
REMARK INTRA:                  -0.638
REMARK UNBOUND:                -0.273
REMARK SMILES CCCCCCCCC(=O)[O-]
REMARK SMILES IDX 6 1 7 2 8 3 9 4 10 5 11 6 5 7 4 8 3 9 2 10 1 11
REMARK H PARENT
REMARK Flexibility Score: inf
ROOT
ATOM      1  C   UNL     1      -1.612 -50.934   2.164  1.00  0.00     0.000 C 
ENDROOT
BRANCH   1   2
ATOM      2  C   UNL     1      -1.599 -51.764   3.456  1.00  0.00     0.006 C 
BRANCH   2   3
ATOM      3  C   UNL     1      -2.974 -51.823   4.136  1.00  0.00     0.053 C 
BRANCH   3   4
ATOM      4  C   UNL     1      -2.835 -51.624   5.612  1.00  0.00     0.041 C 
ATOM      5  O   UNL     1      -1.696 -51.468   6.126  1.00  0.00    -0.550 OA
ATOM      6  O   UNL     1      -3.966 -51.561   6.415  1.00  0.00    -0.550 OA
ENDBRANCH   3   4
ENDBRANCH   2   3
ENDBRANCH   1   2
BRANCH   1   7
ATOM      7  C   UNL     1      -1.299 -51.775   0.917  1.00  0.00     0.000 C 
BRANCH   7   8
ATOM      8  C   UNL     1      -2.433 -51.672  -0.114  1.00  0.00    -0.000 C 
BRANCH   8   9
ATOM      9  C   UNL     1      -3.494 -50.628   0.274  1.00  0.00    -0.000 C 
BRANCH   9  10
ATOM     10  C   UNL     1      -4.928 -51.158   0.127  1.00  0.00    -0.003 C 
ATOM     11  C   UNL     1      -5.275 -52.122   1.257  1.00  0.00     0.004 C 
ENDBRANCH   9  10
ENDBRANCH   8   9
ENDBRANCH   7   8
ENDBRANCH   1   7
TORSDOF 7
ENDMDL
MODEL 3
REMARK VINA RESULT:    -3.444      1.257      2.222
REMARK INTER + INTRA:          -5.126
REMARK INTER:                  -4.785
REMARK INTRA:                  -0.341
REMARK UNBOUND:                -0.273
REMARK SMILES CCCCCCCCC(=O)[O-]
REMARK SMILES IDX 6 1 7 2 8 3 9 4 10 5 11 6 5 7 4 8 3 9 2 10 1 11
REMARK H PARENT
REMARK Flexibility Score: inf
ROOT
ATOM      1  C   UNL     1      -1.880 -51.739   3.400  1.00  0.00     0.000 C 
ENDROOT
BRANCH   1   2
ATOM      2  C   UNL     1      -1.711 -51.751   4.927  1.00  0.00     0.006 C 
BRANCH   2   3
ATOM      3  C   UNL     1      -3.029 -51.493   5.670  1.00  0.00     0.053 C 
BRANCH   3   4
ATOM      4  C   UNL     1      -2.760 -51.076   7.081  1.00  0.00     0.041 C 
ATOM      5  O   UNL     1      -1.613 -51.229   7.578  1.00  0.00    -0.550 OA
ATOM      6  O   UNL     1      -3.761 -50.474   7.831  1.00  0.00    -0.550 OA
ENDBRANCH   3   4
ENDBRANCH   2   3
ENDBRANCH   1   2
BRANCH   1   7
ATOM      7  C   UNL     1      -3.354 -51.773   2.967  1.00  0.00     0.000 C 
BRANCH   7   8
ATOM      8  C   UNL     1      -3.508 -51.308   1.511  1.00  0.00    -0.000 C 
BRANCH   8   9
ATOM      9  C   UNL     1      -2.158 -51.005   0.839  1.00  0.00    -0.000 C 
BRANCH   9  10
ATOM     10  C   UNL     1      -1.900 -51.885  -0.394  1.00  0.00    -0.003 C 
ATOM     11  C   UNL     1      -0.438 -51.813  -0.822  1.00  0.00     0.004 C 
ENDBRANCH   9  10
ENDBRANCH   8   9
ENDBRANCH   7   8
ENDBRANCH   1   7
TORSDOF 7
ENDMDL
MODEL 4
REMARK VINA RESULT:    -3.207      1.794      3.048
REMARK INTER + INTRA:          -4.793
REMARK INTER:                  -4.516
REMARK INTRA:                  -0.277
REMARK UNBOUND:                -0.273
REMARK SMILES CCCCCCCCC(=O)[O-]
REMARK SMILES IDX 6 1 7 2 8 3 9 4 10 5 11 6 5 7 4 8 3 9 2 10 1 11
REMARK H PARENT
REMARK Flexibility Score: inf
ROOT
ATOM      1  C   UNL     1      -1.385 -51.377   6.523  1.00  0.00     0.000 C 
ENDROOT
BRANCH   1   2
ATOM      2  C   UNL     1      -2.740 -50.908   7.074  1.00  0.00     0.006 C 
BRANCH   2   3
ATOM      3  C   UNL     1      -3.064 -51.517   8.445  1.00  0.00     0.053 C 
BRANCH   3   4
ATOM      4  C   UNL     1      -4.471 -51.200   8.837  1.00  0.00     0.041 C 
ATOM      5  O   UNL     1      -5.411 -51.370   8.016  1.00  0.00    -0.550 OA
ATOM      6  O   UNL     1      -4.753 -50.764  10.125  1.00  0.00    -0.550 OA
ENDBRANCH   3   4
ENDBRANCH   2   3
ENDBRANCH   1   2
BRANCH   1   7
ATOM      7  C   UNL     1      -1.515 -52.121   5.185  1.00  0.00     0.000 C 
BRANCH   7   8
ATOM      8  C   UNL     1      -2.836 -51.766   4.486  1.00  0.00    -0.000 C 
BRANCH   8   9
ATOM      9  C   UNL     1      -2.810 -52.069   2.979  1.00  0.00    -0.000 C 
BRANCH   9  10
ATOM     10  C   UNL     1      -2.060 -50.998   2.173  1.00  0.00    -0.003 C 
ATOM     11  C   UNL     1      -2.804 -50.662   0.884  1.00  0.00     0.004 C 
ENDBRANCH   9  10
ENDBRANCH   8   9
ENDBRANCH   7   8
ENDBRANCH   1   7
TORSDOF 7
ENDMDL
MODEL 5
REMARK VINA RESULT:    -3.206      2.563      4.216
REMARK INTER + INTRA:          -4.791
REMARK INTER:                  -4.506
REMARK INTRA:                  -0.285
REMARK UNBOUND:                -0.273
REMARK SMILES CCCCCCCCC(=O)[O-]
REMARK SMILES IDX 6 1 7 2 8 3 9 4 10 5 11 6 5 7 4 8 3 9 2 10 1 11
REMARK H PARENT
REMARK Flexibility Score: inf
ROOT
ATOM      1  C   UNL     1      -3.759 -50.705   0.380  1.00  0.00     0.000 C 
ENDROOT
BRANCH   1   2
ATOM      2  C   UNL     1      -2.264 -50.984   0.601  1.00  0.00     0.006 C 
BRANCH   2   3
ATOM      3  C   UNL     1      -2.016 -52.125   1.597  1.00  0.00     0.053 C 
BRANCH   3   4
ATOM      4  C   UNL     1      -1.797 -51.578   2.972  1.00  0.00     0.041 C 
ATOM      5  O   UNL     1      -2.781 -51.281   3.699  1.00  0.00    -0.550 OA
ATOM      6  O   UNL     1      -0.508 -51.443   3.469  1.00  0.00    -0.550 OA
ENDBRANCH   3   4
ENDBRANCH   2   3
ENDBRANCH   1   2
BRANCH   1   7
ATOM      7  C   UNL     1      -4.617 -51.977   0.457  1.00  0.00     0.000 C 
BRANCH   7   8
ATOM      8  C   UNL     1      -6.106 -51.645   0.282  1.00  0.00    -0.000 C 
BRANCH   8   9
ATOM      9  C   UNL     1      -6.900 -51.774   1.593  1.00  0.00    -0.000 C 
BRANCH   9  10
ATOM     10  C   UNL     1      -8.312 -51.177   1.491  1.00  0.00    -0.003 C 
ATOM     11  C   UNL     1      -8.791 -50.667   2.846  1.00  0.00     0.004 C 
ENDBRANCH   9  10
ENDBRANCH   8   9
ENDBRANCH   7   8
ENDBRANCH   1   7
TORSDOF 7
ENDMDL
MODEL 6
REMARK VINA RESULT:    -3.118      4.254      6.478
REMARK INTER + INTRA:          -4.667
REMARK INTER:                  -4.407
REMARK INTRA:                  -0.260
REMARK UNBOUND:                -0.273
REMARK SMILES CCCCCCCCC(=O)[O-]
REMARK SMILES IDX 6 1 7 2 8 3 9 4 10 5 11 6 5 7 4 8 3 9 2 10 1 11
REMARK H PARENT
REMARK Flexibility Score: inf
ROOT
ATOM      1  C   UNL     1      -2.091 -51.017   1.748  1.00  0.00     0.000 C 
ENDROOT
BRANCH   1   2
ATOM      2  C   UNL     1      -1.320 -51.977   0.829  1.00  0.00     0.006 C 
BRANCH   2   3
ATOM      3  C   UNL     1      -1.427 -51.591  -0.652  1.00  0.00     0.053 C 
BRANCH   3   4
ATOM      4  C   UNL     1      -0.161 -51.931  -1.372  1.00  0.00     0.041 C 
ATOM      5  O   UNL     1       0.909 -52.095  -0.729  1.00  0.00    -0.550 OA
ATOM      6  O   UNL     1      -0.171 -52.114  -2.749  1.00  0.00    -0.550 OA
ENDBRANCH   3   4
ENDBRANCH   2   3
ENDBRANCH   1   2
BRANCH   1   7
ATOM      7  C   UNL     1      -3.541 -51.465   1.989  1.00  0.00     0.000 C 
BRANCH   7   8
ATOM      8  C   UNL     1      -3.780 -51.772   3.475  1.00  0.00    -0.000 C 
BRANCH   8   9
ATOM      9  C   UNL     1      -2.479 -51.791   4.294  1.00  0.00    -0.000 C 
BRANCH   9  10
ATOM     10  C   UNL     1      -2.719 -52.103   5.779  1.00  0.00    -0.003 C 
ATOM     11  C   UNL     1      -1.906 -51.171   6.673  1.00  0.00     0.004 C 
ENDBRANCH   9  10
ENDBRANCH   8   9
ENDBRANCH   7   8
ENDBRANCH   1   7
TORSDOF 7
ENDMDL
MODEL 7
REMARK VINA RESULT:    -3.019      3.112      5.400
REMARK INTER + INTRA:          -4.527
REMARK INTER:                  -4.272
REMARK INTRA:                  -0.255
REMARK UNBOUND:                -0.273
REMARK SMILES CCCCCCCCC(=O)[O-]
REMARK SMILES IDX 6 1 7 2 8 3 9 4 10 5 11 6 5 7 4 8 3 9 2 10 1 11
REMARK H PARENT
REMARK Flexibility Score: inf
ROOT
ATOM      1  C   UNL     1      -6.065 -51.114   0.457  1.00  0.00     0.000 C 
ENDROOT
BRANCH   1   2
ATOM      2  C   UNL     1      -6.962 -51.983   1.350  1.00  0.00     0.006 C 
BRANCH   2   3
ATOM      3  C   UNL     1      -8.226 -51.247   1.814  1.00  0.00     0.053 C 
BRANCH   3   4
ATOM      4  C   UNL     1      -8.104 -50.855   3.252  1.00  0.00     0.041 C 
ATOM      5  O   UNL     1      -7.249 -51.412   3.990  1.00  0.00    -0.550 OA
ATOM      6  O   UNL     1      -8.900 -49.840   3.766  1.00  0.00    -0.550 OA
ENDBRANCH   3   4
ENDBRANCH   2   3
ENDBRANCH   1   2
BRANCH   1   7
ATOM      7  C   UNL     1      -4.668 -51.718   0.252  1.00  0.00     0.000 C 
BRANCH   7   8
ATOM      8  C   UNL     1      -3.576 -50.654   0.441  1.00  0.00    -0.000 C 
BRANCH   8   9
ATOM      9  C   UNL     1      -2.193 -51.266   0.718  1.00  0.00    -0.000 C 
BRANCH   9  10
ATOM     10  C   UNL     1      -1.685 -50.962   2.136  1.00  0.00    -0.003 C 
ATOM     11  C   UNL     1      -2.685 -51.430   3.188  1.00  0.00     0.004 C 
ENDBRANCH   9  10
ENDBRANCH   8   9
ENDBRANCH   7   8
ENDBRANCH   1   7
TORSDOF 7
ENDMDL
MODEL 8
REMARK VINA RESULT:    -2.994      3.666      6.222
REMARK INTER + INTRA:          -4.493
REMARK INTER:                  -4.306
REMARK INTRA:                  -0.187
REMARK UNBOUND:                -0.273
REMARK SMILES CCCCCCCCC(=O)[O-]
REMARK SMILES IDX 6 1 7 2 8 3 9 4 10 5 11 6 5 7 4 8 3 9 2 10 1 11
REMARK H PARENT
REMARK Flexibility Score: inf
ROOT
ATOM      1  C   UNL     1      -1.302 -51.230   3.993  1.00  0.00     0.000 C 
ENDROOT
BRANCH   1   2
ATOM      2  C   UNL     1      -2.194 -51.734   2.848  1.00  0.00     0.006 C 
BRANCH   2   3
ATOM      3  C   UNL     1      -2.275 -50.742   1.680  1.00  0.00     0.053 C 
BRANCH   3   4
ATOM      4  C   UNL     1      -1.824 -51.392   0.411  1.00  0.00     0.041 C 
ATOM      5  O   UNL     1      -2.666 -51.901  -0.374  1.00  0.00    -0.550 OA
ATOM      6  O   UNL     1      -0.478 -51.392   0.071  1.00  0.00    -0.550 OA
ENDBRANCH   3   4
ENDBRANCH   2   3
ENDBRANCH   1   2
BRANCH   1   7
ATOM      7  C   UNL     1      -1.375 -52.125   5.239  1.00  0.00     0.000 C 
BRANCH   7   8
ATOM      8  C   UNL     1      -1.529 -51.280   6.513  1.00  0.00    -0.000 C 
BRANCH   8   9
ATOM      9  C   UNL     1      -2.996 -51.115   6.941  1.00  0.00    -0.000 C 
BRANCH   9  10
ATOM     10  C   UNL     1      -3.239 -51.540   8.397  1.00  0.00    -0.003 C 
ATOM     11  C   UNL     1      -4.373 -50.734   9.022  1.00  0.00     0.004 C 
ENDBRANCH   9  10
ENDBRANCH   8   9
ENDBRANCH   7   8
ENDBRANCH   1   7
TORSDOF 7
ENDMDL
MODEL 9
REMARK VINA RESULT:    -2.948      3.371      6.550
REMARK INTER + INTRA:          -4.427
REMARK INTER:                  -4.216
REMARK INTRA:                  -0.212
REMARK UNBOUND:                -0.273
REMARK SMILES CCCCCCCCC(=O)[O-]
REMARK SMILES IDX 6 1 7 2 8 3 9 4 10 5 11 6 5 7 4 8 3 9 2 10 1 11
REMARK H PARENT
REMARK Flexibility Score: inf
ROOT
ATOM      1  C   UNL     1      -2.555 -50.989   7.539  1.00  0.00     0.000 C 
ENDROOT
BRANCH   1   2
ATOM      2  C   UNL     1      -2.734 -51.679   6.178  1.00  0.00     0.006 C 
BRANCH   2   3
ATOM      3  C   UNL     1      -1.413 -51.827   5.411  1.00  0.00     0.053 C 
BRANCH   3   4
ATOM      4  C   UNL     1      -1.653 -51.739   3.938  1.00  0.00     0.041 C 
ATOM      5  O   UNL     1      -0.694 -51.862   3.131  1.00  0.00    -0.550 OA
ATOM      6  O   UNL     1      -2.943 -51.571   3.452  1.00  0.00    -0.550 OA
ENDBRANCH   3   4
ENDBRANCH   2   3
ENDBRANCH   1   2
BRANCH   1   7
ATOM      7  C   UNL     1      -3.013 -51.867   8.714  1.00  0.00     0.000 C 
BRANCH   7   8
ATOM      8  C   UNL     1      -4.545 -51.911   8.800  1.00  0.00    -0.000 C 
BRANCH   8   9
ATOM      9  C   UNL     1      -5.130 -50.724   9.584  1.00  0.00    -0.000 C 
BRANCH   9  10
ATOM     10  C   UNL     1      -6.586 -50.958  10.014  1.00  0.00    -0.003 C 
ATOM     11  C   UNL     1      -7.554 -50.214   9.100  1.00  0.00     0.004 C 
ENDBRANCH   9  10
ENDBRANCH   8   9
ENDBRANCH   7   8
ENDBRANCH   1   7
TORSDOF 7
ENDMDL
