MODEL 1
REMARK VINA RESULT:    -6.123      0.000      0.000
REMARK INTER + INTRA:          -9.095
REMARK INTER:                  -8.271
REMARK INTRA:                  -0.824
REMARK UNBOUND:                -0.824
REMARK SMILES C[C@@H]1O[C@H](Oc2cc(O)c3c(=O)c(O)c(-c4ccc(O)cc4)oc3c2)[C@@H](O)[C@@H](O)[C@@H]1O
REMARK SMILES IDX 6 1 7 2 8 3 10 4 24 5 25 6 23 7 15 8 13 9 11 10 12 11 5 12
REMARK SMILES IDX 4 13 1 14 2 15 30 16 3 17 28 18 26 19 31 20 29 22 27 24 9 26
REMARK SMILES IDX 16 28 17 29 22 30 18 31 21 32 19 33 20 34 14 36
REMARK H PARENT 31 21 29 23 27 25 9 27 20 35 14 37
REMARK Flexibility Score: inf
ROOT
ATOM      1  C   UNL     1      26.965  15.041   8.012  1.00  0.00     0.130 A 
ATOM      2  C   UNL     1      27.069  15.221   9.408  1.00  0.00     0.093 A 
ATOM      3  C   UNL     1      26.828  14.181  10.294  1.00  0.00     0.134 A 
ATOM      4  C   UNL     1      26.477  12.895   9.774  1.00  0.00     0.111 A 
ATOM      5  C   UNL     1      26.597  12.662   8.377  1.00  0.00     0.146 A 
ATOM      6  C   UNL     1      26.827  13.747   7.498  1.00  0.00     0.094 A 
ATOM      7  O   UNL     1      26.499  11.433   7.881  1.00  0.00    -0.452 OA
ATOM      8  C   UNL     1      26.182  10.374   8.615  1.00  0.00     0.180 A 
ATOM      9  C   UNL     1      25.799  10.558   9.966  1.00  0.00     0.208 A 
ATOM     10  C   UNL     1      25.983  11.814  10.564  1.00  0.00     0.238 A 
ATOM     11  O   UNL     1      25.644  11.968  11.774  1.00  0.00    -0.285 OA
ENDROOT
BRANCH   1  12
ATOM     12  O   UNL     1      26.970  16.130   7.122  1.00  0.00    -0.462 OA
BRANCH  12  13
ATOM     13  C   UNL     1      25.949  17.147   7.142  1.00  0.00     0.339 C 
ATOM     14  C   UNL     1      26.877  19.116   4.194  1.00  0.00     0.042 C 
ATOM     15  C   UNL     1      25.873  18.312   5.027  1.00  0.00     0.151 C 
ATOM     16  C   UNL     1      25.562  16.929   4.368  1.00  0.00     0.174 C 
ATOM     17  O   UNL     1      26.363  18.265   6.362  1.00  0.00    -0.335 OA
ATOM     18  C   UNL     1      24.731  15.992   5.284  1.00  0.00     0.180 C 
ATOM     19  C   UNL     1      24.576  16.582   6.703  1.00  0.00     0.214 C 
BRANCH  16  20
ATOM     20  O   UNL     1      26.762  16.274   3.995  1.00  0.00    -0.388 OA
ATOM     21  H   UNL     1      27.133  15.813   4.784  1.00  0.00     0.211 HD
ENDBRANCH  16  20
BRANCH  18  22
ATOM     22  O   UNL     1      23.518  15.600   4.667  1.00  0.00    -0.387 OA
ATOM     23  H   UNL     1      23.101  16.365   4.210  1.00  0.00     0.211 HD
ENDBRANCH  18  22
BRANCH  19  24
ATOM     24  O   UNL     1      23.582  17.589   6.831  1.00  0.00    -0.384 OA
ATOM     25  H   UNL     1      23.939  18.363   7.340  1.00  0.00     0.211 HD
ENDBRANCH  19  24
ENDBRANCH  12  13
ENDBRANCH   1  12
BRANCH   3  26
ATOM     26  O   UNL     1      26.970  14.464  11.665  1.00  0.00    -0.507 OA
ATOM     27  H   UNL     1      26.827  13.813  12.409  1.00  0.00     0.293 HD
ENDBRANCH   3  26
BRANCH   8  28
ATOM     28  C   UNL     1      26.309   9.033   7.981  1.00  0.00     0.021 A 
ATOM     29  C   UNL     1      27.466   8.253   8.196  1.00  0.00     0.016 A 
ATOM     30  C   UNL     1      25.196   8.435   7.353  1.00  0.00     0.016 A 
ATOM     31  C   UNL     1      27.495   6.918   7.770  1.00  0.00     0.047 A 
ATOM     32  C   UNL     1      25.250   7.114   6.905  1.00  0.00     0.047 A 
ATOM     33  C   UNL     1      26.393   6.338   7.117  1.00  0.00     0.115 A 
BRANCH  33  34
ATOM     34  O   UNL     1      26.389   4.985   6.759  1.00  0.00    -0.508 OA
ATOM     35  H   UNL     1      27.124   4.599   6.177  1.00  0.00     0.293 HD
ENDBRANCH  33  34
ENDBRANCH   8  28
BRANCH   9  36
ATOM     36  O   UNL     1      25.221   9.531  10.726  1.00  0.00    -0.502 OA
ATOM     37  H   UNL     1      24.358   9.659  11.226  1.00  0.00     0.293 HD
ENDBRANCH   9  36
TORSDOF 9
ENDMDL
MODEL 2
REMARK VINA RESULT:    -5.814     14.237     17.632
REMARK INTER + INTRA:          -8.678
REMARK INTER:                  -7.996
REMARK INTRA:                  -0.682
REMARK UNBOUND:                -0.824
REMARK SMILES C[C@@H]1O[C@H](Oc2cc(O)c3c(=O)c(O)c(-c4ccc(O)cc4)oc3c2)[C@@H](O)[C@@H](O)[C@@H]1O
REMARK SMILES IDX 6 1 7 2 8 3 10 4 24 5 25 6 23 7 15 8 13 9 11 10 12 11 5 12
REMARK SMILES IDX 4 13 1 14 2 15 30 16 3 17 28 18 26 19 31 20 29 22 27 24 9 26
REMARK SMILES IDX 16 28 17 29 22 30 18 31 21 32 19 33 20 34 14 36
REMARK H PARENT 31 21 29 23 27 25 9 27 20 35 14 37
REMARK Flexibility Score: inf
ROOT
ATOM      1  C   UNL     1      13.604   1.252   1.985  1.00  0.00     0.130 A 
ATOM      2  C   UNL     1      12.416   1.029   2.712  1.00  0.00     0.093 A 
ATOM      3  C   UNL     1      12.442   0.579   4.025  1.00  0.00     0.134 A 
ATOM      4  C   UNL     1      13.707   0.348   4.653  1.00  0.00     0.111 A 
ATOM      5  C   UNL     1      14.890   0.789   3.999  1.00  0.00     0.146 A 
ATOM      6  C   UNL     1      14.832   1.227   2.655  1.00  0.00     0.094 A 
ATOM      7  O   UNL     1      16.056   0.799   4.637  1.00  0.00    -0.452 OA
ATOM      8  C   UNL     1      16.223   0.310   5.859  1.00  0.00     0.180 A 
ATOM      9  C   UNL     1      15.153  -0.376   6.482  1.00  0.00     0.208 A 
ATOM     10  C   UNL     1      13.876  -0.325   5.900  1.00  0.00     0.238 A 
ATOM     11  O   UNL     1      12.924  -0.936   6.467  1.00  0.00    -0.285 OA
ENDROOT
BRANCH   1  12
ATOM     12  O   UNL     1      13.591   1.473   0.596  1.00  0.00    -0.462 OA
BRANCH  12  13
ATOM     13  C   UNL     1      14.707   2.057  -0.103  1.00  0.00     0.339 C 
ATOM     14  C   UNL     1      15.042  -0.253  -2.928  1.00  0.00     0.042 C 
ATOM     15  C   UNL     1      14.877   1.151  -2.336  1.00  0.00     0.151 C 
ATOM     16  C   UNL     1      13.440   1.712  -2.586  1.00  0.00     0.174 C 
ATOM     17  O   UNL     1      15.291   1.094  -0.975  1.00  0.00    -0.335 OA
ATOM     18  C   UNL     1      13.158   3.028  -1.814  1.00  0.00     0.180 C 
ATOM     19  C   UNL     1      14.302   3.363  -0.831  1.00  0.00     0.214 C 
BRANCH  16  20
ATOM     20  O   UNL     1      12.462   0.748  -2.239  1.00  0.00    -0.388 OA
ATOM     21  H   UNL     1      12.643  -0.085  -2.735  1.00  0.00     0.211 HD
ENDBRANCH  16  20
BRANCH  18  22
ATOM     22  O   UNL     1      12.799   4.081  -2.690  1.00  0.00    -0.387 OA
ATOM     23  H   UNL     1      12.835   4.945  -2.221  1.00  0.00     0.211 HD
ENDBRANCH  18  22
BRANCH  19  24
ATOM     24  O   UNL     1      15.449   3.956  -1.423  1.00  0.00    -0.384 OA
ATOM     25  H   UNL     1      15.212   4.825  -1.839  1.00  0.00     0.211 HD
ENDBRANCH  19  24
ENDBRANCH  12  13
ENDBRANCH   1  12
BRANCH   3  26
ATOM     26  O   UNL     1      11.201   0.399   4.664  1.00  0.00    -0.507 OA
ATOM     27  H   UNL     1      11.043   0.461   5.648  1.00  0.00     0.293 HD
ENDBRANCH   3  26
BRANCH   8  28
ATOM     28  C   UNL     1      17.524   0.570   6.533  1.00  0.00     0.021 A 
ATOM     29  C   UNL     1      17.585   1.427   7.655  1.00  0.00     0.016 A 
ATOM     30  C   UNL     1      18.660  -0.201   6.209  1.00  0.00     0.016 A 
ATOM     31  C   UNL     1      18.765   1.507   8.407  1.00  0.00     0.047 A 
ATOM     32  C   UNL     1      19.839  -0.087   6.948  1.00  0.00     0.047 A 
ATOM     33  C   UNL     1      19.902   0.758   8.059  1.00  0.00     0.115 A 
BRANCH  33  34
ATOM     34  O   UNL     1      21.057   0.778   8.851  1.00  0.00    -0.508 OA
ATOM     35  H   UNL     1      21.355  -0.050   9.355  1.00  0.00     0.293 HD
ENDBRANCH  33  34
ENDBRANCH   8  28
BRANCH   9  36
ATOM     36  O   UNL     1      15.326  -1.124   7.656  1.00  0.00    -0.502 OA
ATOM     37  H   UNL     1      15.769  -0.739   8.472  1.00  0.00     0.293 HD
ENDBRANCH   9  36
TORSDOF 9
ENDMDL
MODEL 3
REMARK VINA RESULT:    -5.752     14.449     18.604
REMARK INTER + INTRA:          -8.593
REMARK INTER:                  -7.828
REMARK INTRA:                  -0.765
REMARK UNBOUND:                -0.824
REMARK SMILES C[C@@H]1O[C@H](Oc2cc(O)c3c(=O)c(O)c(-c4ccc(O)cc4)oc3c2)[C@@H](O)[C@@H](O)[C@@H]1O
REMARK SMILES IDX 6 1 7 2 8 3 10 4 24 5 25 6 23 7 15 8 13 9 11 10 12 11 5 12
REMARK SMILES IDX 4 13 1 14 2 15 30 16 3 17 28 18 26 19 31 20 29 22 27 24 9 26
REMARK SMILES IDX 16 28 17 29 22 30 18 31 21 32 19 33 20 34 14 36
REMARK H PARENT 31 21 29 23 27 25 9 27 20 35 14 37
REMARK Flexibility Score: inf
ROOT
ATOM      1  C   UNL     1      12.542  -0.251   1.982  1.00  0.00     0.130 A 
ATOM      2  C   UNL     1      11.434  -0.198   2.854  1.00  0.00     0.093 A 
ATOM      3  C   UNL     1      11.589  -0.281   4.231  1.00  0.00     0.134 A 
ATOM      4  C   UNL     1      12.907  -0.413   4.773  1.00  0.00     0.111 A 
ATOM      5  C   UNL     1      14.025  -0.237   3.913  1.00  0.00     0.146 A 
ATOM      6  C   UNL     1      13.835  -0.171   2.513  1.00  0.00     0.094 A 
ATOM      7  O   UNL     1      15.254  -0.128   4.408  1.00  0.00    -0.452 OA
ATOM      8  C   UNL     1      15.537  -0.281   5.695  1.00  0.00     0.180 A 
ATOM      9  C   UNL     1      14.520  -0.709   6.582  1.00  0.00     0.208 A 
ATOM     10  C   UNL     1      13.189  -0.738   6.134  1.00  0.00     0.238 A 
ATOM     11  O   UNL     1      12.285  -1.115   6.934  1.00  0.00    -0.285 OA
ENDROOT
BRANCH   1  12
ATOM     12  O   UNL     1      12.385  -0.408   0.593  1.00  0.00    -0.462 OA
BRANCH  12  13
ATOM     13  C   UNL     1      11.528   0.447  -0.188  1.00  0.00     0.339 C 
ATOM     14  C   UNL     1      12.910   3.742   0.625  1.00  0.00     0.042 C 
ATOM     15  C   UNL     1      12.479   2.660  -0.371  1.00  0.00     0.151 C 
ATOM     16  C   UNL     1      13.714   1.986  -1.052  1.00  0.00     0.174 C 
ATOM     17  O   UNL     1      11.590   1.781   0.309  1.00  0.00    -0.335 OA
ATOM     18  C   UNL     1      13.337   0.738  -1.894  1.00  0.00     0.180 C 
ATOM     19  C   UNL     1      11.854   0.351  -1.699  1.00  0.00     0.214 C 
BRANCH  16  20
ATOM     20  O   UNL     1      14.680   1.621  -0.082  1.00  0.00    -0.388 OA
ATOM     21  H   UNL     1      14.402   1.975   0.795  1.00  0.00     0.211 HD
ENDBRANCH  16  20
BRANCH  18  22
ATOM     22  O   UNL     1      13.743   0.878  -3.245  1.00  0.00    -0.387 OA
ATOM     23  H   UNL     1      14.638   1.282  -3.294  1.00  0.00     0.211 HD
ENDBRANCH  18  22
BRANCH  19  24
ATOM     24  O   UNL     1      10.926   1.131  -2.439  1.00  0.00    -0.384 OA
ATOM     25  H   UNL     1      10.162   1.396  -1.864  1.00  0.00     0.211 HD
ENDBRANCH  19  24
ENDBRANCH  12  13
ENDBRANCH   1  12
BRANCH   3  26
ATOM     26  O   UNL     1      10.420  -0.207   5.011  1.00  0.00    -0.507 OA
ATOM     27  H   UNL     1      10.063   0.621   5.441  1.00  0.00     0.293 HD
ENDBRANCH   3  26
BRANCH   8  28
ATOM     28  C   UNL     1      16.912   0.069   6.144  1.00  0.00     0.021 A 
ATOM     29  C   UNL     1      17.141   1.258   6.872  1.00  0.00     0.016 A 
ATOM     30  C   UNL     1      17.954  -0.878   6.051  1.00  0.00     0.016 A 
ATOM     31  C   UNL     1      18.390   1.481   7.467  1.00  0.00     0.047 A 
ATOM     32  C   UNL     1      19.204  -0.628   6.621  1.00  0.00     0.047 A 
ATOM     33  C   UNL     1      19.433   0.547   7.343  1.00  0.00     0.115 A 
BRANCH  33  34
ATOM     34  O   UNL     1      20.656   0.731   7.998  1.00  0.00    -0.508 OA
ATOM     35  H   UNL     1      20.795   1.512   8.630  1.00  0.00     0.293 HD
ENDBRANCH  33  34
ENDBRANCH   8  28
BRANCH   9  36
ATOM     36  O   UNL     1      14.795  -1.125   7.893  1.00  0.00    -0.502 OA
ATOM     37  H   UNL     1      14.995  -2.084   8.116  1.00  0.00     0.293 HD
ENDBRANCH   9  36
TORSDOF 9
ENDMDL
MODEL 4
REMARK VINA RESULT:    -5.723      1.059      2.140
REMARK INTER + INTRA:          -8.554
REMARK INTER:                  -7.763
REMARK INTRA:                  -0.791
REMARK UNBOUND:                -0.824
REMARK SMILES C[C@@H]1O[C@H](Oc2cc(O)c3c(=O)c(O)c(-c4ccc(O)cc4)oc3c2)[C@@H](O)[C@@H](O)[C@@H]1O
REMARK SMILES IDX 6 1 7 2 8 3 10 4 24 5 25 6 23 7 15 8 13 9 11 10 12 11 5 12
REMARK SMILES IDX 4 13 1 14 2 15 30 16 3 17 28 18 26 19 31 20 29 22 27 24 9 26
REMARK SMILES IDX 16 28 17 29 22 30 18 31 21 32 19 33 20 34 14 36
REMARK H PARENT 31 21 29 23 27 25 9 27 20 35 14 37
REMARK Flexibility Score: inf
ROOT
ATOM      1  C   UNL     1      27.522  14.700   7.835  1.00  0.00     0.130 A 
ATOM      2  C   UNL     1      27.435  14.983   9.214  1.00  0.00     0.093 A 
ATOM      3  C   UNL     1      27.021  14.024  10.127  1.00  0.00     0.134 A 
ATOM      4  C   UNL     1      26.687  12.716   9.654  1.00  0.00     0.111 A 
ATOM      5  C   UNL     1      26.993  12.372   8.309  1.00  0.00     0.146 A 
ATOM      6  C   UNL     1      27.398  13.376   7.399  1.00  0.00     0.094 A 
ATOM      7  O   UNL     1      26.909  11.112   7.893  1.00  0.00    -0.452 OA
ATOM      8  C   UNL     1      26.440  10.125   8.646  1.00  0.00     0.180 A 
ATOM      9  C   UNL     1      25.878  10.426   9.909  1.00  0.00     0.208 A 
ATOM     10  C   UNL     1      26.034  11.717  10.438  1.00  0.00     0.238 A 
ATOM     11  O   UNL     1      25.534  11.976  11.571  1.00  0.00    -0.285 OA
ENDROOT
BRANCH   1  12
ATOM     12  O   UNL     1      27.706  15.717   6.880  1.00  0.00    -0.462 OA
BRANCH  12  13
ATOM     13  C   UNL     1      27.025  15.716   5.611  1.00  0.00     0.339 C 
ATOM     14  C   UNL     1      23.992  17.594   6.451  1.00  0.00     0.042 C 
ATOM     15  C   UNL     1      25.245  17.350   5.604  1.00  0.00     0.151 C 
ATOM     16  C   UNL     1      26.342  18.428   5.882  1.00  0.00     0.174 C 
ATOM     17  O   UNL     1      25.642  15.997   5.802  1.00  0.00    -0.335 OA
ATOM     18  C   UNL     1      27.705  18.094   5.219  1.00  0.00     0.180 C 
ATOM     19  C   UNL     1      27.701  16.677   4.602  1.00  0.00     0.214 C 
BRANCH  16  20
ATOM     20  O   UNL     1      26.531  18.598   7.276  1.00  0.00    -0.388 OA
ATOM     21  H   UNL     1      26.359  19.541   7.509  1.00  0.00     0.211 HD
ENDBRANCH  16  20
BRANCH  18  22
ATOM     22  O   UNL     1      28.125  19.124   4.341  1.00  0.00    -0.387 OA
ATOM     23  H   UNL     1      27.435  19.822   4.276  1.00  0.00     0.211 HD
ENDBRANCH  18  22
BRANCH  19  24
ATOM     24  O   UNL     1      27.060  16.573   3.339  1.00  0.00    -0.384 OA
ATOM     25  H   UNL     1      26.196  16.093   3.429  1.00  0.00     0.211 HD
ENDBRANCH  19  24
ENDBRANCH  12  13
ENDBRANCH   1  12
BRANCH   3  26
ATOM     26  O   UNL     1      26.979  14.406  11.481  1.00  0.00    -0.507 OA
ATOM     27  H   UNL     1      27.771  14.651  12.038  1.00  0.00     0.293 HD
ENDBRANCH   3  26
BRANCH   8  28
ATOM     28  C   UNL     1      26.592   8.736   8.133  1.00  0.00     0.021 A 
ATOM     29  C   UNL     1      27.592   7.889   8.663  1.00  0.00     0.016 A 
ATOM     30  C   UNL     1      25.611   8.178   7.288  1.00  0.00     0.016 A 
ATOM     31  C   UNL     1      27.600   6.528   8.328  1.00  0.00     0.047 A 
ATOM     32  C   UNL     1      25.649   6.827   6.937  1.00  0.00     0.047 A 
ATOM     33  C   UNL     1      26.636   5.986   7.460  1.00  0.00     0.115 A 
BRANCH  33  34
ATOM     34  O   UNL     1      26.595   4.614   7.184  1.00  0.00    -0.508 OA
ATOM     35  H   UNL     1      25.999   4.250   6.449  1.00  0.00     0.293 HD
ENDBRANCH  33  34
ENDBRANCH   8  28
BRANCH   9  36
ATOM     36  O   UNL     1      25.149   9.483  10.648  1.00  0.00    -0.502 OA
ATOM     37  H   UNL     1      24.321   9.732  11.160  1.00  0.00     0.293 HD
ENDBRANCH   9  36
TORSDOF 9
ENDMDL
MODEL 5
REMARK VINA RESULT:    -5.451     15.392     19.813
REMARK INTER + INTRA:          -8.186
REMARK INTER:                  -7.823
REMARK INTRA:                  -0.363
REMARK UNBOUND:                -0.824
REMARK SMILES C[C@@H]1O[C@H](Oc2cc(O)c3c(=O)c(O)c(-c4ccc(O)cc4)oc3c2)[C@@H](O)[C@@H](O)[C@@H]1O
REMARK SMILES IDX 6 1 7 2 8 3 10 4 24 5 25 6 23 7 15 8 13 9 11 10 12 11 5 12
REMARK SMILES IDX 4 13 1 14 2 15 30 16 3 17 28 18 26 19 31 20 29 22 27 24 9 26
REMARK SMILES IDX 16 28 17 29 22 30 18 31 21 32 19 33 20 34 14 36
REMARK H PARENT 31 21 29 23 27 25 9 27 20 35 14 37
REMARK Flexibility Score: inf
ROOT
ATOM      1  C   UNL     1      14.489   0.961   2.530  1.00  0.00     0.130 A 
ATOM      2  C   UNL     1      14.897   0.286   1.360  1.00  0.00     0.093 A 
ATOM      3  C   UNL     1      14.150   0.341   0.192  1.00  0.00     0.134 A 
ATOM      4  C   UNL     1      12.943   1.110   0.177  1.00  0.00     0.111 A 
ATOM      5  C   UNL     1      12.659   1.965   1.277  1.00  0.00     0.146 A 
ATOM      6  C   UNL     1      13.430   1.874   2.459  1.00  0.00     0.094 A 
ATOM      7  O   UNL     1      11.676   2.857   1.208  1.00  0.00    -0.452 OA
ATOM      8  C   UNL     1      10.838   2.941   0.183  1.00  0.00     0.180 A 
ATOM      9  C   UNL     1      10.893   1.963  -0.838  1.00  0.00     0.208 A 
ATOM     10  C   UNL     1      11.972   1.065  -0.868  1.00  0.00     0.238 A 
ATOM     11  O   UNL     1      12.017   0.197  -1.788  1.00  0.00    -0.285 OA
ENDROOT
BRANCH   1  12
ATOM     12  O   UNL     1      15.100   0.723   3.774  1.00  0.00    -0.462 OA
BRANCH  12  13
ATOM     13  C   UNL     1      15.297   1.765   4.750  1.00  0.00     0.339 C 
ATOM     14  C   UNL     1      12.669   0.952   7.170  1.00  0.00     0.042 C 
ATOM     15  C   UNL     1      14.126   1.240   6.797  1.00  0.00     0.151 C 
ATOM     16  C   UNL     1      15.001  -0.052   6.871  1.00  0.00     0.174 C 
ATOM     17  O   UNL     1      14.123   1.914   5.543  1.00  0.00    -0.335 OA
ATOM     18  C   UNL     1      16.425   0.143   6.287  1.00  0.00     0.180 C 
ATOM     19  C   UNL     1      16.569   1.518   5.596  1.00  0.00     0.214 C 
BRANCH  16  20
ATOM     20  O   UNL     1      14.364  -1.125   6.200  1.00  0.00    -0.388 OA
ATOM     21  H   UNL     1      14.201  -1.854   6.844  1.00  0.00     0.211 HD
ENDBRANCH  16  20
BRANCH  18  22
ATOM     22  O   UNL     1      17.428  -0.149   7.245  1.00  0.00    -0.387 OA
ATOM     23  H   UNL     1      17.293   0.389   8.058  1.00  0.00     0.211 HD
ENDBRANCH  18  22
BRANCH  19  24
ATOM     24  O   UNL     1      16.779   2.614   6.475  1.00  0.00    -0.384 OA
ATOM     25  H   UNL     1      17.452   3.237   6.095  1.00  0.00     0.211 HD
ENDBRANCH  19  24
ENDBRANCH  12  13
ENDBRANCH   1  12
BRANCH   3  26
ATOM     26  O   UNL     1      14.652  -0.359  -0.921  1.00  0.00    -0.507 OA
ATOM     27  H   UNL     1      14.152  -0.535  -1.768  1.00  0.00     0.293 HD
ENDBRANCH   3  26
BRANCH   8  28
ATOM     28  C   UNL     1       9.919   4.112   0.139  1.00  0.00     0.021 A 
ATOM     29  C   UNL     1       9.366   4.626   1.333  1.00  0.00     0.016 A 
ATOM     30  C   UNL     1       9.770   4.855  -1.051  1.00  0.00     0.016 A 
ATOM     31  C   UNL     1       8.672   5.843   1.310  1.00  0.00     0.047 A 
ATOM     32  C   UNL     1       9.048   6.050  -1.065  1.00  0.00     0.047 A 
ATOM     33  C   UNL     1       8.501   6.562   0.115  1.00  0.00     0.115 A 
BRANCH  33  34
ATOM     34  O   UNL     1       7.875   7.814   0.102  1.00  0.00    -0.508 OA
ATOM     35  H   UNL     1       7.047   7.987   0.662  1.00  0.00     0.293 HD
ENDBRANCH  33  34
ENDBRANCH   8  28
BRANCH   9  36
ATOM     36  O   UNL     1       9.894   1.844  -1.816  1.00  0.00    -0.502 OA
ATOM     37  H   UNL     1       8.918   1.812  -1.578  1.00  0.00     0.293 HD
ENDBRANCH   9  36
TORSDOF 9
ENDMDL
MODEL 6
REMARK VINA RESULT:    -5.434      2.020      3.289
REMARK INTER + INTRA:          -8.164
REMARK INTER:                  -7.960
REMARK INTRA:                  -0.204
REMARK UNBOUND:                -0.824
REMARK SMILES C[C@@H]1O[C@H](Oc2cc(O)c3c(=O)c(O)c(-c4ccc(O)cc4)oc3c2)[C@@H](O)[C@@H](O)[C@@H]1O
REMARK SMILES IDX 6 1 7 2 8 3 10 4 24 5 25 6 23 7 15 8 13 9 11 10 12 11 5 12
REMARK SMILES IDX 4 13 1 14 2 15 30 16 3 17 28 18 26 19 31 20 29 22 27 24 9 26
REMARK SMILES IDX 16 28 17 29 22 30 18 31 21 32 19 33 20 34 14 36
REMARK H PARENT 31 21 29 23 27 25 9 27 20 35 14 37
REMARK Flexibility Score: inf
ROOT
ATOM      1  C   UNL     1      25.011  15.288   6.876  1.00  0.00     0.130 A 
ATOM      2  C   UNL     1      26.149  15.838   7.504  1.00  0.00     0.093 A 
ATOM      3  C   UNL     1      26.981  15.066   8.303  1.00  0.00     0.134 A 
ATOM      4  C   UNL     1      26.678  13.679   8.482  1.00  0.00     0.111 A 
ATOM      5  C   UNL     1      25.673  13.085   7.671  1.00  0.00     0.146 A 
ATOM      6  C   UNL     1      24.831  13.900   6.880  1.00  0.00     0.094 A 
ATOM      7  O   UNL     1      25.514  11.765   7.644  1.00  0.00    -0.452 OA
ATOM      8  C   UNL     1      26.186  10.933   8.429  1.00  0.00     0.180 A 
ATOM      9  C   UNL     1      27.022  11.461   9.442  1.00  0.00     0.208 A 
ATOM     10  C   UNL     1      27.305  12.836   9.448  1.00  0.00     0.238 A 
ATOM     11  O   UNL     1      28.058  13.299  10.353  1.00  0.00    -0.285 OA
ENDROOT
BRANCH   1  12
ATOM     12  O   UNL     1      24.037  16.099   6.266  1.00  0.00    -0.462 OA
BRANCH  12  13
ATOM     13  C   UNL     1      23.323  15.692   5.083  1.00  0.00     0.339 C 
ATOM     14  C   UNL     1      19.863  15.824   6.282  1.00  0.00     0.042 C 
ATOM     15  C   UNL     1      20.972  16.203   5.294  1.00  0.00     0.151 C 
ATOM     16  C   UNL     1      21.393  17.699   5.456  1.00  0.00     0.174 C 
ATOM     17  O   UNL     1      22.016  15.246   5.434  1.00  0.00    -0.335 OA
ATOM     18  C   UNL     1      22.660  18.065   4.638  1.00  0.00     0.180 C 
ATOM     19  C   UNL     1      23.311  16.811   4.013  1.00  0.00     0.214 C 
BRANCH  16  20
ATOM     20  O   UNL     1      21.612  18.010   6.820  1.00  0.00    -0.388 OA
ATOM     21  H   UNL     1      22.530  18.353   6.927  1.00  0.00     0.211 HD
ENDBRANCH  16  20
BRANCH  18  22
ATOM     22  O   UNL     1      22.408  19.121   3.728  1.00  0.00    -0.387 OA
ATOM     23  H   UNL     1      23.126  19.176   3.058  1.00  0.00     0.211 HD
ENDBRANCH  18  22
BRANCH  19  24
ATOM     24  O   UNL     1      22.685  16.334   2.830  1.00  0.00    -0.384 OA
ATOM     25  H   UNL     1      21.950  16.943   2.560  1.00  0.00     0.211 HD
ENDBRANCH  19  24
ENDBRANCH  12  13
ENDBRANCH   1  12
BRANCH   3  26
ATOM     26  O   UNL     1      28.094  15.710   8.874  1.00  0.00    -0.507 OA
ATOM     27  H   UNL     1      28.300  16.684   8.802  1.00  0.00     0.293 HD
ENDBRANCH   3  26
BRANCH   8  28
ATOM     28  C   UNL     1      26.064   9.476   8.153  1.00  0.00     0.021 A 
ATOM     29  C   UNL     1      25.057   8.999   7.285  1.00  0.00     0.016 A 
ATOM     30  C   UNL     1      27.077   8.586   8.567  1.00  0.00     0.016 A 
ATOM     31  C   UNL     1      25.073   7.661   6.868  1.00  0.00     0.047 A 
ATOM     32  C   UNL     1      27.063   7.247   8.170  1.00  0.00     0.047 A 
ATOM     33  C   UNL     1      26.069   6.773   7.309  1.00  0.00     0.115 A 
BRANCH  33  34
ATOM     34  O   UNL     1      26.132   5.457   6.836  1.00  0.00    -0.508 OA
ATOM     35  H   UNL     1      26.087   4.672   7.476  1.00  0.00     0.293 HD
ENDBRANCH  33  34
ENDBRANCH   8  28
BRANCH   9  36
ATOM     36  O   UNL     1      27.567  10.660  10.456  1.00  0.00    -0.502 OA
ATOM     37  H   UNL     1      28.557  10.608  10.620  1.00  0.00     0.293 HD
ENDBRANCH   9  36
TORSDOF 9
ENDMDL
MODEL 7
REMARK VINA RESULT:    -5.226     15.901     20.148
REMARK INTER + INTRA:          -7.883
REMARK INTER:                  -7.247
REMARK INTRA:                  -0.635
REMARK UNBOUND:                -0.824
REMARK SMILES C[C@@H]1O[C@H](Oc2cc(O)c3c(=O)c(O)c(-c4ccc(O)cc4)oc3c2)[C@@H](O)[C@@H](O)[C@@H]1O
REMARK SMILES IDX 6 1 7 2 8 3 10 4 24 5 25 6 23 7 15 8 13 9 11 10 12 11 5 12
REMARK SMILES IDX 4 13 1 14 2 15 30 16 3 17 28 18 26 19 31 20 29 22 27 24 9 26
REMARK SMILES IDX 16 28 17 29 22 30 18 31 21 32 19 33 20 34 14 36
REMARK H PARENT 31 21 29 23 27 25 9 27 20 35 14 37
REMARK Flexibility Score: inf
ROOT
ATOM      1  C   UNL     1      14.342   0.812   2.214  1.00  0.00     0.130 A 
ATOM      2  C   UNL     1      14.570   0.023   1.067  1.00  0.00     0.093 A 
ATOM      3  C   UNL     1      13.693   0.038  -0.009  1.00  0.00     0.134 A 
ATOM      4  C   UNL     1      12.539   0.882   0.048  1.00  0.00     0.111 A 
ATOM      5  C   UNL     1      12.437   1.836   1.097  1.00  0.00     0.146 A 
ATOM      6  C   UNL     1      13.336   1.785   2.187  1.00  0.00     0.094 A 
ATOM      7  O   UNL     1      11.505   2.783   1.066  1.00  0.00    -0.452 OA
ATOM      8  C   UNL     1      10.558   2.844   0.139  1.00  0.00     0.180 A 
ATOM      9  C   UNL     1      10.436   1.788  -0.796  1.00  0.00     0.208 A 
ATOM     10  C   UNL     1      11.450   0.821  -0.873  1.00  0.00     0.238 A 
ATOM     11  O   UNL     1      11.336  -0.116  -1.715  1.00  0.00    -0.285 OA
ENDROOT
BRANCH   1  12
ATOM     12  O   UNL     1      15.082   0.630   3.396  1.00  0.00    -0.462 OA
BRANCH  12  13
ATOM     13  C   UNL     1      14.739  -0.369   4.376  1.00  0.00     0.339 C 
ATOM     14  C   UNL     1      17.623  -0.155   6.626  1.00  0.00     0.042 C 
ATOM     15  C   UNL     1      16.116  -0.134   6.346  1.00  0.00     0.151 C 
ATOM     16  C   UNL     1      15.530   1.308   6.486  1.00  0.00     0.174 C 
ATOM     17  O   UNL     1      15.904  -0.770   5.090  1.00  0.00    -0.335 OA
ATOM     18  C   UNL     1      14.062   1.417   5.994  1.00  0.00     0.180 C 
ATOM     19  C   UNL     1      13.598   0.114   5.305  1.00  0.00     0.214 C 
BRANCH  16  20
ATOM     20  O   UNL     1      16.329   2.242   5.781  1.00  0.00    -0.388 OA
ATOM     21  H   UNL     1      16.301   2.025   4.820  1.00  0.00     0.211 HD
ENDBRANCH  16  20
BRANCH  18  22
ATOM     22  O   UNL     1      13.202   1.888   7.017  1.00  0.00    -0.387 OA
ATOM     23  H   UNL     1      12.518   2.488   6.642  1.00  0.00     0.211 HD
ENDBRANCH  18  22
BRANCH  19  24
ATOM     24  O   UNL     1      13.224  -0.934   6.189  1.00  0.00    -0.384 OA
ATOM     25  H   UNL     1      13.557  -0.747   7.105  1.00  0.00     0.211 HD
ENDBRANCH  19  24
ENDBRANCH  12  13
ENDBRANCH   1  12
BRANCH   3  26
ATOM     26  O   UNL     1      14.019  -0.778  -1.109  1.00  0.00    -0.507 OA
ATOM     27  H   UNL     1      13.694  -0.645  -2.045  1.00  0.00     0.293 HD
ENDBRANCH   3  26
BRANCH   8  28
ATOM     28  C   UNL     1       9.708   4.066   0.101  1.00  0.00     0.021 A 
ATOM     29  C   UNL     1       9.114   4.555   1.286  1.00  0.00     0.016 A 
ATOM     30  C   UNL     1       9.671   4.871  -1.057  1.00  0.00     0.016 A 
ATOM     31  C   UNL     1       8.490   5.810   1.285  1.00  0.00     0.047 A 
ATOM     32  C   UNL     1       9.018   6.105  -1.052  1.00  0.00     0.047 A 
ATOM     33  C   UNL     1       8.431   6.592   0.119  1.00  0.00     0.115 A 
BRANCH  33  34
ATOM     34  O   UNL     1       7.876   7.878   0.132  1.00  0.00    -0.508 OA
ATOM     35  H   UNL     1       8.001   8.489   0.932  1.00  0.00     0.293 HD
ENDBRANCH  33  34
ENDBRANCH   8  28
BRANCH   9  36
ATOM     36  O   UNL     1       9.323   1.661  -1.640  1.00  0.00    -0.502 OA
ATOM     37  H   UNL     1       9.242   0.912  -2.306  1.00  0.00     0.293 HD
ENDBRANCH   9  36
TORSDOF 9
ENDMDL
MODEL 8
REMARK VINA RESULT:    -5.214      1.793      2.456
REMARK INTER + INTRA:          -7.867
REMARK INTER:                  -7.579
REMARK INTRA:                  -0.288
REMARK UNBOUND:                -0.824
REMARK SMILES C[C@@H]1O[C@H](Oc2cc(O)c3c(=O)c(O)c(-c4ccc(O)cc4)oc3c2)[C@@H](O)[C@@H](O)[C@@H]1O
REMARK SMILES IDX 6 1 7 2 8 3 10 4 24 5 25 6 23 7 15 8 13 9 11 10 12 11 5 12
REMARK SMILES IDX 4 13 1 14 2 15 30 16 3 17 28 18 26 19 31 20 29 22 27 24 9 26
REMARK SMILES IDX 16 28 17 29 22 30 18 31 21 32 19 33 20 34 14 36
REMARK H PARENT 31 21 29 23 27 25 9 27 20 35 14 37
REMARK Flexibility Score: inf
ROOT
ATOM      1  C   UNL     1      24.860  15.138   6.638  1.00  0.00     0.130 A 
ATOM      2  C   UNL     1      25.901  15.826   7.296  1.00  0.00     0.093 A 
ATOM      3  C   UNL     1      26.742  15.183   8.193  1.00  0.00     0.134 A 
ATOM      4  C   UNL     1      26.551  13.788   8.445  1.00  0.00     0.111 A 
ATOM      5  C   UNL     1      25.657  13.056   7.615  1.00  0.00     0.146 A 
ATOM      6  C   UNL     1      24.801  13.743   6.722  1.00  0.00     0.094 A 
ATOM      7  O   UNL     1      25.615  11.729   7.665  1.00  0.00    -0.452 OA
ATOM      8  C   UNL     1      26.304  11.010   8.543  1.00  0.00     0.180 A 
ATOM      9  C   UNL     1      27.022  11.672   9.567  1.00  0.00     0.208 A 
ATOM     10  C   UNL     1      27.183  13.065   9.500  1.00  0.00     0.238 A 
ATOM     11  O   UNL     1      27.832  13.648  10.417  1.00  0.00    -0.285 OA
ENDROOT
BRANCH   1  12
ATOM     12  O   UNL     1      23.861  15.820   5.919  1.00  0.00    -0.462 OA
BRANCH  12  13
ATOM     13  C   UNL     1      23.414  17.141   6.281  1.00  0.00     0.339 C 
ATOM     14  C   UNL     1      24.704  19.104   3.469  1.00  0.00     0.042 C 
ATOM     15  C   UNL     1      23.573  18.637   4.391  1.00  0.00     0.151 C 
ATOM     16  C   UNL     1      22.591  17.674   3.649  1.00  0.00     0.174 C 
ATOM     17  O   UNL     1      24.171  18.120   5.575  1.00  0.00    -0.335 OA
ATOM     18  C   UNL     1      21.566  17.002   4.599  1.00  0.00     0.180 C 
ATOM     19  C   UNL     1      21.887  17.299   6.080  1.00  0.00     0.214 C 
BRANCH  16  20
ATOM     20  O   UNL     1      23.309  16.672   2.951  1.00  0.00    -0.388 OA
ATOM     21  H   UNL     1      24.234  16.983   2.805  1.00  0.00     0.211 HD
ENDBRANCH  16  20
BRANCH  18  22
ATOM     22  O   UNL     1      20.232  17.283   4.211  1.00  0.00    -0.387 OA
ATOM     23  H   UNL     1      19.649  16.513   4.401  1.00  0.00     0.211 HD
ENDBRANCH  18  22
BRANCH  19  24
ATOM     24  O   UNL     1      21.474  18.578   6.540  1.00  0.00    -0.384 OA
ATOM     25  H   UNL     1      21.255  18.542   7.508  1.00  0.00     0.211 HD
ENDBRANCH  19  24
ENDBRANCH  12  13
ENDBRANCH   1  12
BRANCH   3  26
ATOM     26  O   UNL     1      27.756  15.958   8.787  1.00  0.00    -0.507 OA
ATOM     27  H   UNL     1      27.650  16.520   9.607  1.00  0.00     0.293 HD
ENDBRANCH   3  26
BRANCH   8  28
ATOM     28  C   UNL     1      26.328   9.534   8.356  1.00  0.00     0.021 A 
ATOM     29  C   UNL     1      25.277   8.888   7.667  1.00  0.00     0.016 A 
ATOM     30  C   UNL     1      27.492   8.797   8.658  1.00  0.00     0.016 A 
ATOM     31  C   UNL     1      25.402   7.536   7.316  1.00  0.00     0.047 A 
ATOM     32  C   UNL     1      27.590   7.443   8.331  1.00  0.00     0.047 A 
ATOM     33  C   UNL     1      26.553   6.801   7.648  1.00  0.00     0.115 A 
BRANCH  33  34
ATOM     34  O   UNL     1      26.714   5.474   7.233  1.00  0.00    -0.508 OA
ATOM     35  H   UNL     1      27.231   5.253   6.389  1.00  0.00     0.293 HD
ENDBRANCH  33  34
ENDBRANCH   8  28
BRANCH   9  36
ATOM     36  O   UNL     1      27.566  10.986  10.663  1.00  0.00    -0.502 OA
ATOM     37  H   UNL     1      27.923  10.050  10.582  1.00  0.00     0.293 HD
ENDBRANCH   9  36
TORSDOF 9
ENDMDL
