MODEL 1
REMARK VINA RESULT:    42.026      0.000      0.000
REMARK INTER + INTRA:          47.882
REMARK INTER:                  48.168
REMARK INTRA:                  -0.286
REMARK UNBOUND:                -0.286
REMARK SMILES O=C1C[C@H](c2ccc(O)cc2)Oc2cc(O)cc(O)c21
REMARK SMILES IDX 3 1 4 2 12 3 13 4 14 5 15 6 17 7 18 8 20 9 2 10 1 11 5 12
REMARK SMILES IDX 6 13 11 14 7 15 10 16 8 17 9 18 19 20 16 22
REMARK H PARENT 9 19 19 21 16 23
REMARK Flexibility Score: inf
ROOT
ATOM      1  C   UNL     1     -37.970  27.162  -5.699  1.00  0.00     0.131 C 
ATOM      2  C   UNL     1     -36.548  27.236  -5.121  1.00  0.00     0.211 C 
ATOM      3  O   UNL     1     -35.833  26.026  -5.387  1.00  0.00    -0.484 OA
ATOM      4  C   UNL     1     -36.425  24.767  -5.241  1.00  0.00     0.138 A 
ATOM      5  C   UNL     1     -35.616  23.629  -5.192  1.00  0.00     0.093 A 
ATOM      6  C   UNL     1     -36.188  22.365  -5.022  1.00  0.00     0.123 A 
ATOM      7  C   UNL     1     -37.578  22.238  -4.909  1.00  0.00     0.093 A 
ATOM      8  C   UNL     1     -38.402  23.371  -4.974  1.00  0.00     0.133 A 
ATOM      9  C   UNL     1     -37.826  24.648  -5.147  1.00  0.00     0.102 A 
ATOM     10  C   UNL     1     -38.635  25.884  -5.270  1.00  0.00     0.174 C 
ATOM     11  O   UNL     1     -39.880  25.872  -5.073  1.00  0.00    -0.294 OA
ENDROOT
BRANCH   2  12
ATOM     12  C   UNL     1     -35.798  28.414  -5.695  1.00  0.00    -0.007 A 
ATOM     13  C   UNL     1     -35.889  28.711  -7.065  1.00  0.00     0.011 A 
ATOM     14  C   UNL     1     -34.967  29.199  -4.876  1.00  0.00     0.011 A 
ATOM     15  C   UNL     1     -35.177  29.788  -7.603  1.00  0.00     0.046 A 
ATOM     16  C   UNL     1     -34.254  30.273  -5.418  1.00  0.00     0.046 A 
ATOM     17  C   UNL     1     -34.358  30.573  -6.780  1.00  0.00     0.115 A 
BRANCH  17  18
ATOM     18  O   UNL     1     -33.646  31.649  -7.303  1.00  0.00    -0.508 OA
ATOM     19  H   UNL     1     -32.685  31.829  -7.035  1.00  0.00     0.293 HD
ENDBRANCH  17  18
ENDBRANCH   2  12
BRANCH   8  20
ATOM     20  O   UNL     1     -39.786  23.222  -4.877  1.00  0.00    -0.507 OA
ATOM     21  H   UNL     1     -40.414  23.628  -5.560  1.00  0.00     0.293 HD
ENDBRANCH   8  20
BRANCH   6  22
ATOM     22  O   UNL     1     -35.365  21.242  -4.965  1.00  0.00    -0.508 OA
ATOM     23  H   UNL     1     -34.871  20.905  -5.783  1.00  0.00     0.293 HD
ENDBRANCH   6  22
TORSDOF 4
ENDMDL
MODEL 2
REMARK VINA RESULT:    42.378      1.775      6.629
REMARK INTER + INTRA:          48.286
REMARK INTER:                  48.597
REMARK INTRA:                  -0.311
REMARK UNBOUND:                -0.286
REMARK SMILES O=C1C[C@H](c2ccc(O)cc2)Oc2cc(O)cc(O)c21
REMARK SMILES IDX 3 1 4 2 12 3 13 4 14 5 15 6 17 7 18 8 20 9 2 10 1 11 5 12
REMARK SMILES IDX 6 13 11 14 7 15 10 16 8 17 9 18 19 20 16 22
REMARK H PARENT 9 19 19 21 16 23
REMARK Flexibility Score: inf
ROOT
ATOM      1  C   UNL     1     -38.162  27.025  -5.717  1.00  0.00     0.131 C 
ATOM      2  C   UNL     1     -36.819  26.441  -6.185  1.00  0.00     0.211 C 
ATOM      3  O   UNL     1     -35.727  27.154  -5.596  1.00  0.00    -0.484 OA
ATOM      4  C   UNL     1     -35.720  28.549  -5.495  1.00  0.00     0.138 A 
ATOM      5  C   UNL     1     -34.521  29.211  -5.219  1.00  0.00     0.093 A 
ATOM      6  C   UNL     1     -34.489  30.606  -5.140  1.00  0.00     0.123 A 
ATOM      7  C   UNL     1     -35.666  31.342  -5.327  1.00  0.00     0.093 A 
ATOM      8  C   UNL     1     -36.880  30.688  -5.587  1.00  0.00     0.133 A 
ATOM      9  C   UNL     1     -36.913  29.280  -5.667  1.00  0.00     0.102 A 
ATOM     10  C   UNL     1     -38.164  28.517  -5.892  1.00  0.00     0.174 C 
ATOM     11  O   UNL     1     -39.243  29.104  -6.176  1.00  0.00    -0.294 OA
ENDROOT
BRANCH   2  12
ATOM     12  C   UNL     1     -36.724  24.975  -5.840  1.00  0.00    -0.007 A 
ATOM     13  C   UNL     1     -35.591  24.476  -5.176  1.00  0.00     0.011 A 
ATOM     14  C   UNL     1     -37.745  24.085  -6.217  1.00  0.00     0.011 A 
ATOM     15  C   UNL     1     -35.490  23.114  -4.876  1.00  0.00     0.046 A 
ATOM     16  C   UNL     1     -37.640  22.723  -5.918  1.00  0.00     0.046 A 
ATOM     17  C   UNL     1     -36.516  22.234  -5.245  1.00  0.00     0.115 A 
BRANCH  17  18
ATOM     18  O   UNL     1     -36.429  20.875  -4.950  1.00  0.00    -0.508 OA
ATOM     19  H   UNL     1     -36.772  20.501  -4.073  1.00  0.00     0.293 HD
ENDBRANCH  17  18
ENDBRANCH   2  12
BRANCH   8  20
ATOM     20  O   UNL     1     -38.044  31.438  -5.754  1.00  0.00    -0.507 OA
ATOM     21  H   UNL     1     -38.958  31.059  -5.536  1.00  0.00     0.293 HD
ENDBRANCH   8  20
BRANCH   6  22
ATOM     22  O   UNL     1     -33.283  31.251  -4.875  1.00  0.00    -0.508 OA
ATOM     23  H   UNL     1     -32.986  31.451  -3.927  1.00  0.00     0.293 HD
ENDBRANCH   6  22
TORSDOF 4
ENDMDL
MODEL 3
REMARK VINA RESULT:    43.291      1.921      7.145
REMARK INTER + INTRA:          49.332
REMARK INTER:                  49.643
REMARK INTRA:                  -0.311
REMARK UNBOUND:                -0.286
REMARK SMILES O=C1C[C@H](c2ccc(O)cc2)Oc2cc(O)cc(O)c21
REMARK SMILES IDX 3 1 4 2 12 3 13 4 14 5 15 6 17 7 18 8 20 9 2 10 1 11 5 12
REMARK SMILES IDX 6 13 11 14 7 15 10 16 8 17 9 18 19 20 16 22
REMARK H PARENT 9 19 19 21 16 23
REMARK Flexibility Score: inf
ROOT
ATOM      1  C   UNL     1     -35.929  25.234  -6.074  1.00  0.00     0.131 C 
ATOM      2  C   UNL     1     -36.926  25.331  -4.908  1.00  0.00     0.211 C 
ATOM      3  O   UNL     1     -37.644  26.568  -4.961  1.00  0.00    -0.484 OA
ATOM      4  C   UNL     1     -37.010  27.781  -5.251  1.00  0.00     0.138 A 
ATOM      5  C   UNL     1     -37.669  28.982  -4.975  1.00  0.00     0.093 A 
ATOM      6  C   UNL     1     -37.043  30.204  -5.235  1.00  0.00     0.123 A 
ATOM      7  C   UNL     1     -35.754  30.224  -5.783  1.00  0.00     0.093 A 
ATOM      8  C   UNL     1     -35.089  29.025  -6.081  1.00  0.00     0.133 A 
ATOM      9  C   UNL     1     -35.721  27.791  -5.819  1.00  0.00     0.102 A 
ATOM     10  C   UNL     1     -35.101  26.485  -6.149  1.00  0.00     0.174 C 
ATOM     11  O   UNL     1     -33.906  26.412  -6.543  1.00  0.00    -0.294 OA
ENDROOT
BRANCH   2  12
ATOM     12  C   UNL     1     -37.894  24.172  -4.934  1.00  0.00    -0.007 A 
ATOM     13  C   UNL     1     -39.278  24.405  -4.876  1.00  0.00     0.011 A 
ATOM     14  C   UNL     1     -37.421  22.849  -4.970  1.00  0.00     0.011 A 
ATOM     15  C   UNL     1     -40.175  23.331  -4.876  1.00  0.00     0.046 A 
ATOM     16  C   UNL     1     -38.320  21.778  -4.968  1.00  0.00     0.046 A 
ATOM     17  C   UNL     1     -39.698  22.015  -4.924  1.00  0.00     0.115 A 
BRANCH  17  18
ATOM     18  O   UNL     1     -40.581  20.938  -4.926  1.00  0.00    -0.508 OA
ATOM     19  H   UNL     1     -40.703  20.350  -4.109  1.00  0.00     0.293 HD
ENDBRANCH  17  18
ENDBRANCH   2  12
BRANCH   8  20
ATOM     20  O   UNL     1     -33.813  29.067  -6.642  1.00  0.00    -0.507 OA
ATOM     21  H   UNL     1     -33.297  28.221  -6.855  1.00  0.00     0.293 HD
ENDBRANCH   8  20
BRANCH   6  22
ATOM     22  O   UNL     1     -37.710  31.393  -4.944  1.00  0.00    -0.508 OA
ATOM     23  H   UNL     1     -38.721  31.435  -4.900  1.00  0.00     0.293 HD
ENDBRANCH   6  22
TORSDOF 4
ENDMDL
MODEL 4
REMARK VINA RESULT:    43.974      1.435      2.183
REMARK INTER + INTRA:          50.115
REMARK INTER:                  50.429
REMARK INTRA:                  -0.314
REMARK UNBOUND:                -0.286
REMARK SMILES O=C1C[C@H](c2ccc(O)cc2)Oc2cc(O)cc(O)c21
REMARK SMILES IDX 3 1 4 2 12 3 13 4 14 5 15 6 17 7 18 8 20 9 2 10 1 11 5 12
REMARK SMILES IDX 6 13 11 14 7 15 10 16 8 17 9 18 19 20 16 22
REMARK H PARENT 9 19 19 21 16 23
REMARK Flexibility Score: inf
ROOT
ATOM      1  C   UNL     1     -38.309  25.219  -5.988  1.00  0.00     0.131 C 
ATOM      2  C   UNL     1     -37.119  25.908  -5.301  1.00  0.00     0.211 C 
ATOM      3  O   UNL     1     -35.924  25.141  -5.474  1.00  0.00    -0.484 OA
ATOM      4  C   UNL     1     -35.911  23.748  -5.339  1.00  0.00     0.138 A 
ATOM      5  C   UNL     1     -34.691  23.084  -5.193  1.00  0.00     0.093 A 
ATOM      6  C   UNL     1     -34.659  21.696  -5.033  1.00  0.00     0.123 A 
ATOM      7  C   UNL     1     -35.855  20.968  -5.027  1.00  0.00     0.093 A 
ATOM      8  C   UNL     1     -37.086  21.620  -5.190  1.00  0.00     0.133 A 
ATOM      9  C   UNL     1     -37.119  23.022  -5.353  1.00  0.00     0.102 A 
ATOM     10  C   UNL     1     -38.376  23.775  -5.576  1.00  0.00     0.174 C 
ATOM     11  O   UNL     1     -39.500  23.213  -5.478  1.00  0.00    -0.294 OA
ENDROOT
BRANCH   2  12
ATOM     12  C   UNL     1     -36.920  27.301  -5.848  1.00  0.00    -0.007 A 
ATOM     13  C   UNL     1     -35.627  27.840  -5.960  1.00  0.00     0.011 A 
ATOM     14  C   UNL     1     -38.026  28.091  -6.208  1.00  0.00     0.011 A 
ATOM     15  C   UNL     1     -35.443  29.139  -6.445  1.00  0.00     0.046 A 
ATOM     16  C   UNL     1     -37.838  29.391  -6.689  1.00  0.00     0.046 A 
ATOM     17  C   UNL     1     -36.548  29.917  -6.812  1.00  0.00     0.115 A 
BRANCH  17  18
ATOM     18  O   UNL     1     -36.377  31.211  -7.298  1.00  0.00    -0.508 OA
ATOM     19  H   UNL     1     -36.120  31.977  -6.685  1.00  0.00     0.293 HD
ENDBRANCH  17  18
ENDBRANCH   2  12
BRANCH   8  20
ATOM     20  O   UNL     1     -38.265  20.875  -5.198  1.00  0.00    -0.507 OA
ATOM     21  H   UNL     1     -38.821  20.748  -4.361  1.00  0.00     0.293 HD
ENDBRANCH   8  20
BRANCH   6  22
ATOM     22  O   UNL     1     -33.433  21.051  -4.877  1.00  0.00    -0.508 OA
ATOM     23  H   UNL     1     -32.977  20.588  -5.654  1.00  0.00     0.293 HD
ENDBRANCH   6  22
TORSDOF 4
ENDMDL
