MODEL 1
REMARK VINA RESULT:    -3.080      0.000      0.000
REMARK INTER + INTRA:          -3.080
REMARK INTER:                  -3.080
REMARK INTRA:                   0.000
REMARK UNBOUND:                 0.000
REMARK SMILES CC(=O)[O-]
REMARK SMILES IDX 1 1 2 2 3 3 4 4
REMARK H PARENT
REMARK Flexibility Score: inf
ROOT
ATOM      1  C   UNL     1       8.440  33.598  35.726  1.00  0.00     0.063 C 
ATOM      2  C   UNL     1       7.203  33.751  36.545  1.00  0.00     0.038 C 
ATOM      3  O   UNL     1       6.131  34.125  36.003  1.00  0.00    -0.550 OA
ATOM      4  O   UNL     1       7.244  33.533  37.915  1.00  0.00    -0.550 OA
ENDROOT
TORSDOF 0
ENDMDL
MODEL 2
REMARK VINA RESULT:    -3.074      1.170      2.014
REMARK INTER + INTRA:          -3.074
REMARK INTER:                  -3.074
REMARK INTRA:                   0.000
REMARK UNBOUND:                 0.000
REMARK SMILES CC(=O)[O-]
REMARK SMILES IDX 1 1 2 2 3 3 4 4
REMARK H PARENT
REMARK Flexibility Score: inf
ROOT
ATOM      1  C   UNL     1       8.334  33.455  35.656  1.00  0.00     0.063 C 
ATOM      2  C   UNL     1       6.880  33.689  35.427  1.00  0.00     0.038 C 
ATOM      3  O   UNL     1       6.156  34.125  36.360  1.00  0.00    -0.550 OA
ATOM      4  O   UNL     1       6.309  33.377  34.201  1.00  0.00    -0.550 OA
ENDROOT
TORSDOF 0
ENDMDL
MODEL 3
REMARK VINA RESULT:    -2.981      2.354      2.905
REMARK INTER + INTRA:          -2.981
REMARK INTER:                  -2.981
REMARK INTRA:                   0.000
REMARK UNBOUND:                 0.000
REMARK SMILES CC(=O)[O-]
REMARK SMILES IDX 1 1 2 2 3 3 4 4
REMARK H PARENT
REMARK Flexibility Score: inf
ROOT
ATOM      1  C   UNL     1       7.663  32.517  36.742  1.00  0.00     0.063 C 
ATOM      2  C   UNL     1       7.524  31.654  37.950  1.00  0.00     0.038 C 
ATOM      3  O   UNL     1       7.008  32.118  39.000  1.00  0.00    -0.550 OA
ATOM      4  O   UNL     1       8.013  30.354  37.938  1.00  0.00    -0.550 OA
ENDROOT
TORSDOF 0
ENDMDL
MODEL 4
REMARK VINA RESULT:    -2.979      1.978      2.302
REMARK INTER + INTRA:          -2.979
REMARK INTER:                  -2.979
REMARK INTRA:                   0.000
REMARK UNBOUND:                 0.000
REMARK SMILES CC(=O)[O-]
REMARK SMILES IDX 1 1 2 2 3 3 4 4
REMARK H PARENT
REMARK Flexibility Score: inf
ROOT
ATOM      1  C   UNL     1       7.581  32.968  36.735  1.00  0.00     0.063 C 
ATOM      2  C   UNL     1       7.518  33.050  35.247  1.00  0.00     0.038 C 
ATOM      3  O   UNL     1       6.452  33.408  34.680  1.00  0.00    -0.550 OA
ATOM      4  O   UNL     1       8.615  32.681  34.482  1.00  0.00    -0.550 OA
ENDROOT
TORSDOF 0
ENDMDL
MODEL 5
REMARK VINA RESULT:    -2.873      1.427      1.784
REMARK INTER + INTRA:          -2.873
REMARK INTER:                  -2.873
REMARK INTRA:                   0.000
REMARK UNBOUND:                 0.000
REMARK SMILES CC(=O)[O-]
REMARK SMILES IDX 1 1 2 2 3 3 4 4
REMARK H PARENT
REMARK Flexibility Score: inf
ROOT
ATOM      1  C   UNL     1       6.853  33.420  35.246  1.00  0.00     0.063 C 
ATOM      2  C   UNL     1       7.708  33.255  36.456  1.00  0.00     0.038 C 
ATOM      3  O   UNL     1       8.882  32.817  36.343  1.00  0.00    -0.550 OA
ATOM      4  O   UNL     1       7.194  33.533  37.715  1.00  0.00    -0.550 OA
ENDROOT
TORSDOF 0
ENDMDL
MODEL 6
REMARK VINA RESULT:    -2.850     19.432     19.853
REMARK INTER + INTRA:          -2.850
REMARK INTER:                  -2.850
REMARK INTRA:                   0.000
REMARK UNBOUND:                 0.000
REMARK SMILES CC(=O)[O-]
REMARK SMILES IDX 1 1 2 2 3 3 4 4
REMARK H PARENT
REMARK Flexibility Score: inf
ROOT
ATOM      1  C   UNL     1      15.367  14.325  37.518  1.00  0.00     0.063 C 
ATOM      2  C   UNL     1      15.455  15.813  37.478  1.00  0.00     0.038 C 
ATOM      3  O   UNL     1      16.570  16.373  37.308  1.00  0.00    -0.550 OA
ATOM      4  O   UNL     1      14.319  16.585  37.679  1.00  0.00    -0.550 OA
ENDROOT
TORSDOF 0
ENDMDL
MODEL 7
REMARK VINA RESULT:    -2.823      7.496      7.828
REMARK INTER + INTRA:          -2.823
REMARK INTER:                  -2.823
REMARK INTRA:                   0.000
REMARK UNBOUND:                 0.000
REMARK SMILES CC(=O)[O-]
REMARK SMILES IDX 1 1 2 2 3 3 4 4
REMARK H PARENT
REMARK Flexibility Score: inf
ROOT
ATOM      1  C   UNL     1       2.871  26.643  37.164  1.00  0.00     0.063 C 
ATOM      2  C   UNL     1       4.275  26.919  36.745  1.00  0.00     0.038 C 
ATOM      3  O   UNL     1       5.106  27.363  37.579  1.00  0.00    -0.550 OA
ATOM      4  O   UNL     1       4.656  26.739  35.422  1.00  0.00    -0.550 OA
ENDROOT
TORSDOF 0
ENDMDL
MODEL 8
REMARK VINA RESULT:    -2.802      8.876      9.122
REMARK INTER + INTRA:          -2.802
REMARK INTER:                  -2.802
REMARK INTRA:                   0.000
REMARK UNBOUND:                 0.000
REMARK SMILES CC(=O)[O-]
REMARK SMILES IDX 1 1 2 2 3 3 4 4
REMARK H PARENT
REMARK Flexibility Score: inf
ROOT
ATOM      1  C   UNL     1       2.706  26.640  36.799  1.00  0.00     0.063 C 
ATOM      2  C   UNL     1       1.579  26.823  37.758  1.00  0.00     0.038 C 
ATOM      3  O   UNL     1       1.233  25.877  38.512  1.00  0.00    -0.550 OA
ATOM      4  O   UNL     1       0.875  28.019  37.785  1.00  0.00    -0.550 OA
ENDROOT
TORSDOF 0
ENDMDL
MODEL 9
REMARK VINA RESULT:    -2.742      5.172      5.802
REMARK INTER + INTRA:          -2.742
REMARK INTER:                  -2.742
REMARK INTRA:                   0.000
REMARK UNBOUND:                 0.000
REMARK SMILES CC(=O)[O-]
REMARK SMILES IDX 1 1 2 2 3 3 4 4
REMARK H PARENT
REMARK Flexibility Score: inf
ROOT
ATOM      1  C   UNL     1      10.028  30.214  31.676  1.00  0.00     0.063 C 
ATOM      2  C   UNL     1       9.153  31.385  31.973  1.00  0.00     0.038 C 
ATOM      3  O   UNL     1       9.200  31.936  33.104  1.00  0.00    -0.550 OA
ATOM      4  O   UNL     1       8.247  31.837  31.023  1.00  0.00    -0.550 OA
ENDROOT
TORSDOF 0
ENDMDL
