MODEL 1
REMARK VINA RESULT:    -3.493      0.000      0.000
REMARK INTER + INTRA:          -8.150
REMARK INTER:                  -6.147
REMARK INTRA:                  -2.002
REMARK UNBOUND:                -2.002
REMARK SMILES CCCCCCCCCCCCCCC(=O)[O-]
REMARK SMILES IDX 9 1 10 2 11 3 12 4 13 5 14 6 15 7 16 8 17 9 8 10 7 11 6 12
REMARK SMILES IDX 5 13 4 14 3 15 2 16 1 17
REMARK H PARENT
REMARK Flexibility Score: inf
ROOT
ATOM      1  C   UNL     1      26.043   8.528  26.991  1.00  0.00     0.000 C 
ENDROOT
BRANCH   1   2
ATOM      2  C   UNL     1      27.219   8.567  26.000  1.00  0.00     0.000 C 
BRANCH   2   3
ATOM      3  C   UNL     1      28.588   8.562  26.698  1.00  0.00     0.000 C 
BRANCH   3   4
ATOM      4  C   UNL     1      28.423   8.539  28.226  1.00  0.00     0.000 C 
BRANCH   4   5
ATOM      5  C   UNL     1      29.638   9.128  28.961  1.00  0.00     0.006 C 
BRANCH   5   6
ATOM      6  C   UNL     1      29.876  10.605  28.619  1.00  0.00     0.053 C 
BRANCH   6   7
ATOM      7  C   UNL     1      30.198  11.381  29.855  1.00  0.00     0.041 C 
ATOM      8  O   UNL     1      30.896  10.863  30.767  1.00  0.00    -0.550 OA
ATOM      9  O   UNL     1      29.691  12.664  30.023  1.00  0.00    -0.550 OA
ENDBRANCH   6   7
ENDBRANCH   5   6
ENDBRANCH   4   5
ENDBRANCH   3   4
ENDBRANCH   2   3
ENDBRANCH   1   2
BRANCH   1  10
ATOM     10  C   UNL     1      24.897   7.618  26.515  1.00  0.00     0.000 C 
BRANCH  10  11
ATOM     11  C   UNL     1      24.522   6.537  27.546  1.00  0.00    -0.000 C 
BRANCH  11  12
ATOM     12  C   UNL     1      25.569   6.292  28.648  1.00  0.00    -0.000 C 
BRANCH  12  13
ATOM     13  C   UNL     1      25.747   4.802  28.990  1.00  0.00    -0.000 C 
BRANCH  13  14
ATOM     14  C   UNL     1      26.682   4.080  27.996  1.00  0.00    -0.000 C 
BRANCH  14  15
ATOM     15  C   UNL     1      27.813   4.973  27.447  1.00  0.00    -0.000 C 
BRANCH  15  16
ATOM     16  C   UNL     1      28.209   4.686  25.989  1.00  0.00    -0.003 C 
ATOM     17  C   UNL     1      27.109   5.050  24.991  1.00  0.00     0.004 C 
ENDBRANCH  15  16
ENDBRANCH  14  15
ENDBRANCH  13  14
ENDBRANCH  12  13
ENDBRANCH  11  12
ENDBRANCH  10  11
ENDBRANCH   1  10
TORSDOF 13
ENDMDL
MODEL 2
REMARK VINA RESULT:    -3.468     14.279     16.391
REMARK INTER + INTRA:          -8.107
REMARK INTER:                  -5.758
REMARK INTRA:                  -2.349
REMARK UNBOUND:                -2.002
REMARK SMILES CCCCCCCCCCCCCCC(=O)[O-]
REMARK SMILES IDX 9 1 10 2 11 3 12 4 13 5 14 6 15 7 16 8 17 9 8 10 7 11 6 12
REMARK SMILES IDX 5 13 4 14 3 15 2 16 1 17
REMARK H PARENT
REMARK Flexibility Score: inf
ROOT
ATOM      1  C   UNL     1      17.469  14.884  15.224  1.00  0.00     0.000 C 
ENDROOT
BRANCH   1   2
ATOM      2  C   UNL     1      16.927  15.682  16.422  1.00  0.00     0.000 C 
BRANCH   2   3
ATOM      3  C   UNL     1      17.447  17.126  16.461  1.00  0.00     0.000 C 
BRANCH   3   4
ATOM      4  C   UNL     1      17.979  17.479  17.859  1.00  0.00     0.000 C 
BRANCH   4   5
ATOM      5  C   UNL     1      17.605  16.430  18.918  1.00  0.00     0.006 C 
BRANCH   5   6
ATOM      6  C   UNL     1      17.381  17.046  20.305  1.00  0.00     0.053 C 
BRANCH   6   7
ATOM      7  C   UNL     1      17.898  16.133  21.371  1.00  0.00     0.041 C 
ATOM      8  O   UNL     1      18.650  15.168  21.071  1.00  0.00    -0.550 OA
ATOM      9  O   UNL     1      17.513  16.320  22.693  1.00  0.00    -0.550 OA
ENDBRANCH   6   7
ENDBRANCH   5   6
ENDBRANCH   4   5
ENDBRANCH   3   4
ENDBRANCH   2   3
ENDBRANCH   1   2
BRANCH   1  10
ATOM     10  C   UNL     1      18.027  15.789  14.112  1.00  0.00     0.000 C 
BRANCH  10  11
ATOM     11  C   UNL     1      19.523  15.549  13.837  1.00  0.00    -0.000 C 
BRANCH  11  12
ATOM     12  C   UNL     1      20.450  16.729  14.185  1.00  0.00    -0.000 C 
BRANCH  12  13
ATOM     13  C   UNL     1      21.049  16.628  15.598  1.00  0.00    -0.000 C 
BRANCH  13  14
ATOM     14  C   UNL     1      21.084  15.175  16.118  1.00  0.00    -0.000 C 
BRANCH  14  15
ATOM     15  C   UNL     1      20.874  15.055  17.641  1.00  0.00    -0.000 C 
BRANCH  15  16
ATOM     16  C   UNL     1      20.039  13.841  18.081  1.00  0.00    -0.003 C 
ATOM     17  C   UNL     1      19.886  12.793  16.979  1.00  0.00     0.004 C 
ENDBRANCH  15  16
ENDBRANCH  14  15
ENDBRANCH  13  14
ENDBRANCH  12  13
ENDBRANCH  11  12
ENDBRANCH  10  11
ENDBRANCH   1  10
TORSDOF 13
ENDMDL
MODEL 3
REMARK VINA RESULT:    -3.395     14.153     16.375
REMARK INTER + INTRA:          -7.977
REMARK INTER:                  -5.876
REMARK INTRA:                  -2.101
REMARK UNBOUND:                -2.002
REMARK SMILES CCCCCCCCCCCCCCC(=O)[O-]
REMARK SMILES IDX 9 1 10 2 11 3 12 4 13 5 14 6 15 7 16 8 17 9 8 10 7 11 6 12
REMARK SMILES IDX 5 13 4 14 3 15 2 16 1 17
REMARK H PARENT
REMARK Flexibility Score: inf
ROOT
ATOM      1  C   UNL     1      20.570  14.716  17.336  1.00  0.00     0.000 C 
ENDROOT
BRANCH   1   2
ATOM      2  C   UNL     1      20.527  13.806  18.576  1.00  0.00     0.000 C 
BRANCH   2   3
ATOM      3  C   UNL     1      20.021  14.533  19.832  1.00  0.00     0.000 C 
BRANCH   3   4
ATOM      4  C   UNL     1      19.122  15.719  19.453  1.00  0.00     0.000 C 
BRANCH   4   5
ATOM      5  C   UNL     1      17.959  15.919  20.438  1.00  0.00     0.006 C 
BRANCH   5   6
ATOM      6  C   UNL     1      17.240  17.260  20.237  1.00  0.00     0.053 C 
BRANCH   6   7
ATOM      7  C   UNL     1      16.859  17.850  21.557  1.00  0.00     0.041 C 
ATOM      8  O   UNL     1      16.840  19.099  21.713  1.00  0.00    -0.550 OA
ATOM      9  O   UNL     1      16.566  17.018  22.632  1.00  0.00    -0.550 OA
ENDBRANCH   6   7
ENDBRANCH   5   6
ENDBRANCH   4   5
ENDBRANCH   3   4
ENDBRANCH   2   3
ENDBRANCH   1   2
BRANCH   1  10
ATOM     10  C   UNL     1      20.074  14.007  16.064  1.00  0.00     0.000 C 
BRANCH  10  11
ATOM     11  C   UNL     1      18.555  13.753  16.071  1.00  0.00    -0.000 C 
BRANCH  11  12
ATOM     12  C   UNL     1      17.708  14.830  15.368  1.00  0.00    -0.000 C 
BRANCH  12  13
ATOM     13  C   UNL     1      16.828  15.634  16.341  1.00  0.00    -0.000 C 
BRANCH  13  14
ATOM     14  C   UNL     1      17.361  17.066  16.566  1.00  0.00    -0.000 C 
BRANCH  14  15
ATOM     15  C   UNL     1      18.497  17.464  15.603  1.00  0.00    -0.000 C 
BRANCH  15  16
ATOM     16  C   UNL     1      19.688  18.170  16.270  1.00  0.00    -0.003 C 
ATOM     17  C   UNL     1      19.299  18.916  17.546  1.00  0.00     0.004 C 
ENDBRANCH  15  16
ENDBRANCH  14  15
ENDBRANCH  13  14
ENDBRANCH  12  13
ENDBRANCH  11  12
ENDBRANCH  10  11
ENDBRANCH   1  10
TORSDOF 13
ENDMDL
MODEL 4
REMARK VINA RESULT:    -3.374     13.593     15.935
REMARK INTER + INTRA:          -7.941
REMARK INTER:                  -5.578
REMARK INTRA:                  -2.363
REMARK UNBOUND:                -2.002
REMARK SMILES CCCCCCCCCCCCCCC(=O)[O-]
REMARK SMILES IDX 9 1 10 2 11 3 12 4 13 5 14 6 15 7 16 8 17 9 8 10 7 11 6 12
REMARK SMILES IDX 5 13 4 14 3 15 2 16 1 17
REMARK H PARENT
REMARK Flexibility Score: inf
ROOT
ATOM      1  C   UNL     1      17.959  17.725  16.875  1.00  0.00     0.000 C 
ENDROOT
BRANCH   1   2
ATOM      2  C   UNL     1      17.248  16.362  16.819  1.00  0.00     0.000 C 
BRANCH   2   3
ATOM      3  C   UNL     1      17.548  15.585  15.529  1.00  0.00     0.000 C 
BRANCH   3   4
ATOM      4  C   UNL     1      17.901  14.123  15.840  1.00  0.00     0.000 C 
BRANCH   4   5
ATOM      5  C   UNL     1      19.377  13.938  16.227  1.00  0.00     0.006 C 
BRANCH   5   6
ATOM      6  C   UNL     1      19.630  12.627  16.982  1.00  0.00     0.053 C 
BRANCH   6   7
ATOM      7  C   UNL     1      20.991  12.634  17.600  1.00  0.00     0.041 C 
ATOM      8  O   UNL     1      21.141  12.321  18.810  1.00  0.00    -0.550 OA
ATOM      9  O   UNL     1      22.093  13.031  16.850  1.00  0.00    -0.550 OA
ENDBRANCH   6   7
ENDBRANCH   5   6
ENDBRANCH   4   5
ENDBRANCH   3   4
ENDBRANCH   2   3
ENDBRANCH   1   2
BRANCH   1  10
ATOM     10  C   UNL     1      19.485  17.604  16.719  1.00  0.00     0.000 C 
BRANCH  10  11
ATOM     11  C   UNL     1      20.230  17.631  18.067  1.00  0.00    -0.000 C 
BRANCH  11  12
ATOM     12  C   UNL     1      21.000  16.343  18.414  1.00  0.00    -0.000 C 
BRANCH  12  13
ATOM     13  C   UNL     1      20.608  15.758  19.782  1.00  0.00    -0.000 C 
BRANCH  13  14
ATOM     14  C   UNL     1      19.180  15.171  19.782  1.00  0.00    -0.000 C 
BRANCH  14  15
ATOM     15  C   UNL     1      18.272  15.749  20.885  1.00  0.00    -0.000 C 
BRANCH  15  16
ATOM     16  C   UNL     1      17.376  16.915  20.435  1.00  0.00    -0.003 C 
ATOM     17  C   UNL     1      17.802  18.257  21.031  1.00  0.00     0.004 C 
ENDBRANCH  15  16
ENDBRANCH  14  15
ENDBRANCH  13  14
ENDBRANCH  12  13
ENDBRANCH  11  12
ENDBRANCH  10  11
ENDBRANCH   1  10
TORSDOF 13
ENDMDL
MODEL 5
REMARK VINA RESULT:    -3.370     13.460     15.582
REMARK INTER + INTRA:          -7.933
REMARK INTER:                  -6.049
REMARK INTRA:                  -1.884
REMARK UNBOUND:                -2.002
REMARK SMILES CCCCCCCCCCCCCCC(=O)[O-]
REMARK SMILES IDX 9 1 10 2 11 3 12 4 13 5 14 6 15 7 16 8 17 9 8 10 7 11 6 12
REMARK SMILES IDX 5 13 4 14 3 15 2 16 1 17
REMARK H PARENT
REMARK Flexibility Score: inf
ROOT
ATOM      1  C   UNL     1      19.249  14.995  15.514  1.00  0.00     0.000 C 
ENDROOT
BRANCH   1   2
ATOM      2  C   UNL     1      17.742  14.690  15.562  1.00  0.00     0.000 C 
BRANCH   2   3
ATOM      3  C   UNL     1      16.967  15.655  16.472  1.00  0.00     0.000 C 
BRANCH   3   4
ATOM      4  C   UNL     1      17.522  17.082  16.357  1.00  0.00     0.000 C 
BRANCH   4   5
ATOM      5  C   UNL     1      17.845  17.705  17.725  1.00  0.00     0.006 C 
BRANCH   5   6
ATOM      6  C   UNL     1      17.394  16.822  18.896  1.00  0.00     0.053 C 
BRANCH   6   7
ATOM      7  C   UNL     1      17.573  17.545  20.192  1.00  0.00     0.041 C 
ATOM      8  O   UNL     1      16.632  17.595  21.026  1.00  0.00    -0.550 OA
ATOM      9  O   UNL     1      18.768  18.202  20.462  1.00  0.00    -0.550 OA
ENDBRANCH   6   7
ENDBRANCH   5   6
ENDBRANCH   4   5
ENDBRANCH   3   4
ENDBRANCH   2   3
ENDBRANCH   1   2
BRANCH   1  10
ATOM     10  C   UNL     1      20.113  13.769  15.856  1.00  0.00     0.000 C 
BRANCH  10  11
ATOM     11  C   UNL     1      19.310  12.635  16.520  1.00  0.00    -0.000 C 
BRANCH  11  12
ATOM     12  C   UNL     1      20.022  11.924  17.686  1.00  0.00    -0.000 C 
BRANCH  12  13
ATOM     13  C   UNL     1      21.317  12.632  18.122  1.00  0.00    -0.000 C 
BRANCH  13  14
ATOM     14  C   UNL     1      21.225  13.192  19.558  1.00  0.00    -0.000 C 
BRANCH  14  15
ATOM     15  C   UNL     1      20.324  14.437  19.682  1.00  0.00    -0.000 C 
BRANCH  15  16
ATOM     16  C   UNL     1      20.799  15.657  18.875  1.00  0.00    -0.003 C 
ATOM     17  C   UNL     1      21.829  16.501  19.625  1.00  0.00     0.004 C 
ENDBRANCH  15  16
ENDBRANCH  14  15
ENDBRANCH  13  14
ENDBRANCH  12  13
ENDBRANCH  11  12
ENDBRANCH  10  11
ENDBRANCH   1  10
TORSDOF 13
ENDMDL
MODEL 6
REMARK VINA RESULT:    -3.301     13.366     15.423
REMARK INTER + INTRA:          -7.812
REMARK INTER:                  -5.857
REMARK INTRA:                  -1.955
REMARK UNBOUND:                -2.002
REMARK SMILES CCCCCCCCCCCCCCC(=O)[O-]
REMARK SMILES IDX 9 1 10 2 11 3 12 4 13 5 14 6 15 7 16 8 17 9 8 10 7 11 6 12
REMARK SMILES IDX 5 13 4 14 3 15 2 16 1 17
REMARK H PARENT
REMARK Flexibility Score: inf
ROOT
ATOM      1  C   UNL     1      17.713  17.304  16.587  1.00  0.00     0.000 C 
ENDROOT
BRANCH   1   2
ATOM      2  C   UNL     1      17.949  17.614  18.075  1.00  0.00     0.000 C 
BRANCH   2   3
ATOM      3  C   UNL     1      17.690  16.404  18.985  1.00  0.00     0.000 C 
BRANCH   3   4
ATOM      4  C   UNL     1      17.444  16.851  20.434  1.00  0.00     0.000 C 
BRANCH   4   5
ATOM      5  C   UNL     1      18.262  16.040  21.451  1.00  0.00     0.006 C 
BRANCH   5   6
ATOM      6  C   UNL     1      19.078  14.919  20.793  1.00  0.00     0.053 C 
BRANCH   6   7
ATOM      7  C   UNL     1      20.530  15.073  21.115  1.00  0.00     0.041 C 
ATOM      8  O   UNL     1      21.291  14.070  21.111  1.00  0.00    -0.550 OA
ATOM      9  O   UNL     1      21.036  16.320  21.463  1.00  0.00    -0.550 OA
ENDBRANCH   6   7
ENDBRANCH   5   6
ENDBRANCH   4   5
ENDBRANCH   3   4
ENDBRANCH   2   3
ENDBRANCH   1   2
BRANCH   1  10
ATOM     10  C   UNL     1      16.929  15.997  16.371  1.00  0.00     0.000 C 
BRANCH  10  11
ATOM     11  C   UNL     1      17.389  15.221  15.122  1.00  0.00    -0.000 C 
BRANCH  11  12
ATOM     12  C   UNL     1      18.720  15.696  14.509  1.00  0.00    -0.000 C 
BRANCH  12  13
ATOM     13  C   UNL     1      19.890  14.738  14.792  1.00  0.00    -0.000 C 
BRANCH  13  14
ATOM     14  C   UNL     1      20.802  15.245  15.929  1.00  0.00    -0.000 C 
BRANCH  14  15
ATOM     15  C   UNL     1      20.483  14.625  17.304  1.00  0.00    -0.000 C 
BRANCH  15  16
ATOM     16  C   UNL     1      19.947  13.185  17.251  1.00  0.00    -0.003 C 
ATOM     17  C   UNL     1      20.758  12.217  18.113  1.00  0.00     0.004 C 
ENDBRANCH  15  16
ENDBRANCH  14  15
ENDBRANCH  13  14
ENDBRANCH  12  13
ENDBRANCH  11  12
ENDBRANCH  10  11
ENDBRANCH   1  10
TORSDOF 13
ENDMDL
MODEL 7
REMARK VINA RESULT:    -3.291     13.019     15.049
REMARK INTER + INTRA:          -7.794
REMARK INTER:                  -6.304
REMARK INTRA:                  -1.490
REMARK UNBOUND:                -2.002
REMARK SMILES CCCCCCCCCCCCCCC(=O)[O-]
REMARK SMILES IDX 9 1 10 2 11 3 12 4 13 5 14 6 15 7 16 8 17 9 8 10 7 11 6 12
REMARK SMILES IDX 5 13 4 14 3 15 2 16 1 17
REMARK H PARENT
REMARK Flexibility Score: inf
ROOT
ATOM      1  C   UNL     1      17.971  17.158  16.556  1.00  0.00     0.000 C 
ENDROOT
BRANCH   1   2
ATOM      2  C   UNL     1      18.176  17.492  18.043  1.00  0.00     0.000 C 
BRANCH   2   3
ATOM      3  C   UNL     1      17.648  16.395  18.980  1.00  0.00     0.000 C 
BRANCH   3   4
ATOM      4  C   UNL     1      18.808  15.617  19.620  1.00  0.00     0.000 C 
BRANCH   4   5
ATOM      5  C   UNL     1      18.730  15.591  21.155  1.00  0.00     0.006 C 
BRANCH   5   6
ATOM      6  C   UNL     1      17.683  16.567  21.708  1.00  0.00     0.053 C 
BRANCH   6   7
ATOM      7  C   UNL     1      17.428  16.293  23.156  1.00  0.00     0.041 C 
ATOM      8  O   UNL     1      16.285  15.933  23.542  1.00  0.00    -0.550 OA
ATOM      9  O   UNL     1      18.443  16.479  24.087  1.00  0.00    -0.550 OA
ENDBRANCH   6   7
ENDBRANCH   5   6
ENDBRANCH   4   5
ENDBRANCH   3   4
ENDBRANCH   2   3
ENDBRANCH   1   2
BRANCH   1  10
ATOM     10  C   UNL     1      16.948  16.029  16.338  1.00  0.00     0.000 C 
BRANCH  10  11
ATOM     11  C   UNL     1      17.462  14.929  15.390  1.00  0.00    -0.000 C 
BRANCH  11  12
ATOM     12  C   UNL     1      18.962  14.605  15.515  1.00  0.00    -0.000 C 
BRANCH  12  13
ATOM     13  C   UNL     1      19.244  13.393  16.420  1.00  0.00    -0.000 C 
BRANCH  13  14
ATOM     14  C   UNL     1      20.660  13.436  17.035  1.00  0.00    -0.000 C 
BRANCH  14  15
ATOM     15  C   UNL     1      20.834  12.512  18.257  1.00  0.00    -0.000 C 
BRANCH  15  16
ATOM     16  C   UNL     1      21.873  12.992  19.283  1.00  0.00    -0.003 C 
ATOM     17  C   UNL     1      21.362  12.926  20.723  1.00  0.00     0.004 C 
ENDBRANCH  15  16
ENDBRANCH  14  15
ENDBRANCH  13  14
ENDBRANCH  12  13
ENDBRANCH  11  12
ENDBRANCH  10  11
ENDBRANCH   1  10
TORSDOF 13
ENDMDL
MODEL 8
REMARK VINA RESULT:    -3.273     12.381     14.618
REMARK INTER + INTRA:          -7.764
REMARK INTER:                  -5.579
REMARK INTRA:                  -2.184
REMARK UNBOUND:                -2.002
REMARK SMILES CCCCCCCCCCCCCCC(=O)[O-]
REMARK SMILES IDX 9 1 10 2 11 3 12 4 13 5 14 6 15 7 16 8 17 9 8 10 7 11 6 12
REMARK SMILES IDX 5 13 4 14 3 15 2 16 1 17
REMARK H PARENT
REMARK Flexibility Score: inf
ROOT
ATOM      1  C   UNL     1      20.402  15.732  18.944  1.00  0.00     0.000 C 
ENDROOT
BRANCH   1   2
ATOM      2  C   UNL     1      19.025  15.371  19.527  1.00  0.00     0.000 C 
BRANCH   2   3
ATOM      3  C   UNL     1      19.052  15.190  21.052  1.00  0.00     0.000 C 
BRANCH   3   4
ATOM      4  C   UNL     1      20.494  15.033  21.559  1.00  0.00     0.000 C 
BRANCH   4   5
ATOM      5  C   UNL     1      20.798  13.609  22.052  1.00  0.00     0.006 C 
BRANCH   5   6
ATOM      6  C   UNL     1      21.364  12.710  20.945  1.00  0.00     0.053 C 
BRANCH   6   7
ATOM      7  C   UNL     1      22.767  13.109  20.615  1.00  0.00     0.041 C 
ATOM      8  O   UNL     1      23.148  13.158  19.416  1.00  0.00    -0.550 OA
ATOM      9  O   UNL     1      23.669  13.386  21.636  1.00  0.00    -0.550 OA
ENDBRANCH   6   7
ENDBRANCH   5   6
ENDBRANCH   4   5
ENDBRANCH   3   4
ENDBRANCH   2   3
ENDBRANCH   1   2
BRANCH   1  10
ATOM     10  C   UNL     1      20.703  14.987  17.632  1.00  0.00     0.000 C 
BRANCH  10  11
ATOM     11  C   UNL     1      20.035  13.601  17.561  1.00  0.00    -0.000 C 
BRANCH  11  12
ATOM     12  C   UNL     1      19.249  13.318  16.268  1.00  0.00    -0.000 C 
BRANCH  12  13
ATOM     13  C   UNL     1      18.890  14.596  15.490  1.00  0.00    -0.000 C 
BRANCH  13  14
ATOM     14  C   UNL     1      17.380  14.914  15.549  1.00  0.00    -0.000 C 
BRANCH  14  15
ATOM     15  C   UNL     1      17.031  16.099  16.471  1.00  0.00    -0.000 C 
BRANCH  15  16
ATOM     16  C   UNL     1      17.843  17.378  16.210  1.00  0.00    -0.003 C 
ATOM     17  C   UNL     1      17.994  18.252  17.455  1.00  0.00     0.004 C 
ENDBRANCH  15  16
ENDBRANCH  14  15
ENDBRANCH  13  14
ENDBRANCH  12  13
ENDBRANCH  11  12
ENDBRANCH  10  11
ENDBRANCH   1  10
TORSDOF 13
ENDMDL
MODEL 9
REMARK VINA RESULT:    -3.246     13.761     15.799
REMARK INTER + INTRA:          -7.716
REMARK INTER:                  -5.619
REMARK INTRA:                  -2.098
REMARK UNBOUND:                -2.002
REMARK SMILES CCCCCCCCCCCCCCC(=O)[O-]
REMARK SMILES IDX 9 1 10 2 11 3 12 4 13 5 14 6 15 7 16 8 17 9 8 10 7 11 6 12
REMARK SMILES IDX 5 13 4 14 3 15 2 16 1 17
REMARK H PARENT
REMARK Flexibility Score: inf
ROOT
ATOM      1  C   UNL     1      16.999  16.051  16.325  1.00  0.00     0.000 C 
ENDROOT
BRANCH   1   2
ATOM      2  C   UNL     1      18.079  17.073  16.718  1.00  0.00     0.000 C 
BRANCH   2   3
ATOM      3  C   UNL     1      17.973  17.520  18.184  1.00  0.00     0.000 C 
BRANCH   3   4
ATOM      4  C   UNL     1      17.351  16.413  19.050  1.00  0.00     0.000 C 
BRANCH   4   5
ATOM      5  C   UNL     1      17.968  16.345  20.456  1.00  0.00     0.006 C 
BRANCH   5   6
ATOM      6  C   UNL     1      17.896  17.686  21.197  1.00  0.00     0.053 C 
BRANCH   6   7
ATOM      7  C   UNL     1      16.714  17.713  22.113  1.00  0.00     0.041 C 
ATOM      8  O   UNL     1      15.878  18.652  22.043  1.00  0.00    -0.550 OA
ATOM      9  O   UNL     1      16.559  16.724  23.077  1.00  0.00    -0.550 OA
ENDBRANCH   6   7
ENDBRANCH   5   6
ENDBRANCH   4   5
ENDBRANCH   3   4
ENDBRANCH   2   3
ENDBRANCH   1   2
BRANCH   1  10
ATOM     10  C   UNL     1      17.562  14.883  15.496  1.00  0.00     0.000 C 
BRANCH  10  11
ATOM     11  C   UNL     1      19.025  14.549  15.846  1.00  0.00    -0.000 C 
BRANCH  11  12
ATOM     12  C   UNL     1      19.280  13.090  16.269  1.00  0.00    -0.000 C 
BRANCH  12  13
ATOM     13  C   UNL     1      20.338  12.961  17.379  1.00  0.00    -0.000 C 
BRANCH  13  14
ATOM     14  C   UNL     1      20.090  13.945  18.542  1.00  0.00    -0.000 C 
BRANCH  14  15
ATOM     15  C   UNL     1      21.342  14.743  18.958  1.00  0.00    -0.000 C 
BRANCH  15  16
ATOM     16  C   UNL     1      21.306  16.235  18.590  1.00  0.00    -0.003 C 
ATOM     17  C   UNL     1      21.835  16.514  17.184  1.00  0.00     0.004 C 
ENDBRANCH  15  16
ENDBRANCH  14  15
ENDBRANCH  13  14
ENDBRANCH  12  13
ENDBRANCH  11  12
ENDBRANCH  10  11
ENDBRANCH   1  10
TORSDOF 13
ENDMDL
