MODEL 1
REMARK VINA RESULT:    -6.778      0.000      0.000
REMARK INTER + INTRA:          -7.261
REMARK INTER:                  -7.174
REMARK INTRA:                  -0.087
REMARK UNBOUND:                -0.087
REMARK SMILES C=C(C)[C@@H]1CC=C(C)C(=O)C1
REMARK SMILES IDX 8 1 7 2 6 3 5 4 4 5 11 6 9 7 10 8 2 9 1 10 3 11
REMARK H PARENT
REMARK Flexibility Score: inf
ROOT
ATOM      1  C   UNL     1      -6.125  30.014  29.998  1.00  0.00     0.048 C 
ATOM      2  C   UNL     1      -5.009  29.155  29.472  1.00  0.00    -0.012 C 
ATOM      3  C   UNL     1      -4.747  27.970  30.050  1.00  0.00    -0.019 C 
ATOM      4  C   UNL     1      -3.653  27.063  29.552  1.00  0.00     0.036 C 
ATOM      5  C   UNL     1      -2.477  27.876  28.980  1.00  0.00     0.025 C 
ATOM      6  C   UNL     1      -2.974  28.842  27.889  1.00  0.00     0.089 C 
ATOM      7  C   UNL     1      -4.121  29.671  28.400  1.00  0.00     0.158 C 
ATOM      8  O   UNL     1      -4.342  30.798  27.881  1.00  0.00    -0.295 OA
ENDROOT
BRANCH   5   9
ATOM      9  C   UNL     1      -1.374  26.967  28.457  1.00  0.00    -0.077 C 
ATOM     10  C   UNL     1      -0.161  26.978  29.033  1.00  0.00     0.008 C 
ATOM     11  C   UNL     1      -1.606  26.040  27.289  1.00  0.00     0.039 C 
ENDBRANCH   5   9
TORSDOF 1
ENDMDL
MODEL 2
REMARK VINA RESULT:    -6.406      1.351      1.968
REMARK INTER + INTRA:          -6.868
REMARK INTER:                  -6.770
REMARK INTRA:                  -0.097
REMARK UNBOUND:                -0.087
REMARK SMILES C=C(C)[C@@H]1CC=C(C)C(=O)C1
REMARK SMILES IDX 8 1 7 2 6 3 5 4 4 5 11 6 9 7 10 8 2 9 1 10 3 11
REMARK H PARENT
REMARK Flexibility Score: inf
ROOT
ATOM      1  C   UNL     1      -6.118  30.611  28.592  1.00  0.00     0.048 C 
ATOM      2  C   UNL     1      -4.831  29.835  28.623  1.00  0.00    -0.012 C 
ATOM      3  C   UNL     1      -4.078  29.742  27.514  1.00  0.00    -0.019 C 
ATOM      4  C   UNL     1      -2.772  28.993  27.494  1.00  0.00     0.036 C 
ATOM      5  C   UNL     1      -2.808  27.793  28.459  1.00  0.00     0.025 C 
ATOM      6  C   UNL     1      -3.193  28.257  29.875  1.00  0.00     0.089 C 
ATOM      7  C   UNL     1      -4.458  29.071  29.840  1.00  0.00     0.158 C 
ATOM      8  O   UNL     1      -5.181  29.127  30.870  1.00  0.00    -0.295 OA
ENDROOT
BRANCH   5   9
ATOM      9  C   UNL     1      -1.484  27.040  28.461  1.00  0.00    -0.077 C 
ATOM     10  C   UNL     1      -0.527  27.365  29.344  1.00  0.00     0.008 C 
ATOM     11  C   UNL     1      -1.213  25.924  27.483  1.00  0.00     0.039 C 
ENDBRANCH   5   9
TORSDOF 1
ENDMDL
MODEL 3
REMARK VINA RESULT:    -6.371      2.025      4.582
REMARK INTER + INTRA:          -6.831
REMARK INTER:                  -6.733
REMARK INTRA:                  -0.098
REMARK UNBOUND:                -0.087
REMARK SMILES C=C(C)[C@@H]1CC=C(C)C(=O)C1
REMARK SMILES IDX 8 1 7 2 6 3 5 4 4 5 11 6 9 7 10 8 2 9 1 10 3 11
REMARK H PARENT
REMARK Flexibility Score: inf
ROOT
ATOM      1  C   UNL     1       0.590  25.629  28.202  1.00  0.00     0.048 C 
ATOM      2  C   UNL     1      -0.505  26.557  28.647  1.00  0.00    -0.012 C 
ATOM      3  C   UNL     1      -0.439  27.139  29.857  1.00  0.00    -0.019 C 
ATOM      4  C   UNL     1      -1.500  28.091  30.345  1.00  0.00     0.036 C 
ATOM      5  C   UNL     1      -2.884  27.709  29.789  1.00  0.00     0.025 C 
ATOM      6  C   UNL     1      -2.839  27.625  28.253  1.00  0.00     0.089 C 
ATOM      7  C   UNL     1      -1.715  26.731  27.805  1.00  0.00     0.158 C 
ATOM      8  O   UNL     1      -1.796  26.157  26.686  1.00  0.00    -0.295 OA
ENDROOT
BRANCH   5   9
ATOM      9  C   UNL     1      -3.960  28.677  30.261  1.00  0.00    -0.077 C 
ATOM     10  C   UNL     1      -3.733  29.475  31.317  1.00  0.00     0.008 C 
ATOM     11  C   UNL     1      -5.297  28.766  29.568  1.00  0.00     0.039 C 
ENDBRANCH   5   9
TORSDOF 1
ENDMDL
MODEL 4
REMARK VINA RESULT:    -5.709      1.868      2.549
REMARK INTER + INTRA:          -6.130
REMARK INTER:                  -6.033
REMARK INTRA:                  -0.097
REMARK UNBOUND:                -0.087
REMARK SMILES C=C(C)[C@@H]1CC=C(C)C(=O)C1
REMARK SMILES IDX 8 1 7 2 6 3 5 4 4 5 11 6 9 7 10 8 2 9 1 10 3 11
REMARK H PARENT
REMARK Flexibility Score: inf
ROOT
ATOM      1  C   UNL     1      -3.557  29.793  31.779  1.00  0.00     0.048 C 
ATOM      2  C   UNL     1      -2.923  28.750  30.902  1.00  0.00    -0.012 C 
ATOM      3  C   UNL     1      -1.594  28.554  30.948  1.00  0.00    -0.019 C 
ATOM      4  C   UNL     1      -0.910  27.510  30.104  1.00  0.00     0.036 C 
ATOM      5  C   UNL     1      -1.632  27.328  28.756  1.00  0.00     0.025 C 
ATOM      6  C   UNL     1      -3.120  27.008  28.986  1.00  0.00     0.089 C 
ATOM      7  C   UNL     1      -3.746  28.027  29.899  1.00  0.00     0.158 C 
ATOM      8  O   UNL     1      -4.986  28.235  29.829  1.00  0.00    -0.295 OA
ENDROOT
BRANCH   5   9
ATOM      9  C   UNL     1      -0.959  26.260  27.904  1.00  0.00    -0.077 C 
ATOM     10  C   UNL     1      -1.592  25.757  26.832  1.00  0.00     0.008 C 
ATOM     11  C   UNL     1       0.418  25.742  28.236  1.00  0.00     0.039 C 
ENDBRANCH   5   9
TORSDOF 1
ENDMDL
MODEL 5
REMARK VINA RESULT:    -5.583      1.968      4.671
REMARK INTER + INTRA:          -5.996
REMARK INTER:                  -5.897
REMARK INTRA:                  -0.099
REMARK UNBOUND:                -0.087
REMARK SMILES C=C(C)[C@@H]1CC=C(C)C(=O)C1
REMARK SMILES IDX 8 1 7 2 6 3 5 4 4 5 11 6 9 7 10 8 2 9 1 10 3 11
REMARK H PARENT
REMARK Flexibility Score: inf
ROOT
ATOM      1  C   UNL     1      -0.340  27.108  28.690  1.00  0.00     0.048 C 
ATOM      2  C   UNL     1      -1.704  27.720  28.843  1.00  0.00    -0.012 C 
ATOM      3  C   UNL     1      -2.353  28.187  27.763  1.00  0.00    -0.019 C 
ATOM      4  C   UNL     1      -3.729  28.793  27.857  1.00  0.00     0.036 C 
ATOM      5  C   UNL     1      -3.923  29.520  29.201  1.00  0.00     0.025 C 
ATOM      6  C   UNL     1      -3.624  28.567  30.373  1.00  0.00     0.089 C 
ATOM      7  C   UNL     1      -2.277  27.920  30.198  1.00  0.00     0.158 C 
ATOM      8  O   UNL     1      -1.654  27.515  31.216  1.00  0.00    -0.295 OA
ENDROOT
BRANCH   5   9
ATOM      9  C   UNL     1      -5.318  30.119  29.314  1.00  0.00    -0.077 C 
ATOM     10  C   UNL     1      -6.124  29.763  30.327  1.00  0.00     0.008 C 
ATOM     11  C   UNL     1      -5.829  31.116  28.304  1.00  0.00     0.039 C 
ENDBRANCH   5   9
TORSDOF 1
ENDMDL
MODEL 6
REMARK VINA RESULT:    -5.506      1.733      4.376
REMARK INTER + INTRA:          -5.915
REMARK INTER:                  -5.822
REMARK INTRA:                  -0.093
REMARK UNBOUND:                -0.087
REMARK SMILES C=C(C)[C@@H]1CC=C(C)C(=O)C1
REMARK SMILES IDX 8 1 7 2 6 3 5 4 4 5 11 6 9 7 10 8 2 9 1 10 3 11
REMARK H PARENT
REMARK Flexibility Score: inf
ROOT
ATOM      1  C   UNL     1      -0.272  26.727  29.377  1.00  0.00     0.048 C 
ATOM      2  C   UNL     1      -1.472  27.632  29.371  1.00  0.00    -0.012 C 
ATOM      3  C   UNL     1      -1.950  28.119  30.529  1.00  0.00    -0.019 C 
ATOM      4  C   UNL     1      -3.137  29.044  30.578  1.00  0.00     0.036 C 
ATOM      5  C   UNL     1      -4.135  28.723  29.450  1.00  0.00     0.025 C 
ATOM      6  C   UNL     1      -3.427  28.756  28.083  1.00  0.00     0.089 C 
ATOM      7  C   UNL     1      -2.200  27.884  28.102  1.00  0.00     0.158 C 
ATOM      8  O   UNL     1      -1.775  27.399  27.020  1.00  0.00    -0.295 OA
ENDROOT
BRANCH   5   9
ATOM      9  C   UNL     1      -5.331  29.665  29.478  1.00  0.00    -0.077 C 
ATOM     10  C   UNL     1      -6.125  29.713  30.560  1.00  0.00     0.008 C 
ATOM     11  C   UNL     1      -5.655  30.560  28.308  1.00  0.00     0.039 C 
ENDBRANCH   5   9
TORSDOF 1
ENDMDL
MODEL 7
REMARK VINA RESULT:    -5.439      2.346      4.518
REMARK INTER + INTRA:          -5.844
REMARK INTER:                  -5.747
REMARK INTRA:                  -0.097
REMARK UNBOUND:                -0.087
REMARK SMILES C=C(C)[C@@H]1CC=C(C)C(=O)C1
REMARK SMILES IDX 8 1 7 2 6 3 5 4 4 5 11 6 9 7 10 8 2 9 1 10 3 11
REMARK H PARENT
REMARK Flexibility Score: inf
ROOT
ATOM      1  C   UNL     1      -4.987  27.434  30.105  1.00  0.00     0.048 C 
ATOM      2  C   UNL     1      -4.876  28.755  29.397  1.00  0.00    -0.012 C 
ATOM      3  C   UNL     1      -5.944  29.567  29.324  1.00  0.00    -0.019 C 
ATOM      4  C   UNL     1      -5.883  30.909  28.644  1.00  0.00     0.036 C 
ATOM      5  C   UNL     1      -4.897  30.885  27.460  1.00  0.00     0.025 C 
ATOM      6  C   UNL     1      -3.511  30.405  27.928  1.00  0.00     0.089 C 
ATOM      7  C   UNL     1      -3.626  29.104  28.675  1.00  0.00     0.158 C 
ATOM      8  O   UNL     1      -2.635  28.328  28.712  1.00  0.00    -0.295 OA
ENDROOT
BRANCH   5   9
ATOM      9  C   UNL     1      -4.813  32.244  26.778  1.00  0.00    -0.077 C 
ATOM     10  C   UNL     1      -3.903  33.145  27.180  1.00  0.00     0.008 C 
ATOM     11  C   UNL     1      -5.739  32.613  25.645  1.00  0.00     0.039 C 
ENDBRANCH   5   9
TORSDOF 1
ENDMDL
MODEL 8
REMARK VINA RESULT:    -4.630      2.182      4.454
REMARK INTER + INTRA:          -4.988
REMARK INTER:                  -4.889
REMARK INTRA:                  -0.099
REMARK UNBOUND:                -0.087
REMARK SMILES C=C(C)[C@@H]1CC=C(C)C(=O)C1
REMARK SMILES IDX 8 1 7 2 6 3 5 4 4 5 11 6 9 7 10 8 2 9 1 10 3 11
REMARK H PARENT
REMARK Flexibility Score: inf
ROOT
ATOM      1  C   UNL     1      -0.989  25.648  27.297  1.00  0.00     0.048 C 
ATOM      2  C   UNL     1      -1.730  26.457  28.324  1.00  0.00    -0.012 C 
ATOM      3  C   UNL     1      -3.067  26.355  28.420  1.00  0.00    -0.019 C 
ATOM      4  C   UNL     1      -3.856  27.128  29.443  1.00  0.00     0.036 C 
ATOM      5  C   UNL     1      -3.203  28.493  29.730  1.00  0.00     0.025 C 
ATOM      6  C   UNL     1      -1.733  28.305  30.149  1.00  0.00     0.089 C 
ATOM      7  C   UNL     1      -1.001  27.458  29.143  1.00  0.00     0.158 C 
ATOM      8  O   UNL     1       0.247  27.582  29.030  1.00  0.00    -0.295 OA
ENDROOT
BRANCH   5   9
ATOM      9  C   UNL     1      -3.983  29.275  30.778  1.00  0.00    -0.077 C 
ATOM     10  C   UNL     1      -3.370  29.707  31.891  1.00  0.00     0.008 C 
ATOM     11  C   UNL     1      -5.449  29.582  30.599  1.00  0.00     0.039 C 
ENDBRANCH   5   9
TORSDOF 1
ENDMDL
MODEL 9
REMARK VINA RESULT:    -4.480      5.692      7.489
REMARK INTER + INTRA:          -4.829
REMARK INTER:                  -4.732
REMARK INTRA:                  -0.097
REMARK UNBOUND:                -0.087
REMARK SMILES C=C(C)[C@@H]1CC=C(C)C(=O)C1
REMARK SMILES IDX 8 1 7 2 6 3 5 4 4 5 11 6 9 7 10 8 2 9 1 10 3 11
REMARK H PARENT
REMARK Flexibility Score: inf
ROOT
ATOM      1  C   UNL     1      -5.543  35.538  22.152  1.00  0.00     0.048 C 
ATOM      2  C   UNL     1      -5.502  34.768  23.442  1.00  0.00    -0.012 C 
ATOM      3  C   UNL     1      -5.249  35.408  24.596  1.00  0.00    -0.019 C 
ATOM      4  C   UNL     1      -5.215  34.689  25.919  1.00  0.00     0.036 C 
ATOM      5  C   UNL     1      -4.699  33.247  25.751  1.00  0.00     0.025 C 
ATOM      6  C   UNL     1      -5.539  32.497  24.701  1.00  0.00     0.089 C 
ATOM      7  C   UNL     1      -5.618  33.288  23.423  1.00  0.00     0.158 C 
ATOM      8  O   UNL     1      -5.819  32.681  22.338  1.00  0.00    -0.295 OA
ENDROOT
BRANCH   5   9
ATOM      9  C   UNL     1      -4.679  32.505  27.080  1.00  0.00    -0.077 C 
ATOM     10  C   UNL     1      -5.767  31.837  27.495  1.00  0.00     0.008 C 
ATOM     11  C   UNL     1      -3.453  32.499  27.959  1.00  0.00     0.039 C 
ENDBRANCH   5   9
TORSDOF 1
ENDMDL
