MODEL 1
REMARK VINA RESULT:    -4.488      0.000      0.000
REMARK INTER + INTRA:         -14.723
REMARK INTER:                 -10.260
REMARK INTRA:                  -4.463
REMARK UNBOUND:                -4.463
REMARK SMILES CCCCCCCCCCCCCCCCCCCCCCCC(=O)[O-]
REMARK SMILES IDX 13 1 14 2 15 3 16 4 17 5 18 6 19 7 20 8 21 9 22 10 23 11
REMARK SMILES IDX 24 12 25 13 26 14 12 15 11 16 10 17 9 18 8 19 7 20 6 21 5 22
REMARK SMILES IDX 4 23 3 24 2 25 1 26
REMARK H PARENT
REMARK Flexibility Score: inf
ROOT
ATOM      1  C   UNL     1     -25.003 -61.496   5.849  1.00  0.00     0.000 C 
ENDROOT
BRANCH   1   2
ATOM      2  C   UNL     1     -25.799 -62.689   5.287  1.00  0.00     0.000 C 
BRANCH   2   3
ATOM      3  C   UNL     1     -26.236 -62.541   3.817  1.00  0.00     0.000 C 
BRANCH   3   4
ATOM      4  C   UNL     1     -25.106 -62.031   2.905  1.00  0.00     0.000 C 
BRANCH   4   5
ATOM      5  C   UNL     1     -24.013 -63.089   2.682  1.00  0.00     0.000 C 
BRANCH   5   6
ATOM      6  C   UNL     1     -22.868 -62.569   1.796  1.00  0.00     0.000 C 
BRANCH   6   7
ATOM      7  C   UNL     1     -22.937 -61.050   1.566  1.00  0.00     0.000 C 
BRANCH   7   8
ATOM      8  C   UNL     1     -22.261 -60.597   0.255  1.00  0.00     0.000 C 
BRANCH   8   9
ATOM      9  C   UNL     1     -23.095 -59.551  -0.499  1.00  0.00     0.000 C 
BRANCH   9  10
ATOM     10  C   UNL     1     -24.597 -59.798  -0.295  1.00  0.00     0.006 C 
BRANCH  10  11
ATOM     11  C   UNL     1     -25.453 -58.630  -0.803  1.00  0.00     0.053 C 
BRANCH  11  12
ATOM     12  C   UNL     1     -25.316 -58.438  -2.283  1.00  0.00     0.041 C 
ATOM     13  O   UNL     1     -24.889 -57.347  -2.744  1.00  0.00    -0.550 OA
ATOM     14  O   UNL     1     -25.655 -59.469  -3.151  1.00  0.00    -0.550 OA
ENDBRANCH  11  12
ENDBRANCH  10  11
ENDBRANCH   9  10
ENDBRANCH   8   9
ENDBRANCH   7   8
ENDBRANCH   6   7
ENDBRANCH   5   6
ENDBRANCH   4   5
ENDBRANCH   3   4
ENDBRANCH   2   3
ENDBRANCH   1   2
BRANCH   1  15
ATOM     15  C   UNL     1     -23.578 -61.831   6.335  1.00  0.00     0.000 C 
BRANCH  15  16
ATOM     16  C   UNL     1     -22.478 -60.959   5.691  1.00  0.00     0.000 C 
BRANCH  16  17
ATOM     17  C   UNL     1     -23.053 -59.735   4.957  1.00  0.00     0.000 C 
BRANCH  17  18
ATOM     18  C   UNL     1     -22.604 -58.400   5.589  1.00  0.00    -0.000 C 
BRANCH  18  19
ATOM     19  C   UNL     1     -22.555 -57.226   4.592  1.00  0.00    -0.000 C 
BRANCH  19  20
ATOM     20  C   UNL     1     -22.945 -57.587   3.147  1.00  0.00    -0.000 C 
BRANCH  20  21
ATOM     21  C   UNL     1     -24.385 -57.206   2.744  1.00  0.00    -0.000 C 
BRANCH  21  22
ATOM     22  C   UNL     1     -25.415 -58.346   2.849  1.00  0.00    -0.000 C 
BRANCH  22  23
ATOM     23  C   UNL     1     -26.280 -58.254   4.115  1.00  0.00    -0.000 C 
BRANCH  23  24
ATOM     24  C   UNL     1     -27.611 -58.994   3.925  1.00  0.00    -0.000 C 
BRANCH  24  25
ATOM     25  C   UNL     1     -27.798 -59.422   2.466  1.00  0.00    -0.003 C 
ATOM     26  C   UNL     1     -28.904 -58.614   1.792  1.00  0.00     0.004 C 
ENDBRANCH  24  25
ENDBRANCH  23  24
ENDBRANCH  22  23
ENDBRANCH  21  22
ENDBRANCH  20  21
ENDBRANCH  19  20
ENDBRANCH  18  19
ENDBRANCH  17  18
ENDBRANCH  16  17
ENDBRANCH  15  16
ENDBRANCH   1  15
TORSDOF 22
ENDMDL
MODEL 2
REMARK VINA RESULT:    -4.440      1.360      2.691
REMARK INTER + INTRA:         -14.614
REMARK INTER:                 -10.606
REMARK INTRA:                  -4.007
REMARK UNBOUND:                -4.463
REMARK SMILES CCCCCCCCCCCCCCCCCCCCCCCC(=O)[O-]
REMARK SMILES IDX 13 1 14 2 15 3 16 4 17 5 18 6 19 7 20 8 21 9 22 10 23 11
REMARK SMILES IDX 24 12 25 13 26 14 12 15 11 16 10 17 9 18 8 19 7 20 6 21 5 22
REMARK SMILES IDX 4 23 3 24 2 25 1 26
REMARK H PARENT
REMARK Flexibility Score: inf
ROOT
ATOM      1  C   UNL     1     -25.627 -63.230   3.643  1.00  0.00     0.000 C 
ENDROOT
BRANCH   1   2
ATOM      2  C   UNL     1     -25.857 -61.753   3.271  1.00  0.00     0.000 C 
BRANCH   2   3
ATOM      3  C   UNL     1     -24.773 -61.137   2.366  1.00  0.00     0.000 C 
BRANCH   3   4
ATOM      4  C   UNL     1     -23.598 -62.096   2.101  1.00  0.00     0.000 C 
BRANCH   4   5
ATOM      5  C   UNL     1     -22.344 -61.360   1.603  1.00  0.00     0.000 C 
BRANCH   5   6
ATOM      6  C   UNL     1     -21.954 -61.770   0.173  1.00  0.00     0.000 C 
BRANCH   6   7
ATOM      7  C   UNL     1     -21.933 -60.581  -0.802  1.00  0.00     0.000 C 
BRANCH   7   8
ATOM      8  C   UNL     1     -22.083 -59.213  -0.106  1.00  0.00     0.000 C 
BRANCH   8   9
ATOM      9  C   UNL     1     -23.331 -58.453  -0.577  1.00  0.00     0.000 C 
BRANCH   9  10
ATOM     10  C   UNL     1     -24.505 -59.417  -0.808  1.00  0.00     0.006 C 
BRANCH  10  11
ATOM     11  C   UNL     1     -25.240 -59.134  -2.125  1.00  0.00     0.053 C 
BRANCH  11  12
ATOM     12  C   UNL     1     -25.695 -57.709  -2.217  1.00  0.00     0.041 C 
ATOM     13  O   UNL     1     -25.135 -56.915  -3.017  1.00  0.00    -0.550 OA
ATOM     14  O   UNL     1     -26.742 -57.262  -1.420  1.00  0.00    -0.550 OA
ENDBRANCH  11  12
ENDBRANCH  10  11
ENDBRANCH   9  10
ENDBRANCH   8   9
ENDBRANCH   7   8
ENDBRANCH   6   7
ENDBRANCH   5   6
ENDBRANCH   4   5
ENDBRANCH   3   4
ENDBRANCH   2   3
ENDBRANCH   1   2
BRANCH   1  15
ATOM     15  C   UNL     1     -25.655 -63.536   5.154  1.00  0.00     0.000 C 
BRANCH  15  16
ATOM     16  C   UNL     1     -24.367 -64.209   5.678  1.00  0.00     0.000 C 
BRANCH  16  17
ATOM     17  C   UNL     1     -23.154 -63.263   5.644  1.00  0.00     0.000 C 
BRANCH  17  18
ATOM     18  C   UNL     1     -23.483 -61.859   6.194  1.00  0.00    -0.000 C 
BRANCH  18  19
ATOM     19  C   UNL     1     -22.678 -60.726   5.528  1.00  0.00    -0.000 C 
BRANCH  19  20
ATOM     20  C   UNL     1     -23.444 -59.400   5.361  1.00  0.00    -0.000 C 
BRANCH  20  21
ATOM     21  C   UNL     1     -22.580 -58.126   5.475  1.00  0.00    -0.000 C 
BRANCH  21  22
ATOM     22  C   UNL     1     -22.838 -57.064   4.392  1.00  0.00    -0.000 C 
BRANCH  22  23
ATOM     23  C   UNL     1     -23.403 -57.659   3.094  1.00  0.00    -0.000 C 
BRANCH  23  24
ATOM     24  C   UNL     1     -24.555 -56.803   2.552  1.00  0.00    -0.000 C 
BRANCH  24  25
ATOM     25  C   UNL     1     -25.761 -57.675   2.185  1.00  0.00    -0.003 C 
ATOM     26  C   UNL     1     -27.053 -56.863   2.197  1.00  0.00     0.004 C 
ENDBRANCH  24  25
ENDBRANCH  23  24
ENDBRANCH  22  23
ENDBRANCH  21  22
ENDBRANCH  20  21
ENDBRANCH  19  20
ENDBRANCH  18  19
ENDBRANCH  17  18
ENDBRANCH  16  17
ENDBRANCH  15  16
ENDBRANCH   1  15
TORSDOF 22
ENDMDL
MODEL 3
REMARK VINA RESULT:    -4.422      1.109      1.831
REMARK INTER + INTRA:         -14.573
REMARK INTER:                 -10.168
REMARK INTRA:                  -4.405
REMARK UNBOUND:                -4.463
REMARK SMILES CCCCCCCCCCCCCCCCCCCCCCCC(=O)[O-]
REMARK SMILES IDX 13 1 14 2 15 3 16 4 17 5 18 6 19 7 20 8 21 9 22 10 23 11
REMARK SMILES IDX 24 12 25 13 26 14 12 15 11 16 10 17 9 18 8 19 7 20 6 21 5 22
REMARK SMILES IDX 4 23 3 24 2 25 1 26
REMARK H PARENT
REMARK Flexibility Score: inf
ROOT
ATOM      1  C   UNL     1     -24.837 -61.451   3.987  1.00  0.00     0.000 C 
ENDROOT
BRANCH   1   2
ATOM      2  C   UNL     1     -25.066 -62.760   3.208  1.00  0.00     0.000 C 
BRANCH   2   3
ATOM      3  C   UNL     1     -23.791 -63.396   2.621  1.00  0.00     0.000 C 
BRANCH   3   4
ATOM      4  C   UNL     1     -22.669 -62.371   2.378  1.00  0.00     0.000 C 
BRANCH   4   5
ATOM      5  C   UNL     1     -22.215 -62.339   0.909  1.00  0.00     0.000 C 
BRANCH   5   6
ATOM      6  C   UNL     1     -22.319 -60.933   0.295  1.00  0.00     0.000 C 
BRANCH   6   7
ATOM      7  C   UNL     1     -22.520 -59.836   1.353  1.00  0.00     0.000 C 
BRANCH   7   8
ATOM      8  C   UNL     1     -23.777 -58.973   1.112  1.00  0.00     0.000 C 
BRANCH   8   9
ATOM      9  C   UNL     1     -25.030 -59.826   0.862  1.00  0.00     0.000 C 
BRANCH   9  10
ATOM     10  C   UNL     1     -25.847 -59.268  -0.313  1.00  0.00     0.006 C 
BRANCH  10  11
ATOM     11  C   UNL     1     -25.128 -59.444  -1.657  1.00  0.00     0.053 C 
BRANCH  11  12
ATOM     12  C   UNL     1     -25.390 -58.297  -2.586  1.00  0.00     0.041 C 
ATOM     13  O   UNL     1     -25.955 -58.494  -3.693  1.00  0.00    -0.550 OA
ATOM     14  O   UNL     1     -25.014 -57.010  -2.222  1.00  0.00    -0.550 OA
ENDBRANCH  11  12
ENDBRANCH  10  11
ENDBRANCH   9  10
ENDBRANCH   8   9
ENDBRANCH   7   8
ENDBRANCH   6   7
ENDBRANCH   5   6
ENDBRANCH   4   5
ENDBRANCH   3   4
ENDBRANCH   2   3
ENDBRANCH   1   2
BRANCH   1  15
ATOM     15  C   UNL     1     -24.536 -61.627   5.488  1.00  0.00     0.000 C 
BRANCH  15  16
ATOM     16  C   UNL     1     -23.570 -60.566   6.060  1.00  0.00     0.000 C 
BRANCH  16  17
ATOM     17  C   UNL     1     -22.969 -59.668   4.965  1.00  0.00     0.000 C 
BRANCH  17  18
ATOM     18  C   UNL     1     -22.944 -58.178   5.369  1.00  0.00    -0.000 C 
BRANCH  18  19
ATOM     19  C   UNL     1     -22.518 -57.232   4.229  1.00  0.00    -0.000 C 
BRANCH  19  20
ATOM     20  C   UNL     1     -23.463 -56.039   3.991  1.00  0.00    -0.000 C 
BRANCH  20  21
ATOM     21  C   UNL     1     -24.890 -56.212   4.551  1.00  0.00    -0.000 C 
BRANCH  21  22
ATOM     22  C   UNL     1     -25.928 -56.735   3.542  1.00  0.00    -0.000 C 
BRANCH  22  23
ATOM     23  C   UNL     1     -26.403 -58.161   3.858  1.00  0.00    -0.000 C 
BRANCH  23  24
ATOM     24  C   UNL     1     -27.839 -58.383   3.366  1.00  0.00    -0.000 C 
BRANCH  24  25
ATOM     25  C   UNL     1     -28.019 -59.804   2.822  1.00  0.00    -0.003 C 
ATOM     26  C   UNL     1     -28.547 -60.746   3.900  1.00  0.00     0.004 C 
ENDBRANCH  24  25
ENDBRANCH  23  24
ENDBRANCH  22  23
ENDBRANCH  21  22
ENDBRANCH  20  21
ENDBRANCH  19  20
ENDBRANCH  18  19
ENDBRANCH  17  18
ENDBRANCH  16  17
ENDBRANCH  15  16
ENDBRANCH   1  15
TORSDOF 22
ENDMDL
MODEL 4
REMARK VINA RESULT:    -4.357      1.255      3.395
REMARK INTER + INTRA:         -14.424
REMARK INTER:                 -10.409
REMARK INTRA:                  -4.015
REMARK UNBOUND:                -4.463
REMARK SMILES CCCCCCCCCCCCCCCCCCCCCCCC(=O)[O-]
REMARK SMILES IDX 13 1 14 2 15 3 16 4 17 5 18 6 19 7 20 8 21 9 22 10 23 11
REMARK SMILES IDX 24 12 25 13 26 14 12 15 11 16 10 17 9 18 8 19 7 20 6 21 5 22
REMARK SMILES IDX 4 23 3 24 2 25 1 26
REMARK H PARENT
REMARK Flexibility Score: inf
ROOT
ATOM      1  C   UNL     1     -22.589 -59.448   5.457  1.00  0.00     0.000 C 
ENDROOT
BRANCH   1   2
ATOM      2  C   UNL     1     -23.123 -58.186   4.753  1.00  0.00     0.000 C 
BRANCH   2   3
ATOM      3  C   UNL     1     -24.332 -58.422   3.828  1.00  0.00     0.000 C 
BRANCH   3   4
ATOM      4  C   UNL     1     -23.926 -58.682   2.367  1.00  0.00     0.000 C 
BRANCH   4   5
ATOM      5  C   UNL     1     -22.754 -57.793   1.919  1.00  0.00     0.000 C 
BRANCH   5   6
ATOM      6  C   UNL     1     -21.878 -58.473   0.853  1.00  0.00     0.000 C 
BRANCH   6   7
ATOM      7  C   UNL     1     -21.875 -60.006   0.974  1.00  0.00     0.000 C 
BRANCH   7   8
ATOM      8  C   UNL     1     -22.167 -60.728  -0.358  1.00  0.00     0.000 C 
BRANCH   8   9
ATOM      9  C   UNL     1     -22.879 -59.819  -1.370  1.00  0.00     0.000 C 
BRANCH   9  10
ATOM     10  C   UNL     1     -24.389 -59.768  -1.092  1.00  0.00     0.006 C 
BRANCH  10  11
ATOM     11  C   UNL     1     -24.997 -58.399  -1.430  1.00  0.00     0.053 C 
BRANCH  11  12
ATOM     12  C   UNL     1     -25.907 -58.470  -2.618  1.00  0.00     0.041 C 
ATOM     13  O   UNL     1     -26.756 -57.563  -2.822  1.00  0.00    -0.550 OA
ATOM     14  O   UNL     1     -25.812 -59.536  -3.504  1.00  0.00    -0.550 OA
ENDBRANCH  11  12
ENDBRANCH  10  11
ENDBRANCH   9  10
ENDBRANCH   8   9
ENDBRANCH   7   8
ENDBRANCH   6   7
ENDBRANCH   5   6
ENDBRANCH   4   5
ENDBRANCH   3   4
ENDBRANCH   2   3
ENDBRANCH   1   2
BRANCH   1  15
ATOM     15  C   UNL     1     -23.654 -60.514   5.783  1.00  0.00     0.000 C 
BRANCH  15  16
ATOM     16  C   UNL     1     -23.257 -61.944   5.355  1.00  0.00     0.000 C 
BRANCH  16  17
ATOM     17  C   UNL     1     -22.927 -62.039   3.856  1.00  0.00     0.000 C 
BRANCH  17  18
ATOM     18  C   UNL     1     -24.187 -62.222   2.982  1.00  0.00    -0.000 C 
BRANCH  18  19
ATOM     19  C   UNL     1     -25.249 -63.147   3.610  1.00  0.00    -0.000 C 
BRANCH  19  20
ATOM     20  C   UNL     1     -26.555 -62.444   4.025  1.00  0.00    -0.000 C 
BRANCH  20  21
ATOM     21  C   UNL     1     -26.801 -61.074   3.358  1.00  0.00    -0.000 C 
BRANCH  21  22
ATOM     22  C   UNL     1     -28.158 -60.424   3.685  1.00  0.00    -0.000 C 
BRANCH  22  23
ATOM     23  C   UNL     1     -28.590 -59.385   2.640  1.00  0.00    -0.000 C 
BRANCH  23  24
ATOM     24  C   UNL     1     -27.465 -59.119   1.632  1.00  0.00    -0.000 C 
BRANCH  24  25
ATOM     25  C   UNL     1     -27.612 -57.731   0.998  1.00  0.00    -0.003 C 
ATOM     26  C   UNL     1     -28.983 -57.131   1.296  1.00  0.00     0.004 C 
ENDBRANCH  24  25
ENDBRANCH  23  24
ENDBRANCH  22  23
ENDBRANCH  21  22
ENDBRANCH  20  21
ENDBRANCH  19  20
ENDBRANCH  18  19
ENDBRANCH  17  18
ENDBRANCH  16  17
ENDBRANCH  15  16
ENDBRANCH   1  15
TORSDOF 22
ENDMDL
MODEL 5
REMARK VINA RESULT:    -4.349      1.742      3.108
REMARK INTER + INTRA:         -14.406
REMARK INTER:                 -10.233
REMARK INTRA:                  -4.173
REMARK UNBOUND:                -4.463
REMARK SMILES CCCCCCCCCCCCCCCCCCCCCCCC(=O)[O-]
REMARK SMILES IDX 13 1 14 2 15 3 16 4 17 5 18 6 19 7 20 8 21 9 22 10 23 11
REMARK SMILES IDX 24 12 25 13 26 14 12 15 11 16 10 17 9 18 8 19 7 20 6 21 5 22
REMARK SMILES IDX 4 23 3 24 2 25 1 26
REMARK H PARENT
REMARK Flexibility Score: inf
ROOT
ATOM      1  C   UNL     1     -27.004 -58.080   4.841  1.00  0.00     0.000 C 
ENDROOT
BRANCH   1   2
ATOM      2  C   UNL     1     -26.633 -59.563   4.652  1.00  0.00     0.000 C 
BRANCH   2   3
ATOM      3  C   UNL     1     -26.750 -60.081   3.206  1.00  0.00     0.000 C 
BRANCH   3   4
ATOM      4  C   UNL     1     -25.416 -60.607   2.649  1.00  0.00     0.000 C 
BRANCH   4   5
ATOM      5  C   UNL     1     -25.133 -62.056   3.080  1.00  0.00     0.000 C 
BRANCH   5   6
ATOM      6  C   UNL     1     -23.936 -62.666   2.332  1.00  0.00     0.000 C 
BRANCH   6   7
ATOM      7  C   UNL     1     -22.852 -61.628   1.997  1.00  0.00     0.000 C 
BRANCH   7   8
ATOM      8  C   UNL     1     -22.249 -61.803   0.587  1.00  0.00     0.000 C 
BRANCH   8   9
ATOM      9  C   UNL     1     -21.983 -60.457  -0.103  1.00  0.00     0.000 C 
BRANCH   9  10
ATOM     10  C   UNL     1     -22.915 -60.267  -1.310  1.00  0.00     0.006 C 
BRANCH  10  11
ATOM     11  C   UNL     1     -23.886 -59.095  -1.116  1.00  0.00     0.053 C 
BRANCH  11  12
ATOM     12  C   UNL     1     -25.265 -59.425  -1.600  1.00  0.00     0.041 C 
ATOM     13  O   UNL     1     -26.208 -59.572  -0.779  1.00  0.00    -0.550 OA
ATOM     14  O   UNL     1     -25.508 -59.566  -2.961  1.00  0.00    -0.550 OA
ENDBRANCH  11  12
ENDBRANCH  10  11
ENDBRANCH   9  10
ENDBRANCH   8   9
ENDBRANCH   7   8
ENDBRANCH   6   7
ENDBRANCH   5   6
ENDBRANCH   4   5
ENDBRANCH   3   4
ENDBRANCH   2   3
ENDBRANCH   1   2
BRANCH   1  15
ATOM     15  C   UNL     1     -25.990 -57.251   5.653  1.00  0.00     0.000 C 
BRANCH  15  16
ATOM     16  C   UNL     1     -24.683 -58.008   5.979  1.00  0.00     0.000 C 
BRANCH  16  17
ATOM     17  C   UNL     1     -23.468 -57.069   6.071  1.00  0.00     0.000 C 
BRANCH  17  18
ATOM     18  C   UNL     1     -22.548 -57.168   4.835  1.00  0.00    -0.000 C 
BRANCH  18  19
ATOM     19  C   UNL     1     -23.079 -58.112   3.738  1.00  0.00    -0.000 C 
BRANCH  19  20
ATOM     20  C   UNL     1     -22.617 -57.770   2.310  1.00  0.00    -0.000 C 
BRANCH  20  21
ATOM     21  C   UNL     1     -23.588 -56.884   1.502  1.00  0.00    -0.000 C 
BRANCH  21  22
ATOM     22  C   UNL     1     -25.076 -57.059   1.855  1.00  0.00    -0.000 C 
BRANCH  22  23
ATOM     23  C   UNL     1     -25.754 -55.740   2.254  1.00  0.00    -0.000 C 
BRANCH  23  24
ATOM     24  C   UNL     1     -24.785 -54.837   3.029  1.00  0.00    -0.000 C 
BRANCH  24  25
ATOM     25  C   UNL     1     -24.891 -53.383   2.554  1.00  0.00    -0.003 C 
ATOM     26  C   UNL     1     -24.637 -53.273   1.053  1.00  0.00     0.004 C 
ENDBRANCH  24  25
ENDBRANCH  23  24
ENDBRANCH  22  23
ENDBRANCH  21  22
ENDBRANCH  20  21
ENDBRANCH  19  20
ENDBRANCH  18  19
ENDBRANCH  17  18
ENDBRANCH  16  17
ENDBRANCH  15  16
ENDBRANCH   1  15
TORSDOF 22
ENDMDL
MODEL 6
REMARK VINA RESULT:    -4.295      1.908      4.066
REMARK INTER + INTRA:         -14.283
REMARK INTER:                 -10.160
REMARK INTRA:                  -4.124
REMARK UNBOUND:                -4.463
REMARK SMILES CCCCCCCCCCCCCCCCCCCCCCCC(=O)[O-]
REMARK SMILES IDX 13 1 14 2 15 3 16 4 17 5 18 6 19 7 20 8 21 9 22 10 23 11
REMARK SMILES IDX 24 12 25 13 26 14 12 15 11 16 10 17 9 18 8 19 7 20 6 21 5 22
REMARK SMILES IDX 4 23 3 24 2 25 1 26
REMARK H PARENT
REMARK Flexibility Score: inf
ROOT
ATOM      1  C   UNL     1     -25.720 -61.328   3.212  1.00  0.00     0.000 C 
ENDROOT
BRANCH   1   2
ATOM      2  C   UNL     1     -24.732 -61.211   2.036  1.00  0.00     0.000 C 
BRANCH   2   3
ATOM      3  C   UNL     1     -23.329 -60.702   2.418  1.00  0.00     0.000 C 
BRANCH   3   4
ATOM      4  C   UNL     1     -22.198 -61.574   1.843  1.00  0.00     0.000 C 
BRANCH   4   5
ATOM      5  C   UNL     1     -22.338 -61.786   0.327  1.00  0.00     0.000 C 
BRANCH   5   6
ATOM      6  C   UNL     1     -21.945 -60.535  -0.478  1.00  0.00     0.000 C 
BRANCH   6   7
ATOM      7  C   UNL     1     -23.119 -59.953  -1.283  1.00  0.00     0.000 C 
BRANCH   7   8
ATOM      8  C   UNL     1     -23.753 -58.706  -0.630  1.00  0.00     0.000 C 
BRANCH   8   9
ATOM      9  C   UNL     1     -25.226 -58.528  -1.024  1.00  0.00     0.000 C 
BRANCH   9  10
ATOM     10  C   UNL     1     -26.035 -57.929   0.137  1.00  0.00     0.006 C 
BRANCH  10  11
ATOM     11  C   UNL     1     -26.689 -56.592  -0.239  1.00  0.00     0.053 C 
BRANCH  11  12
ATOM     12  C   UNL     1     -25.683 -55.486  -0.337  1.00  0.00     0.041 C 
ATOM     13  O   UNL     1     -25.504 -54.885  -1.430  1.00  0.00    -0.550 OA
ATOM     14  O   UNL     1     -24.946 -55.115   0.782  1.00  0.00    -0.550 OA
ENDBRANCH  11  12
ENDBRANCH  10  11
ENDBRANCH   9  10
ENDBRANCH   8   9
ENDBRANCH   7   8
ENDBRANCH   6   7
ENDBRANCH   5   6
ENDBRANCH   4   5
ENDBRANCH   3   4
ENDBRANCH   2   3
ENDBRANCH   1   2
BRANCH   1  15
ATOM     15  C   UNL     1     -25.857 -62.741   3.813  1.00  0.00     0.000 C 
BRANCH  15  16
ATOM     16  C   UNL     1     -24.832 -63.756   3.260  1.00  0.00     0.000 C 
BRANCH  16  17
ATOM     17  C   UNL     1     -24.043 -64.461   4.376  1.00  0.00     0.000 C 
BRANCH  17  18
ATOM     18  C   UNL     1     -23.700 -63.515   5.547  1.00  0.00    -0.000 C 
BRANCH  18  19
ATOM     19  C   UNL     1     -22.350 -62.788   5.384  1.00  0.00    -0.000 C 
BRANCH  19  20
ATOM     20  C   UNL     1     -22.355 -61.309   5.815  1.00  0.00    -0.000 C 
BRANCH  20  21
ATOM     21  C   UNL     1     -23.740 -60.743   6.194  1.00  0.00    -0.000 C 
BRANCH  21  22
ATOM     22  C   UNL     1     -23.960 -59.263   5.832  1.00  0.00    -0.000 C 
BRANCH  22  23
ATOM     23  C   UNL     1     -22.653 -58.526   5.508  1.00  0.00    -0.000 C 
BRANCH  23  24
ATOM     24  C   UNL     1     -22.930 -57.083   5.066  1.00  0.00    -0.000 C 
BRANCH  24  25
ATOM     25  C   UNL     1     -23.792 -57.054   3.799  1.00  0.00    -0.003 C 
ATOM     26  C   UNL     1     -22.955 -57.338   2.555  1.00  0.00     0.004 C 
ENDBRANCH  24  25
ENDBRANCH  23  24
ENDBRANCH  22  23
ENDBRANCH  21  22
ENDBRANCH  20  21
ENDBRANCH  19  20
ENDBRANCH  18  19
ENDBRANCH  17  18
ENDBRANCH  16  17
ENDBRANCH  15  16
ENDBRANCH   1  15
TORSDOF 22
ENDMDL
MODEL 7
REMARK VINA RESULT:    -4.263      2.345      5.462
REMARK INTER + INTRA:         -14.210
REMARK INTER:                 -10.279
REMARK INTRA:                  -3.931
REMARK UNBOUND:                -4.463
REMARK SMILES CCCCCCCCCCCCCCCCCCCCCCCC(=O)[O-]
REMARK SMILES IDX 13 1 14 2 15 3 16 4 17 5 18 6 19 7 20 8 21 9 22 10 23 11
REMARK SMILES IDX 24 12 25 13 26 14 12 15 11 16 10 17 9 18 8 19 7 20 6 21 5 22
REMARK SMILES IDX 4 23 3 24 2 25 1 26
REMARK H PARENT
REMARK Flexibility Score: inf
ROOT
ATOM      1  C   UNL     1     -22.570 -60.991   1.448  1.00  0.00     0.000 C 
ENDROOT
BRANCH   1   2
ATOM      2  C   UNL     1     -21.932 -60.163   0.316  1.00  0.00     0.000 C 
BRANCH   2   3
ATOM      3  C   UNL     1     -22.670 -60.234  -1.034  1.00  0.00     0.000 C 
BRANCH   3   4
ATOM      4  C   UNL     1     -23.625 -59.048  -1.257  1.00  0.00     0.000 C 
BRANCH   4   5
ATOM      5  C   UNL     1     -25.101 -59.479  -1.255  1.00  0.00     0.000 C 
BRANCH   5   6
ATOM      6  C   UNL     1     -25.908 -58.797  -0.137  1.00  0.00     0.000 C 
BRANCH   6   7
ATOM      7  C   UNL     1     -25.773 -59.514   1.216  1.00  0.00     0.000 C 
BRANCH   7   8
ATOM      8  C   UNL     1     -25.363 -58.576   2.371  1.00  0.00     0.000 C 
BRANCH   8   9
ATOM      9  C   UNL     1     -24.501 -57.401   1.887  1.00  0.00     0.000 C 
BRANCH   9  10
ATOM     10  C   UNL     1     -23.845 -56.678   3.074  1.00  0.00     0.006 C 
BRANCH  10  11
ATOM     11  C   UNL     1     -24.796 -55.673   3.740  1.00  0.00     0.053 C 
BRANCH  11  12
ATOM     12  C   UNL     1     -24.993 -54.448   2.900  1.00  0.00     0.041 C 
ATOM     13  O   UNL     1     -24.027 -53.676   2.667  1.00  0.00    -0.550 OA
ATOM     14  O   UNL     1     -26.246 -54.165   2.369  1.00  0.00    -0.550 OA
ENDBRANCH  11  12
ENDBRANCH  10  11
ENDBRANCH   9  10
ENDBRANCH   8   9
ENDBRANCH   7   8
ENDBRANCH   6   7
ENDBRANCH   5   6
ENDBRANCH   4   5
ENDBRANCH   3   4
ENDBRANCH   2   3
ENDBRANCH   1   2
BRANCH   1  15
ATOM     15  C   UNL     1     -22.453 -62.519   1.286  1.00  0.00     0.000 C 
BRANCH  15  16
ATOM     16  C   UNL     1     -23.420 -63.319   2.186  1.00  0.00     0.000 C 
BRANCH  16  17
ATOM     17  C   UNL     1     -24.603 -62.467   2.679  1.00  0.00     0.000 C 
BRANCH  17  18
ATOM     18  C   UNL     1     -25.208 -63.000   3.996  1.00  0.00    -0.000 C 
BRANCH  18  19
ATOM     19  C   UNL     1     -24.844 -62.155   5.233  1.00  0.00    -0.000 C 
BRANCH  19  20
ATOM     20  C   UNL     1     -23.437 -62.417   5.804  1.00  0.00    -0.000 C 
BRANCH  20  21
ATOM     21  C   UNL     1     -22.444 -61.245   5.658  1.00  0.00    -0.000 C 
BRANCH  21  22
ATOM     22  C   UNL     1     -23.001 -60.004   4.939  1.00  0.00    -0.000 C 
BRANCH  22  23
ATOM     23  C   UNL     1     -22.823 -58.713   5.751  1.00  0.00    -0.000 C 
BRANCH  23  24
ATOM     24  C   UNL     1     -24.118 -58.343   6.486  1.00  0.00    -0.000 C 
BRANCH  24  25
ATOM     25  C   UNL     1     -23.936 -57.062   7.308  1.00  0.00    -0.003 C 
ATOM     26  C   UNL     1     -22.793 -56.213   6.761  1.00  0.00     0.004 C 
ENDBRANCH  24  25
ENDBRANCH  23  24
ENDBRANCH  22  23
ENDBRANCH  21  22
ENDBRANCH  20  21
ENDBRANCH  19  20
ENDBRANCH  18  19
ENDBRANCH  17  18
ENDBRANCH  16  17
ENDBRANCH  15  16
ENDBRANCH   1  15
TORSDOF 22
ENDMDL
MODEL 8
REMARK VINA RESULT:    -4.214      1.938      4.782
REMARK INTER + INTRA:         -14.097
REMARK INTER:                 -10.402
REMARK INTRA:                  -3.695
REMARK UNBOUND:                -4.463
REMARK SMILES CCCCCCCCCCCCCCCCCCCCCCCC(=O)[O-]
REMARK SMILES IDX 13 1 14 2 15 3 16 4 17 5 18 6 19 7 20 8 21 9 22 10 23 11
REMARK SMILES IDX 24 12 25 13 26 14 12 15 11 16 10 17 9 18 8 19 7 20 6 21 5 22
REMARK SMILES IDX 4 23 3 24 2 25 1 26
REMARK H PARENT
REMARK Flexibility Score: inf
ROOT
ATOM      1  C   UNL     1     -22.084 -61.302  -0.081  1.00  0.00     0.000 C 
ENDROOT
BRANCH   1   2
ATOM      2  C   UNL     1     -21.875 -59.782   0.062  1.00  0.00     0.000 C 
BRANCH   2   3
ATOM      3  C   UNL     1     -22.974 -58.914  -0.579  1.00  0.00     0.000 C 
BRANCH   3   4
ATOM      4  C   UNL     1     -24.053 -59.746  -1.294  1.00  0.00     0.000 C 
BRANCH   4   5
ATOM      5  C   UNL     1     -25.460 -59.488  -0.731  1.00  0.00     0.000 C 
BRANCH   5   6
ATOM      6  C   UNL     1     -25.433 -58.596   0.522  1.00  0.00     0.000 C 
BRANCH   6   7
ATOM      7  C   UNL     1     -26.840 -58.187   0.991  1.00  0.00     0.000 C 
BRANCH   7   8
ATOM      8  C   UNL     1     -27.226 -56.748   0.590  1.00  0.00     0.000 C 
BRANCH   8   9
ATOM      9  C   UNL     1     -26.186 -56.102  -0.337  1.00  0.00     0.000 C 
BRANCH   9  10
ATOM     10  C   UNL     1     -26.819 -54.979  -1.172  1.00  0.00     0.006 C 
BRANCH  10  11
ATOM     11  C   UNL     1     -26.509 -55.121  -2.669  1.00  0.00     0.053 C 
BRANCH  11  12
ATOM     12  C   UNL     1     -26.052 -56.506  -3.016  1.00  0.00     0.041 C 
ATOM     13  O   UNL     1     -24.824 -56.780  -3.044  1.00  0.00    -0.550 OA
ATOM     14  O   UNL     1     -26.986 -57.494  -3.302  1.00  0.00    -0.550 OA
ENDBRANCH  11  12
ENDBRANCH  10  11
ENDBRANCH   9  10
ENDBRANCH   8   9
ENDBRANCH   7   8
ENDBRANCH   6   7
ENDBRANCH   5   6
ENDBRANCH   4   5
ENDBRANCH   3   4
ENDBRANCH   2   3
ENDBRANCH   1   2
BRANCH   1  15
ATOM     15  C   UNL     1     -21.920 -62.110   1.221  1.00  0.00     0.000 C 
BRANCH  15  16
ATOM     16  C   UNL     1     -23.026 -63.165   1.444  1.00  0.00     0.000 C 
BRANCH  16  17
ATOM     17  C   UNL     1     -23.449 -63.269   2.919  1.00  0.00     0.000 C 
BRANCH  17  18
ATOM     18  C   UNL     1     -24.893 -62.774   3.157  1.00  0.00    -0.000 C 
BRANCH  18  19
ATOM     19  C   UNL     1     -25.062 -61.250   2.999  1.00  0.00    -0.000 C 
BRANCH  19  20
ATOM     20  C   UNL     1     -24.232 -60.402   3.980  1.00  0.00    -0.000 C 
BRANCH  20  21
ATOM     21  C   UNL     1     -23.335 -59.331   3.323  1.00  0.00    -0.000 C 
BRANCH  21  22
ATOM     22  C   UNL     1     -23.321 -57.966   4.034  1.00  0.00    -0.000 C 
BRANCH  22  23
ATOM     23  C   UNL     1     -24.595 -57.147   3.781  1.00  0.00    -0.000 C 
BRANCH  23  24
ATOM     24  C   UNL     1     -24.267 -55.825   3.075  1.00  0.00    -0.000 C 
BRANCH  24  25
ATOM     25  C   UNL     1     -25.432 -54.836   3.192  1.00  0.00    -0.003 C 
ATOM     26  C   UNL     1     -25.130 -53.536   2.453  1.00  0.00     0.004 C 
ENDBRANCH  24  25
ENDBRANCH  23  24
ENDBRANCH  22  23
ENDBRANCH  21  22
ENDBRANCH  20  21
ENDBRANCH  19  20
ENDBRANCH  18  19
ENDBRANCH  17  18
ENDBRANCH  16  17
ENDBRANCH  15  16
ENDBRANCH   1  15
TORSDOF 22
ENDMDL
MODEL 9
REMARK VINA RESULT:    -4.164      2.286      4.991
REMARK INTER + INTRA:         -13.983
REMARK INTER:                  -9.686
REMARK INTRA:                  -4.297
REMARK UNBOUND:                -4.463
REMARK SMILES CCCCCCCCCCCCCCCCCCCCCCCC(=O)[O-]
REMARK SMILES IDX 13 1 14 2 15 3 16 4 17 5 18 6 19 7 20 8 21 9 22 10 23 11
REMARK SMILES IDX 24 12 25 13 26 14 12 15 11 16 10 17 9 18 8 19 7 20 6 21 5 22
REMARK SMILES IDX 4 23 3 24 2 25 1 26
REMARK H PARENT
REMARK Flexibility Score: inf
ROOT
ATOM      1  C   UNL     1     -22.569 -62.148   1.304  1.00  0.00     0.000 C 
ENDROOT
BRANCH   1   2
ATOM      2  C   UNL     1     -21.875 -61.258   0.255  1.00  0.00     0.000 C 
BRANCH   2   3
ATOM      3  C   UNL     1     -21.892 -59.751   0.573  1.00  0.00     0.000 C 
BRANCH   3   4
ATOM      4  C   UNL     1     -22.816 -58.951  -0.362  1.00  0.00     0.000 C 
BRANCH   4   5
ATOM      5  C   UNL     1     -23.640 -59.862  -1.287  1.00  0.00     0.000 C 
BRANCH   5   6
ATOM      6  C   UNL     1     -25.131 -59.485  -1.302  1.00  0.00     0.000 C 
BRANCH   6   7
ATOM      7  C   UNL     1     -25.687 -59.202   0.104  1.00  0.00     0.000 C 
BRANCH   7   8
ATOM      8  C   UNL     1     -26.427 -57.852   0.211  1.00  0.00     0.000 C 
BRANCH   8   9
ATOM      9  C   UNL     1     -26.089 -56.908  -0.952  1.00  0.00     0.000 C 
BRANCH   9  10
ATOM     10  C   UNL     1     -25.614 -55.544  -0.430  1.00  0.00     0.006 C 
BRANCH  10  11
ATOM     11  C   UNL     1     -24.889 -55.657   0.918  1.00  0.00     0.053 C 
BRANCH  11  12
ATOM     12  C   UNL     1     -25.237 -54.526   1.838  1.00  0.00     0.041 C 
ATOM     13  O   UNL     1     -24.349 -53.717   2.213  1.00  0.00    -0.550 OA
ATOM     14  O   UNL     1     -26.547 -54.365   2.275  1.00  0.00    -0.550 OA
ENDBRANCH  11  12
ENDBRANCH  10  11
ENDBRANCH   9  10
ENDBRANCH   8   9
ENDBRANCH   7   8
ENDBRANCH   6   7
ENDBRANCH   5   6
ENDBRANCH   4   5
ENDBRANCH   3   4
ENDBRANCH   2   3
ENDBRANCH   1   2
BRANCH   1  15
ATOM     15  C   UNL     1     -23.222 -61.391   2.476  1.00  0.00     0.000 C 
BRANCH  15  16
ATOM     16  C   UNL     1     -24.766 -61.379   2.430  1.00  0.00     0.000 C 
BRANCH  16  17
ATOM     17  C   UNL     1     -25.397 -61.818   3.762  1.00  0.00     0.000 C 
BRANCH  17  18
ATOM     18  C   UNL     1     -26.826 -61.263   3.952  1.00  0.00    -0.000 C 
BRANCH  18  19
ATOM     19  C   UNL     1     -26.885 -59.970   4.788  1.00  0.00    -0.000 C 
BRANCH  19  20
ATOM     20  C   UNL     1     -27.259 -58.704   3.994  1.00  0.00    -0.000 C 
BRANCH  20  21
ATOM     21  C   UNL     1     -26.169 -57.613   3.950  1.00  0.00    -0.000 C 
BRANCH  21  22
ATOM     22  C   UNL     1     -24.741 -58.128   3.696  1.00  0.00    -0.000 C 
BRANCH  22  23
ATOM     23  C   UNL     1     -23.679 -57.371   4.506  1.00  0.00    -0.000 C 
BRANCH  23  24
ATOM     24  C   UNL     1     -22.633 -58.335   5.078  1.00  0.00    -0.000 C 
BRANCH  24  25
ATOM     25  C   UNL     1     -23.302 -59.466   5.867  1.00  0.00    -0.003 C 
ATOM     26  C   UNL     1     -22.457 -60.736   5.837  1.00  0.00     0.004 C 
ENDBRANCH  24  25
ENDBRANCH  23  24
ENDBRANCH  22  23
ENDBRANCH  21  22
ENDBRANCH  20  21
ENDBRANCH  19  20
ENDBRANCH  18  19
ENDBRANCH  17  18
ENDBRANCH  16  17
ENDBRANCH  15  16
ENDBRANCH   1  15
TORSDOF 22
ENDMDL
