MODEL 1
REMARK VINA RESULT:    -6.232      0.000      0.000
REMARK INTER + INTRA:         -13.197
REMARK INTER:                 -10.239
REMARK INTRA:                  -2.958
REMARK UNBOUND:                -2.958
REMARK SMILES C[C@@H]1O[C@@H](OC[C@H]2O[C@@H](Oc3c(-c4ccc(O)c(O)c4)oc4cc(O)cc(O)c4c3=O)[C@H](O)[C@@H](O)[C@@H]2O)[C@H](O)[C@@H](O)[C@H]1O
REMARK SMILES IDX 7 1 36 2 34 3 32 4 9 5 8 6 6 7 5 8 4 9 1 10 2 11 42 12 3 13
REMARK SMILES IDX 40 14 38 15 43 16 41 18 39 20 37 22 35 24 10 26 11 27 12 28
REMARK SMILES IDX 30 29 21 30 29 31 31 32 22 33 27 34 23 35 26 36 24 37 13 38
REMARK SMILES IDX 20 39 14 40 18 41 15 42 16 43 19 44 17 46 28 48 25 50 33 52
REMARK H PARENT 43 17 41 19 39 21 37 23 35 25 19 45 17 47 28 49 25 51 33 53
REMARK Flexibility Score: inf
ROOT
ATOM      1  C   UNL     1      28.409   0.091  18.112  1.00  0.00     0.180 C 
ATOM      2  C   UNL     1      26.918   0.017  18.528  1.00  0.00     0.177 C 
ATOM      3  C   UNL     1      26.750  -0.798  19.880  1.00  0.00     0.180 C 
ATOM      4  C   UNL     1      28.020  -0.681  20.817  1.00  0.00     0.214 C 
ATOM      5  C   UNL     1      28.878   0.537  20.471  1.00  0.00     0.339 C 
ATOM      6  O   UNL     1      29.356   0.371  19.174  1.00  0.00    -0.332 OA
ENDROOT
BRANCH   1   7
ATOM      7  C   UNL     1      28.987   0.877  16.882  1.00  0.00     0.198 C 
BRANCH   7   8
ATOM      8  O   UNL     1      29.179   2.275  16.721  1.00  0.00    -0.347 OA
BRANCH   8   9
ATOM      9  C   UNL     1      28.302   2.803  15.692  1.00  0.00     0.281 C 
ATOM     10  C   UNL     1      28.460   6.756  15.309  1.00  0.00     0.041 C 
ATOM     11  C   UNL     1      28.166   5.317  16.016  1.00  0.00     0.150 C 
ATOM     12  C   UNL     1      26.716   5.363  16.465  1.00  0.00     0.174 C 
ATOM     13  O   UNL     1      28.572   4.160  15.162  1.00  0.00    -0.344 OA
ATOM     14  C   UNL     1      26.276   3.912  16.876  1.00  0.00     0.179 C 
ATOM     15  C   UNL     1      26.810   2.632  16.130  1.00  0.00     0.202 C 
BRANCH  12  16
ATOM     16  O   UNL     1      26.492   6.216  17.564  1.00  0.00    -0.388 OA
ATOM     17  H   UNL     1      27.399   6.498  17.962  1.00  0.00     0.211 HD
ENDBRANCH  12  16
BRANCH  14  18
ATOM     18  O   UNL     1      26.708   3.618  18.243  1.00  0.00    -0.387 OA
ATOM     19  H   UNL     1      25.898   3.135  18.597  1.00  0.00     0.211 HD
ENDBRANCH  14  18
BRANCH  15  20
ATOM     20  O   UNL     1      25.986   2.252  15.047  1.00  0.00    -0.385 OA
ATOM     21  H   UNL     1      26.020   1.240  14.957  1.00  0.00     0.211 HD
ENDBRANCH  15  20
ENDBRANCH   8   9
ENDBRANCH   7   8
ENDBRANCH   1   7
BRANCH   2  22
ATOM     22  O   UNL     1      26.059  -0.665  17.599  1.00  0.00    -0.387 OA
ATOM     23  H   UNL     1      26.367  -0.379  16.654  1.00  0.00     0.211 HD
ENDBRANCH   2  22
BRANCH   3  24
ATOM     24  O   UNL     1      25.577  -0.405  20.494  1.00  0.00    -0.387 OA
ATOM     25  H   UNL     1      24.811  -0.665  19.860  1.00  0.00     0.211 HD
ENDBRANCH   3  24
BRANCH   5  26
ATOM     26  O   UNL     1      28.070   1.750  20.471  1.00  0.00    -0.454 OA
BRANCH  26  27
ATOM     27  C   UNL     1      28.453   2.864  21.290  1.00  0.00     0.214 A 
ATOM     28  C   UNL     1      28.175   2.922  22.664  1.00  0.00     0.180 A 
ATOM     29  C   UNL     1      29.111   3.997  20.715  1.00  0.00     0.239 A 
ATOM     30  O   UNL     1      28.611   3.952  23.387  1.00  0.00    -0.452 OA
ATOM     31  C   UNL     1      29.551   5.089  21.488  1.00  0.00     0.111 A 
ATOM     32  O   UNL     1      29.289   3.994  19.454  1.00  0.00    -0.285 OA
ATOM     33  C   UNL     1      29.283   4.998  22.901  1.00  0.00     0.146 A 
ATOM     34  C   UNL     1      30.244   6.253  20.972  1.00  0.00     0.134 A 
ATOM     35  C   UNL     1      29.681   6.061  23.743  1.00  0.00     0.094 A 
ATOM     36  C   UNL     1      30.646   7.255  21.859  1.00  0.00     0.093 A 
ATOM     37  C   UNL     1      30.368   7.174  23.230  1.00  0.00     0.123 A 
BRANCH  28  38
ATOM     38  C   UNL     1      27.200   2.040  23.408  1.00  0.00     0.025 A 
ATOM     39  C   UNL     1      27.484   1.888  24.776  1.00  0.00     0.062 A 
ATOM     40  C   UNL     1      25.840   2.236  22.881  1.00  0.00     0.016 A 
ATOM     41  C   UNL     1      26.582   2.606  25.751  1.00  0.00     0.158 A 
ATOM     42  C   UNL     1      24.914   2.575  23.932  1.00  0.00     0.051 A 
ATOM     43  C   UNL     1      25.469   3.234  25.130  1.00  0.00     0.157 A 
BRANCH  41  44
ATOM     44  O   UNL     1      25.345   2.296  26.430  1.00  0.00    -0.504 OA
ATOM     45  H   UNL     1      25.226   1.962  27.377  1.00  0.00     0.293 HD
ENDBRANCH  41  44
BRANCH  43  46
ATOM     46  O   UNL     1      25.245   4.605  25.373  1.00  0.00    -0.504 OA
ATOM     47  H   UNL     1      25.021   4.993  26.331  1.00  0.00     0.293 HD
ENDBRANCH  43  46
ENDBRANCH  28  38
BRANCH  34  48
ATOM     48  O   UNL     1      30.578   6.434  19.629  1.00  0.00    -0.507 OA
ATOM     49  H   UNL     1      30.378   7.331  19.154  1.00  0.00     0.293 HD
ENDBRANCH  34  48
BRANCH  37  50
ATOM     50  O   UNL     1      30.745   8.218  24.125  1.00  0.00    -0.508 OA
ATOM     51  H   UNL     1      30.018   8.815  24.563  1.00  0.00     0.293 HD
ENDBRANCH  37  50
ENDBRANCH  26  27
ENDBRANCH   5  26
BRANCH   4  52
ATOM     52  O   UNL     1      28.823  -1.820  20.608  1.00  0.00    -0.384 OA
ATOM     53  H   UNL     1      29.828  -1.518  20.546  1.00  0.00     0.211 HD
ENDBRANCH   4  52
TORSDOF 16
ENDMDL
MODEL 2
REMARK VINA RESULT:    -6.109      7.376     12.849
REMARK INTER + INTRA:         -12.996
REMARK INTER:                 -11.262
REMARK INTRA:                  -1.734
REMARK UNBOUND:                -2.958
REMARK SMILES C[C@@H]1O[C@@H](OC[C@H]2O[C@@H](Oc3c(-c4ccc(O)c(O)c4)oc4cc(O)cc(O)c4c3=O)[C@H](O)[C@@H](O)[C@@H]2O)[C@H](O)[C@@H](O)[C@H]1O
REMARK SMILES IDX 7 1 36 2 34 3 32 4 9 5 8 6 6 7 5 8 4 9 1 10 2 11 42 12 3 13
REMARK SMILES IDX 40 14 38 15 43 16 41 18 39 20 37 22 35 24 10 26 11 27 12 28
REMARK SMILES IDX 30 29 21 30 29 31 31 32 22 33 27 34 23 35 26 36 24 37 13 38
REMARK SMILES IDX 20 39 14 40 18 41 15 42 16 43 19 44 17 46 28 48 25 50 33 52
REMARK H PARENT 43 17 41 19 39 21 37 23 35 25 19 45 17 47 28 49 25 51 33 53
REMARK Flexibility Score: inf
ROOT
ATOM      1  C   UNL     1      28.079   8.846  30.506  1.00  0.00     0.180 C 
ATOM      2  C   UNL     1      28.520   7.644  31.380  1.00  0.00     0.177 C 
ATOM      3  C   UNL     1      28.149   7.890  32.903  1.00  0.00     0.180 C 
ATOM      4  C   UNL     1      26.867   8.802  33.073  1.00  0.00     0.214 C 
ATOM      5  C   UNL     1      26.009   8.827  31.808  1.00  0.00     0.339 C 
ATOM      6  O   UNL     1      26.766   9.393  30.786  1.00  0.00    -0.332 OA
ENDROOT
BRANCH   1   7
ATOM      7  C   UNL     1      28.196   8.944  28.943  1.00  0.00     0.198 C 
BRANCH   7   8
ATOM      8  O   UNL     1      29.354   9.133  28.141  1.00  0.00    -0.347 OA
BRANCH   8   9
ATOM      9  C   UNL     1      30.070   7.883  27.962  1.00  0.00     0.281 C 
ATOM     10  C   UNL     1      31.102   7.140  24.196  1.00  0.00     0.041 C 
ATOM     11  C   UNL     1      30.119   7.377  25.475  1.00  0.00     0.150 C 
ATOM     12  C   UNL     1      29.194   6.174  25.517  1.00  0.00     0.174 C 
ATOM     13  O   UNL     1      30.868   7.698  26.728  1.00  0.00    -0.344 OA
ATOM     14  C   UNL     1      28.430   6.182  26.890  1.00  0.00     0.179 C 
ATOM     15  C   UNL     1      29.105   6.680  28.222  1.00  0.00     0.202 C 
BRANCH  12  16
ATOM     16  O   UNL     1      28.237   6.161  24.483  1.00  0.00    -0.388 OA
ATOM     17  H   UNL     1      27.946   5.188  24.307  1.00  0.00     0.211 HD
ENDBRANCH  12  16
BRANCH  14  18
ATOM     18  O   UNL     1      27.279   7.085  26.826  1.00  0.00    -0.387 OA
ATOM     19  H   UNL     1      26.706   6.713  27.566  1.00  0.00     0.211 HD
ENDBRANCH  14  18
BRANCH  15  20
ATOM     20  O   UNL     1      29.747   5.637  28.927  1.00  0.00    -0.385 OA
ATOM     21  H   UNL     1      29.157   4.810  28.887  1.00  0.00     0.211 HD
ENDBRANCH  15  20
ENDBRANCH   8   9
ENDBRANCH   7   8
ENDBRANCH   1   7
BRANCH   2  22
ATOM     22  O   UNL     1      29.934   7.391  31.400  1.00  0.00    -0.387 OA
ATOM     23  H   UNL     1      30.279   7.591  30.446  1.00  0.00     0.211 HD
ENDBRANCH   2  22
BRANCH   3  24
ATOM     24  O   UNL     1      28.041   6.669  33.538  1.00  0.00    -0.387 OA
ATOM     25  H   UNL     1      27.300   6.767  34.243  1.00  0.00     0.211 HD
ENDBRANCH   3  24
BRANCH   5  26
ATOM     26  O   UNL     1      25.677   7.471  31.387  1.00  0.00    -0.454 OA
BRANCH  26  27
ATOM     27  C   UNL     1      24.400   6.911  31.719  1.00  0.00     0.214 A 
ATOM     28  C   UNL     1      23.224   7.252  31.033  1.00  0.00     0.180 A 
ATOM     29  C   UNL     1      24.268   5.996  32.811  1.00  0.00     0.239 A 
ATOM     30  O   UNL     1      22.076   6.652  31.343  1.00  0.00    -0.452 OA
ATOM     31  C   UNL     1      23.044   5.382  33.140  1.00  0.00     0.111 A 
ATOM     32  O   UNL     1      25.313   5.747  33.496  1.00  0.00    -0.285 OA
ATOM     33  C   UNL     1      21.923   5.746  32.312  1.00  0.00     0.146 A 
ATOM     34  C   UNL     1      22.851   4.429  34.215  1.00  0.00     0.134 A 
ATOM     35  C   UNL     1      20.656   5.184  32.588  1.00  0.00     0.094 A 
ATOM     36  C   UNL     1      21.582   3.878  34.416  1.00  0.00     0.093 A 
ATOM     37  C   UNL     1      20.489   4.247  33.622  1.00  0.00     0.123 A 
BRANCH  28  38
ATOM     38  C   UNL     1      23.049   8.435  30.109  1.00  0.00     0.025 A 
ATOM     39  C   UNL     1      22.989   8.100  28.746  1.00  0.00     0.062 A 
ATOM     40  C   UNL     1      22.175   9.439  30.735  1.00  0.00     0.016 A 
ATOM     41  C   UNL     1      21.642   8.197  28.070  1.00  0.00     0.158 A 
ATOM     42  C   UNL     1      21.068   9.778  29.877  1.00  0.00     0.051 A 
ATOM     43  C   UNL     1      20.636   8.757  28.902  1.00  0.00     0.157 A 
BRANCH  41  44
ATOM     44  O   UNL     1      20.903   9.234  27.390  1.00  0.00    -0.504 OA
ATOM     45  H   UNL     1      21.240   9.870  26.679  1.00  0.00     0.293 HD
ENDBRANCH  41  44
BRANCH  43  46
ATOM     46  O   UNL     1      19.435   8.040  29.087  1.00  0.00    -0.504 OA
ATOM     47  H   UNL     1      18.616   8.418  29.637  1.00  0.00     0.293 HD
ENDBRANCH  43  46
ENDBRANCH  28  38
BRANCH  34  48
ATOM     48  O   UNL     1      23.868   3.985  35.061  1.00  0.00    -0.507 OA
ATOM     49  H   UNL     1      23.705   3.194  35.709  1.00  0.00     0.293 HD
ENDBRANCH  34  48
BRANCH  37  50
ATOM     50  O   UNL     1      19.188   3.712  33.857  1.00  0.00    -0.508 OA
ATOM     51  H   UNL     1      18.407   3.944  33.215  1.00  0.00     0.293 HD
ENDBRANCH  37  50
ENDBRANCH  26  27
ENDBRANCH   5  26
BRANCH   4  52
ATOM     52  O   UNL     1      27.299  10.125  33.300  1.00  0.00    -0.384 OA
ATOM     53  H   UNL     1      28.349  10.147  33.269  1.00  0.00     0.211 HD
ENDBRANCH   4  52
TORSDOF 16
ENDMDL
MODEL 3
REMARK VINA RESULT:    -5.769      7.014     11.980
REMARK INTER + INTRA:         -12.437
REMARK INTER:                 -10.265
REMARK INTRA:                  -2.172
REMARK UNBOUND:                -2.958
REMARK SMILES C[C@@H]1O[C@@H](OC[C@H]2O[C@@H](Oc3c(-c4ccc(O)c(O)c4)oc4cc(O)cc(O)c4c3=O)[C@H](O)[C@@H](O)[C@@H]2O)[C@H](O)[C@@H](O)[C@H]1O
REMARK SMILES IDX 7 1 36 2 34 3 32 4 9 5 8 6 6 7 5 8 4 9 1 10 2 11 42 12 3 13
REMARK SMILES IDX 40 14 38 15 43 16 41 18 39 20 37 22 35 24 10 26 11 27 12 28
REMARK SMILES IDX 30 29 21 30 29 31 31 32 22 33 27 34 23 35 26 36 24 37 13 38
REMARK SMILES IDX 20 39 14 40 18 41 15 42 16 43 19 44 17 46 28 48 25 50 33 52
REMARK H PARENT 43 17 41 19 39 21 37 23 35 25 19 45 17 47 28 49 25 51 33 53
REMARK Flexibility Score: inf
ROOT
ATOM      1  C   UNL     1      28.164   7.923  28.953  1.00  0.00     0.180 C 
ATOM      2  C   UNL     1      28.536   6.984  30.130  1.00  0.00     0.177 C 
ATOM      3  C   UNL     1      28.444   7.754  31.515  1.00  0.00     0.180 C 
ATOM      4  C   UNL     1      27.364   8.910  31.492  1.00  0.00     0.214 C 
ATOM      5  C   UNL     1      26.338   8.716  30.374  1.00  0.00     0.339 C 
ATOM      6  O   UNL     1      27.012   8.780  29.158  1.00  0.00    -0.332 OA
ENDROOT
BRANCH   1   7
ATOM      7  C   UNL     1      28.057   7.512  27.442  1.00  0.00     0.198 C 
BRANCH   7   8
ATOM      8  O   UNL     1      27.885   6.222  26.873  1.00  0.00    -0.347 OA
BRANCH   8   9
ATOM      9  C   UNL     1      27.064   6.287  25.678  1.00  0.00     0.281 C 
ATOM     10  C   UNL     1      24.618   3.186  25.230  1.00  0.00     0.041 C 
ATOM     11  C   UNL     1      26.029   3.995  25.333  1.00  0.00     0.150 C 
ATOM     12  C   UNL     1      26.808   3.632  24.080  1.00  0.00     0.174 C 
ATOM     13  O   UNL     1      25.843   5.450  25.615  1.00  0.00    -0.344 OA
ATOM     14  C   UNL     1      28.038   4.603  23.960  1.00  0.00     0.179 C 
ATOM     15  C   UNL     1      27.963   6.110  24.410  1.00  0.00     0.202 C 
BRANCH  12  16
ATOM     16  O   UNL     1      27.293   2.309  24.079  1.00  0.00    -0.388 OA
ATOM     17  H   UNL     1      27.958   2.195  23.301  1.00  0.00     0.211 HD
ENDBRANCH  12  16
BRANCH  14  18
ATOM     18  O   UNL     1      29.140   4.133  24.802  1.00  0.00    -0.387 OA
ATOM     19  H   UNL     1      29.439   4.999  25.221  1.00  0.00     0.211 HD
ENDBRANCH  14  18
BRANCH  15  20
ATOM     20  O   UNL     1      27.563   6.969  23.362  1.00  0.00    -0.385 OA
ATOM     21  H   UNL     1      28.282   6.957  22.643  1.00  0.00     0.211 HD
ENDBRANCH  15  20
ENDBRANCH   8   9
ENDBRANCH   7   8
ENDBRANCH   1   7
BRANCH   2  22
ATOM     22  O   UNL     1      29.878   6.473  30.101  1.00  0.00    -0.387 OA
ATOM     23  H   UNL     1      30.499   7.275  30.301  1.00  0.00     0.211 HD
ENDBRANCH   2  22
BRANCH   3  24
ATOM     24  O   UNL     1      28.241   6.833  32.523  1.00  0.00    -0.387 OA
ATOM     25  H   UNL     1      28.938   6.090  32.389  1.00  0.00     0.211 HD
ENDBRANCH   3  24
BRANCH   5  26
ATOM     26  O   UNL     1      25.736   7.391  30.455  1.00  0.00    -0.454 OA
BRANCH  26  27
ATOM     27  C   UNL     1      24.507   7.206  31.171  1.00  0.00     0.214 A 
ATOM     28  C   UNL     1      23.276   7.684  30.695  1.00  0.00     0.180 A 
ATOM     29  C   UNL     1      24.497   6.550  32.442  1.00  0.00     0.239 A 
ATOM     30  O   UNL     1      22.158   7.428  31.371  1.00  0.00    -0.452 OA
ATOM     31  C   UNL     1      23.309   6.300  33.156  1.00  0.00     0.111 A 
ATOM     32  O   UNL     1      25.620   6.190  32.924  1.00  0.00    -0.285 OA
ATOM     33  C   UNL     1      22.098   6.764  32.528  1.00  0.00     0.146 A 
ATOM     34  C   UNL     1      23.229   5.619  34.432  1.00  0.00     0.134 A 
ATOM     35  C   UNL     1      20.864   6.564  33.188  1.00  0.00     0.094 A 
ATOM     36  C   UNL     1      21.976   5.418  35.020  1.00  0.00     0.093 A 
ATOM     37  C   UNL     1      20.802   5.885  34.416  1.00  0.00     0.123 A 
BRANCH  28  38
ATOM     38  C   UNL     1      23.088   8.697  29.590  1.00  0.00     0.025 A 
ATOM     39  C   UNL     1      22.928   8.135  28.312  1.00  0.00     0.062 A 
ATOM     40  C   UNL     1      22.294   9.835  30.079  1.00  0.00     0.016 A 
ATOM     41  C   UNL     1      21.546   8.178  27.707  1.00  0.00     0.158 A 
ATOM     42  C   UNL     1      21.148  10.074  29.238  1.00  0.00     0.051 A 
ATOM     43  C   UNL     1      20.616   8.922  28.483  1.00  0.00     0.157 A 
BRANCH  41  44
ATOM     44  O   UNL     1      20.804   9.118  26.898  1.00  0.00    -0.504 OA
ATOM     45  H   UNL     1      20.664  10.105  27.068  1.00  0.00     0.293 HD
ENDBRANCH  41  44
BRANCH  43  46
ATOM     46  O   UNL     1      19.404   8.306  28.858  1.00  0.00    -0.504 OA
ATOM     47  H   UNL     1      18.482   8.506  28.380  1.00  0.00     0.293 HD
ENDBRANCH  43  46
ENDBRANCH  28  38
BRANCH  34  48
ATOM     48  O   UNL     1      24.331   5.106  35.117  1.00  0.00    -0.507 OA
ATOM     49  H   UNL     1      24.252   4.833  36.113  1.00  0.00     0.293 HD
ENDBRANCH  34  48
BRANCH  37  50
ATOM     50  O   UNL     1      19.530   5.713  35.040  1.00  0.00    -0.508 OA
ATOM     51  H   UNL     1      19.247   6.333  35.822  1.00  0.00     0.293 HD
ENDBRANCH  37  50
ENDBRANCH  26  27
ENDBRANCH   5  26
BRANCH   4  52
ATOM     52  O   UNL     1      28.029  10.125  31.231  1.00  0.00    -0.384 OA
ATOM     53  H   UNL     1      28.790  10.254  31.944  1.00  0.00     0.211 HD
ENDBRANCH   4  52
TORSDOF 16
ENDMDL
MODEL 4
REMARK VINA RESULT:    -5.403      1.759      6.130
REMARK INTER + INTRA:         -11.835
REMARK INTER:                  -9.820
REMARK INTRA:                  -2.015
REMARK UNBOUND:                -2.958
REMARK SMILES C[C@@H]1O[C@@H](OC[C@H]2O[C@@H](Oc3c(-c4ccc(O)c(O)c4)oc4cc(O)cc(O)c4c3=O)[C@H](O)[C@@H](O)[C@@H]2O)[C@H](O)[C@@H](O)[C@H]1O
REMARK SMILES IDX 7 1 36 2 34 3 32 4 9 5 8 6 6 7 5 8 4 9 1 10 2 11 42 12 3 13
REMARK SMILES IDX 40 14 38 15 43 16 41 18 39 20 37 22 35 24 10 26 11 27 12 28
REMARK SMILES IDX 30 29 21 30 29 31 31 32 22 33 27 34 23 35 26 36 24 37 13 38
REMARK SMILES IDX 20 39 14 40 18 41 15 42 16 43 19 44 17 46 28 48 25 50 33 52
REMARK H PARENT 43 17 41 19 39 21 37 23 35 25 19 45 17 47 28 49 25 51 33 53
REMARK Flexibility Score: inf
ROOT
ATOM      1  C   UNL     1      27.313  -0.321  21.657  1.00  0.00     0.180 C 
ATOM      2  C   UNL     1      28.470  -1.121  21.005  1.00  0.00     0.177 C 
ATOM      3  C   UNL     1      28.075  -1.591  19.542  1.00  0.00     0.180 C 
ATOM      4  C   UNL     1      27.058  -0.600  18.843  1.00  0.00     0.214 C 
ATOM      5  C   UNL     1      27.072   0.786  19.490  1.00  0.00     0.339 C 
ATOM      6  O   UNL     1      26.648   0.649  20.808  1.00  0.00    -0.332 OA
ENDROOT
BRANCH   1   7
ATOM      7  C   UNL     1      27.350   0.379  23.062  1.00  0.00     0.198 C 
BRANCH   7   8
ATOM      8  O   UNL     1      27.747   1.702  23.395  1.00  0.00    -0.347 OA
BRANCH   8   9
ATOM      9  C   UNL     1      26.592   2.568  23.543  1.00  0.00     0.281 C 
ATOM     10  C   UNL     1      27.504   6.377  24.216  1.00  0.00     0.041 C 
ATOM     11  C   UNL     1      27.404   4.774  24.498  1.00  0.00     0.150 C 
ATOM     12  C   UNL     1      26.752   4.632  25.862  1.00  0.00     0.174 C 
ATOM     13  O   UNL     1      26.776   4.027  23.367  1.00  0.00    -0.344 OA
ATOM     14  C   UNL     1      26.346   3.129  26.065  1.00  0.00     0.179 C 
ATOM     15  C   UNL     1      25.844   2.227  24.875  1.00  0.00     0.202 C 
BRANCH  12  16
ATOM     16  O   UNL     1      27.589   5.009  26.931  1.00  0.00    -0.388 OA
ATOM     17  H   UNL     1      27.264   5.909  27.313  1.00  0.00     0.211 HD
ENDBRANCH  12  16
BRANCH  14  18
ATOM     18  O   UNL     1      27.499   2.348  26.517  1.00  0.00    -0.387 OA
ATOM     19  H   UNL     1      28.144   3.084  26.753  1.00  0.00     0.211 HD
ENDBRANCH  14  18
BRANCH  15  20
ATOM     20  O   UNL     1      24.441   2.273  24.715  1.00  0.00    -0.385 OA
ATOM     21  H   UNL     1      24.015   1.722  25.455  1.00  0.00     0.211 HD
ENDBRANCH  15  20
ENDBRANCH   8   9
ENDBRANCH   7   8
ENDBRANCH   1   7
BRANCH   2  22
ATOM     22  O   UNL     1      28.826  -2.338  21.681  1.00  0.00    -0.387 OA
ATOM     23  H   UNL     1      28.264  -2.364  22.549  1.00  0.00     0.211 HD
ENDBRANCH   2  22
BRANCH   3  24
ATOM     24  O   UNL     1      29.229  -1.797  18.813  1.00  0.00    -0.387 OA
ATOM     25  H   UNL     1      29.734  -0.902  18.802  1.00  0.00     0.211 HD
ENDBRANCH   3  24
BRANCH   5  26
ATOM     26  O   UNL     1      28.428   1.318  19.535  1.00  0.00    -0.454 OA
BRANCH  26  27
ATOM     27  C   UNL     1      28.652   2.674  19.942  1.00  0.00     0.214 A 
ATOM     28  C   UNL     1      28.125   3.770  19.240  1.00  0.00     0.180 A 
ATOM     29  C   UNL     1      29.468   2.968  21.079  1.00  0.00     0.239 A 
ATOM     30  O   UNL     1      28.312   5.006  19.701  1.00  0.00    -0.452 OA
ATOM     31  C   UNL     1      29.673   4.280  21.546  1.00  0.00     0.111 A 
ATOM     32  O   UNL     1      30.022   1.985  21.672  1.00  0.00    -0.285 OA
ATOM     33  C   UNL     1      29.014   5.317  20.794  1.00  0.00     0.146 A 
ATOM     34  C   UNL     1      30.466   4.641  22.704  1.00  0.00     0.134 A 
ATOM     35  C   UNL     1      29.181   6.664  21.190  1.00  0.00     0.094 A 
ATOM     36  C   UNL     1      30.565   5.987  23.070  1.00  0.00     0.093 A 
ATOM     37  C   UNL     1      29.939   6.995  22.326  1.00  0.00     0.123 A 
BRANCH  28  38
ATOM     38  C   UNL     1      27.553   3.734  17.843  1.00  0.00     0.025 A 
ATOM     39  C   UNL     1      26.157   3.578  17.793  1.00  0.00     0.062 A 
ATOM     40  C   UNL     1      28.296   4.656  16.969  1.00  0.00     0.016 A 
ATOM     41  C   UNL     1      25.342   4.786  17.400  1.00  0.00     0.158 A 
ATOM     42  C   UNL     1      27.411   5.586  16.315  1.00  0.00     0.051 A 
ATOM     43  C   UNL     1      26.136   5.893  16.995  1.00  0.00     0.157 A 
BRANCH  41  44
ATOM     44  O   UNL     1      24.876   5.354  16.156  1.00  0.00    -0.504 OA
ATOM     45  H   UNL     1      23.957   5.723  15.951  1.00  0.00     0.293 HD
ENDBRANCH  41  44
BRANCH  43  46
ATOM     46  O   UNL     1      25.932   7.138  17.625  1.00  0.00    -0.504 OA
ATOM     47  H   UNL     1      25.000   7.436  18.025  1.00  0.00     0.293 HD
ENDBRANCH  43  46
ENDBRANCH  28  38
BRANCH  34  48
ATOM     48  O   UNL     1      31.124   3.721  23.521  1.00  0.00    -0.507 OA
ATOM     49  H   UNL     1      31.507   4.010  24.438  1.00  0.00     0.293 HD
ENDBRANCH  34  48
BRANCH  37  50
ATOM     50  O   UNL     1      30.076   8.370  22.680  1.00  0.00    -0.508 OA
ATOM     51  H   UNL     1      31.001   8.835  22.609  1.00  0.00     0.293 HD
ENDBRANCH  37  50
ENDBRANCH  26  27
ENDBRANCH   5  26
BRANCH   4  52
ATOM     52  O   UNL     1      25.758  -1.117  19.011  1.00  0.00    -0.384 OA
ATOM     53  H   UNL     1      25.412  -0.856  19.969  1.00  0.00     0.211 HD
ENDBRANCH   4  52
TORSDOF 16
ENDMDL
MODEL 5
REMARK VINA RESULT:    -5.323      2.388      3.961
REMARK INTER + INTRA:         -11.704
REMARK INTER:                  -9.574
REMARK INTRA:                  -2.130
REMARK UNBOUND:                -2.958
REMARK SMILES C[C@@H]1O[C@@H](OC[C@H]2O[C@@H](Oc3c(-c4ccc(O)c(O)c4)oc4cc(O)cc(O)c4c3=O)[C@H](O)[C@@H](O)[C@@H]2O)[C@H](O)[C@@H](O)[C@H]1O
REMARK SMILES IDX 7 1 36 2 34 3 32 4 9 5 8 6 6 7 5 8 4 9 1 10 2 11 42 12 3 13
REMARK SMILES IDX 40 14 38 15 43 16 41 18 39 20 37 22 35 24 10 26 11 27 12 28
REMARK SMILES IDX 30 29 21 30 29 31 31 32 22 33 27 34 23 35 26 36 24 37 13 38
REMARK SMILES IDX 20 39 14 40 18 41 15 42 16 43 19 44 17 46 28 48 25 50 33 52
REMARK H PARENT 43 17 41 19 39 21 37 23 35 25 19 45 17 47 28 49 25 51 33 53
REMARK Flexibility Score: inf
ROOT
ATOM      1  C   UNL     1      27.285   0.392  20.138  1.00  0.00     0.180 C 
ATOM      2  C   UNL     1      27.922  -0.118  21.457  1.00  0.00     0.177 C 
ATOM      3  C   UNL     1      28.663  -1.502  21.225  1.00  0.00     0.180 C 
ATOM      4  C   UNL     1      29.220  -1.650  19.751  1.00  0.00     0.214 C 
ATOM      5  C   UNL     1      29.367  -0.296  19.055  1.00  0.00     0.339 C 
ATOM      6  O   UNL     1      28.100   0.270  18.946  1.00  0.00    -0.332 OA
ENDROOT
BRANCH   1   7
ATOM      7  C   UNL     1      26.539   1.759  19.942  1.00  0.00     0.198 C 
BRANCH   7   8
ATOM      8  O   UNL     1      25.832   2.240  18.807  1.00  0.00    -0.347 OA
BRANCH   8   9
ATOM      9  C   UNL     1      26.719   2.954  17.908  1.00  0.00     0.281 C 
ATOM     10  C   UNL     1      25.634   6.716  17.221  1.00  0.00     0.041 C 
ATOM     11  C   UNL     1      25.540   5.089  17.203  1.00  0.00     0.150 C 
ATOM     12  C   UNL     1      25.319   4.702  15.751  1.00  0.00     0.174 C 
ATOM     13  O   UNL     1      26.683   4.435  17.909  1.00  0.00    -0.344 OA
ATOM     14  C   UNL     1      25.523   3.151  15.613  1.00  0.00     0.179 C 
ATOM     15  C   UNL     1      26.592   2.367  16.463  1.00  0.00     0.202 C 
BRANCH  12  16
ATOM     16  O   UNL     1      24.033   5.019  15.271  1.00  0.00    -0.388 OA
ATOM     17  H   UNL     1      24.109   5.779  14.580  1.00  0.00     0.211 HD
ENDBRANCH  12  16
BRANCH  14  18
ATOM     18  O   UNL     1      24.304   2.441  16.005  1.00  0.00    -0.387 OA
ATOM     19  H   UNL     1      23.656   2.784  15.314  1.00  0.00     0.211 HD
ENDBRANCH  14  18
BRANCH  15  20
ATOM     20  O   UNL     1      27.846   2.287  15.818  1.00  0.00    -0.385 OA
ATOM     21  H   UNL     1      28.469   1.726  16.393  1.00  0.00     0.211 HD
ENDBRANCH  15  20
ENDBRANCH   8   9
ENDBRANCH   7   8
ENDBRANCH   1   7
BRANCH   2  22
ATOM     22  O   UNL     1      26.991  -0.392  22.517  1.00  0.00    -0.387 OA
ATOM     23  H   UNL     1      27.535  -0.362  23.396  1.00  0.00     0.211 HD
ENDBRANCH   2  22
BRANCH   3  24
ATOM     24  O   UNL     1      29.633  -1.656  22.196  1.00  0.00    -0.387 OA
ATOM     25  H   UNL     1      29.143  -1.708  23.097  1.00  0.00     0.211 HD
ENDBRANCH   3  24
BRANCH   5  26
ATOM     26  O   UNL     1      30.167   0.613  19.866  1.00  0.00    -0.454 OA
BRANCH  26  27
ATOM     27  C   UNL     1      30.298   1.988  19.481  1.00  0.00     0.214 A 
ATOM     28  C   UNL     1      30.306   3.036  20.414  1.00  0.00     0.180 A 
ATOM     29  C   UNL     1      30.388   2.352  18.100  1.00  0.00     0.239 A 
ATOM     30  O   UNL     1      30.495   4.290  20.005  1.00  0.00    -0.452 OA
ATOM     31  C   UNL     1      30.569   3.683  17.679  1.00  0.00     0.111 A 
ATOM     32  O   UNL     1      30.294   1.416  17.241  1.00  0.00    -0.285 OA
ATOM     33  C   UNL     1      30.646   4.664  18.731  1.00  0.00     0.146 A 
ATOM     34  C   UNL     1      30.692   4.113  16.300  1.00  0.00     0.134 A 
ATOM     35  C   UNL     1      30.813   6.025  18.390  1.00  0.00     0.094 A 
ATOM     36  C   UNL     1      30.894   5.469  16.025  1.00  0.00     0.093 A 
ATOM     37  C   UNL     1      30.949   6.423  17.049  1.00  0.00     0.123 A 
BRANCH  28  38
ATOM     38  C   UNL     1      29.872   2.939  21.858  1.00  0.00     0.025 A 
ATOM     39  C   UNL     1      30.912   3.112  22.787  1.00  0.00     0.062 A 
ATOM     40  C   UNL     1      28.533   3.526  22.024  1.00  0.00     0.016 A 
ATOM     41  C   UNL     1      30.940   4.411  23.557  1.00  0.00     0.158 A 
ATOM     42  C   UNL     1      28.528   4.537  23.050  1.00  0.00     0.051 A 
ATOM     43  C   UNL     1      29.803   5.229  23.320  1.00  0.00     0.157 A 
BRANCH  41  44
ATOM     44  O   UNL     1      30.359   4.891  24.790  1.00  0.00    -0.504 OA
ATOM     45  H   UNL     1      30.843   5.200  25.622  1.00  0.00     0.293 HD
ENDBRANCH  41  44
BRANCH  43  46
ATOM     46  O   UNL     1      30.005   6.564  22.910  1.00  0.00    -0.504 OA
ATOM     47  H   UNL     1      30.211   7.351  23.585  1.00  0.00     0.293 HD
ENDBRANCH  43  46
ENDBRANCH  28  38
BRANCH  34  48
ATOM     48  O   UNL     1      30.660   3.250  15.204  1.00  0.00    -0.507 OA
ATOM     49  H   UNL     1      31.223   3.451  14.359  1.00  0.00     0.293 HD
ENDBRANCH  34  48
BRANCH  37  50
ATOM     50  O   UNL     1      31.114   7.810  16.761  1.00  0.00    -0.508 OA
ATOM     51  H   UNL     1      30.861   8.523  17.471  1.00  0.00     0.293 HD
ENDBRANCH  37  50
ENDBRANCH  26  27
ENDBRANCH   5  26
BRANCH   4  52
ATOM     52  O   UNL     1      28.285  -2.395  19.004  1.00  0.00    -0.384 OA
ATOM     53  H   UNL     1      28.656  -3.369  18.873  1.00  0.00     0.211 HD
ENDBRANCH   4  52
TORSDOF 16
ENDMDL
MODEL 6
REMARK VINA RESULT:    -4.945      1.711      2.388
REMARK INTER + INTRA:         -11.083
REMARK INTER:                  -9.852
REMARK INTRA:                  -1.231
REMARK UNBOUND:                -2.958
REMARK SMILES C[C@@H]1O[C@@H](OC[C@H]2O[C@@H](Oc3c(-c4ccc(O)c(O)c4)oc4cc(O)cc(O)c4c3=O)[C@H](O)[C@@H](O)[C@@H]2O)[C@H](O)[C@@H](O)[C@H]1O
REMARK SMILES IDX 7 1 36 2 34 3 32 4 9 5 8 6 6 7 5 8 4 9 1 10 2 11 42 12 3 13
REMARK SMILES IDX 40 14 38 15 43 16 41 18 39 20 37 22 35 24 10 26 11 27 12 28
REMARK SMILES IDX 30 29 21 30 29 31 31 32 22 33 27 34 23 35 26 36 24 37 13 38
REMARK SMILES IDX 20 39 14 40 18 41 15 42 16 43 19 44 17 46 28 48 25 50 33 52
REMARK H PARENT 43 17 41 19 39 21 37 23 35 25 19 45 17 47 28 49 25 51 33 53
REMARK Flexibility Score: inf
ROOT
ATOM      1  C   UNL     1      27.612   1.687  19.384  1.00  0.00     0.180 C 
ATOM      2  C   UNL     1      26.737   0.984  20.453  1.00  0.00     0.177 C 
ATOM      3  C   UNL     1      27.642   0.215  21.505  1.00  0.00     0.180 C 
ATOM      4  C   UNL     1      29.058   0.898  21.697  1.00  0.00     0.214 C 
ATOM      5  C   UNL     1      29.057   2.357  21.239  1.00  0.00     0.339 C 
ATOM      6  O   UNL     1      28.788   2.379  19.874  1.00  0.00    -0.332 OA
ENDROOT
BRANCH   1   7
ATOM      7  C   UNL     1      27.091   2.611  18.226  1.00  0.00     0.198 C 
BRANCH   7   8
ATOM      8  O   UNL     1      25.755   2.935  17.869  1.00  0.00    -0.347 OA
BRANCH   8   9
ATOM      9  C   UNL     1      25.679   3.374  16.488  1.00  0.00     0.281 C 
ATOM     10  C   UNL     1      29.206   4.246  14.876  1.00  0.00     0.041 C 
ATOM     11  C   UNL     1      27.928   4.381  15.879  1.00  0.00     0.150 C 
ATOM     12  C   UNL     1      27.455   5.819  15.759  1.00  0.00     0.174 C 
ATOM     13  O   UNL     1      26.905   3.314  15.660  1.00  0.00    -0.344 OA
ATOM     14  C   UNL     1      26.053   5.942  16.456  1.00  0.00     0.179 C 
ATOM     15  C   UNL     1      24.993   4.778  16.418  1.00  0.00     0.202 C 
BRANCH  12  16
ATOM     16  O   UNL     1      28.325   6.752  16.358  1.00  0.00    -0.388 OA
ATOM     17  H   UNL     1      28.855   7.240  15.621  1.00  0.00     0.211 HD
ENDBRANCH  12  16
BRANCH  14  18
ATOM     18  O   UNL     1      26.217   6.099  17.903  1.00  0.00    -0.387 OA
ATOM     19  H   UNL     1      27.174   6.408  17.952  1.00  0.00     0.211 HD
ENDBRANCH  14  18
BRANCH  15  20
ATOM     20  O   UNL     1      24.118   4.879  15.313  1.00  0.00    -0.385 OA
ATOM     21  H   UNL     1      24.633   4.635  14.471  1.00  0.00     0.211 HD
ENDBRANCH  15  20
ENDBRANCH   8   9
ENDBRANCH   7   8
ENDBRANCH   1   7
BRANCH   2  22
ATOM     22  O   UNL     1      25.851  -0.028  19.947  1.00  0.00    -0.387 OA
ATOM     23  H   UNL     1      25.156  -0.205  20.692  1.00  0.00     0.211 HD
ENDBRANCH   2  22
BRANCH   3  24
ATOM     24  O   UNL     1      26.937   0.077  22.684  1.00  0.00    -0.387 OA
ATOM     25  H   UNL     1      27.152  -0.858  23.049  1.00  0.00     0.211 HD
ENDBRANCH   3  24
BRANCH   5  26
ATOM     26  O   UNL     1      27.987   3.099  21.893  1.00  0.00    -0.454 OA
BRANCH  26  27
ATOM     27  C   UNL     1      28.273   3.897  23.050  1.00  0.00     0.214 A 
ATOM     28  C   UNL     1      27.758   3.598  24.321  1.00  0.00     0.180 A 
ATOM     29  C   UNL     1      29.078   5.075  22.940  1.00  0.00     0.239 A 
ATOM     30  O   UNL     1      28.109   4.337  25.371  1.00  0.00    -0.452 OA
ATOM     31  C   UNL     1      29.428   5.859  24.057  1.00  0.00     0.111 A 
ATOM     32  O   UNL     1      29.478   5.404  21.776  1.00  0.00    -0.285 OA
ATOM     33  C   UNL     1      28.909   5.406  25.322  1.00  0.00     0.146 A 
ATOM     34  C   UNL     1      30.260   7.045  24.016  1.00  0.00     0.134 A 
ATOM     35  C   UNL     1      29.203   6.147  26.488  1.00  0.00     0.094 A 
ATOM     36  C   UNL     1      30.547   7.716  25.209  1.00  0.00     0.093 A 
ATOM     37  C   UNL     1      30.026   7.285  26.435  1.00  0.00     0.123 A 
BRANCH  28  38
ATOM     38  C   UNL     1      26.622   2.646  24.613  1.00  0.00     0.025 A 
ATOM     39  C   UNL     1      26.524   2.259  25.961  1.00  0.00     0.062 A 
ATOM     40  C   UNL     1      25.456   2.980  23.780  1.00  0.00     0.016 A 
ATOM     41  C   UNL     1      25.387   2.842  26.765  1.00  0.00     0.158 A 
ATOM     42  C   UNL     1      24.277   3.178  24.585  1.00  0.00     0.051 A 
ATOM     43  C   UNL     1      24.480   3.608  25.982  1.00  0.00     0.157 A 
BRANCH  41  44
ATOM     44  O   UNL     1      24.013   2.475  27.022  1.00  0.00    -0.504 OA
ATOM     45  H   UNL     1      23.261   2.384  26.353  1.00  0.00     0.293 HD
ENDBRANCH  41  44
BRANCH  43  46
ATOM     46  O   UNL     1      24.190   4.928  26.384  1.00  0.00    -0.504 OA
ATOM     47  H   UNL     1      24.427   5.775  25.797  1.00  0.00     0.293 HD
ENDBRANCH  43  46
ENDBRANCH  28  38
BRANCH  34  48
ATOM     48  O   UNL     1      30.837   7.559  22.854  1.00  0.00    -0.507 OA
ATOM     49  H   UNL     1      31.863   7.675  22.783  1.00  0.00     0.293 HD
ENDBRANCH  34  48
BRANCH  37  50
ATOM     50  O   UNL     1      30.290   7.996  27.642  1.00  0.00    -0.508 OA
ATOM     51  H   UNL     1      30.802   8.898  27.613  1.00  0.00     0.293 HD
ENDBRANCH  37  50
ENDBRANCH  26  27
ENDBRANCH   5  26
BRANCH   4  52
ATOM     52  O   UNL     1      29.985   0.215  20.884  1.00  0.00    -0.384 OA
ATOM     53  H   UNL     1      30.956   0.509  21.160  1.00  0.00     0.211 HD
ENDBRANCH   4  52
TORSDOF 16
ENDMDL
MODEL 7
REMARK VINA RESULT:    -4.830      2.108      3.827
REMARK INTER + INTRA:         -10.893
REMARK INTER:                 -10.322
REMARK INTRA:                  -0.571
REMARK UNBOUND:                -2.958
REMARK SMILES C[C@@H]1O[C@@H](OC[C@H]2O[C@@H](Oc3c(-c4ccc(O)c(O)c4)oc4cc(O)cc(O)c4c3=O)[C@H](O)[C@@H](O)[C@@H]2O)[C@H](O)[C@@H](O)[C@H]1O
REMARK SMILES IDX 7 1 36 2 34 3 32 4 9 5 8 6 6 7 5 8 4 9 1 10 2 11 42 12 3 13
REMARK SMILES IDX 40 14 38 15 43 16 41 18 39 20 37 22 35 24 10 26 11 27 12 28
REMARK SMILES IDX 30 29 21 30 29 31 31 32 22 33 27 34 23 35 26 36 24 37 13 38
REMARK SMILES IDX 20 39 14 40 18 41 15 42 16 43 19 44 17 46 28 48 25 50 33 52
REMARK H PARENT 43 17 41 19 39 21 37 23 35 25 19 45 17 47 28 49 25 51 33 53
REMARK Flexibility Score: inf
ROOT
ATOM      1  C   UNL     1      28.056   1.352  17.735  1.00  0.00     0.180 C 
ATOM      2  C   UNL     1      28.856   0.028  17.829  1.00  0.00     0.177 C 
ATOM      3  C   UNL     1      30.218   0.134  17.021  1.00  0.00     0.180 C 
ATOM      4  C   UNL     1      30.780   1.613  16.978  1.00  0.00     0.214 C 
ATOM      5  C   UNL     1      30.195   2.482  18.092  1.00  0.00     0.339 C 
ATOM      6  O   UNL     1      28.821   2.574  17.888  1.00  0.00    -0.332 OA
ENDROOT
BRANCH   1   7
ATOM      7  C   UNL     1      26.701   1.667  18.464  1.00  0.00     0.198 C 
BRANCH   7   8
ATOM      8  O   UNL     1      25.894   2.834  18.391  1.00  0.00    -0.347 OA
BRANCH   8   9
ATOM      9  C   UNL     1      25.512   3.116  17.020  1.00  0.00     0.281 C 
ATOM     10  C   UNL     1      28.360   4.880  14.882  1.00  0.00     0.041 C 
ATOM     11  C   UNL     1      27.241   4.703  16.054  1.00  0.00     0.150 C 
ATOM     12  C   UNL     1      26.333   5.916  15.948  1.00  0.00     0.174 C 
ATOM     13  O   UNL     1      26.582   3.362  16.026  1.00  0.00    -0.344 OA
ATOM     14  C   UNL     1      25.061   5.664  16.835  1.00  0.00     0.179 C 
ATOM     15  C   UNL     1      24.420   4.235  16.995  1.00  0.00     0.202 C 
BRANCH  12  16
ATOM     16  O   UNL     1      26.937   7.113  16.378  1.00  0.00    -0.388 OA
ATOM     17  H   UNL     1      26.220   7.851  16.436  1.00  0.00     0.211 HD
ENDBRANCH  12  16
BRANCH  14  18
ATOM     18  O   UNL     1      25.348   5.981  18.235  1.00  0.00    -0.387 OA
ATOM     19  H   UNL     1      25.784   6.884  18.139  1.00  0.00     0.211 HD
ENDBRANCH  14  18
BRANCH  15  20
ATOM     20  O   UNL     1      23.426   3.975  16.025  1.00  0.00    -0.385 OA
ATOM     21  H   UNL     1      22.677   4.653  16.142  1.00  0.00     0.211 HD
ENDBRANCH  15  20
ENDBRANCH   8   9
ENDBRANCH   7   8
ENDBRANCH   1   7
BRANCH   2  22
ATOM     22  O   UNL     1      28.202  -1.121  17.264  1.00  0.00    -0.387 OA
ATOM     23  H   UNL     1      27.330  -0.775  16.829  1.00  0.00     0.211 HD
ENDBRANCH   2  22
BRANCH   3  24
ATOM     24  O   UNL     1      31.115  -0.778  17.540  1.00  0.00    -0.387 OA
ATOM     25  H   UNL     1      31.960  -0.251  17.791  1.00  0.00     0.211 HD
ENDBRANCH   3  24
BRANCH   5  26
ATOM     26  O   UNL     1      30.388   1.850  19.391  1.00  0.00    -0.454 OA
BRANCH  26  27
ATOM     27  C   UNL     1      29.760   2.402  20.556  1.00  0.00     0.214 A 
ATOM     28  C   UNL     1      29.239   1.601  21.584  1.00  0.00     0.180 A 
ATOM     29  C   UNL     1      29.604   3.817  20.697  1.00  0.00     0.239 A 
ATOM     30  O   UNL     1      28.724   2.169  22.673  1.00  0.00    -0.452 OA
ATOM     31  C   UNL     1      29.041   4.405  21.846  1.00  0.00     0.111 A 
ATOM     32  O   UNL     1      29.995   4.548  19.730  1.00  0.00    -0.285 OA
ATOM     33  C   UNL     1      28.617   3.486  22.871  1.00  0.00     0.146 A 
ATOM     34  C   UNL     1      28.879   5.829  22.061  1.00  0.00     0.134 A 
ATOM     35  C   UNL     1      28.029   3.998  24.050  1.00  0.00     0.094 A 
ATOM     36  C   UNL     1      28.324   6.278  23.263  1.00  0.00     0.093 A 
ATOM     37  C   UNL     1      27.895   5.382  24.250  1.00  0.00     0.123 A 
BRANCH  28  38
ATOM     38  C   UNL     1      28.963   0.118  21.497  1.00  0.00     0.025 A 
ATOM     39  C   UNL     1      30.021  -0.636  20.962  1.00  0.00     0.062 A 
ATOM     40  C   UNL     1      28.165  -0.316  22.655  1.00  0.00     0.016 A 
ATOM     41  C   UNL     1      30.811  -1.495  21.920  1.00  0.00     0.158 A 
ATOM     42  C   UNL     1      28.799  -1.408  23.348  1.00  0.00     0.051 A 
ATOM     43  C   UNL     1      30.267  -1.518  23.233  1.00  0.00     0.157 A 
BRANCH  41  44
ATOM     44  O   UNL     1      30.698  -2.842  22.429  1.00  0.00    -0.504 OA
ATOM     45  H   UNL     1      29.864  -3.410  22.496  1.00  0.00     0.293 HD
ENDBRANCH  41  44
BRANCH  43  46
ATOM     46  O   UNL     1      31.106  -1.191  24.318  1.00  0.00    -0.504 OA
ATOM     47  H   UNL     1      30.811  -1.296  25.328  1.00  0.00     0.293 HD
ENDBRANCH  43  46
ENDBRANCH  28  38
BRANCH  34  48
ATOM     48  O   UNL     1      29.277   6.810  21.151  1.00  0.00    -0.507 OA
ATOM     49  H   UNL     1      29.558   7.750  21.480  1.00  0.00     0.293 HD
ENDBRANCH  34  48
BRANCH  37  50
ATOM     50  O   UNL     1      27.292   5.843  25.458  1.00  0.00    -0.508 OA
ATOM     51  H   UNL     1      26.350   6.277  25.435  1.00  0.00     0.293 HD
ENDBRANCH  37  50
ENDBRANCH  26  27
ENDBRANCH   5  26
BRANCH   4  52
ATOM     52  O   UNL     1      30.385   2.194  15.756  1.00  0.00    -0.384 OA
ATOM     53  H   UNL     1      29.505   2.746  15.913  1.00  0.00     0.211 HD
ENDBRANCH   4  52
TORSDOF 16
ENDMDL
MODEL 8
REMARK VINA RESULT:    -4.688      2.060      6.661
REMARK INTER + INTRA:         -10.660
REMARK INTER:                  -9.561
REMARK INTRA:                  -1.099
REMARK UNBOUND:                -2.958
REMARK SMILES C[C@@H]1O[C@@H](OC[C@H]2O[C@@H](Oc3c(-c4ccc(O)c(O)c4)oc4cc(O)cc(O)c4c3=O)[C@H](O)[C@@H](O)[C@@H]2O)[C@H](O)[C@@H](O)[C@H]1O
REMARK SMILES IDX 7 1 36 2 34 3 32 4 9 5 8 6 6 7 5 8 4 9 1 10 2 11 42 12 3 13
REMARK SMILES IDX 40 14 38 15 43 16 41 18 39 20 37 22 35 24 10 26 11 27 12 28
REMARK SMILES IDX 30 29 21 30 29 31 31 32 22 33 27 34 23 35 26 36 24 37 13 38
REMARK SMILES IDX 20 39 14 40 18 41 15 42 16 43 19 44 17 46 28 48 25 50 33 52
REMARK H PARENT 43 17 41 19 39 21 37 23 35 25 19 45 17 47 28 49 25 51 33 53
REMARK Flexibility Score: inf
ROOT
ATOM      1  C   UNL     1      26.583   0.245  19.381  1.00  0.00     0.180 C 
ATOM      2  C   UNL     1      27.671  -0.044  18.314  1.00  0.00     0.177 C 
ATOM      3  C   UNL     1      27.441   0.848  17.021  1.00  0.00     0.180 C 
ATOM      4  C   UNL     1      26.743   2.228  17.356  1.00  0.00     0.214 C 
ATOM      5  C   UNL     1      26.898   2.607  18.830  1.00  0.00     0.339 C 
ATOM      6  O   UNL     1      26.248   1.640  19.591  1.00  0.00    -0.332 OA
ENDROOT
BRANCH   1   7
ATOM      7  C   UNL     1      26.516  -0.375  20.822  1.00  0.00     0.198 C 
BRANCH   7   8
ATOM      8  O   UNL     1      27.528  -0.443  21.817  1.00  0.00    -0.347 OA
BRANCH   8   9
ATOM      9  C   UNL     1      28.848  -0.354  21.222  1.00  0.00     0.281 C 
ATOM     10  C   UNL     1      30.395  -3.867  20.191  1.00  0.00     0.041 C 
ATOM     11  C   UNL     1      29.827  -2.695  21.172  1.00  0.00     0.150 C 
ATOM     12  C   UNL     1      30.910  -2.460  22.209  1.00  0.00     0.174 C 
ATOM     13  O   UNL     1      29.340  -1.499  20.421  1.00  0.00    -0.344 OA
ATOM     14  C   UNL     1      30.568  -1.144  22.996  1.00  0.00     0.179 C 
ATOM     15  C   UNL     1      29.886   0.094  22.303  1.00  0.00     0.202 C 
BRANCH  12  16
ATOM     16  O   UNL     1      31.036  -3.508  23.142  1.00  0.00    -0.388 OA
ATOM     17  H   UNL     1      30.097  -3.830  23.416  1.00  0.00     0.211 HD
ENDBRANCH  12  16
BRANCH  14  18
ATOM     18  O   UNL     1      29.594  -1.422  24.053  1.00  0.00    -0.387 OA
ATOM     19  H   UNL     1      28.861  -0.776  23.809  1.00  0.00     0.211 HD
ENDBRANCH  14  18
BRANCH  15  20
ATOM     20  O   UNL     1      30.827   1.009  21.778  1.00  0.00    -0.385 OA
ATOM     21  H   UNL     1      30.984   0.783  20.800  1.00  0.00     0.211 HD
ENDBRANCH  15  20
ENDBRANCH   8   9
ENDBRANCH   7   8
ENDBRANCH   1   7
BRANCH   2  22
ATOM     22  O   UNL     1      27.691  -1.390  17.813  1.00  0.00    -0.387 OA
ATOM     23  H   UNL     1      27.699  -2.009  18.641  1.00  0.00     0.211 HD
ENDBRANCH   2  22
BRANCH   3  24
ATOM     24  O   UNL     1      28.643   0.988  16.357  1.00  0.00    -0.387 OA
ATOM     25  H   UNL     1      28.678   0.244  15.649  1.00  0.00     0.211 HD
ENDBRANCH   3  24
BRANCH   5  26
ATOM     26  O   UNL     1      28.301   2.581  19.221  1.00  0.00    -0.454 OA
BRANCH  26  27
ATOM     27  C   UNL     1      28.825   3.610  20.073  1.00  0.00     0.214 A 
ATOM     28  C   UNL     1      29.719   4.588  19.612  1.00  0.00     0.180 A 
ATOM     29  C   UNL     1      28.478   3.653  21.460  1.00  0.00     0.239 A 
ATOM     30  O   UNL     1      30.123   5.558  20.431  1.00  0.00    -0.452 OA
ATOM     31  C   UNL     1      28.927   4.673  22.320  1.00  0.00     0.111 A 
ATOM     32  O   UNL     1      27.737   2.718  21.907  1.00  0.00    -0.285 OA
ATOM     33  C   UNL     1      29.773   5.670  21.715  1.00  0.00     0.146 A 
ATOM     34  C   UNL     1      28.591   4.788  23.726  1.00  0.00     0.134 A 
ATOM     35  C   UNL     1      30.276   6.720  22.516  1.00  0.00     0.094 A 
ATOM     36  C   UNL     1      29.089   5.869  24.459  1.00  0.00     0.093 A 
ATOM     37  C   UNL     1      29.927   6.827  23.873  1.00  0.00     0.123 A 
BRANCH  28  38
ATOM     38  C   UNL     1      30.496   4.539  18.317  1.00  0.00     0.025 A 
ATOM     39  C   UNL     1      29.902   3.752  17.316  1.00  0.00     0.062 A 
ATOM     40  C   UNL     1      31.125   5.843  18.055  1.00  0.00     0.016 A 
ATOM     41  C   UNL     1      29.266   4.478  16.155  1.00  0.00     0.158 A 
ATOM     42  C   UNL     1      30.769   6.343  16.752  1.00  0.00     0.051 A 
ATOM     43  C   UNL     1      29.489   5.881  16.180  1.00  0.00     0.157 A 
BRANCH  41  44
ATOM     44  O   UNL     1      29.719   4.971  14.875  1.00  0.00    -0.504 OA
ATOM     45  H   UNL     1      29.165   5.144  14.047  1.00  0.00     0.293 HD
ENDBRANCH  41  44
BRANCH  43  46
ATOM     46  O   UNL     1      28.375   6.744  16.104  1.00  0.00    -0.504 OA
ATOM     47  H   UNL     1      27.406   6.413  15.842  1.00  0.00     0.293 HD
ENDBRANCH  43  46
ENDBRANCH  28  38
BRANCH  34  48
ATOM     48  O   UNL     1      27.761   3.898  24.408  1.00  0.00    -0.507 OA
ATOM     49  H   UNL     1      27.651   2.923  24.079  1.00  0.00     0.293 HD
ENDBRANCH  34  48
BRANCH  37  50
ATOM     50  O   UNL     1      30.465   7.905  24.635  1.00  0.00    -0.508 OA
ATOM     51  H   UNL     1      30.154   8.056  25.614  1.00  0.00     0.293 HD
ENDBRANCH  37  50
ENDBRANCH  26  27
ENDBRANCH   5  26
BRANCH   4  52
ATOM     52  O   UNL     1      25.362   2.091  17.111  1.00  0.00    -0.384 OA
ATOM     53  H   UNL     1      24.969   3.031  16.855  1.00  0.00     0.211 HD
ENDBRANCH   4  52
TORSDOF 16
ENDMDL
MODEL 9
REMARK VINA RESULT:    -4.510      1.917      4.392
REMARK INTER + INTRA:         -10.368
REMARK INTER:                 -10.257
REMARK INTRA:                  -0.111
REMARK UNBOUND:                -2.958
REMARK SMILES C[C@@H]1O[C@@H](OC[C@H]2O[C@@H](Oc3c(-c4ccc(O)c(O)c4)oc4cc(O)cc(O)c4c3=O)[C@H](O)[C@@H](O)[C@@H]2O)[C@H](O)[C@@H](O)[C@H]1O
REMARK SMILES IDX 7 1 36 2 34 3 32 4 9 5 8 6 6 7 5 8 4 9 1 10 2 11 42 12 3 13
REMARK SMILES IDX 40 14 38 15 43 16 41 18 39 20 37 22 35 24 10 26 11 27 12 28
REMARK SMILES IDX 30 29 21 30 29 31 31 32 22 33 27 34 23 35 26 36 24 37 13 38
REMARK SMILES IDX 20 39 14 40 18 41 15 42 16 43 19 44 17 46 28 48 25 50 33 52
REMARK H PARENT 43 17 41 19 39 21 37 23 35 25 19 45 17 47 28 49 25 51 33 53
REMARK Flexibility Score: inf
ROOT
ATOM      1  C   UNL     1      27.409   1.104  20.421  1.00  0.00     0.180 C 
ATOM      2  C   UNL     1      26.233   1.819  21.135  1.00  0.00     0.177 C 
ATOM      3  C   UNL     1      26.277   1.551  22.699  1.00  0.00     0.180 C 
ATOM      4  C   UNL     1      27.750   1.325  23.231  1.00  0.00     0.214 C 
ATOM      5  C   UNL     1      28.800   1.890  22.272  1.00  0.00     0.339 C 
ATOM      6  O   UNL     1      28.702   1.195  21.071  1.00  0.00    -0.332 OA
ENDROOT
BRANCH   1   7
ATOM      7  C   UNL     1      27.753   1.195  18.892  1.00  0.00     0.198 C 
BRANCH   7   8
ATOM      8  O   UNL     1      28.125   2.330  18.123  1.00  0.00    -0.347 OA
BRANCH   8   9
ATOM      9  C   UNL     1      27.662   2.203  16.753  1.00  0.00     0.281 C 
ATOM     10  C   UNL     1      27.195   5.675  14.877  1.00  0.00     0.041 C 
ATOM     11  C   UNL     1      26.922   4.503  15.976  1.00  0.00     0.150 C 
ATOM     12  C   UNL     1      25.436   4.197  15.899  1.00  0.00     0.174 C 
ATOM     13  O   UNL     1      27.858   3.347  15.833  1.00  0.00    -0.344 OA
ATOM     14  C   UNL     1      25.157   2.877  16.702  1.00  0.00     0.179 C 
ATOM     15  C   UNL     1      26.186   1.686  16.741  1.00  0.00     0.202 C 
BRANCH  12  16
ATOM     16  O   UNL     1      24.621   5.215  16.432  1.00  0.00    -0.388 OA
ATOM     17  H   UNL     1      24.834   5.327  17.434  1.00  0.00     0.211 HD
ENDBRANCH  12  16
BRANCH  14  18
ATOM     18  O   UNL     1      25.039   3.168  18.132  1.00  0.00    -0.387 OA
ATOM     19  H   UNL     1      25.908   2.790  18.473  1.00  0.00     0.211 HD
ENDBRANCH  14  18
BRANCH  15  20
ATOM     20  O   UNL     1      25.969   0.747  15.707  1.00  0.00    -0.385 OA
ATOM     21  H   UNL     1      25.435  -0.031  16.085  1.00  0.00     0.211 HD
ENDBRANCH  15  20
ENDBRANCH   8   9
ENDBRANCH   7   8
ENDBRANCH   1   7
BRANCH   2  22
ATOM     22  O   UNL     1      24.923   1.380  20.741  1.00  0.00    -0.387 OA
ATOM     23  H   UNL     1      24.899   0.358  20.897  1.00  0.00     0.211 HD
ENDBRANCH   2  22
BRANCH   3  24
ATOM     24  O   UNL     1      25.612   2.574  23.345  1.00  0.00    -0.387 OA
ATOM     25  H   UNL     1      25.700   2.393  24.353  1.00  0.00     0.211 HD
ENDBRANCH   3  24
BRANCH   5  26
ATOM     26  O   UNL     1      28.522   3.290  21.976  1.00  0.00    -0.454 OA
BRANCH  26  27
ATOM     27  C   UNL     1      29.070   4.320  22.809  1.00  0.00     0.214 A 
ATOM     28  C   UNL     1      30.099   5.172  22.379  1.00  0.00     0.180 A 
ATOM     29  C   UNL     1      28.605   4.494  24.151  1.00  0.00     0.239 A 
ATOM     30  O   UNL     1      30.525   6.153  23.173  1.00  0.00    -0.452 OA
ATOM     31  C   UNL     1      29.077   5.524  24.987  1.00  0.00     0.111 A 
ATOM     32  O   UNL     1      27.734   3.670  24.580  1.00  0.00    -0.285 OA
ATOM     33  C   UNL     1      30.073   6.389  24.408  1.00  0.00     0.146 A 
ATOM     34  C   UNL     1      28.629   5.770  26.344  1.00  0.00     0.134 A 
ATOM     35  C   UNL     1      30.608   7.439  25.188  1.00  0.00     0.094 A 
ATOM     36  C   UNL     1      29.167   6.847  27.055  1.00  0.00     0.093 A 
ATOM     37  C   UNL     1      30.149   7.674  26.496  1.00  0.00     0.123 A 
BRANCH  28  38
ATOM     38  C   UNL     1      30.981   4.956  21.172  1.00  0.00     0.025 A 
ATOM     39  C   UNL     1      30.824   3.702  20.558  1.00  0.00     0.062 A 
ATOM     40  C   UNL     1      31.125   6.213  20.420  1.00  0.00     0.016 A 
ATOM     41  C   UNL     1      30.103   3.668  19.232  1.00  0.00     0.158 A 
ATOM     42  C   UNL     1      30.761   6.040  19.037  1.00  0.00     0.051 A 
ATOM     43  C   UNL     1      29.803   4.961  18.722  1.00  0.00     0.157 A 
BRANCH  41  44
ATOM     44  O   UNL     1      30.489   3.801  17.846  1.00  0.00    -0.504 OA
ATOM     45  H   UNL     1      31.152   3.236  17.332  1.00  0.00     0.293 HD
ENDBRANCH  41  44
BRANCH  43  46
ATOM     46  O   UNL     1      28.470   5.255  18.367  1.00  0.00    -0.504 OA
ATOM     47  H   UNL     1      27.969   4.781  17.566  1.00  0.00     0.293 HD
ENDBRANCH  43  46
ENDBRANCH  28  38
BRANCH  34  48
ATOM     48  O   UNL     1      27.653   5.015  26.995  1.00  0.00    -0.507 OA
ATOM     49  H   UNL     1      26.895   5.480  27.525  1.00  0.00     0.293 HD
ENDBRANCH  34  48
BRANCH  37  50
ATOM     50  O   UNL     1      30.724   8.747  27.240  1.00  0.00    -0.508 OA
ATOM     51  H   UNL     1      31.458   8.554  27.947  1.00  0.00     0.293 HD
ENDBRANCH  37  50
ENDBRANCH  26  27
ENDBRANCH   5  26
BRANCH   4  52
ATOM     52  O   UNL     1      27.977  -0.064  23.313  1.00  0.00    -0.384 OA
ATOM     53  H   UNL     1      28.457  -0.274  24.224  1.00  0.00     0.211 HD
ENDBRANCH   4  52
TORSDOF 16
ENDMDL
