MODEL 1
REMARK VINA RESULT:    -6.510      0.000      0.000
REMARK INTER + INTRA:          -8.158
REMARK INTER:                  -7.843
REMARK INTRA:                  -0.315
REMARK UNBOUND:                -0.315
REMARK SMILES O=c1c(O)c(-c2ccc(O)c(O)c2)oc2cc(O)cc(O)c12
REMARK SMILES IDX 5 1 3 2 2 3 1 4 22 5 20 6 19 7 17 8 16 9 15 10 14 11 6 12
REMARK SMILES IDX 7 13 8 14 9 15 13 16 11 17 10 18 12 20 4 22 21 24 18 26
REMARK H PARENT 10 19 12 21 4 23 21 25 18 27
REMARK Flexibility Score: inf
ROOT
ATOM      1  C   UNL     1     -14.372  36.782  -2.655  1.00  0.00     0.180 A 
ATOM      2  C   UNL     1     -14.348  35.459  -2.181  1.00  0.00     0.208 A 
ATOM      3  C   UNL     1     -13.205  34.675  -2.407  1.00  0.00     0.238 A 
ATOM      4  O   UNL     1     -13.168  33.509  -1.934  1.00  0.00    -0.285 OA
ATOM      5  C   UNL     1     -12.108  35.219  -3.118  1.00  0.00     0.111 A 
ATOM      6  C   UNL     1     -10.915  34.504  -3.439  1.00  0.00     0.134 A 
ATOM      7  C   UNL     1      -9.842  35.180  -4.031  1.00  0.00     0.093 A 
ATOM      8  C   UNL     1      -9.942  36.531  -4.373  1.00  0.00     0.123 A 
ATOM      9  C   UNL     1     -11.124  37.224  -4.117  1.00  0.00     0.094 A 
ATOM     10  C   UNL     1     -12.199  36.584  -3.494  1.00  0.00     0.146 A 
ATOM     11  O   UNL     1     -13.302  37.283  -3.260  1.00  0.00    -0.452 OA
ENDROOT
BRANCH   1  12
ATOM     12  C   UNL     1     -15.551  37.660  -2.476  1.00  0.00     0.025 A 
ATOM     13  C   UNL     1     -15.538  38.638  -1.468  1.00  0.00     0.016 A 
ATOM     14  C   UNL     1     -16.630  39.491  -1.296  1.00  0.00     0.051 A 
ATOM     15  C   UNL     1     -17.745  39.390  -2.139  1.00  0.00     0.157 A 
ATOM     16  C   UNL     1     -16.664  37.576  -3.333  1.00  0.00     0.062 A 
ATOM     17  C   UNL     1     -17.760  38.435  -3.162  1.00  0.00     0.158 A 
BRANCH  15  18
ATOM     18  O   UNL     1     -18.837  40.239  -1.968  1.00  0.00    -0.504 OA
ATOM     19  H   UNL     1     -18.868  41.157  -2.396  1.00  0.00     0.293 HD
ENDBRANCH  15  18
BRANCH  17  20
ATOM     20  O   UNL     1     -18.864  38.346  -4.008  1.00  0.00    -0.504 OA
ATOM     21  H   UNL     1     -19.077  37.495  -4.514  1.00  0.00     0.293 HD
ENDBRANCH  17  20
ENDBRANCH   1  12
BRANCH   2  22
ATOM     22  O   UNL     1     -15.433  34.949  -1.463  1.00  0.00    -0.502 OA
ATOM     23  H   UNL     1     -16.387  35.016  -1.798  1.00  0.00     0.293 HD
ENDBRANCH   2  22
BRANCH   6  24
ATOM     24  O   UNL     1     -10.746  33.132  -3.225  1.00  0.00    -0.507 OA
ATOM     25  H   UNL     1     -11.456  32.516  -2.858  1.00  0.00     0.293 HD
ENDBRANCH   6  24
BRANCH   8  26
ATOM     26  O   UNL     1      -8.875  37.193  -4.976  1.00  0.00    -0.508 OA
ATOM     27  H   UNL     1      -8.300  36.742  -5.678  1.00  0.00     0.293 HD
ENDBRANCH   8  26
TORSDOF 6
ENDMDL
MODEL 2
REMARK VINA RESULT:    -6.436      1.196      2.860
REMARK INTER + INTRA:          -8.068
REMARK INTER:                  -7.779
REMARK INTRA:                  -0.289
REMARK UNBOUND:                -0.315
REMARK SMILES O=c1c(O)c(-c2ccc(O)c(O)c2)oc2cc(O)cc(O)c12
REMARK SMILES IDX 5 1 3 2 2 3 1 4 22 5 20 6 19 7 17 8 16 9 15 10 14 11 6 12
REMARK SMILES IDX 7 13 8 14 9 15 13 16 11 17 10 18 12 20 4 22 21 24 18 26
REMARK H PARENT 10 19 12 21 4 23 21 25 18 27
REMARK Flexibility Score: inf
ROOT
ATOM      1  C   UNL     1     -14.172  37.575  -3.091  1.00  0.00     0.180 A 
ATOM      2  C   UNL     1     -13.356  38.470  -3.804  1.00  0.00     0.208 A 
ATOM      3  C   UNL     1     -12.064  38.065  -4.176  1.00  0.00     0.238 A 
ATOM      4  O   UNL     1     -11.357  38.850  -4.861  1.00  0.00    -0.285 OA
ATOM      5  C   UNL     1     -11.600  36.776  -3.818  1.00  0.00     0.111 A 
ATOM      6  C   UNL     1     -10.295  36.274  -4.109  1.00  0.00     0.134 A 
ATOM      7  C   UNL     1      -9.989  34.939  -3.822  1.00  0.00     0.093 A 
ATOM      8  C   UNL     1     -10.919  34.104  -3.196  1.00  0.00     0.123 A 
ATOM      9  C   UNL     1     -12.174  34.602  -2.855  1.00  0.00     0.094 A 
ATOM     10  C   UNL     1     -12.522  35.920  -3.161  1.00  0.00     0.146 A 
ATOM     11  O   UNL     1     -13.732  36.351  -2.828  1.00  0.00    -0.452 OA
ENDROOT
BRANCH   1  12
ATOM     12  C   UNL     1     -15.535  37.940  -2.642  1.00  0.00     0.025 A 
ATOM     13  C   UNL     1     -15.735  38.369  -1.320  1.00  0.00     0.016 A 
ATOM     14  C   UNL     1     -17.009  38.739  -0.881  1.00  0.00     0.051 A 
ATOM     15  C   UNL     1     -18.098  38.702  -1.762  1.00  0.00     0.157 A 
ATOM     16  C   UNL     1     -16.628  37.924  -3.529  1.00  0.00     0.062 A 
ATOM     17  C   UNL     1     -17.906  38.298  -3.089  1.00  0.00     0.158 A 
BRANCH  15  18
ATOM     18  O   UNL     1     -19.370  39.069  -1.327  1.00  0.00    -0.504 OA
ATOM     19  H   UNL     1     -19.504  39.643  -0.503  1.00  0.00     0.293 HD
ENDBRANCH  15  18
BRANCH  17  20
ATOM     20  O   UNL     1     -18.989  38.275  -3.967  1.00  0.00    -0.504 OA
ATOM     21  H   UNL     1     -18.920  37.844  -4.881  1.00  0.00     0.293 HD
ENDBRANCH  17  20
ENDBRANCH   1  12
BRANCH   2  22
ATOM     22  O   UNL     1     -13.841  39.730  -4.166  1.00  0.00    -0.502 OA
ATOM     23  H   UNL     1     -14.100  40.431  -3.481  1.00  0.00     0.293 HD
ENDBRANCH   2  22
BRANCH   6  24
ATOM     24  O   UNL     1      -9.264  37.050  -4.648  1.00  0.00    -0.507 OA
ATOM     25  H   UNL     1      -9.175  37.290  -5.624  1.00  0.00     0.293 HD
ENDBRANCH   6  24
BRANCH   8  26
ATOM     26  O   UNL     1     -10.600  32.781  -2.901  1.00  0.00    -0.508 OA
ATOM     27  H   UNL     1      -9.686  32.397  -3.108  1.00  0.00     0.293 HD
ENDBRANCH   8  26
TORSDOF 6
ENDMDL
MODEL 3
REMARK VINA RESULT:    -6.184      2.172      3.243
REMARK INTER + INTRA:          -7.764
REMARK INTER:                  -7.485
REMARK INTRA:                  -0.280
REMARK UNBOUND:                -0.315
REMARK SMILES O=c1c(O)c(-c2ccc(O)c(O)c2)oc2cc(O)cc(O)c12
REMARK SMILES IDX 5 1 3 2 2 3 1 4 22 5 20 6 19 7 17 8 16 9 15 10 14 11 6 12
REMARK SMILES IDX 7 13 8 14 9 15 13 16 11 17 10 18 12 20 4 22 21 24 18 26
REMARK H PARENT 10 19 12 21 4 23 21 25 18 27
REMARK Flexibility Score: inf
ROOT
ATOM      1  C   UNL     1     -14.714  38.580  -3.435  1.00  0.00     0.180 A 
ATOM      2  C   UNL     1     -13.916  37.518  -2.976  1.00  0.00     0.208 A 
ATOM      3  C   UNL     1     -12.582  37.434  -3.406  1.00  0.00     0.238 A 
ATOM      4  O   UNL     1     -11.856  36.512  -2.950  1.00  0.00    -0.285 OA
ATOM      5  C   UNL     1     -12.069  38.403  -4.302  1.00  0.00     0.111 A 
ATOM      6  C   UNL     1     -10.744  38.394  -4.835  1.00  0.00     0.134 A 
ATOM      7  C   UNL     1     -10.303  39.473  -5.608  1.00  0.00     0.093 A 
ATOM      8  C   UNL     1     -11.160  40.532  -5.924  1.00  0.00     0.123 A 
ATOM      9  C   UNL     1     -12.473  40.521  -5.458  1.00  0.00     0.094 A 
ATOM     10  C   UNL     1     -12.930  39.475  -4.653  1.00  0.00     0.146 A 
ATOM     11  O   UNL     1     -14.185  39.508  -4.222  1.00  0.00    -0.452 OA
ENDROOT
BRANCH   1  12
ATOM     12  C   UNL     1     -16.136  38.720  -3.045  1.00  0.00     0.025 A 
ATOM     13  C   UNL     1     -17.101  37.892  -3.642  1.00  0.00     0.016 A 
ATOM     14  C   UNL     1     -18.444  37.992  -3.274  1.00  0.00     0.051 A 
ATOM     15  C   UNL     1     -18.841  38.910  -2.293  1.00  0.00     0.157 A 
ATOM     16  C   UNL     1     -16.536  39.626  -2.046  1.00  0.00     0.062 A 
ATOM     17  C   UNL     1     -17.885  39.725  -1.674  1.00  0.00     0.158 A 
BRANCH  15  18
ATOM     18  O   UNL     1     -20.182  39.014  -1.924  1.00  0.00    -0.504 OA
ATOM     19  H   UNL     1     -20.471  39.566  -1.126  1.00  0.00     0.293 HD
ENDBRANCH  15  18
BRANCH  17  20
ATOM     20  O   UNL     1     -18.280  40.628  -0.688  1.00  0.00    -0.504 OA
ATOM     21  H   UNL     1     -18.013  40.504   0.281  1.00  0.00     0.293 HD
ENDBRANCH  17  20
ENDBRANCH   1  12
BRANCH   2  22
ATOM     22  O   UNL     1     -14.436  36.584  -2.076  1.00  0.00    -0.502 OA
ATOM     23  H   UNL     1     -13.856  35.901  -1.603  1.00  0.00     0.293 HD
ENDBRANCH   2  22
BRANCH   6  24
ATOM     24  O   UNL     1      -9.839  37.342  -4.657  1.00  0.00    -0.507 OA
ATOM     25  H   UNL     1      -9.509  36.737  -5.393  1.00  0.00     0.293 HD
ENDBRANCH   6  24
BRANCH   8  26
ATOM     26  O   UNL     1     -10.718  41.594  -6.707  1.00  0.00    -0.508 OA
ATOM     27  H   UNL     1      -9.851  41.543  -7.231  1.00  0.00     0.293 HD
ENDBRANCH   8  26
TORSDOF 6
ENDMDL
MODEL 4
REMARK VINA RESULT:    -6.126      1.840      7.192
REMARK INTER + INTRA:          -7.694
REMARK INTER:                  -7.370
REMARK INTRA:                  -0.325
REMARK UNBOUND:                -0.315
REMARK SMILES O=c1c(O)c(-c2ccc(O)c(O)c2)oc2cc(O)cc(O)c12
REMARK SMILES IDX 5 1 3 2 2 3 1 4 22 5 20 6 19 7 17 8 16 9 15 10 14 11 6 12
REMARK SMILES IDX 7 13 8 14 9 15 13 16 11 17 10 18 12 20 4 22 21 24 18 26
REMARK H PARENT 10 19 12 21 4 23 21 25 18 27
REMARK Flexibility Score: inf
ROOT
ATOM      1  C   UNL     1     -14.907  36.376  -1.433  1.00  0.00     0.180 A 
ATOM      2  C   UNL     1     -14.966  37.010  -0.179  1.00  0.00     0.208 A 
ATOM      3  C   UNL     1     -16.024  37.895   0.086  1.00  0.00     0.238 A 
ATOM      4  O   UNL     1     -16.101  38.418   1.229  1.00  0.00    -0.285 OA
ATOM      5  C   UNL     1     -16.998  38.147  -0.909  1.00  0.00     0.111 A 
ATOM      6  C   UNL     1     -18.090  39.055  -0.764  1.00  0.00     0.134 A 
ATOM      7  C   UNL     1     -19.067  39.127  -1.763  1.00  0.00     0.093 A 
ATOM      8  C   UNL     1     -18.957  38.372  -2.934  1.00  0.00     0.123 A 
ATOM      9  C   UNL     1     -17.864  37.527  -3.112  1.00  0.00     0.094 A 
ATOM     10  C   UNL     1     -16.892  37.406  -2.115  1.00  0.00     0.146 A 
ATOM     11  O   UNL     1     -15.872  36.582  -2.320  1.00  0.00    -0.452 OA
ENDROOT
BRANCH   1  12
ATOM     12  C   UNL     1     -13.810  35.450  -1.794  1.00  0.00     0.025 A 
ATOM     13  C   UNL     1     -13.938  34.081  -1.507  1.00  0.00     0.016 A 
ATOM     14  C   UNL     1     -12.925  33.186  -1.859  1.00  0.00     0.051 A 
ATOM     15  C   UNL     1     -11.776  33.644  -2.517  1.00  0.00     0.157 A 
ATOM     16  C   UNL     1     -12.664  35.901  -2.474  1.00  0.00     0.062 A 
ATOM     17  C   UNL     1     -11.647  35.003  -2.830  1.00  0.00     0.158 A 
BRANCH  15  18
ATOM     18  O   UNL     1     -10.762  32.754  -2.868  1.00  0.00    -0.504 OA
ATOM     19  H   UNL     1     -10.481  32.623  -3.833  1.00  0.00     0.293 HD
ENDBRANCH  15  18
BRANCH  17  20
ATOM     20  O   UNL     1     -10.509  35.453  -3.497  1.00  0.00    -0.504 OA
ATOM     21  H   UNL     1      -9.991  36.260  -3.174  1.00  0.00     0.293 HD
ENDBRANCH  17  20
ENDBRANCH   1  12
BRANCH   2  22
ATOM     22  O   UNL     1     -14.005  36.731   0.796  1.00  0.00    -0.502 OA
ATOM     23  H   UNL     1     -13.737  35.785   1.041  1.00  0.00     0.293 HD
ENDBRANCH   2  22
BRANCH   6  24
ATOM     24  O   UNL     1     -18.244  39.922   0.324  1.00  0.00    -0.507 OA
ATOM     25  H   UNL     1     -17.765  39.827   1.206  1.00  0.00     0.293 HD
ENDBRANCH   6  24
BRANCH   8  26
ATOM     26  O   UNL     1     -19.925  38.461  -3.931  1.00  0.00    -0.508 OA
ATOM     27  H   UNL     1     -20.647  39.172  -3.907  1.00  0.00     0.293 HD
ENDBRANCH   8  26
TORSDOF 6
ENDMDL
MODEL 5
REMARK VINA RESULT:    -6.055     10.020     13.289
REMARK INTER + INTRA:          -7.610
REMARK INTER:                  -7.454
REMARK INTRA:                  -0.155
REMARK UNBOUND:                -0.315
REMARK SMILES O=c1c(O)c(-c2ccc(O)c(O)c2)oc2cc(O)cc(O)c12
REMARK SMILES IDX 5 1 3 2 2 3 1 4 22 5 20 6 19 7 17 8 16 9 15 10 14 11 6 12
REMARK SMILES IDX 7 13 8 14 9 15 13 16 11 17 10 18 12 20 4 22 21 24 18 26
REMARK H PARENT 10 19 12 21 4 23 21 25 18 27
REMARK Flexibility Score: inf
ROOT
ATOM      1  C   UNL     1     -25.221  39.131  -5.976  1.00  0.00     0.180 A 
ATOM      2  C   UNL     1     -26.277  38.521  -6.676  1.00  0.00     0.208 A 
ATOM      3  C   UNL     1     -27.221  37.766  -5.961  1.00  0.00     0.238 A 
ATOM      4  O   UNL     1     -28.194  37.268  -6.585  1.00  0.00    -0.285 OA
ATOM      5  C   UNL     1     -27.089  37.619  -4.559  1.00  0.00     0.111 A 
ATOM      6  C   UNL     1     -27.964  36.844  -3.739  1.00  0.00     0.134 A 
ATOM      7  C   UNL     1     -27.815  36.875  -2.348  1.00  0.00     0.093 A 
ATOM      8  C   UNL     1     -26.781  37.600  -1.750  1.00  0.00     0.123 A 
ATOM      9  C   UNL     1     -25.885  38.312  -2.545  1.00  0.00     0.094 A 
ATOM     10  C   UNL     1     -26.031  38.330  -3.935  1.00  0.00     0.146 A 
ATOM     11  O   UNL     1     -25.162  39.028  -4.655  1.00  0.00    -0.452 OA
ENDROOT
BRANCH   1  12
ATOM     12  C   UNL     1     -24.174  39.920  -6.665  1.00  0.00     0.025 A 
ATOM     13  C   UNL     1     -24.520  41.129  -7.290  1.00  0.00     0.016 A 
ATOM     14  C   UNL     1     -23.544  41.901  -7.926  1.00  0.00     0.051 A 
ATOM     15  C   UNL     1     -22.207  41.483  -7.933  1.00  0.00     0.157 A 
ATOM     16  C   UNL     1     -22.826  39.516  -6.656  1.00  0.00     0.062 A 
ATOM     17  C   UNL     1     -21.847  40.291  -7.293  1.00  0.00     0.158 A 
BRANCH  15  18
ATOM     18  O   UNL     1     -21.231  42.250  -8.569  1.00  0.00    -0.504 OA
ATOM     19  H   UNL     1     -20.245  42.038  -8.474  1.00  0.00     0.293 HD
ENDBRANCH  15  18
BRANCH  17  20
ATOM     20  O   UNL     1     -20.513  39.885  -7.289  1.00  0.00    -0.504 OA
ATOM     21  H   UNL     1     -19.756  40.556  -7.242  1.00  0.00     0.293 HD
ENDBRANCH  17  20
ENDBRANCH   1  12
BRANCH   2  22
ATOM     22  O   UNL     1     -26.400  38.697  -8.057  1.00  0.00    -0.502 OA
ATOM     23  H   UNL     1     -25.939  39.451  -8.553  1.00  0.00     0.293 HD
ENDBRANCH   2  22
BRANCH   6  24
ATOM     24  O   UNL     1     -28.971  36.013  -4.241  1.00  0.00    -0.507 OA
ATOM     25  H   UNL     1     -28.848  35.039  -4.476  1.00  0.00     0.293 HD
ENDBRANCH   6  24
BRANCH   8  26
ATOM     26  O   UNL     1     -26.630  37.613  -0.366  1.00  0.00    -0.508 OA
ATOM     27  H   UNL     1     -27.278  37.126   0.243  1.00  0.00     0.293 HD
ENDBRANCH   8  26
TORSDOF 6
ENDMDL
MODEL 6
REMARK VINA RESULT:    -6.010      2.281      4.023
REMARK INTER + INTRA:          -7.555
REMARK INTER:                  -7.326
REMARK INTRA:                  -0.228
REMARK UNBOUND:                -0.315
REMARK SMILES O=c1c(O)c(-c2ccc(O)c(O)c2)oc2cc(O)cc(O)c12
REMARK SMILES IDX 5 1 3 2 2 3 1 4 22 5 20 6 19 7 17 8 16 9 15 10 14 11 6 12
REMARK SMILES IDX 7 13 8 14 9 15 13 16 11 17 10 18 12 20 4 22 21 24 18 26
REMARK H PARENT 10 19 12 21 4 23 21 25 18 27
REMARK Flexibility Score: inf
ROOT
ATOM      1  C   UNL     1     -15.874  36.873  -1.858  1.00  0.00     0.180 A 
ATOM      2  C   UNL     1     -14.867  36.846  -2.839  1.00  0.00     0.208 A 
ATOM      3  C   UNL     1     -13.832  35.904  -2.726  1.00  0.00     0.238 A 
ATOM      4  O   UNL     1     -12.963  35.850  -3.636  1.00  0.00    -0.285 OA
ATOM      5  C   UNL     1     -13.808  35.013  -1.627  1.00  0.00     0.111 A 
ATOM      6  C   UNL     1     -12.785  34.044  -1.390  1.00  0.00     0.134 A 
ATOM      7  C   UNL     1     -12.931  33.128  -0.343  1.00  0.00     0.093 A 
ATOM      8  C   UNL     1     -14.031  33.185   0.518  1.00  0.00     0.123 A 
ATOM      9  C   UNL     1     -15.004  34.164   0.331  1.00  0.00     0.094 A 
ATOM     10  C   UNL     1     -14.904  35.070  -0.728  1.00  0.00     0.146 A 
ATOM     11  O   UNL     1     -15.858  35.981  -0.876  1.00  0.00    -0.452 OA
ENDROOT
BRANCH   1  12
ATOM     12  C   UNL     1     -16.983  37.853  -1.896  1.00  0.00     0.025 A 
ATOM     13  C   UNL     1     -18.010  37.697  -2.841  1.00  0.00     0.016 A 
ATOM     14  C   UNL     1     -19.077  38.598  -2.881  1.00  0.00     0.051 A 
ATOM     15  C   UNL     1     -19.142  39.657  -1.967  1.00  0.00     0.157 A 
ATOM     16  C   UNL     1     -17.063  38.906  -0.966  1.00  0.00     0.062 A 
ATOM     17  C   UNL     1     -18.136  39.809  -1.004  1.00  0.00     0.158 A 
BRANCH  15  18
ATOM     18  O   UNL     1     -20.205  40.559  -2.005  1.00  0.00    -0.504 OA
ATOM     19  H   UNL     1     -20.819  40.620  -2.808  1.00  0.00     0.293 HD
ENDBRANCH  15  18
BRANCH  17  20
ATOM     20  O   UNL     1     -18.210  40.856  -0.087  1.00  0.00    -0.504 OA
ATOM     21  H   UNL     1     -17.433  41.081   0.522  1.00  0.00     0.293 HD
ENDBRANCH  17  20
ENDBRANCH   1  12
BRANCH   2  22
ATOM     22  O   UNL     1     -14.922  37.722  -3.927  1.00  0.00    -0.502 OA
ATOM     23  H   UNL     1     -15.724  37.775  -4.543  1.00  0.00     0.293 HD
ENDBRANCH   2  22
BRANCH   6  24
ATOM     24  O   UNL     1     -11.603  33.961  -2.133  1.00  0.00    -0.507 OA
ATOM     25  H   UNL     1     -11.243  34.694  -2.725  1.00  0.00     0.293 HD
ENDBRANCH   6  24
BRANCH   8  26
ATOM     26  O   UNL     1     -14.160  32.278   1.566  1.00  0.00    -0.508 OA
ATOM     27  H   UNL     1     -15.067  31.937   1.864  1.00  0.00     0.293 HD
ENDBRANCH   8  26
TORSDOF 6
ENDMDL
MODEL 7
REMARK VINA RESULT:    -5.948      3.672      7.308
REMARK INTER + INTRA:          -7.480
REMARK INTER:                  -7.317
REMARK INTRA:                  -0.163
REMARK UNBOUND:                -0.315
REMARK SMILES O=c1c(O)c(-c2ccc(O)c(O)c2)oc2cc(O)cc(O)c12
REMARK SMILES IDX 5 1 3 2 2 3 1 4 22 5 20 6 19 7 17 8 16 9 15 10 14 11 6 12
REMARK SMILES IDX 7 13 8 14 9 15 13 16 11 17 10 18 12 20 4 22 21 24 18 26
REMARK H PARENT 10 19 12 21 4 23 21 25 18 27
REMARK Flexibility Score: inf
ROOT
ATOM      1  C   UNL     1     -15.606  36.175  -0.568  1.00  0.00     0.180 A 
ATOM      2  C   UNL     1     -16.110  35.788  -1.821  1.00  0.00     0.208 A 
ATOM      3  C   UNL     1     -17.087  36.586  -2.438  1.00  0.00     0.238 A 
ATOM      4  O   UNL     1     -17.496  36.264  -3.584  1.00  0.00    -0.285 OA
ATOM      5  C   UNL     1     -17.558  37.752  -1.786  1.00  0.00     0.111 A 
ATOM      6  C   UNL     1     -18.575  38.613  -2.299  1.00  0.00     0.134 A 
ATOM      7  C   UNL     1     -18.869  39.808  -1.633  1.00  0.00     0.093 A 
ATOM      8  C   UNL     1     -18.230  40.142  -0.435  1.00  0.00     0.123 A 
ATOM      9  C   UNL     1     -17.279  39.279   0.105  1.00  0.00     0.094 A 
ATOM     10  C   UNL     1     -16.938  38.097  -0.557  1.00  0.00     0.146 A 
ATOM     11  O   UNL     1     -16.020  37.307  -0.013  1.00  0.00    -0.452 OA
ENDROOT
BRANCH   1  12
ATOM     12  C   UNL     1     -14.593  35.371   0.155  1.00  0.00     0.025 A 
ATOM     13  C   UNL     1     -13.357  35.951   0.483  1.00  0.00     0.016 A 
ATOM     14  C   UNL     1     -12.396  35.218   1.183  1.00  0.00     0.051 A 
ATOM     15  C   UNL     1     -12.662  33.901   1.580  1.00  0.00     0.157 A 
ATOM     16  C   UNL     1     -14.864  34.055   0.573  1.00  0.00     0.062 A 
ATOM     17  C   UNL     1     -13.900  33.320   1.278  1.00  0.00     0.158 A 
BRANCH  15  18
ATOM     18  O   UNL     1     -11.704  33.167   2.277  1.00  0.00    -0.504 OA
ATOM     19  H   UNL     1     -11.898  32.234   2.622  1.00  0.00     0.293 HD
ENDBRANCH  15  18
BRANCH  17  20
ATOM     20  O   UNL     1     -14.168  32.014   1.686  1.00  0.00    -0.504 OA
ATOM     21  H   UNL     1     -14.938  31.801   2.307  1.00  0.00     0.293 HD
ENDBRANCH  17  20
ENDBRANCH   1  12
BRANCH   2  22
ATOM     22  O   UNL     1     -15.616  34.645  -2.456  1.00  0.00    -0.502 OA
ATOM     23  H   UNL     1     -15.800  34.442  -3.432  1.00  0.00     0.293 HD
ENDBRANCH   2  22
BRANCH   6  24
ATOM     24  O   UNL     1     -19.337  38.329  -3.437  1.00  0.00    -0.507 OA
ATOM     25  H   UNL     1     -20.021  37.590  -3.500  1.00  0.00     0.293 HD
ENDBRANCH   6  24
BRANCH   8  26
ATOM     26  O   UNL     1     -18.540  41.325   0.229  1.00  0.00    -0.508 OA
ATOM     27  H   UNL     1     -19.215  41.983  -0.144  1.00  0.00     0.293 HD
ENDBRANCH   8  26
TORSDOF 6
ENDMDL
MODEL 8
REMARK VINA RESULT:    -5.915     10.050     13.121
REMARK INTER + INTRA:          -7.440
REMARK INTER:                  -7.108
REMARK INTRA:                  -0.331
REMARK UNBOUND:                -0.315
REMARK SMILES O=c1c(O)c(-c2ccc(O)c(O)c2)oc2cc(O)cc(O)c12
REMARK SMILES IDX 5 1 3 2 2 3 1 4 22 5 20 6 19 7 17 8 16 9 15 10 14 11 6 12
REMARK SMILES IDX 7 13 8 14 9 15 13 16 11 17 10 18 12 20 4 22 21 24 18 26
REMARK H PARENT 10 19 12 21 4 23 21 25 18 27
REMARK Flexibility Score: inf
ROOT
ATOM      1  C   UNL     1     -25.895  39.896  -6.225  1.00  0.00     0.180 A 
ATOM      2  C   UNL     1     -26.422  40.957  -6.981  1.00  0.00     0.208 A 
ATOM      3  C   UNL     1     -25.546  41.762  -7.728  1.00  0.00     0.238 A 
ATOM      4  O   UNL     1     -26.030  42.677  -8.445  1.00  0.00    -0.285 OA
ATOM      5  C   UNL     1     -24.155  41.506  -7.696  1.00  0.00     0.111 A 
ATOM      6  C   UNL     1     -23.171  42.282  -8.381  1.00  0.00     0.134 A 
ATOM      7  C   UNL     1     -21.837  41.859  -8.385  1.00  0.00     0.093 A 
ATOM      8  C   UNL     1     -21.438  40.724  -7.673  1.00  0.00     0.123 A 
ATOM      9  C   UNL     1     -22.381  39.994  -6.952  1.00  0.00     0.094 A 
ATOM     10  C   UNL     1     -23.726  40.370  -6.960  1.00  0.00     0.146 A 
ATOM     11  O   UNL     1     -24.593  39.641  -6.268  1.00  0.00    -0.452 OA
ENDROOT
BRANCH   1  12
ATOM     12  C   UNL     1     -26.752  39.020  -5.394  1.00  0.00     0.025 A 
ATOM     13  C   UNL     1     -27.188  37.790  -5.910  1.00  0.00     0.016 A 
ATOM     14  C   UNL     1     -27.980  36.938  -5.136  1.00  0.00     0.051 A 
ATOM     15  C   UNL     1     -28.334  37.297  -3.828  1.00  0.00     0.157 A 
ATOM     16  C   UNL     1     -27.092  39.367  -4.073  1.00  0.00     0.062 A 
ATOM     17  C   UNL     1     -27.885  38.512  -3.295  1.00  0.00     0.158 A 
BRANCH  15  18
ATOM     18  O   UNL     1     -29.125  36.451  -3.053  1.00  0.00    -0.504 OA
ATOM     19  H   UNL     1     -28.839  35.501  -2.845  1.00  0.00     0.293 HD
ENDBRANCH  15  18
BRANCH  17  20
ATOM     20  O   UNL     1     -28.227  38.860  -1.989  1.00  0.00    -0.504 OA
ATOM     21  H   UNL     1     -28.738  38.225  -1.389  1.00  0.00     0.293 HD
ENDBRANCH  17  20
ENDBRANCH   1  12
BRANCH   2  22
ATOM     22  O   UNL     1     -27.802  41.179  -7.015  1.00  0.00    -0.502 OA
ATOM     23  H   UNL     1     -28.337  41.406  -6.186  1.00  0.00     0.293 HD
ENDBRANCH   2  22
BRANCH   6  24
ATOM     24  O   UNL     1     -23.448  43.481  -9.045  1.00  0.00    -0.507 OA
ATOM     25  H   UNL     1     -22.749  44.115  -9.403  1.00  0.00     0.293 HD
ENDBRANCH   6  24
BRANCH   8  26
ATOM     26  O   UNL     1     -20.106  40.319  -7.670  1.00  0.00    -0.508 OA
ATOM     27  H   UNL     1     -19.836  39.381  -7.940  1.00  0.00     0.293 HD
ENDBRANCH   8  26
TORSDOF 6
ENDMDL
MODEL 9
REMARK VINA RESULT:    -5.905      1.756      2.331
REMARK INTER + INTRA:          -7.429
REMARK INTER:                  -7.197
REMARK INTRA:                  -0.232
REMARK UNBOUND:                -0.315
REMARK SMILES O=c1c(O)c(-c2ccc(O)c(O)c2)oc2cc(O)cc(O)c12
REMARK SMILES IDX 5 1 3 2 2 3 1 4 22 5 20 6 19 7 17 8 16 9 15 10 14 11 6 12
REMARK SMILES IDX 7 13 8 14 9 15 13 16 11 17 10 18 12 20 4 22 21 24 18 26
REMARK H PARENT 10 19 12 21 4 23 21 25 18 27
REMARK Flexibility Score: inf
ROOT
ATOM      1  C   UNL     1     -14.777  36.437  -1.887  1.00  0.00     0.180 A 
ATOM      2  C   UNL     1     -14.468  36.194  -0.538  1.00  0.00     0.208 A 
ATOM      3  C   UNL     1     -13.236  35.602  -0.218  1.00  0.00     0.238 A 
ATOM      4  O   UNL     1     -12.942  35.436   0.995  1.00  0.00    -0.285 OA
ATOM      5  C   UNL     1     -12.336  35.247  -1.251  1.00  0.00     0.111 A 
ATOM      6  C   UNL     1     -11.077  34.605  -1.046  1.00  0.00     0.134 A 
ATOM      7  C   UNL     1     -10.211  34.419  -2.129  1.00  0.00     0.093 A 
ATOM      8  C   UNL     1     -10.585  34.792  -3.423  1.00  0.00     0.123 A 
ATOM      9  C   UNL     1     -11.836  35.365  -3.643  1.00  0.00     0.094 A 
ATOM     10  C   UNL     1     -12.707  35.597  -2.576  1.00  0.00     0.146 A 
ATOM     11  O   UNL     1     -13.885  36.153  -2.828  1.00  0.00    -0.452 OA
ENDROOT
BRANCH   1  12
ATOM     12  C   UNL     1     -16.067  37.035  -2.303  1.00  0.00     0.025 A 
ATOM     13  C   UNL     1     -17.046  36.221  -2.894  1.00  0.00     0.016 A 
ATOM     14  C   UNL     1     -18.278  36.759  -3.275  1.00  0.00     0.051 A 
ATOM     15  C   UNL     1     -18.555  38.114  -3.056  1.00  0.00     0.157 A 
ATOM     16  C   UNL     1     -16.357  38.391  -2.067  1.00  0.00     0.062 A 
ATOM     17  C   UNL     1     -17.594  38.931  -2.446  1.00  0.00     0.158 A 
BRANCH  15  18
ATOM     18  O   UNL     1     -19.782  38.655  -3.436  1.00  0.00    -0.504 OA
ATOM     19  H   UNL     1     -20.624  38.488  -2.898  1.00  0.00     0.293 HD
ENDBRANCH  15  18
BRANCH  17  20
ATOM     20  O   UNL     1     -17.877  40.277  -2.217  1.00  0.00    -0.504 OA
ATOM     21  H   UNL     1     -18.815  40.591  -2.002  1.00  0.00     0.293 HD
ENDBRANCH  17  20
ENDBRANCH   1  12
BRANCH   2  22
ATOM     22  O   UNL     1     -15.362  36.572   0.468  1.00  0.00    -0.502 OA
ATOM     23  H   UNL     1     -15.412  36.094   1.360  1.00  0.00     0.293 HD
ENDBRANCH   2  22
BRANCH   6  24
ATOM     24  O   UNL     1     -10.646  34.111   0.190  1.00  0.00    -0.507 OA
ATOM     25  H   UNL     1     -10.765  33.159   0.502  1.00  0.00     0.293 HD
ENDBRANCH   6  24
BRANCH   8  26
ATOM     26  O   UNL     1      -9.724  34.589  -4.498  1.00  0.00    -0.508 OA
ATOM     27  H   UNL     1      -8.862  34.066  -4.396  1.00  0.00     0.293 HD
ENDBRANCH   8  26
TORSDOF 6
ENDMDL
