MODEL 1
REMARK VINA RESULT:    -4.698      0.000      0.000
REMARK INTER + INTRA:          -5.919
REMARK INTER:                  -5.659
REMARK INTRA:                  -0.261
REMARK UNBOUND:                -0.261
REMARK SMILES NC(=O)C[C@H]([NH3+])C(=O)[O-]
REMARK SMILES IDX 4 1 5 2 6 3 7 7 8 8 9 9 2 10 3 11 1 12
REMARK H PARENT 6 4 6 5 6 6 1 13 1 14
REMARK Flexibility Score: inf
ROOT
ATOM      1  C   UNL     1     148.516 166.776 151.416  1.00  0.00     0.171 C 
ENDROOT
BRANCH   1   2
ATOM      2  C   UNL     1     148.325 166.244 152.851  1.00  0.00     0.237 C 
BRANCH   2   3
ATOM      3  N   UNL     1     146.916 165.913 153.093  1.00  0.00    -0.350 N 
ATOM      4  H   UNL     1     146.765 165.648 154.095  1.00  0.00     0.345 HD
ATOM      5  H   UNL     1     146.313 166.736 152.863  1.00  0.00     0.345 HD
ATOM      6  H   UNL     1     146.628 165.116 152.478  1.00  0.00     0.345 HD
ENDBRANCH   2   3
BRANCH   2   7
ATOM      7  C   UNL     1     148.807 167.247 153.869  1.00  0.00     0.100 C 
ATOM      8  O   UNL     1     148.027 168.125 154.321  1.00  0.00    -0.544 OA
ATOM      9  O   UNL     1     150.127 167.215 154.301  1.00  0.00    -0.544 OA
ENDBRANCH   2   7
ENDBRANCH   1   2
BRANCH   1  10
ATOM     10  C   UNL     1     148.517 165.662 150.409  1.00  0.00     0.223 C 
ATOM     11  O   UNL     1     148.274 164.483 150.780  1.00  0.00    -0.275 OA
ATOM     12  N   UNL     1     148.830 165.921 149.040  1.00  0.00    -0.369 N 
ATOM     13  H   UNL     1     149.052 166.889 148.718  1.00  0.00     0.159 HD
ATOM     14  H   UNL     1     148.844 165.141 148.347  1.00  0.00     0.159 HD
ENDBRANCH   1  10
TORSDOF 4
ENDMDL
MODEL 2
REMARK VINA RESULT:    -4.568      2.337      2.907
REMARK INTER + INTRA:          -5.763
REMARK INTER:                  -5.375
REMARK INTRA:                  -0.389
REMARK UNBOUND:                -0.261
REMARK SMILES NC(=O)C[C@H]([NH3+])C(=O)[O-]
REMARK SMILES IDX 4 1 5 2 6 3 7 7 8 8 9 9 2 10 3 11 1 12
REMARK H PARENT 6 4 6 5 6 6 1 13 1 14
REMARK Flexibility Score: inf
ROOT
ATOM      1  C   UNL     1     149.110 166.548 149.389  1.00  0.00     0.171 C 
ENDROOT
BRANCH   1   2
ATOM      2  C   UNL     1     149.266 167.035 150.844  1.00  0.00     0.237 C 
BRANCH   2   3
ATOM      3  N   UNL     1     150.639 166.817 151.315  1.00  0.00    -0.350 N 
ATOM      4  H   UNL     1     150.759 167.184 152.287  1.00  0.00     0.345 HD
ATOM      5  H   UNL     1     150.858 165.794 151.306  1.00  0.00     0.345 HD
ATOM      6  H   UNL     1     151.314 167.301 150.677  1.00  0.00     0.345 HD
ENDBRANCH   2   3
BRANCH   2   7
ATOM      7  C   UNL     1     148.285 166.342 151.756  1.00  0.00     0.100 C 
ATOM      8  O   UNL     1     148.658 165.891 152.871  1.00  0.00    -0.544 OA
ATOM      9  O   UNL     1     146.963 166.183 151.360  1.00  0.00    -0.544 OA
ENDBRANCH   2   7
ENDBRANCH   1   2
BRANCH   1  10
ATOM     10  C   UNL     1     149.488 165.102 149.247  1.00  0.00     0.223 C 
ATOM     11  O   UNL     1     150.677 164.790 148.972  1.00  0.00    -0.275 OA
ATOM     12  N   UNL     1     148.502 164.077 149.381  1.00  0.00    -0.369 N 
ATOM     13  H   UNL     1     147.507 164.318 149.589  1.00  0.00     0.159 HD
ATOM     14  H   UNL     1     148.766 163.074 149.266  1.00  0.00     0.159 HD
ENDBRANCH   1  10
TORSDOF 4
ENDMDL
MODEL 3
REMARK VINA RESULT:    -4.567      1.463      1.469
REMARK INTER + INTRA:          -5.762
REMARK INTER:                  -5.452
REMARK INTRA:                  -0.309
REMARK UNBOUND:                -0.261
REMARK SMILES NC(=O)C[C@H]([NH3+])C(=O)[O-]
REMARK SMILES IDX 4 1 5 2 6 3 7 7 8 8 9 9 2 10 3 11 1 12
REMARK H PARENT 6 4 6 5 6 6 1 13 1 14
REMARK Flexibility Score: inf
ROOT
ATOM      1  C   UNL     1     147.533 166.715 151.455  1.00  0.00     0.171 C 
ENDROOT
BRANCH   1   2
ATOM      2  C   UNL     1     148.752 167.356 152.150  1.00  0.00     0.237 C 
BRANCH   2   3
ATOM      3  N   UNL     1     149.993 166.704 151.714  1.00  0.00    -0.350 N 
ATOM      4  H   UNL     1     150.390 167.189 150.875  1.00  0.00     0.345 HD
ATOM      5  H   UNL     1     150.697 166.729 152.488  1.00  0.00     0.345 HD
ATOM      6  H   UNL     1     149.804 165.702 151.477  1.00  0.00     0.345 HD
ENDBRANCH   2   3
BRANCH   2   7
ATOM      7  C   UNL     1     148.622 167.280 153.650  1.00  0.00     0.100 C 
ATOM      8  O   UNL     1     147.928 168.124 154.276  1.00  0.00    -0.544 OA
ATOM      9  O   UNL     1     149.286 166.283 154.354  1.00  0.00    -0.544 OA
ENDBRANCH   2   7
ENDBRANCH   1   2
BRANCH   1  10
ATOM     10  C   UNL     1     147.870 165.371 150.876  1.00  0.00     0.223 C 
ATOM     11  O   UNL     1     148.051 164.387 151.642  1.00  0.00    -0.275 OA
ATOM     12  N   UNL     1     148.027 165.207 149.466  1.00  0.00    -0.369 N 
ATOM     13  H   UNL     1     147.900 166.015 148.818  1.00  0.00     0.159 HD
ATOM     14  H   UNL     1     148.276 164.274 149.069  1.00  0.00     0.159 HD
ENDBRANCH   1  10
TORSDOF 4
ENDMDL
MODEL 4
REMARK VINA RESULT:    -4.537     20.628     21.474
REMARK INTER + INTRA:          -5.726
REMARK INTER:                  -5.337
REMARK INTRA:                  -0.389
REMARK UNBOUND:                -0.261
REMARK SMILES NC(=O)C[C@H]([NH3+])C(=O)[O-]
REMARK SMILES IDX 4 1 5 2 6 3 7 7 8 8 9 9 2 10 3 11 1 12
REMARK H PARENT 6 4 6 5 6 6 1 13 1 14
REMARK Flexibility Score: inf
ROOT
ATOM      1  C   UNL     1     149.117 148.436 165.548  1.00  0.00     0.171 C 
ENDROOT
BRANCH   1   2
ATOM      2  C   UNL     1     149.287 147.982 164.084  1.00  0.00     0.237 C 
BRANCH   2   3
ATOM      3  N   UNL     1     150.650 148.263 163.614  1.00  0.00    -0.350 N 
ATOM      4  H   UNL     1     151.277 148.498 164.418  1.00  0.00     0.345 HD
ATOM      5  H   UNL     1     151.031 147.426 163.116  1.00  0.00     0.345 HD
ATOM      6  H   UNL     1     150.635 149.064 162.941  1.00  0.00     0.345 HD
ENDBRANCH   2   3
BRANCH   2   7
ATOM      7  C   UNL     1     148.278 148.654 163.188  1.00  0.00     0.100 C 
ATOM      8  O   UNL     1     148.618 149.093 162.058  1.00  0.00    -0.544 OA
ATOM      9  O   UNL     1     146.965 148.807 163.615  1.00  0.00    -0.544 OA
ENDBRANCH   2   7
ENDBRANCH   1   2
BRANCH   1  10
ATOM     10  C   UNL     1     149.476 149.883 165.724  1.00  0.00     0.223 C 
ATOM     11  O   UNL     1     150.656 150.203 166.030  1.00  0.00    -0.275 OA
ATOM     12  N   UNL     1     148.481 150.899 165.587  1.00  0.00    -0.369 N 
ATOM     13  H   UNL     1     147.495 150.651 165.353  1.00  0.00     0.159 HD
ATOM     14  H   UNL     1     148.732 151.903 165.725  1.00  0.00     0.159 HD
ENDBRANCH   1  10
TORSDOF 4
ENDMDL
MODEL 5
REMARK VINA RESULT:    -4.517      2.101      3.390
REMARK INTER + INTRA:          -5.702
REMARK INTER:                  -5.277
REMARK INTRA:                  -0.425
REMARK UNBOUND:                -0.261
REMARK SMILES NC(=O)C[C@H]([NH3+])C(=O)[O-]
REMARK SMILES IDX 4 1 5 2 6 3 7 7 8 8 9 9 2 10 3 11 1 12
REMARK H PARENT 6 4 6 5 6 6 1 13 1 14
REMARK Flexibility Score: inf
ROOT
ATOM      1  C   UNL     1     149.482 167.855 153.154  1.00  0.00     0.171 C 
ENDROOT
BRANCH   1   2
ATOM      2  C   UNL     1     148.214 166.996 152.970  1.00  0.00     0.237 C 
BRANCH   2   3
ATOM      3  N   UNL     1     147.969 166.179 154.166  1.00  0.00    -0.350 N 
ATOM      4  H   UNL     1     148.873 165.871 154.594  1.00  0.00     0.345 HD
ATOM      5  H   UNL     1     147.429 166.734 154.869  1.00  0.00     0.345 HD
ATOM      6  H   UNL     1     147.403 165.337 153.910  1.00  0.00     0.345 HD
ENDBRANCH   2   3
BRANCH   2   7
ATOM      7  C   UNL     1     148.328 166.116 151.752  1.00  0.00     0.100 C 
ATOM      8  O   UNL     1     148.023 164.895 151.813  1.00  0.00    -0.544 OA
ATOM      9  O   UNL     1     148.787 166.647 150.553  1.00  0.00    -0.544 OA
ENDBRANCH   2   7
ENDBRANCH   1   2
BRANCH   1  10
ATOM     10  C   UNL     1     150.717 167.006 153.244  1.00  0.00     0.223 C 
ATOM     11  O   UNL     1     150.970 166.379 154.308  1.00  0.00    -0.275 OA
ATOM     12  N   UNL     1     151.630 166.934 152.148  1.00  0.00    -0.369 N 
ATOM     13  H   UNL     1     151.446 167.462 151.266  1.00  0.00     0.159 HD
ATOM     14  H   UNL     1     152.495 166.354 152.220  1.00  0.00     0.159 HD
ENDBRANCH   1  10
TORSDOF 4
ENDMDL
MODEL 6
REMARK VINA RESULT:    -4.488     20.471     21.281
REMARK INTER + INTRA:          -5.667
REMARK INTER:                  -5.232
REMARK INTRA:                  -0.435
REMARK UNBOUND:                -0.261
REMARK SMILES NC(=O)C[C@H]([NH3+])C(=O)[O-]
REMARK SMILES IDX 4 1 5 2 6 3 7 7 8 8 9 9 2 10 3 11 1 12
REMARK H PARENT 6 4 6 5 6 6 1 13 1 14
REMARK Flexibility Score: inf
ROOT
ATOM      1  C   UNL     1     165.691 166.733 165.688  1.00  0.00     0.171 C 
ENDROOT
BRANCH   1   2
ATOM      2  C   UNL     1     165.200 167.348 164.362  1.00  0.00     0.237 C 
BRANCH   2   3
ATOM      3  N   UNL     1     163.896 166.787 163.987  1.00  0.00    -0.350 N 
ATOM      4  H   UNL     1     163.353 166.513 164.839  1.00  0.00     0.345 HD
ATOM      5  H   UNL     1     163.348 167.496 163.447  1.00  0.00     0.345 HD
ATOM      6  H   UNL     1     164.032 165.947 163.379  1.00  0.00     0.345 HD
ENDBRANCH   2   3
BRANCH   2   7
ATOM      7  C   UNL     1     166.200 167.125 163.257  1.00  0.00     0.100 C 
ATOM      8  O   UNL     1     167.027 168.025 162.951  1.00  0.00    -0.544 OA
ATOM      9  O   UNL     1     166.203 165.925 162.556  1.00  0.00    -0.544 OA
ENDBRANCH   2   7
ENDBRANCH   1   2
BRANCH   1  10
ATOM     10  C   UNL     1     165.456 165.250 165.730  1.00  0.00     0.223 C 
ATOM     11  O   UNL     1     164.348 164.803 166.129  1.00  0.00    -0.275 OA
ATOM     12  N   UNL     1     166.493 164.340 165.360  1.00  0.00    -0.369 N 
ATOM     13  H   UNL     1     167.424 164.693 165.046  1.00  0.00     0.159 HD
ATOM     14  H   UNL     1     166.330 163.310 165.406  1.00  0.00     0.159 HD
ENDBRANCH   1  10
TORSDOF 4
ENDMDL
MODEL 7
REMARK VINA RESULT:    -4.460     20.263     20.817
REMARK INTER + INTRA:          -5.633
REMARK INTER:                  -5.124
REMARK INTRA:                  -0.510
REMARK UNBOUND:                -0.261
REMARK SMILES NC(=O)C[C@H]([NH3+])C(=O)[O-]
REMARK SMILES IDX 4 1 5 2 6 3 7 7 8 8 9 9 2 10 3 11 1 12
REMARK H PARENT 6 4 6 5 6 6 1 13 1 14
REMARK Flexibility Score: inf
ROOT
ATOM      1  C   UNL     1     154.764 151.958 164.085  1.00  0.00     0.171 C 
ENDROOT
BRANCH   1   2
ATOM      2  C   UNL     1     155.028 152.323 165.560  1.00  0.00     0.237 C 
BRANCH   2   3
ATOM      3  N   UNL     1     155.974 151.374 166.162  1.00  0.00    -0.350 N 
ATOM      4  H   UNL     1     156.039 150.502 165.588  1.00  0.00     0.345 HD
ATOM      5  H   UNL     1     156.921 151.812 166.227  1.00  0.00     0.345 HD
ATOM      6  H   UNL     1     155.661 151.128 167.130  1.00  0.00     0.345 HD
ENDBRANCH   2   3
BRANCH   2   7
ATOM      7  C   UNL     1     153.744 152.352 166.349  1.00  0.00     0.100 C 
ATOM      8  O   UNL     1     153.298 153.438 166.804  1.00  0.00    -0.544 OA
ATOM      9  O   UNL     1     153.054 151.171 166.595  1.00  0.00    -0.544 OA
ENDBRANCH   2   7
ENDBRANCH   1   2
BRANCH   1  10
ATOM     10  C   UNL     1     155.023 150.502 163.820  1.00  0.00     0.223 C 
ATOM     11  O   UNL     1     156.147 150.136 163.382  1.00  0.00    -0.275 OA
ATOM     12  N   UNL     1     153.994 149.533 164.022  1.00  0.00    -0.369 N 
ATOM     13  H   UNL     1     153.051 149.821 164.365  1.00  0.00     0.159 HD
ATOM     14  H   UNL     1     154.174 148.525 163.822  1.00  0.00     0.159 HD
ENDBRANCH   1  10
TORSDOF 4
ENDMDL
MODEL 8
REMARK VINA RESULT:    -4.431      2.556      3.426
REMARK INTER + INTRA:          -5.599
REMARK INTER:                  -5.470
REMARK INTRA:                  -0.128
REMARK UNBOUND:                -0.261
REMARK SMILES NC(=O)C[C@H]([NH3+])C(=O)[O-]
REMARK SMILES IDX 4 1 5 2 6 3 7 7 8 8 9 9 2 10 3 11 1 12
REMARK H PARENT 6 4 6 5 6 6 1 13 1 14
REMARK Flexibility Score: inf
ROOT
ATOM      1  C   UNL     1     149.652 166.246 149.079  1.00  0.00     0.171 C 
ENDROOT
BRANCH   1   2
ATOM      2  C   UNL     1     148.942 165.469 150.206  1.00  0.00     0.237 C 
BRANCH   2   3
ATOM      3  N   UNL     1     148.057 164.441 149.643  1.00  0.00    -0.350 N 
ATOM      4  H   UNL     1     147.755 163.767 150.384  1.00  0.00     0.345 HD
ATOM      5  H   UNL     1     147.211 164.893 149.226  1.00  0.00     0.345 HD
ATOM      6  H   UNL     1     148.556 163.920 148.885  1.00  0.00     0.345 HD
ENDBRANCH   2   3
BRANCH   2   7
ATOM      7  C   UNL     1     148.159 166.400 151.097  1.00  0.00     0.100 C 
ATOM      8  O   UNL     1     148.667 167.482 151.493  1.00  0.00    -0.544 OA
ATOM      9  O   UNL     1     146.875 166.057 151.500  1.00  0.00    -0.544 OA
ENDBRANCH   2   7
ENDBRANCH   1   2
BRANCH   1  10
ATOM     10  C   UNL     1     151.132 165.989 149.077  1.00  0.00     0.223 C 
ATOM     11  O   UNL     1     151.615 165.113 148.311  1.00  0.00    -0.275 OA
ATOM     12  N   UNL     1     151.993 166.703 149.967  1.00  0.00    -0.369 N 
ATOM     13  H   UNL     1     151.607 167.418 150.622  1.00  0.00     0.159 HD
ATOM     14  H   UNL     1     153.019 166.510 149.973  1.00  0.00     0.159 HD
ENDBRANCH   1  10
TORSDOF 4
ENDMDL
MODEL 9
REMARK VINA RESULT:    -4.390      1.392      4.000
REMARK INTER + INTRA:          -5.549
REMARK INTER:                  -5.352
REMARK INTRA:                  -0.197
REMARK UNBOUND:                -0.261
REMARK SMILES NC(=O)C[C@H]([NH3+])C(=O)[O-]
REMARK SMILES IDX 4 1 5 2 6 3 7 7 8 8 9 9 2 10 3 11 1 12
REMARK H PARENT 6 4 6 5 6 6 1 13 1 14
REMARK Flexibility Score: inf
ROOT
ATOM      1  C   UNL     1     149.089 167.533 152.295  1.00  0.00     0.171 C 
ENDROOT
BRANCH   1   2
ATOM      2  C   UNL     1     149.282 166.463 151.200  1.00  0.00     0.237 C 
BRANCH   2   3
ATOM      3  N   UNL     1     149.867 167.062 149.994  1.00  0.00    -0.350 N 
ATOM      4  H   UNL     1     149.184 167.038 149.201  1.00  0.00     0.345 HD
ATOM      5  H   UNL     1     150.133 168.056 150.185  1.00  0.00     0.345 HD
ATOM      6  H   UNL     1     150.732 166.540 149.722  1.00  0.00     0.345 HD
ENDBRANCH   2   3
BRANCH   2   7
ATOM      7  C   UNL     1     147.977 165.787 150.866  1.00  0.00     0.100 C 
ATOM      8  O   UNL     1     146.902 166.176 151.394  1.00  0.00    -0.544 OA
ATOM      9  O   UNL     1     147.958 164.714 149.984  1.00  0.00    -0.544 OA
ENDBRANCH   2   7
ENDBRANCH   1   2
BRANCH   1  10
ATOM     10  C   UNL     1     149.239 166.949 153.670  1.00  0.00     0.223 C 
ATOM     11  O   UNL     1     150.349 167.020 154.262  1.00  0.00    -0.275 OA
ATOM     12  N   UNL     1     148.144 166.280 154.298  1.00  0.00    -0.369 N 
ATOM     13  H   UNL     1     147.223 166.195 153.814  1.00  0.00     0.159 HD
ATOM     14  H   UNL     1     148.258 165.862 155.248  1.00  0.00     0.159 HD
ENDBRANCH   1  10
TORSDOF 4
ENDMDL
