MODEL 1
REMARK VINA RESULT:    -3.582      0.000      0.000
REMARK INTER + INTRA:          -4.547
REMARK INTER:                  -4.839
REMARK INTRA:                   0.292
REMARK UNBOUND:                 0.292
REMARK SMILES C=C(C)[C@H]1CC[C@@H](C)C2=C(C1)[C@H](C)CC2
REMARK SMILES IDX 10 1 9 2 15 3 14 4 12 5 13 6 7 7 8 8 6 9 11 11 4 12 5 13
REMARK SMILES IDX 2 15 1 16 3 17
REMARK H PARENT
REMARK Flexibility Score: 80.00
ROOT
ATOM      1  C   UNL     1      14.051   6.495  16.363  1.00  0.00    -0.067 C 
ATOM      2  C   UNL     1      13.111   7.441  16.263  1.00  0.00    -0.068 C 
ATOM      3  C   UNL     1      13.694   8.805  16.426  1.00  0.00     0.032 C 
ATOM      4  C   UNL     1      15.205   8.583  16.411  1.00  0.00     0.012 C 
ATOM      5  C   UNL     1      15.408   7.076  16.612  1.00  0.00     0.012 C 
ATOM      6  C   UNL     1      15.887   6.752  18.032  1.00  0.00     0.012 C 
ENDROOT
BRANCH   2   7
ATOM      7  C   UNL     1      11.608   7.235  16.100  1.00  0.00     0.012 C 
ATOM      8  C   UNL     1      10.875   8.558  16.345  1.00  0.00     0.012 C 
BRANCH   7   9
ATOM      9  C   UNL     1      10.971   6.108  16.954  1.00  0.00     0.008 CG0
ATOM     10  G   UNL     1      11.941   5.452  17.952  1.00  0.00     0.000 G0
ENDBRANCH   7   9
ENDBRANCH   2   7
BRANCH   1  11
ATOM     11  C   UNL     1      13.818   5.017  16.200  1.00  0.00     0.039 C 
BRANCH  11  12
ATOM     12  C   UNL     1      12.962   4.462  17.360  1.00  0.00     0.018 C 
BRANCH  12  13
ATOM     13  C   UNL     1      11.950   5.476  17.965  1.00  0.00     0.009 CG0
ATOM     14  G   UNL     1      10.976   6.098  16.949  1.00  0.00     0.000 G0
ENDBRANCH  12  13
BRANCH  12  15
ATOM     15  C   UNL     1      13.844   3.835  18.437  1.00  0.00    -0.077 C 
ATOM     16  C   UNL     1      13.500   3.932  19.731  1.00  0.00     0.008 C 
ATOM     17  C   UNL     1      15.129   3.126  18.092  1.00  0.00     0.039 C 
ENDBRANCH  12  15
ENDBRANCH  11  12
ENDBRANCH   1  11
TORSDOF 1
ENDMDL
MODEL 2
REMARK VINA RESULT:    -3.356      1.034      1.679
REMARK INTER + INTRA:          -4.242
REMARK INTER:                  -4.538
REMARK INTRA:                   0.296
REMARK UNBOUND:                 0.292
REMARK SMILES C=C(C)[C@H]1CC[C@@H](C)C2=C(C1)[C@H](C)CC2
REMARK SMILES IDX 10 1 9 2 15 3 14 4 12 5 13 6 7 7 8 8 6 9 11 11 4 12 5 13
REMARK SMILES IDX 2 15 1 16 3 17
REMARK H PARENT
REMARK Flexibility Score: 80.00
ROOT
ATOM      1  C   UNL     1      14.315   5.335  17.292  1.00  0.00    -0.067 C 
ATOM      2  C   UNL     1      13.539   6.211  16.645  1.00  0.00    -0.068 C 
ATOM      3  C   UNL     1      14.292   7.453  16.301  1.00  0.00     0.032 C 
ATOM      4  C   UNL     1      15.747   7.126  16.630  1.00  0.00     0.012 C 
ATOM      5  C   UNL     1      15.706   5.853  17.486  1.00  0.00     0.012 C 
ATOM      6  C   UNL     1      15.973   6.156  18.965  1.00  0.00     0.012 C 
ENDROOT
BRANCH   2   7
ATOM      7  C   UNL     1      12.050   6.077  16.344  1.00  0.00     0.012 C 
ATOM      8  C   UNL     1      11.493   7.426  15.875  1.00  0.00     0.012 C 
BRANCH   7   9
ATOM      9  C   UNL     1      11.166   5.503  17.481  1.00  0.00     0.008 CG0
ATOM     10  G   UNL     1      11.905   5.318  18.818  1.00  0.00     0.000 G0
ENDBRANCH   7   9
ENDBRANCH   2   7
BRANCH   1  11
ATOM     11  C   UNL     1      13.890   3.963  17.741  1.00  0.00     0.039 C 
BRANCH  11  12
ATOM     12  C   UNL     1      12.841   4.052  18.872  1.00  0.00     0.018 C 
BRANCH  12  13
ATOM     13  C   UNL     1      11.920   5.303  18.806  1.00  0.00     0.009 CG0
ATOM     14  G   UNL     1      11.182   5.492  17.469  1.00  0.00     0.000 G0
ENDBRANCH  12  13
BRANCH  12  15
ATOM     15  C   UNL     1      13.502   3.909  20.241  1.00  0.00    -0.077 C 
ATOM     16  C   UNL     1      14.362   2.904  20.473  1.00  0.00     0.008 C 
ATOM     17  C   UNL     1      13.190   4.857  21.371  1.00  0.00     0.039 C 
ENDBRANCH  12  15
ENDBRANCH  11  12
ENDBRANCH   1  11
TORSDOF 1
ENDMDL
MODEL 3
REMARK VINA RESULT:    -3.264      1.750      4.547
REMARK INTER + INTRA:          -4.117
REMARK INTER:                  -4.418
REMARK INTRA:                   0.301
REMARK UNBOUND:                 0.292
REMARK SMILES C=C(C)[C@H]1CC[C@@H](C)C2=C(C1)[C@H](C)CC2
REMARK SMILES IDX 10 1 9 2 15 3 14 4 12 5 13 6 7 7 8 8 6 9 11 11 4 12 5 13
REMARK SMILES IDX 2 15 1 16 3 17
REMARK H PARENT
REMARK Flexibility Score: 80.00
ROOT
ATOM      1  C   UNL     1      14.440   4.683  17.093  1.00  0.00    -0.067 C 
ATOM      2  C   UNL     1      15.683   5.045  17.430  1.00  0.00    -0.068 C 
ATOM      3  C   UNL     1      16.194   4.230  18.571  1.00  0.00     0.032 C 
ATOM      4  C   UNL     1      15.156   3.124  18.753  1.00  0.00     0.012 C 
ATOM      5  C   UNL     1      13.924   3.574  17.956  1.00  0.00     0.012 C 
ATOM      6  C   UNL     1      12.805   4.075  18.876  1.00  0.00     0.012 C 
ENDROOT
BRANCH   2   7
ATOM      7  C   UNL     1      16.502   6.189  16.843  1.00  0.00     0.012 C 
ATOM      8  C   UNL     1      17.761   6.411  17.687  1.00  0.00     0.012 C 
BRANCH   7   9
ATOM      9  C   UNL     1      15.757   7.534  16.636  1.00  0.00     0.008 CG0
ATOM     10  G   UNL     1      14.303   7.530  17.138  1.00  0.00     0.000 G0
ENDBRANCH   7   9
ENDBRANCH   2   7
BRANCH   1  11
ATOM     11  C   UNL     1      13.644   5.264  15.956  1.00  0.00     0.039 C 
BRANCH  11  12
ATOM     12  C   UNL     1      13.295   6.745  16.226  1.00  0.00     0.018 C 
BRANCH  12  13
ATOM     13  C   UNL     1      14.304   7.493  17.142  1.00  0.00     0.009 CG0
ATOM     14  G   UNL     1      15.751   7.523  16.620  1.00  0.00     0.000 G0
ENDBRANCH  12  13
BRANCH  12  15
ATOM     15  C   UNL     1      11.862   6.883  16.733  1.00  0.00    -0.077 C 
ATOM     16  C   UNL     1      10.920   6.010  16.340  1.00  0.00     0.008 C 
ATOM     17  C   UNL     1      11.454   8.007  17.651  1.00  0.00     0.039 C 
ENDBRANCH  12  15
ENDBRANCH  11  12
ENDBRANCH   1  11
TORSDOF 1
ENDMDL
MODEL 4
REMARK VINA RESULT:    -3.246      1.909      4.576
REMARK INTER + INTRA:          -4.093
REMARK INTER:                  -4.390
REMARK INTRA:                   0.297
REMARK UNBOUND:                 0.292
REMARK SMILES C=C(C)[C@H]1CC[C@@H](C)C2=C(C1)[C@H](C)CC2
REMARK SMILES IDX 10 1 9 2 15 3 14 4 12 5 13 6 7 7 8 8 6 9 11 11 4 12 5 13
REMARK SMILES IDX 2 15 1 16 3 17
REMARK H PARENT
REMARK Flexibility Score: 80.00
ROOT
ATOM      1  C   UNL     1      11.714   6.315  19.152  1.00  0.00    -0.067 C 
ATOM      2  C   UNL     1      12.368   5.335  19.783  1.00  0.00    -0.068 C 
ATOM      3  C   UNL     1      12.646   5.696  21.204  1.00  0.00     0.032 C 
ATOM      4  C   UNL     1      11.849   6.978  21.440  1.00  0.00     0.012 C 
ATOM      5  C   UNL     1      11.455   7.486  20.047  1.00  0.00     0.012 C 
ATOM      6  C   UNL     1      12.299   8.694  19.624  1.00  0.00     0.012 C 
ENDROOT
BRANCH   2   7
ATOM      7  C   UNL     1      12.883   4.032  19.180  1.00  0.00     0.012 C 
ATOM      8  C   UNL     1      13.872   3.370  20.146  1.00  0.00     0.012 C 
BRANCH   7   9
ATOM      9  C   UNL     1      13.506   4.127  17.763  1.00  0.00     0.008 CG0
ATOM     10  G   UNL     1      13.700   5.567  17.258  1.00  0.00     0.000 G0
ENDBRANCH   7   9
ENDBRANCH   2   7
BRANCH   1  11
ATOM     11  C   UNL     1      11.235   6.263  17.726  1.00  0.00     0.039 C 
BRANCH  11  12
ATOM     12  C   UNL     1      12.426   6.290  16.741  1.00  0.00     0.018 C 
BRANCH  12  13
ATOM     13  C   UNL     1      13.707   5.572  17.252  1.00  0.00     0.009 CG0
ATOM     14  G   UNL     1      13.480   4.143  17.775  1.00  0.00     0.000 G0
ENDBRANCH  12  13
BRANCH  12  15
ATOM     15  C   UNL     1      12.722   7.716  16.284  1.00  0.00    -0.077 C 
ATOM     16  C   UNL     1      11.720   8.525  15.905  1.00  0.00     0.008 C 
ATOM     17  C   UNL     1      14.132   8.245  16.212  1.00  0.00     0.039 C 
ENDBRANCH  12  15
ENDBRANCH  11  12
ENDBRANCH   1  11
TORSDOF 1
ENDMDL
MODEL 5
REMARK VINA RESULT:    -3.231      1.949      4.344
REMARK INTER + INTRA:          -4.072
REMARK INTER:                  -4.414
REMARK INTRA:                   0.342
REMARK UNBOUND:                 0.292
REMARK SMILES C=C(C)[C@H]1CC[C@@H](C)C2=C(C1)[C@H](C)CC2
REMARK SMILES IDX 10 1 9 2 15 3 14 4 12 5 13 6 7 7 8 8 6 9 11 11 4 12 5 13
REMARK SMILES IDX 2 15 1 16 3 17
REMARK H PARENT
REMARK Flexibility Score: 80.00
ROOT
ATOM      1  C   UNL     1      12.733   4.897  18.930  1.00  0.00    -0.067 C 
ATOM      2  C   UNL     1      13.519   4.374  17.983  1.00  0.00    -0.068 C 
ATOM      3  C   UNL     1      14.469   3.377  18.559  1.00  0.00     0.032 C 
ATOM      4  C   UNL     1      13.997   3.177  19.997  1.00  0.00     0.012 C 
ATOM      5  C   UNL     1      13.035   4.337  20.285  1.00  0.00     0.012 C 
ATOM      6  C   UNL     1      13.680   5.400  21.183  1.00  0.00     0.012 C 
ENDROOT
BRANCH   2   7
ATOM      7  C   UNL     1      13.569   4.758  16.509  1.00  0.00     0.012 C 
ATOM      8  C   UNL     1      14.853   4.215  15.875  1.00  0.00     0.012 C 
BRANCH   7   9
ATOM      9  C   UNL     1      13.412   6.267  16.184  1.00  0.00     0.008 CG0
ATOM     10  G   UNL     1      13.527   7.188  17.411  1.00  0.00     0.000 G0
ENDBRANCH   7   9
ENDBRANCH   2   7
BRANCH   1  11
ATOM     11  C   UNL     1      11.632   5.895  18.692  1.00  0.00     0.039 C 
BRANCH  11  12
ATOM     12  C   UNL     1      12.209   7.264  18.267  1.00  0.00     0.018 C 
BRANCH  12  13
ATOM     13  C   UNL     1      13.512   7.187  17.423  1.00  0.00     0.009 CG0
ATOM     14  G   UNL     1      13.425   6.276  16.186  1.00  0.00     0.000 G0
ENDBRANCH  12  13
BRANCH  12  15
ATOM     15  C   UNL     1      12.373   8.184  19.475  1.00  0.00    -0.077 C 
ATOM     16  C   UNL     1      11.327   8.432  20.281  1.00  0.00     0.008 C 
ATOM     17  C   UNL     1      13.685   8.861  19.780  1.00  0.00     0.039 C 
ENDBRANCH  12  15
ENDBRANCH  11  12
ENDBRANCH   1  11
TORSDOF 1
ENDMDL
MODEL 6
REMARK VINA RESULT:    -3.177      1.952      3.810
REMARK INTER + INTRA:          -4.000
REMARK INTER:                  -4.301
REMARK INTRA:                   0.301
REMARK UNBOUND:                 0.292
REMARK SMILES C=C(C)[C@H]1CC[C@@H](C)C2=C(C1)[C@H](C)CC2
REMARK SMILES IDX 10 1 9 2 15 3 14 4 12 5 13 6 7 7 8 8 6 9 11 11 4 12 5 13
REMARK SMILES IDX 2 15 1 16 3 17
REMARK H PARENT
REMARK Flexibility Score: 80.00
ROOT
ATOM      1  C   UNL     1      14.734   6.033  16.405  1.00  0.00    -0.067 C 
ATOM      2  C   UNL     1      15.855   6.705  16.690  1.00  0.00    -0.068 C 
ATOM      3  C   UNL     1      17.027   5.787  16.789  1.00  0.00     0.032 C 
ATOM      4  C   UNL     1      16.508   4.442  16.285  1.00  0.00     0.012 C 
ATOM      5  C   UNL     1      14.979   4.563  16.273  1.00  0.00     0.012 C 
ATOM      6  C   UNL     1      14.340   3.796  17.437  1.00  0.00     0.012 C 
ENDROOT
BRANCH   2   7
ATOM      7  C   UNL     1      15.987   8.196  16.985  1.00  0.00     0.012 C 
ATOM      8  C   UNL     1      17.374   8.487  17.567  1.00  0.00     0.012 C 
BRANCH   7   9
ATOM      9  C   UNL     1      14.890   8.820  17.886  1.00  0.00     0.008 CG0
ATOM     10  G   UNL     1      13.905   7.796  18.476  1.00  0.00     0.000 G0
ENDBRANCH   7   9
ENDBRANCH   2   7
BRANCH   1  11
ATOM     11  C   UNL     1      13.380   6.653  16.187  1.00  0.00     0.039 C 
BRANCH  11  12
ATOM     12  C   UNL     1      12.822   7.238  17.504  1.00  0.00     0.018 C 
BRANCH  12  13
ATOM     13  C   UNL     1      13.900   7.786  18.481  1.00  0.00     0.009 CG0
ATOM     14  G   UNL     1      14.869   8.809  17.862  1.00  0.00     0.000 G0
ENDBRANCH  12  13
BRANCH  12  15
ATOM     15  C   UNL     1      11.893   6.240  18.192  1.00  0.00    -0.077 C 
ATOM     16  C   UNL     1      11.838   6.184  19.533  1.00  0.00     0.008 C 
ATOM     17  C   UNL     1      11.045   5.276  17.402  1.00  0.00     0.039 C 
ENDBRANCH  12  15
ENDBRANCH  11  12
ENDBRANCH   1  11
TORSDOF 1
ENDMDL
MODEL 7
REMARK VINA RESULT:    -3.106      1.858      3.110
REMARK INTER + INTRA:          -3.904
REMARK INTER:                  -4.203
REMARK INTRA:                   0.300
REMARK UNBOUND:                 0.292
REMARK SMILES C=C(C)[C@H]1CC[C@@H](C)C2=C(C1)[C@H](C)CC2
REMARK SMILES IDX 10 1 9 2 15 3 14 4 12 5 13 6 7 7 8 8 6 9 11 11 4 12 5 13
REMARK SMILES IDX 2 15 1 16 3 17
REMARK H PARENT
REMARK Flexibility Score: 80.00
ROOT
ATOM      1  C   UNL     1      13.594   4.581  17.923  1.00  0.00    -0.067 C 
ATOM      2  C   UNL     1      13.649   5.803  17.383  1.00  0.00    -0.068 C 
ATOM      3  C   UNL     1      14.595   5.844  16.229  1.00  0.00     0.032 C 
ATOM      4  C   UNL     1      14.955   4.382  15.973  1.00  0.00     0.012 C 
ATOM      5  C   UNL     1      14.493   3.614  17.218  1.00  0.00     0.012 C 
ATOM      6  C   UNL     1      15.675   3.219  18.111  1.00  0.00     0.012 C 
ENDROOT
BRANCH   2   7
ATOM      7  C   UNL     1      12.949   7.063  17.880  1.00  0.00     0.012 C 
ATOM      8  C   UNL     1      13.559   8.295  17.203  1.00  0.00     0.012 C 
BRANCH   7   9
ATOM      9  C   UNL     1      12.904   7.268  19.416  1.00  0.00     0.008 CG0
ATOM     10  G   UNL     1      13.767   6.269  20.207  1.00  0.00     0.000 G0
ENDBRANCH   7   9
ENDBRANCH   2   7
BRANCH   1  11
ATOM     11  C   UNL     1      12.707   4.176  19.070  1.00  0.00     0.039 C 
BRANCH  11  12
ATOM     12  C   UNL     1      13.166   4.844  20.385  1.00  0.00     0.018 C 
BRANCH  12  13
ATOM     13  C   UNL     1      13.769   6.267  20.216  1.00  0.00     0.009 CG0
ATOM     14  G   UNL     1      12.891   7.249  19.422  1.00  0.00     0.000 G0
ENDBRANCH  12  13
BRANCH  12  15
ATOM     15  C   UNL     1      14.101   3.924  21.166  1.00  0.00    -0.077 C 
ATOM     16  C   UNL     1      15.273   4.389  21.628  1.00  0.00     0.008 C 
ATOM     17  C   UNL     1      13.762   2.476  21.412  1.00  0.00     0.039 C 
ENDBRANCH  12  15
ENDBRANCH  11  12
ENDBRANCH   1  11
TORSDOF 1
ENDMDL
MODEL 8
REMARK VINA RESULT:    -3.056      2.139      4.120
REMARK INTER + INTRA:          -3.837
REMARK INTER:                  -4.199
REMARK INTRA:                   0.363
REMARK UNBOUND:                 0.292
REMARK SMILES C=C(C)[C@H]1CC[C@@H](C)C2=C(C1)[C@H](C)CC2
REMARK SMILES IDX 10 1 9 2 15 3 14 4 12 5 13 6 7 7 8 8 6 9 11 11 4 12 5 13
REMARK SMILES IDX 2 15 1 16 3 17
REMARK H PARENT
REMARK Flexibility Score: 80.00
ROOT
ATOM      1  C   UNL     1      12.313   5.481  18.678  1.00  0.00    -0.067 C 
ATOM      2  C   UNL     1      12.292   5.860  19.960  1.00  0.00    -0.068 C 
ATOM      3  C   UNL     1      11.739   7.239  20.108  1.00  0.00     0.032 C 
ATOM      4  C   UNL     1      11.191   7.586  18.725  1.00  0.00     0.012 C 
ATOM      5  C   UNL     1      11.784   6.544  17.767  1.00  0.00     0.012 C 
ATOM      6  C   UNL     1      12.908   7.137  16.910  1.00  0.00     0.012 C 
ENDROOT
BRANCH   2   7
ATOM      7  C   UNL     1      12.829   5.088  21.160  1.00  0.00     0.012 C 
ATOM      8  C   UNL     1      12.911   6.015  22.377  1.00  0.00     0.012 C 
BRANCH   7   9
ATOM      9  C   UNL     1      14.180   4.353  20.959  1.00  0.00     0.008 CG0
ATOM     10  G   UNL     1      14.873   4.671  19.622  1.00  0.00     0.000 G0
ENDBRANCH   7   9
ENDBRANCH   2   7
BRANCH   1  11
ATOM     11  C   UNL     1      12.762   4.134  18.178  1.00  0.00     0.039 C 
BRANCH  11  12
ATOM     12  C   UNL     1      14.285   3.954  18.365  1.00  0.00     0.018 C 
BRANCH  12  13
ATOM     13  C   UNL     1      14.877   4.678  19.608  1.00  0.00     0.009 CG0
ATOM     14  G   UNL     1      14.178   4.349  20.938  1.00  0.00     0.000 G0
ENDBRANCH  12  13
BRANCH  12  15
ATOM     15  C   UNL     1      15.038   4.320  17.088  1.00  0.00    -0.077 C 
ATOM     16  C   UNL     1      14.475   4.106  15.888  1.00  0.00     0.008 C 
ATOM     17  C   UNL     1      16.431   4.895  17.130  1.00  0.00     0.039 C 
ENDBRANCH  12  15
ENDBRANCH  11  12
ENDBRANCH   1  11
TORSDOF 1
ENDMDL
MODEL 9
REMARK VINA RESULT:    -3.025      1.891      2.539
REMARK INTER + INTRA:          -3.794
REMARK INTER:                  -4.121
REMARK INTRA:                   0.327
REMARK UNBOUND:                 0.292
REMARK SMILES C=C(C)[C@H]1CC[C@@H](C)C2=C(C1)[C@H](C)CC2
REMARK SMILES IDX 10 1 9 2 15 3 14 4 12 5 13 6 7 7 8 8 6 9 11 11 4 12 5 13
REMARK SMILES IDX 2 15 1 16 3 17
REMARK H PARENT
REMARK Flexibility Score: 80.00
ROOT
ATOM      1  C   UNL     1      12.598   6.323  17.387  1.00  0.00    -0.067 C 
ATOM      2  C   UNL     1      12.069   7.356  18.052  1.00  0.00    -0.068 C 
ATOM      3  C   UNL     1      12.310   8.643  17.335  1.00  0.00     0.032 C 
ATOM      4  C   UNL     1      12.876   8.229  15.978  1.00  0.00     0.012 C 
ATOM      5  C   UNL     1      13.276   6.755  16.125  1.00  0.00     0.012 C 
ATOM      6  C   UNL     1      14.796   6.589  16.239  1.00  0.00     0.012 C 
ENDROOT
BRANCH   2   7
ATOM      7  C   UNL     1      11.383   7.323  19.413  1.00  0.00     0.012 C 
ATOM      8  C   UNL     1      11.281   8.745  19.976  1.00  0.00     0.012 C 
BRANCH   7   9
ATOM      9  C   UNL     1      12.000   6.374  20.474  1.00  0.00     0.008 CG0
ATOM     10  G   UNL     1      13.372   5.801  20.080  1.00  0.00     0.000 G0
ENDBRANCH   7   9
ENDBRANCH   2   7
BRANCH   1  11
ATOM     11  C   UNL     1      12.498   4.880  17.802  1.00  0.00     0.039 C 
BRANCH  11  12
ATOM     12  C   UNL     1      13.337   4.610  19.071  1.00  0.00     0.018 C 
BRANCH  12  13
ATOM     13  C   UNL     1      13.384   5.791  20.082  1.00  0.00     0.009 CG0
ATOM     14  G   UNL     1      12.010   6.366  20.466  1.00  0.00     0.000 G0
ENDBRANCH  12  13
BRANCH  12  15
ATOM     15  C   UNL     1      14.738   4.125  18.705  1.00  0.00    -0.077 C 
ATOM     16  C   UNL     1      14.900   3.180  17.765  1.00  0.00     0.008 C 
ATOM     17  C   UNL     1      15.965   4.657  19.400  1.00  0.00     0.039 C 
ENDBRANCH  12  15
ENDBRANCH  11  12
ENDBRANCH   1  11
TORSDOF 1
ENDMDL
