MODEL 1
REMARK VINA RESULT:    -4.708      0.000      0.000
REMARK INTER + INTRA:         -10.059
REMARK INTER:                  -8.836
REMARK INTRA:                  -1.223
REMARK UNBOUND:                -1.223
REMARK SMILES O=C([O-])CCCCCCCCCCCCCCC(=O)[O-]
REMARK SMILES IDX 10 1 9 2 8 3 7 4 6 5 5 6 4 7 2 8 1 9 3 10 11 11 12 12 13 13
REMARK SMILES IDX 14 14 15 15 16 16 17 17 18 18 19 19 20 20
REMARK H PARENT
REMARK Flexibility Score: inf
ROOT
ATOM      1  C   UNL     1       4.587 -35.831  21.848  1.00  0.00     0.000 C 
ENDROOT
BRANCH   1   2
ATOM      2  C   UNL     1       4.752 -35.558  23.359  1.00  0.00     0.000 C 
BRANCH   2   3
ATOM      3  C   UNL     1       6.125 -35.974  23.919  1.00  0.00     0.000 C 
BRANCH   3   4
ATOM      4  C   UNL     1       6.075 -36.930  25.125  1.00  0.00     0.000 C 
BRANCH   4   5
ATOM      5  C   UNL     1       4.867 -37.884  25.150  1.00  0.00     0.000 C 
BRANCH   5   6
ATOM      6  C   UNL     1       5.171 -39.252  24.524  1.00  0.00     0.006 C 
BRANCH   6   7
ATOM      7  C   UNL     1       4.353 -39.464  23.246  1.00  0.00     0.053 C 
BRANCH   7   8
ATOM      8  C   UNL     1       5.145 -40.237  22.239  1.00  0.00     0.041 C 
ATOM      9  O   UNL     1       5.583 -39.668  21.205  1.00  0.00    -0.550 OA
ATOM     10  O   UNL     1       5.443 -41.575  22.466  1.00  0.00    -0.550 OA
ENDBRANCH   7   8
ENDBRANCH   6   7
ENDBRANCH   5   6
ENDBRANCH   4   5
ENDBRANCH   3   4
ENDBRANCH   2   3
ENDBRANCH   1   2
BRANCH   1  11
ATOM     11  C   UNL     1       5.921 -36.166  21.163  1.00  0.00     0.000 C 
BRANCH  11  12
ATOM     12  C   UNL     1       5.694 -36.652  19.726  1.00  0.00     0.000 C 
BRANCH  12  13
ATOM     13  C   UNL     1       4.205 -36.616  19.362  1.00  0.00     0.000 C 
BRANCH  13  14
ATOM     14  C   UNL     1       3.733 -37.978  18.839  1.00  0.00     0.000 C 
BRANCH  14  15
ATOM     15  C   UNL     1       2.216 -37.987  18.619  1.00  0.00     0.000 C 
BRANCH  15  16
ATOM     16  C   UNL     1       1.877 -37.912  17.122  1.00  0.00     0.006 C 
BRANCH  16  17
ATOM     17  C   UNL     1       2.933 -37.132  16.328  1.00  0.00     0.053 C 
BRANCH  17  18
ATOM     18  C   UNL     1       2.933 -37.516  14.880  1.00  0.00     0.041 C 
ATOM     19  O   UNL     1       2.006 -37.127  14.120  1.00  0.00    -0.550 OA
ATOM     20  O   UNL     1       3.939 -38.330  14.377  1.00  0.00    -0.550 OA
ENDBRANCH  17  18
ENDBRANCH  16  17
ENDBRANCH  15  16
ENDBRANCH  14  15
ENDBRANCH  13  14
ENDBRANCH  12  13
ENDBRANCH  11  12
ENDBRANCH   1  11
TORSDOF 15
ENDMDL
MODEL 2
REMARK VINA RESULT:    -4.346      0.916      6.848
REMARK INTER + INTRA:          -9.380
REMARK INTER:                  -8.333
REMARK INTRA:                  -1.047
REMARK UNBOUND:                -1.223
REMARK SMILES O=C([O-])CCCCCCCCCCCCCCC(=O)[O-]
REMARK SMILES IDX 10 1 9 2 8 3 7 4 6 5 5 6 4 7 2 8 1 9 3 10 11 11 12 12 13 13
REMARK SMILES IDX 14 14 15 15 16 16 17 17 18 18 19 19 20 20
REMARK H PARENT
REMARK Flexibility Score: inf
ROOT
ATOM      1  C   UNL     1       5.433 -36.387  21.205  1.00  0.00     0.000 C 
ENDROOT
BRANCH   1   2
ATOM      2  C   UNL     1       5.880 -35.891  19.812  1.00  0.00     0.000 C 
BRANCH   2   3
ATOM      3  C   UNL     1       4.714 -35.469  18.899  1.00  0.00     0.000 C 
BRANCH   3   4
ATOM      4  C   UNL     1       4.168 -36.580  17.983  1.00  0.00     0.000 C 
BRANCH   4   5
ATOM      5  C   UNL     1       3.231 -37.590  18.671  1.00  0.00     0.000 C 
BRANCH   5   6
ATOM      6  C   UNL     1       2.153 -38.144  17.728  1.00  0.00     0.006 C 
BRANCH   6   7
ATOM      7  C   UNL     1       2.690 -38.279  16.300  1.00  0.00     0.053 C 
BRANCH   7   8
ATOM      8  C   UNL     1       2.048 -37.269  15.401  1.00  0.00     0.041 C 
ATOM      9  O   UNL     1       1.196 -36.464  15.860  1.00  0.00    -0.550 OA
ATOM     10  O   UNL     1       2.428 -37.184  14.068  1.00  0.00    -0.550 OA
ENDBRANCH   7   8
ENDBRANCH   6   7
ENDBRANCH   5   6
ENDBRANCH   4   5
ENDBRANCH   3   4
ENDBRANCH   2   3
ENDBRANCH   1   2
BRANCH   1  11
ATOM     11  C   UNL     1       6.125 -35.629  22.348  1.00  0.00     0.000 C 
BRANCH  11  12
ATOM     12  C   UNL     1       5.245 -35.607  23.604  1.00  0.00     0.000 C 
BRANCH  12  13
ATOM     13  C   UNL     1       6.073 -35.903  24.861  1.00  0.00     0.000 C 
BRANCH  13  14
ATOM     14  C   UNL     1       6.121 -37.408  25.148  1.00  0.00     0.000 C 
BRANCH  14  15
ATOM     15  C   UNL     1       4.780 -38.074  24.819  1.00  0.00     0.000 C 
BRANCH  15  16
ATOM     16  C   UNL     1       4.991 -39.490  24.261  1.00  0.00     0.006 C 
BRANCH  16  17
ATOM     17  C   UNL     1       4.405 -39.650  22.852  1.00  0.00     0.053 C 
BRANCH  17  18
ATOM     18  C   UNL     1       5.384 -40.284  21.912  1.00  0.00     0.041 C 
ATOM     19  O   UNL     1       5.942 -41.372  22.216  1.00  0.00    -0.550 OA
ATOM     20  O   UNL     1       5.706 -39.656  20.716  1.00  0.00    -0.550 OA
ENDBRANCH  17  18
ENDBRANCH  16  17
ENDBRANCH  15  16
ENDBRANCH  14  15
ENDBRANCH  13  14
ENDBRANCH  12  13
ENDBRANCH  11  12
ENDBRANCH   1  11
TORSDOF 15
ENDMDL
MODEL 3
REMARK VINA RESULT:    -3.695      1.869      3.291
REMARK INTER + INTRA:          -8.157
REMARK INTER:                  -7.271
REMARK INTRA:                  -0.887
REMARK UNBOUND:                -1.223
REMARK SMILES O=C([O-])CCCCCCCCCCCCCCC(=O)[O-]
REMARK SMILES IDX 10 1 9 2 8 3 7 4 6 5 5 6 4 7 2 8 1 9 3 10 11 11 12 12 13 13
REMARK SMILES IDX 14 14 15 15 16 16 17 17 18 18 19 19 20 20
REMARK H PARENT
REMARK Flexibility Score: inf
ROOT
ATOM      1  C   UNL     1       4.488 -39.723  23.363  1.00  0.00     0.000 C 
ENDROOT
BRANCH   1   2
ATOM      2  C   UNL     1       5.170 -39.613  24.744  1.00  0.00     0.000 C 
BRANCH   2   3
ATOM      3  C   UNL     1       5.049 -38.219  25.387  1.00  0.00     0.000 C 
BRANCH   3   4
ATOM      4  C   UNL     1       6.120 -37.203  24.947  1.00  0.00     0.000 C 
BRANCH   4   5
ATOM      5  C   UNL     1       5.682 -35.728  25.010  1.00  0.00     0.000 C 
BRANCH   5   6
ATOM      6  C   UNL     1       5.728 -35.031  23.643  1.00  0.00     0.006 C 
BRANCH   6   7
ATOM      7  C   UNL     1       6.123 -36.016  22.538  1.00  0.00     0.053 C 
BRANCH   7   8
ATOM      8  C   UNL     1       5.351 -35.738  21.287  1.00  0.00     0.041 C 
ATOM      9  O   UNL     1       4.129 -35.441  21.350  1.00  0.00    -0.550 OA
ATOM     10  O   UNL     1       5.992 -35.757  20.056  1.00  0.00    -0.550 OA
ENDBRANCH   7   8
ENDBRANCH   6   7
ENDBRANCH   5   6
ENDBRANCH   4   5
ENDBRANCH   3   4
ENDBRANCH   2   3
ENDBRANCH   1   2
BRANCH   1  11
ATOM     11  C   UNL     1       5.336 -40.508  22.350  1.00  0.00     0.000 C 
BRANCH  11  12
ATOM     12  C   UNL     1       5.615 -39.667  21.099  1.00  0.00     0.000 C 
BRANCH  12  13
ATOM     13  C   UNL     1       4.444 -38.725  20.795  1.00  0.00     0.000 C 
BRANCH  13  14
ATOM     14  C   UNL     1       4.272 -38.529  19.284  1.00  0.00     0.000 C 
BRANCH  14  15
ATOM     15  C   UNL     1       3.032 -37.682  18.977  1.00  0.00     0.000 C 
BRANCH  15  16
ATOM     16  C   UNL     1       2.531 -37.938  17.547  1.00  0.00     0.006 C 
BRANCH  16  17
ATOM     17  C   UNL     1       3.119 -36.942  16.539  1.00  0.00     0.053 C 
BRANCH  17  18
ATOM     18  C   UNL     1       2.977 -37.429  15.130  1.00  0.00     0.041 C 
ATOM     19  O   UNL     1       3.879 -38.138  14.610  1.00  0.00    -0.550 OA
ATOM     20  O   UNL     1       1.864 -37.071  14.380  1.00  0.00    -0.550 OA
ENDBRANCH  17  18
ENDBRANCH  16  17
ENDBRANCH  15  16
ENDBRANCH  14  15
ENDBRANCH  13  14
ENDBRANCH  12  13
ENDBRANCH  11  12
ENDBRANCH   1  11
TORSDOF 15
ENDMDL
MODEL 4
REMARK VINA RESULT:    -3.689      1.985      2.531
REMARK INTER + INTRA:          -8.147
REMARK INTER:                  -7.021
REMARK INTRA:                  -1.126
REMARK UNBOUND:                -1.223
REMARK SMILES O=C([O-])CCCCCCCCCCCCCCC(=O)[O-]
REMARK SMILES IDX 10 1 9 2 8 3 7 4 6 5 5 6 4 7 2 8 1 9 3 10 11 11 12 12 13 13
REMARK SMILES IDX 14 14 15 15 16 16 17 17 18 18 19 19 20 20
REMARK H PARENT
REMARK Flexibility Score: inf
ROOT
ATOM      1  C   UNL     1       4.745 -36.360  20.975  1.00  0.00     0.000 C 
ENDROOT
BRANCH   1   2
ATOM      2  C   UNL     1       5.852 -36.333  22.050  1.00  0.00     0.000 C 
BRANCH   2   3
ATOM      3  C   UNL     1       5.359 -35.884  23.438  1.00  0.00     0.000 C 
BRANCH   3   4
ATOM      4  C   UNL     1       5.977 -36.644  24.627  1.00  0.00     0.000 C 
BRANCH   4   5
ATOM      5  C   UNL     1       4.970 -37.418  25.498  1.00  0.00     0.000 C 
BRANCH   5   6
ATOM      6  C   UNL     1       4.421 -38.673  24.805  1.00  0.00     0.006 C 
BRANCH   6   7
ATOM      7  C   UNL     1       5.525 -39.399  24.031  1.00  0.00     0.053 C 
BRANCH   7   8
ATOM      8  C   UNL     1       4.956 -40.094  22.834  1.00  0.00     0.041 C 
ATOM      9  O   UNL     1       4.088 -39.523  22.123  1.00  0.00    -0.550 OA
ATOM     10  O   UNL     1       5.422 -41.353  22.474  1.00  0.00    -0.550 OA
ENDBRANCH   7   8
ENDBRANCH   6   7
ENDBRANCH   5   6
ENDBRANCH   4   5
ENDBRANCH   3   4
ENDBRANCH   2   3
ENDBRANCH   1   2
BRANCH   1  11
ATOM     11  C   UNL     1       5.309 -36.510  19.554  1.00  0.00     0.000 C 
BRANCH  11  12
ATOM     12  C   UNL     1       5.379 -35.152  18.845  1.00  0.00     0.000 C 
BRANCH  12  13
ATOM     13  C   UNL     1       4.339 -35.064  17.721  1.00  0.00     0.000 C 
BRANCH  13  14
ATOM     14  C   UNL     1       3.916 -36.460  17.251  1.00  0.00     0.000 C 
BRANCH  14  15
ATOM     15  C   UNL     1       2.854 -36.372  16.148  1.00  0.00     0.000 C 
BRANCH  15  16
ATOM     16  C   UNL     1       1.597 -37.167  16.531  1.00  0.00     0.006 C 
BRANCH  16  17
ATOM     17  C   UNL     1       1.936 -38.467  17.273  1.00  0.00     0.053 C 
BRANCH  17  18
ATOM     18  C   UNL     1       1.504 -38.417  18.706  1.00  0.00     0.041 C 
ATOM     19  O   UNL     1       2.363 -38.422  19.628  1.00  0.00    -0.550 OA
ATOM     20  O   UNL     1       0.153 -38.398  19.025  1.00  0.00    -0.550 OA
ENDBRANCH  17  18
ENDBRANCH  16  17
ENDBRANCH  15  16
ENDBRANCH  14  15
ENDBRANCH  13  14
ENDBRANCH  12  13
ENDBRANCH  11  12
ENDBRANCH   1  11
TORSDOF 15
ENDMDL
MODEL 5
REMARK VINA RESULT:    -3.623      2.015      7.435
REMARK INTER + INTRA:          -8.023
REMARK INTER:                  -7.763
REMARK INTRA:                  -0.261
REMARK UNBOUND:                -1.223
REMARK SMILES O=C([O-])CCCCCCCCCCCCCCC(=O)[O-]
REMARK SMILES IDX 10 1 9 2 8 3 7 4 6 5 5 6 4 7 2 8 1 9 3 10 11 11 12 12 13 13
REMARK SMILES IDX 14 14 15 15 16 16 17 17 18 18 19 19 20 20
REMARK H PARENT
REMARK Flexibility Score: inf
ROOT
ATOM      1  C   UNL     1       4.643 -38.771  21.351  1.00  0.00     0.000 C 
ENDROOT
BRANCH   1   2
ATOM      2  C   UNL     1       4.834 -37.954  20.055  1.00  0.00     0.000 C 
BRANCH   2   3
ATOM      3  C   UNL     1       3.524 -37.380  19.484  1.00  0.00     0.000 C 
BRANCH   3   4
ATOM      4  C   UNL     1       2.579 -38.418  18.850  1.00  0.00     0.000 C 
BRANCH   4   5
ATOM      5  C   UNL     1       1.485 -37.830  17.939  1.00  0.00     0.000 C 
BRANCH   5   6
ATOM      6  C   UNL     1       2.048 -37.197  16.659  1.00  0.00     0.006 C 
BRANCH   6   7
ATOM      7  C   UNL     1       3.316 -37.924  16.200  1.00  0.00     0.053 C 
BRANCH   7   8
ATOM      8  C   UNL     1       3.237 -38.245  14.741  1.00  0.00     0.041 C 
ATOM      9  O   UNL     1       2.466 -37.591  13.990  1.00  0.00    -0.550 OA
ATOM     10  O   UNL     1       4.051 -39.232  14.201  1.00  0.00    -0.550 OA
ENDBRANCH   7   8
ENDBRANCH   6   7
ENDBRANCH   5   6
ENDBRANCH   4   5
ENDBRANCH   3   4
ENDBRANCH   2   3
ENDBRANCH   1   2
BRANCH   1  11
ATOM     11  C   UNL     1       5.724 -39.849  21.531  1.00  0.00     0.000 C 
BRANCH  11  12
ATOM     12  C   UNL     1       5.224 -40.983  22.433  1.00  0.00     0.000 C 
BRANCH  12  13
ATOM     13  C   UNL     1       5.249 -40.564  23.908  1.00  0.00     0.000 C 
BRANCH  13  14
ATOM     14  C   UNL     1       5.526 -39.063  24.051  1.00  0.00     0.000 C 
BRANCH  14  15
ATOM     15  C   UNL     1       4.842 -38.493  25.299  1.00  0.00     0.000 C 
BRANCH  15  16
ATOM     16  C   UNL     1       5.086 -36.981  25.417  1.00  0.00     0.006 C 
BRANCH  16  17
ATOM     17  C   UNL     1       6.102 -36.475  24.384  1.00  0.00     0.053 C 
BRANCH  17  18
ATOM     18  C   UNL     1       5.570 -35.310  23.607  1.00  0.00     0.041 C 
ATOM     19  O   UNL     1       5.940 -34.139  23.887  1.00  0.00    -0.550 OA
ATOM     20  O   UNL     1       4.640 -35.515  22.596  1.00  0.00    -0.550 OA
ENDBRANCH  17  18
ENDBRANCH  16  17
ENDBRANCH  15  16
ENDBRANCH  14  15
ENDBRANCH  13  14
ENDBRANCH  12  13
ENDBRANCH  11  12
ENDBRANCH   1  11
TORSDOF 15
ENDMDL
MODEL 6
REMARK VINA RESULT:    -3.534      2.041      6.980
REMARK INTER + INTRA:          -7.855
REMARK INTER:                  -6.674
REMARK INTRA:                  -1.182
REMARK UNBOUND:                -1.223
REMARK SMILES O=C([O-])CCCCCCCCCCCCCCC(=O)[O-]
REMARK SMILES IDX 10 1 9 2 8 3 7 4 6 5 5 6 4 7 2 8 1 9 3 10 11 11 12 12 13 13
REMARK SMILES IDX 14 14 15 15 16 16 17 17 18 18 19 19 20 20
REMARK H PARENT
REMARK Flexibility Score: inf
ROOT
ATOM      1  C   UNL     1       4.550 -36.672  20.215  1.00  0.00     0.000 C 
ENDROOT
BRANCH   1   2
ATOM      2  C   UNL     1       5.229 -35.640  19.289  1.00  0.00     0.000 C 
BRANCH   2   3
ATOM      3  C   UNL     1       4.358 -35.211  18.093  1.00  0.00     0.000 C 
BRANCH   3   4
ATOM      4  C   UNL     1       4.011 -36.338  17.101  1.00  0.00     0.000 C 
BRANCH   4   5
ATOM      5  C   UNL     1       2.620 -36.225  16.450  1.00  0.00     0.000 C 
BRANCH   5   6
ATOM      6  C   UNL     1       1.843 -37.549  16.467  1.00  0.00     0.006 C 
BRANCH   6   7
ATOM      7  C   UNL     1       2.371 -38.481  17.562  1.00  0.00     0.053 C 
BRANCH   7   8
ATOM      8  C   UNL     1       1.466 -38.457  18.753  1.00  0.00     0.041 C 
ATOM      9  O   UNL     1       1.904 -38.783  19.887  1.00  0.00    -0.550 OA
ATOM     10  O   UNL     1       0.153 -38.026  18.620  1.00  0.00    -0.550 OA
ENDBRANCH   7   8
ENDBRANCH   6   7
ENDBRANCH   5   6
ENDBRANCH   4   5
ENDBRANCH   3   4
ENDBRANCH   2   3
ENDBRANCH   1   2
BRANCH   1  11
ATOM     11  C   UNL     1       5.432 -37.055  21.413  1.00  0.00     0.000 C 
BRANCH  11  12
ATOM     12  C   UNL     1       6.121 -35.820  22.005  1.00  0.00     0.000 C 
BRANCH  12  13
ATOM     13  C   UNL     1       6.045 -35.828  23.537  1.00  0.00     0.000 C 
BRANCH  13  14
ATOM     14  C   UNL     1       4.925 -36.754  24.028  1.00  0.00     0.000 C 
BRANCH  14  15
ATOM     15  C   UNL     1       5.461 -37.781  25.032  1.00  0.00     0.000 C 
BRANCH  15  16
ATOM     16  C   UNL     1       4.789 -39.148  24.831  1.00  0.00     0.006 C 
BRANCH  16  17
ATOM     17  C   UNL     1       4.956 -39.670  23.398  1.00  0.00     0.053 C 
BRANCH  17  18
ATOM     18  C   UNL     1       5.462 -41.080  23.376  1.00  0.00     0.041 C 
ATOM     19  O   UNL     1       5.669 -41.696  24.455  1.00  0.00    -0.550 OA
ATOM     20  O   UNL     1       5.736 -41.701  22.165  1.00  0.00    -0.550 OA
ENDBRANCH  17  18
ENDBRANCH  16  17
ENDBRANCH  15  16
ENDBRANCH  14  15
ENDBRANCH  13  14
ENDBRANCH  12  13
ENDBRANCH  11  12
ENDBRANCH   1  11
TORSDOF 15
ENDMDL
MODEL 7
REMARK VINA RESULT:    -3.351      2.040      7.211
REMARK INTER + INTRA:          -7.512
REMARK INTER:                  -6.177
REMARK INTRA:                  -1.335
REMARK UNBOUND:                -1.223
REMARK SMILES O=C([O-])CCCCCCCCCCCCCCC(=O)[O-]
REMARK SMILES IDX 10 1 9 2 8 3 7 4 6 5 5 6 4 7 2 8 1 9 3 10 11 11 12 12 13 13
REMARK SMILES IDX 14 14 15 15 16 16 17 17 18 18 19 19 20 20
REMARK H PARENT
REMARK Flexibility Score: inf
ROOT
ATOM      1  C   UNL     1       5.822 -36.108  20.518  1.00  0.00     0.000 C 
ENDROOT
BRANCH   1   2
ATOM      2  C   UNL     1       5.923 -35.748  19.020  1.00  0.00     0.000 C 
BRANCH   2   3
ATOM      3  C   UNL     1       4.734 -34.920  18.498  1.00  0.00     0.000 C 
BRANCH   3   4
ATOM      4  C   UNL     1       3.877 -35.614  17.422  1.00  0.00     0.000 C 
BRANCH   4   5
ATOM      5  C   UNL     1       3.724 -37.137  17.595  1.00  0.00     0.000 C 
BRANCH   5   6
ATOM      6  C   UNL     1       2.291 -37.626  17.342  1.00  0.00     0.006 C 
BRANCH   6   7
ATOM      7  C   UNL     1       1.879 -37.384  15.887  1.00  0.00     0.053 C 
BRANCH   7   8
ATOM      8  C   UNL     1       2.974 -37.800  14.956  1.00  0.00     0.041 C 
ATOM      9  O   UNL     1       3.499 -36.958  14.181  1.00  0.00    -0.550 OA
ATOM     10  O   UNL     1       3.449 -39.104  14.979  1.00  0.00    -0.550 OA
ENDBRANCH   7   8
ENDBRANCH   6   7
ENDBRANCH   5   6
ENDBRANCH   4   5
ENDBRANCH   3   4
ENDBRANCH   2   3
ENDBRANCH   1   2
BRANCH   1  11
ATOM     11  C   UNL     1       4.368 -36.273  20.985  1.00  0.00     0.000 C 
BRANCH  11  12
ATOM     12  C   UNL     1       4.002 -37.755  21.130  1.00  0.00     0.000 C 
BRANCH  12  13
ATOM     13  C   UNL     1       5.132 -38.654  20.615  1.00  0.00     0.000 C 
BRANCH  13  14
ATOM     14  C   UNL     1       5.388 -39.824  21.574  1.00  0.00     0.000 C 
BRANCH  14  15
ATOM     15  C   UNL     1       4.313 -39.885  22.665  1.00  0.00     0.000 C 
BRANCH  15  16
ATOM     16  C   UNL     1       4.929 -39.673  24.056  1.00  0.00     0.006 C 
BRANCH  16  17
ATOM     17  C   UNL     1       5.805 -38.415  24.116  1.00  0.00     0.053 C 
BRANCH  17  18
ATOM     18  C   UNL     1       5.121 -37.294  24.835  1.00  0.00     0.041 C 
ATOM     19  O   UNL     1       5.274 -36.105  24.449  1.00  0.00    -0.550 OA
ATOM     20  O   UNL     1       4.340 -37.559  25.953  1.00  0.00    -0.550 OA
ENDBRANCH  17  18
ENDBRANCH  16  17
ENDBRANCH  15  16
ENDBRANCH  14  15
ENDBRANCH  13  14
ENDBRANCH  12  13
ENDBRANCH  11  12
ENDBRANCH   1  11
TORSDOF 15
ENDMDL
MODEL 8
REMARK VINA RESULT:    -3.232      2.019      2.935
REMARK INTER + INTRA:          -7.290
REMARK INTER:                  -6.517
REMARK INTRA:                  -0.773
REMARK UNBOUND:                -1.223
REMARK SMILES O=C([O-])CCCCCCCCCCCCCCC(=O)[O-]
REMARK SMILES IDX 10 1 9 2 8 3 7 4 6 5 5 6 4 7 2 8 1 9 3 10 11 11 12 12 13 13
REMARK SMILES IDX 14 14 15 15 16 16 17 17 18 18 19 19 20 20
REMARK H PARENT
REMARK Flexibility Score: inf
ROOT
ATOM      1  C   UNL     1       5.706 -36.831  21.443  1.00  0.00     0.000 C 
ENDROOT
BRANCH   1   2
ATOM      2  C   UNL     1       4.716 -37.940  21.028  1.00  0.00     0.000 C 
BRANCH   2   3
ATOM      3  C   UNL     1       5.388 -39.295  20.736  1.00  0.00     0.000 C 
BRANCH   3   4
ATOM      4  C   UNL     1       5.358 -40.302  21.901  1.00  0.00     0.000 C 
BRANCH   4   5
ATOM      5  C   UNL     1       4.295 -40.020  22.979  1.00  0.00     0.000 C 
BRANCH   5   6
ATOM      6  C   UNL     1       4.905 -39.739  24.360  1.00  0.00     0.006 C 
BRANCH   6   7
ATOM      7  C   UNL     1       5.795 -38.493  24.324  1.00  0.00     0.053 C 
BRANCH   7   8
ATOM      8  C   UNL     1       5.140 -37.360  25.050  1.00  0.00     0.041 C 
ATOM      9  O   UNL     1       4.257 -37.590  25.917  1.00  0.00    -0.550 OA
ATOM     10  O   UNL     1       5.542 -36.053  24.806  1.00  0.00    -0.550 OA
ENDBRANCH   7   8
ENDBRANCH   6   7
ENDBRANCH   5   6
ENDBRANCH   4   5
ENDBRANCH   3   4
ENDBRANCH   2   3
ENDBRANCH   1   2
BRANCH   1  11
ATOM     11  C   UNL     1       5.869 -35.754  20.360  1.00  0.00     0.000 C 
BRANCH  11  12
ATOM     12  C   UNL     1       4.553 -35.529  19.606  1.00  0.00     0.000 C 
BRANCH  12  13
ATOM     13  C   UNL     1       4.810 -35.262  18.118  1.00  0.00     0.000 C 
BRANCH  13  14
ATOM     14  C   UNL     1       3.783 -35.990  17.242  1.00  0.00     0.000 C 
BRANCH  14  15
ATOM     15  C   UNL     1       3.311 -37.286  17.909  1.00  0.00     0.000 C 
BRANCH  15  16
ATOM     16  C   UNL     1       2.091 -37.868  17.179  1.00  0.00     0.006 C 
BRANCH  16  17
ATOM     17  C   UNL     1       1.916 -37.271  15.776  1.00  0.00     0.053 C 
BRANCH  17  18
ATOM     18  C   UNL     1       2.969 -37.757  14.829  1.00  0.00     0.041 C 
ATOM     19  O   UNL     1       3.350 -37.028  13.875  1.00  0.00    -0.550 OA
ATOM     20  O   UNL     1       3.506 -39.029  14.981  1.00  0.00    -0.550 OA
ENDBRANCH  17  18
ENDBRANCH  16  17
ENDBRANCH  15  16
ENDBRANCH  14  15
ENDBRANCH  13  14
ENDBRANCH  12  13
ENDBRANCH  11  12
ENDBRANCH   1  11
TORSDOF 15
ENDMDL
