MODEL 1
REMARK VINA RESULT:    -3.392      0.000      0.000
REMARK INTER + INTRA:          -4.288
REMARK INTER:                  -4.086
REMARK INTRA:                  -0.203
REMARK UNBOUND:                -0.203
REMARK SMILES OCC(O)CO
REMARK SMILES IDX 3 1 5 2 6 3 2 5 1 6 4 8
REMARK H PARENT 6 4 1 7 4 9
REMARK Flexibility Score: inf
ROOT
ATOM      1  C   UNL     1      87.221 108.595 110.722  1.00  0.00     0.165 C 
ENDROOT
BRANCH   1   2
ATOM      2  C   UNL     1      86.147 109.321 111.547  1.00  0.00     0.190 C 
BRANCH   2   3
ATOM      3  O   UNL     1      84.875 109.056 111.021  1.00  0.00    -0.394 OA
ATOM      4  H   UNL     1      84.917 109.305 110.063  1.00  0.00     0.210 HD
ENDBRANCH   2   3
ENDBRANCH   1   2
BRANCH   1   5
ATOM      5  C   UNL     1      86.660 107.335 110.039  1.00  0.00     0.190 C 
BRANCH   5   6
ATOM      6  O   UNL     1      85.957 107.680 108.876  1.00  0.00    -0.394 OA
ATOM      7  H   UNL     1      86.583 108.203 108.311  1.00  0.00     0.210 HD
ENDBRANCH   5   6
ENDBRANCH   1   5
BRANCH   1   8
ATOM      8  O   UNL     1      87.777 109.467 109.771  1.00  0.00    -0.388 OA
ATOM      9  H   UNL     1      88.519 108.985 109.318  1.00  0.00     0.211 HD
ENDBRANCH   1   8
TORSDOF 5
ENDMDL
MODEL 2
REMARK VINA RESULT:    -3.365      1.360      2.297
REMARK INTER + INTRA:          -4.256
REMARK INTER:                  -4.033
REMARK INTRA:                  -0.223
REMARK UNBOUND:                -0.203
REMARK SMILES OCC(O)CO
REMARK SMILES IDX 3 1 5 2 6 3 2 5 1 6 4 8
REMARK H PARENT 6 4 1 7 4 9
REMARK Flexibility Score: inf
ROOT
ATOM      1  C   UNL     1      87.216 108.703 110.782  1.00  0.00     0.165 C 
ENDROOT
BRANCH   1   2
ATOM      2  C   UNL     1      88.515 108.908 109.988  1.00  0.00     0.190 C 
BRANCH   2   3
ATOM      3  O   UNL     1      88.276 109.726 108.875  1.00  0.00    -0.394 OA
ATOM      4  H   UNL     1      87.329 110.014 108.944  1.00  0.00     0.210 HD
ENDBRANCH   2   3
ENDBRANCH   1   2
BRANCH   1   5
ATOM      5  C   UNL     1      86.382 107.536 110.221  1.00  0.00     0.190 C 
BRANCH   5   6
ATOM      6  O   UNL     1      86.062 107.765 108.875  1.00  0.00    -0.394 OA
ATOM      7  H   UNL     1      85.129 108.104 108.859  1.00  0.00     0.210 HD
ENDBRANCH   5   6
ENDBRANCH   1   5
BRANCH   1   8
ATOM      8  O   UNL     1      87.503 108.496 112.142  1.00  0.00    -0.388 OA
ATOM      9  H   UNL     1      86.711 108.791 112.665  1.00  0.00     0.211 HD
ENDBRANCH   1   8
TORSDOF 5
ENDMDL
MODEL 3
REMARK VINA RESULT:    -3.302      0.989      2.287
REMARK INTER + INTRA:          -4.180
REMARK INTER:                  -3.971
REMARK INTRA:                  -0.209
REMARK UNBOUND:                -0.203
REMARK SMILES OCC(O)CO
REMARK SMILES IDX 3 1 5 2 6 3 2 5 1 6 4 8
REMARK H PARENT 6 4 1 7 4 9
REMARK Flexibility Score: inf
ROOT
ATOM      1  C   UNL     1      87.225 108.443 110.804  1.00  0.00     0.165 C 
ENDROOT
BRANCH   1   2
ATOM      2  C   UNL     1      86.499 107.346 110.013  1.00  0.00     0.190 C 
BRANCH   2   3
ATOM      3  O   UNL     1      85.885 107.895 108.878  1.00  0.00    -0.394 OA
ATOM      4  H   UNL     1      86.203 107.358 108.108  1.00  0.00     0.210 HD
ENDBRANCH   2   3
ENDBRANCH   1   2
BRANCH   1   5
ATOM      5  C   UNL     1      88.465 108.962 110.053  1.00  0.00     0.190 C 
BRANCH   5   6
ATOM      6  O   UNL     1      88.085 109.623 108.876  1.00  0.00    -0.394 OA
ATOM      7  H   UNL     1      88.655 109.259 108.150  1.00  0.00     0.210 HD
ENDBRANCH   5   6
ENDBRANCH   1   5
BRANCH   1   8
ATOM      8  O   UNL     1      86.345 109.500 111.093  1.00  0.00    -0.388 OA
ATOM      9  H   UNL     1      86.077 109.913 110.229  1.00  0.00     0.211 HD
ENDBRANCH   1   8
TORSDOF 5
ENDMDL
MODEL 4
REMARK VINA RESULT:    -3.292      2.870      3.878
REMARK INTER + INTRA:          -4.168
REMARK INTER:                  -4.166
REMARK INTRA:                  -0.003
REMARK UNBOUND:                -0.203
REMARK SMILES OCC(O)CO
REMARK SMILES IDX 3 1 5 2 6 3 2 5 1 6 4 8
REMARK H PARENT 6 4 1 7 4 9
REMARK Flexibility Score: inf
ROOT
ATOM      1  C   UNL     1      89.198 109.782 110.024  1.00  0.00     0.165 C 
ENDROOT
BRANCH   1   2
ATOM      2  C   UNL     1      90.134 110.890 109.518  1.00  0.00     0.190 C 
BRANCH   2   3
ATOM      3  O   UNL     1      91.251 110.999 110.359  1.00  0.00    -0.394 OA
ATOM      4  H   UNL     1      91.337 111.962 110.577  1.00  0.00     0.210 HD
ENDBRANCH   2   3
ENDBRANCH   1   2
BRANCH   1   5
ATOM      5  C   UNL     1      88.850 108.777 108.910  1.00  0.00     0.190 C 
BRANCH   5   6
ATOM      6  O   UNL     1      87.468 108.544 108.875  1.00  0.00    -0.394 OA
ATOM      7  H   UNL     1      87.098 108.900 109.725  1.00  0.00     0.210 HD
ENDBRANCH   5   6
ENDBRANCH   1   5
BRANCH   1   8
ATOM      8  O   UNL     1      89.773 109.121 111.123  1.00  0.00    -0.388 OA
ATOM      9  H   UNL     1      90.459 108.493 110.771  1.00  0.00     0.211 HD
ENDBRANCH   1   8
TORSDOF 5
ENDMDL
MODEL 5
REMARK VINA RESULT:    -3.273      1.525      2.737
REMARK INTER + INTRA:          -4.145
REMARK INTER:                  -4.142
REMARK INTRA:                  -0.003
REMARK UNBOUND:                -0.203
REMARK SMILES OCC(O)CO
REMARK SMILES IDX 3 1 5 2 6 3 2 5 1 6 4 8
REMARK H PARENT 6 4 1 7 4 9
REMARK Flexibility Score: inf
ROOT
ATOM      1  C   UNL     1      87.716 108.820 110.165  1.00  0.00     0.165 C 
ENDROOT
BRANCH   1   2
ATOM      2  C   UNL     1      86.748 107.631 110.079  1.00  0.00     0.190 C 
BRANCH   2   3
ATOM      3  O   UNL     1      86.032 107.678 108.875  1.00  0.00    -0.394 OA
ATOM      4  H   UNL     1      86.357 108.481 108.393  1.00  0.00     0.210 HD
ENDBRANCH   2   3
ENDBRANCH   1   2
BRANCH   1   5
ATOM      5  C   UNL     1      89.079 108.405 110.750  1.00  0.00     0.190 C 
BRANCH   5   6
ATOM      6  O   UNL     1      89.964 109.492 110.749  1.00  0.00    -0.394 OA
ATOM      7  H   UNL     1      89.944 109.874 109.833  1.00  0.00     0.210 HD
ENDBRANCH   5   6
ENDBRANCH   1   5
BRANCH   1   8
ATOM      8  O   UNL     1      87.880 109.408 108.899  1.00  0.00    -0.388 OA
ATOM      9  H   UNL     1      86.979 109.496 108.489  1.00  0.00     0.211 HD
ENDBRANCH   1   8
TORSDOF 5
ENDMDL
MODEL 6
REMARK VINA RESULT:    -3.143      1.187      2.671
REMARK INTER + INTRA:          -3.989
REMARK INTER:                  -3.986
REMARK INTRA:                  -0.003
REMARK UNBOUND:                -0.203
REMARK SMILES OCC(O)CO
REMARK SMILES IDX 3 1 5 2 6 3 2 5 1 6 4 8
REMARK H PARENT 6 4 1 7 4 9
REMARK Flexibility Score: inf
ROOT
ATOM      1  C   UNL     1      87.169 108.083 110.156  1.00  0.00     0.165 C 
ENDROOT
BRANCH   1   2
ATOM      2  C   UNL     1      88.496 108.829 109.945  1.00  0.00     0.190 C 
BRANCH   2   3
ATOM      3  O   UNL     1      89.307 108.700 111.081  1.00  0.00    -0.394 OA
ATOM      4  H   UNL     1      89.022 107.862 111.528  1.00  0.00     0.210 HD
ENDBRANCH   2   3
ENDBRANCH   1   2
BRANCH   1   5
ATOM      5  C   UNL     1      86.268 108.802 111.178  1.00  0.00     0.190 C 
BRANCH   5   6
ATOM      6  O   UNL     1      84.928 108.756 110.768  1.00  0.00    -0.394 OA
ATOM      7  H   UNL     1      84.546 107.920 111.143  1.00  0.00     0.210 HD
ENDBRANCH   5   6
ENDBRANCH   1   5
BRANCH   1   8
ATOM      8  O   UNL     1      86.498 107.925 108.932  1.00  0.00    -0.388 OA
ATOM      9  H   UNL     1      87.148 107.552 108.279  1.00  0.00     0.211 HD
ENDBRANCH   1   8
TORSDOF 5
ENDMDL
MODEL 7
REMARK VINA RESULT:    -3.059      2.502      3.666
REMARK INTER + INTRA:          -3.887
REMARK INTER:                  -3.884
REMARK INTRA:                  -0.003
REMARK UNBOUND:                -0.203
REMARK SMILES OCC(O)CO
REMARK SMILES IDX 3 1 5 2 6 3 2 5 1 6 4 8
REMARK H PARENT 6 4 1 7 4 9
REMARK Flexibility Score: inf
ROOT
ATOM      1  C   UNL     1      89.361 108.944 109.806  1.00  0.00     0.165 C 
ENDROOT
BRANCH   1   2
ATOM      2  C   UNL     1      87.997 108.622 109.176  1.00  0.00     0.190 C 
BRANCH   2   3
ATOM      3  O   UNL     1      86.970 108.865 110.099  1.00  0.00    -0.394 OA
ATOM      4  H   UNL     1      86.724 109.819 109.990  1.00  0.00     0.210 HD
ENDBRANCH   2   3
ENDBRANCH   1   2
BRANCH   1   5
ATOM      5  C   UNL     1      89.780 110.402 109.542  1.00  0.00     0.190 C 
BRANCH   5   6
ATOM      6  O   UNL     1      90.897 110.739 110.320  1.00  0.00    -0.394 OA
ATOM      7  H   UNL     1      90.604 111.457 110.940  1.00  0.00     0.210 HD
ENDBRANCH   5   6
ENDBRANCH   1   5
BRANCH   1   8
ATOM      8  O   UNL     1      89.336 108.679 111.186  1.00  0.00    -0.388 OA
ATOM      9  H   UNL     1      88.422 108.361 111.415  1.00  0.00     0.211 HD
ENDBRANCH   1   8
TORSDOF 5
ENDMDL
MODEL 8
REMARK VINA RESULT:    -2.003     24.472     25.075
REMARK INTER + INTRA:          -2.616
REMARK INTER:                  -2.399
REMARK INTRA:                  -0.217
REMARK UNBOUND:                -0.203
REMARK SMILES OCC(O)CO
REMARK SMILES IDX 3 1 5 2 6 3 2 5 1 6 4 8
REMARK H PARENT 6 4 1 7 4 9
REMARK Flexibility Score: inf
ROOT
ATOM      1  C   UNL     1     101.282 117.288 129.125  1.00  0.00     0.165 C 
ENDROOT
BRANCH   1   2
ATOM      2  C   UNL     1     101.743 115.844 128.876  1.00  0.00     0.190 C 
BRANCH   2   3
ATOM      3  O   UNL     1     101.024 115.286 127.810  1.00  0.00    -0.394 OA
ATOM      4  H   UNL     1     100.808 114.357 128.082  1.00  0.00     0.210 HD
ENDBRANCH   2   3
ENDBRANCH   1   2
BRANCH   1   5
ATOM      5  C   UNL     1     102.122 118.301 128.324  1.00  0.00     0.190 C 
BRANCH   5   6
ATOM      6  O   UNL     1     102.865 117.645 127.332  1.00  0.00    -0.394 OA
ATOM      7  H   UNL     1     103.768 118.056 127.336  1.00  0.00     0.210 HD
ENDBRANCH   5   6
ENDBRANCH   1   5
BRANCH   1   8
ATOM      8  O   UNL     1      99.918 117.425 128.816  1.00  0.00    -0.388 OA
ATOM      9  H   UNL     1      99.853 117.758 127.882  1.00  0.00     0.211 HD
ENDBRANCH   1   8
TORSDOF 5
ENDMDL
