MODEL 1
REMARK VINA RESULT:    -5.021      0.000      0.000
REMARK INTER + INTRA:          -7.822
REMARK INTER:                  -7.369
REMARK INTRA:                  -0.453
REMARK UNBOUND:                -0.453
REMARK SMILES O=C([O-])CCCCCCCC(=O)[O-]
REMARK SMILES IDX 7 1 6 2 5 3 4 4 2 5 1 6 3 7 8 8 9 9 10 10 11 11 12 12 13 13
REMARK H PARENT
REMARK Flexibility Score: inf
ROOT
ATOM      1  C   UNL     1      89.629  -8.823  -3.963  1.00  0.00     0.000 C 
ENDROOT
BRANCH   1   2
ATOM      2  C   UNL     1      90.797  -8.661  -2.984  1.00  0.00     0.000 C 
BRANCH   2   3
ATOM      3  C   UNL     1      92.091  -9.245  -3.570  1.00  0.00     0.006 C 
BRANCH   3   4
ATOM      4  C   UNL     1      93.345  -8.593  -2.973  1.00  0.00     0.053 C 
BRANCH   4   5
ATOM      5  C   UNL     1      94.177  -7.923  -4.024  1.00  0.00     0.041 C 
ATOM      6  O   UNL     1      94.003  -8.200  -5.241  1.00  0.00    -0.550 OA
ATOM      7  O   UNL     1      95.165  -7.019  -3.658  1.00  0.00    -0.550 OA
ENDBRANCH   4   5
ENDBRANCH   3   4
ENDBRANCH   2   3
ENDBRANCH   1   2
BRANCH   1   8
ATOM      8  C   UNL     1      90.098  -8.644  -5.414  1.00  0.00     0.000 C 
BRANCH   8   9
ATOM      9  C   UNL     1      90.036  -7.182  -5.882  1.00  0.00     0.006 C 
BRANCH   9  10
ATOM     10  C   UNL     1      88.598  -6.683  -6.075  1.00  0.00     0.053 C 
BRANCH  10  11
ATOM     11  C   UNL     1      88.510  -5.219  -5.784  1.00  0.00     0.041 C 
ATOM     12  O   UNL     1      88.398  -4.814  -4.597  1.00  0.00    -0.550 OA
ATOM     13  O   UNL     1      88.602  -4.297  -6.820  1.00  0.00    -0.550 OA
ENDBRANCH  10  11
ENDBRANCH   9  10
ENDBRANCH   8   9
ENDBRANCH   1   8
TORSDOF 8
ENDMDL
MODEL 2
REMARK VINA RESULT:    -4.996     14.164     15.577
REMARK INTER + INTRA:          -7.786
REMARK INTER:                  -6.946
REMARK INTRA:                  -0.840
REMARK UNBOUND:                -0.453
REMARK SMILES O=C([O-])CCCCCCCC(=O)[O-]
REMARK SMILES IDX 7 1 6 2 5 3 4 4 2 5 1 6 3 7 8 8 9 9 10 10 11 11 12 12 13 13
REMARK H PARENT
REMARK Flexibility Score: inf
ROOT
ATOM      1  C   UNL     1      94.051  -4.026   8.078  1.00  0.00     0.000 C 
ENDROOT
BRANCH   1   2
ATOM      2  C   UNL     1      93.442  -4.158   9.478  1.00  0.00     0.000 C 
BRANCH   2   3
ATOM      3  C   UNL     1      94.493  -4.628  10.494  1.00  0.00     0.006 C 
BRANCH   3   4
ATOM      4  C   UNL     1      95.115  -3.458  11.268  1.00  0.00     0.053 C 
BRANCH   4   5
ATOM      5  C   UNL     1      96.565  -3.281  10.936  1.00  0.00     0.041 C 
ATOM      6  O   UNL     1      97.033  -2.129  10.735  1.00  0.00    -0.550 OA
ATOM      7  O   UNL     1      97.392  -4.390  10.817  1.00  0.00    -0.550 OA
ENDBRANCH   4   5
ENDBRANCH   3   4
ENDBRANCH   2   3
ENDBRANCH   1   2
BRANCH   1   8
ATOM      8  C   UNL     1      94.605  -2.612   7.849  1.00  0.00     0.000 C 
BRANCH   8   9
ATOM      9  C   UNL     1      95.957  -2.615   7.119  1.00  0.00     0.006 C 
BRANCH   9  10
ATOM     10  C   UNL     1      96.746  -3.912   7.342  1.00  0.00     0.053 C 
BRANCH  10  11
ATOM     11  C   UNL     1      98.208  -3.620   7.455  1.00  0.00     0.041 C 
ATOM     12  O   UNL     1      99.050  -4.551   7.353  1.00  0.00    -0.550 OA
ATOM     13  O   UNL     1      98.646  -2.312   7.623  1.00  0.00    -0.550 OA
ENDBRANCH  10  11
ENDBRANCH   9  10
ENDBRANCH   8   9
ENDBRANCH   1   8
TORSDOF 8
ENDMDL
MODEL 3
REMARK VINA RESULT:    -4.988     13.715     15.613
REMARK INTER + INTRA:          -7.774
REMARK INTER:                  -6.959
REMARK INTRA:                  -0.814
REMARK UNBOUND:                -0.453
REMARK SMILES O=C([O-])CCCCCCCC(=O)[O-]
REMARK SMILES IDX 7 1 6 2 5 3 4 4 2 5 1 6 3 7 8 8 9 9 10 10 11 11 12 12 13 13
REMARK H PARENT
REMARK Flexibility Score: inf
ROOT
ATOM      1  C   UNL     1      93.519  -3.377   9.236  1.00  0.00     0.000 C 
ENDROOT
BRANCH   1   2
ATOM      2  C   UNL     1      93.972  -3.292   7.774  1.00  0.00     0.000 C 
BRANCH   2   3
ATOM      3  C   UNL     1      95.413  -2.770   7.674  1.00  0.00     0.006 C 
BRANCH   3   4
ATOM      4  C   UNL     1      96.411  -3.887   7.342  1.00  0.00     0.053 C 
BRANCH   4   5
ATOM      5  C   UNL     1      97.777  -3.342   7.049  1.00  0.00     0.041 C 
ATOM      6  O   UNL     1      98.212  -2.347   7.687  1.00  0.00    -0.550 OA
ATOM      7  O   UNL     1      98.554  -3.914   6.051  1.00  0.00    -0.550 OA
ENDBRANCH   4   5
ENDBRANCH   3   4
ENDBRANCH   2   3
ENDBRANCH   1   2
BRANCH   1   8
ATOM      8  C   UNL     1      93.733  -4.791   9.797  1.00  0.00     0.000 C 
BRANCH   8   9
ATOM      9  C   UNL     1      94.839  -4.845  10.863  1.00  0.00     0.006 C 
BRANCH   9  10
ATOM     10  C   UNL     1      95.306  -3.451  11.302  1.00  0.00     0.053 C 
BRANCH  10  11
ATOM     11  C   UNL     1      96.745  -3.248  10.951  1.00  0.00     0.041 C 
ATOM     12  O   UNL     1      97.487  -4.238  10.717  1.00  0.00    -0.550 OA
ATOM     13  O   UNL     1      97.257  -1.961  10.833  1.00  0.00    -0.550 OA
ENDBRANCH  10  11
ENDBRANCH   9  10
ENDBRANCH   8   9
ENDBRANCH   1   8
TORSDOF 8
ENDMDL
MODEL 4
REMARK VINA RESULT:    -4.986     13.748     15.317
REMARK INTER + INTRA:          -7.771
REMARK INTER:                  -7.079
REMARK INTRA:                  -0.692
REMARK UNBOUND:                -0.453
REMARK SMILES O=C([O-])CCCCCCCC(=O)[O-]
REMARK SMILES IDX 7 1 6 2 5 3 4 4 2 5 1 6 3 7 8 8 9 9 10 10 11 11 12 12 13 13
REMARK H PARENT
REMARK Flexibility Score: inf
ROOT
ATOM      1  C   UNL     1      94.976  -2.642   7.856  1.00  0.00     0.000 C 
ENDROOT
BRANCH   1   2
ATOM      2  C   UNL     1      94.327  -3.978   8.237  1.00  0.00     0.000 C 
BRANCH   2   3
ATOM      3  C   UNL     1      93.919  -3.990   9.717  1.00  0.00     0.006 C 
BRANCH   3   4
ATOM      4  C   UNL     1      94.879  -4.823  10.576  1.00  0.00     0.053 C 
BRANCH   4   5
ATOM      5  C   UNL     1      96.066  -4.022  11.019  1.00  0.00     0.041 C 
ATOM      6  O   UNL     1      97.224  -4.511  10.945  1.00  0.00    -0.550 OA
ATOM      7  O   UNL     1      95.888  -2.748  11.543  1.00  0.00    -0.550 OA
ENDBRANCH   4   5
ENDBRANCH   3   4
ENDBRANCH   2   3
ENDBRANCH   1   2
BRANCH   1   8
ATOM      8  C   UNL     1      96.379  -2.859   7.270  1.00  0.00     0.000 C 
BRANCH   8   9
ATOM      9  C   UNL     1      96.836  -4.324   7.350  1.00  0.00     0.006 C 
BRANCH   9  10
ATOM     10  C   UNL     1      98.359  -4.463   7.471  1.00  0.00     0.053 C 
BRANCH  10  11
ATOM     11  C   UNL     1      98.940  -4.960   6.186  1.00  0.00     0.041 C 
ATOM     12  O   UNL     1      99.435  -4.150   5.358  1.00  0.00    -0.550 OA
ATOM     13  O   UNL     1      98.982  -6.324   5.922  1.00  0.00    -0.550 OA
ENDBRANCH  10  11
ENDBRANCH   9  10
ENDBRANCH   8   9
ENDBRANCH   1   8
TORSDOF 8
ENDMDL
MODEL 5
REMARK VINA RESULT:    -4.982     11.887     13.484
REMARK INTER + INTRA:          -7.765
REMARK INTER:                  -7.182
REMARK INTRA:                  -0.583
REMARK UNBOUND:                -0.453
REMARK SMILES O=C([O-])CCCCCCCC(=O)[O-]
REMARK SMILES IDX 7 1 6 2 5 3 4 4 2 5 1 6 3 7 8 8 9 9 10 10 11 11 12 12 13 13
REMARK H PARENT
REMARK Flexibility Score: inf
ROOT
ATOM      1  C   UNL     1      83.228  -0.403   0.601  1.00  0.00     0.000 C 
ENDROOT
BRANCH   1   2
ATOM      2  C   UNL     1      81.841  -1.034   0.767  1.00  0.00     0.000 C 
BRANCH   2   3
ATOM      3  C   UNL     1      81.736  -2.349  -0.019  1.00  0.00     0.006 C 
BRANCH   3   4
ATOM      4  C   UNL     1      81.022  -3.447   0.779  1.00  0.00     0.053 C 
BRANCH   4   5
ATOM      5  C   UNL     1      81.661  -3.665   2.117  1.00  0.00     0.041 C 
ATOM      6  O   UNL     1      82.824  -4.143   2.194  1.00  0.00    -0.550 OA
ATOM      7  O   UNL     1      80.960  -3.372   3.279  1.00  0.00    -0.550 OA
ENDBRANCH   4   5
ENDBRANCH   3   4
ENDBRANCH   2   3
ENDBRANCH   1   2
BRANCH   1   8
ATOM      8  C   UNL     1      83.170   0.813  -0.336  1.00  0.00     0.000 C 
BRANCH   8   9
ATOM      9  C   UNL     1      81.832   1.563  -0.252  1.00  0.00     0.006 C 
BRANCH   9  10
ATOM     10  C   UNL     1      81.913   2.820   0.625  1.00  0.00     0.053 C 
BRANCH  10  11
ATOM     11  C   UNL     1      81.232   2.586   1.935  1.00  0.00     0.041 C 
ATOM     12  O   UNL     1      80.049   2.977   2.114  1.00  0.00    -0.550 OA
ATOM     13  O   UNL     1      81.887   1.891   2.945  1.00  0.00    -0.550 OA
ENDBRANCH  10  11
ENDBRANCH   9  10
ENDBRANCH   8   9
ENDBRANCH   1   8
TORSDOF 8
ENDMDL
MODEL 6
REMARK VINA RESULT:    -4.971      3.623      6.237
REMARK INTER + INTRA:          -7.749
REMARK INTER:                  -7.349
REMARK INTRA:                  -0.399
REMARK UNBOUND:                -0.453
REMARK SMILES O=C([O-])CCCCCCCC(=O)[O-]
REMARK SMILES IDX 7 1 6 2 5 3 4 4 2 5 1 6 3 7 8 8 9 9 10 10 11 11 12 12 13 13
REMARK H PARENT
REMARK Flexibility Score: inf
ROOT
ATOM      1  C   UNL     1      95.410  -7.085  -5.004  1.00  0.00     0.000 C 
ENDROOT
BRANCH   1   2
ATOM      2  C   UNL     1      94.103  -7.849  -4.760  1.00  0.00     0.000 C 
BRANCH   2   3
ATOM      3  C   UNL     1      93.221  -7.844  -6.017  1.00  0.00     0.006 C 
BRANCH   3   4
ATOM      4  C   UNL     1      92.058  -8.839  -5.912  1.00  0.00     0.053 C 
BRANCH   4   5
ATOM      5  C   UNL     1      90.821  -8.192  -5.366  1.00  0.00     0.041 C 
ATOM      6  O   UNL     1      90.359  -8.550  -4.249  1.00  0.00    -0.550 OA
ATOM      7  O   UNL     1      90.161  -7.219  -6.104  1.00  0.00    -0.550 OA
ENDBRANCH   4   5
ENDBRANCH   3   4
ENDBRANCH   2   3
ENDBRANCH   1   2
BRANCH   1   8
ATOM      8  C   UNL     1      95.577  -6.740  -6.491  1.00  0.00     0.000 C 
BRANCH   8   9
ATOM      9  C   UNL     1      96.435  -5.485  -6.716  1.00  0.00     0.006 C 
BRANCH   9  10
ATOM     10  C   UNL     1      96.864  -4.819  -5.402  1.00  0.00     0.053 C 
BRANCH  10  11
ATOM     11  C   UNL     1      96.889  -3.332  -5.556  1.00  0.00     0.041 C 
ATOM     12  O   UNL     1      97.820  -2.657  -5.041  1.00  0.00    -0.550 OA
ATOM     13  O   UNL     1      95.913  -2.693  -6.310  1.00  0.00    -0.550 OA
ENDBRANCH  10  11
ENDBRANCH   9  10
ENDBRANCH   8   9
ENDBRANCH   1   8
TORSDOF 8
ENDMDL
MODEL 7
REMARK VINA RESULT:    -4.956     11.316     12.622
REMARK INTER + INTRA:          -7.726
REMARK INTER:                  -6.974
REMARK INTRA:                  -0.752
REMARK UNBOUND:                -0.453
REMARK SMILES O=C([O-])CCCCCCCC(=O)[O-]
REMARK SMILES IDX 7 1 6 2 5 3 4 4 2 5 1 6 3 7 8 8 9 9 10 10 11 11 12 12 13 13
REMARK H PARENT
REMARK Flexibility Score: inf
ROOT
ATOM      1  C   UNL     1      83.888  -1.951   2.918  1.00  0.00     0.000 C 
ENDROOT
BRANCH   1   2
ATOM      2  C   UNL     1      83.524  -3.424   3.133  1.00  0.00     0.000 C 
BRANCH   2   3
ATOM      3  C   UNL     1      82.029  -3.664   2.877  1.00  0.00     0.006 C 
BRANCH   3   4
ATOM      4  C   UNL     1      81.767  -4.261   1.488  1.00  0.00     0.053 C 
BRANCH   4   5
ATOM      5  C   UNL     1      81.081  -3.283   0.583  1.00  0.00     0.041 C 
ATOM      6  O   UNL     1      80.080  -2.636   0.992  1.00  0.00    -0.550 OA
ATOM      7  O   UNL     1      81.528  -3.110  -0.720  1.00  0.00    -0.550 OA
ENDBRANCH   4   5
ENDBRANCH   3   4
ENDBRANCH   2   3
ENDBRANCH   1   2
BRANCH   1   8
ATOM      8  C   UNL     1      84.371  -1.707   1.480  1.00  0.00     0.000 C 
BRANCH   8   9
ATOM      9  C   UNL     1      83.580  -0.599   0.768  1.00  0.00     0.006 C 
BRANCH   9  10
ATOM     10  C   UNL     1      82.478   0.001   1.652  1.00  0.00     0.053 C 
BRANCH  10  11
ATOM     11  C   UNL     1      82.141   1.385   1.197  1.00  0.00     0.041 C 
ATOM     12  O   UNL     1      81.486   2.157   1.947  1.00  0.00    -0.550 OA
ATOM     13  O   UNL     1      82.593   1.843  -0.035  1.00  0.00    -0.550 OA
ENDBRANCH  10  11
ENDBRANCH   9  10
ENDBRANCH   8   9
ENDBRANCH   1   8
TORSDOF 8
ENDMDL
MODEL 8
REMARK VINA RESULT:    -4.950     11.508     13.659
REMARK INTER + INTRA:          -7.718
REMARK INTER:                  -7.075
REMARK INTRA:                  -0.643
REMARK UNBOUND:                -0.453
REMARK SMILES O=C([O-])CCCCCCCC(=O)[O-]
REMARK SMILES IDX 7 1 6 2 5 3 4 4 2 5 1 6 3 7 8 8 9 9 10 10 11 11 12 12 13 13
REMARK H PARENT
REMARK Flexibility Score: inf
ROOT
ATOM      1  C   UNL     1      84.059  -1.670   1.325  1.00  0.00     0.000 C 
ENDROOT
BRANCH   1   2
ATOM      2  C   UNL     1      83.547  -0.377   0.680  1.00  0.00     0.000 C 
BRANCH   2   3
ATOM      3  C   UNL     1      82.497   0.304   1.570  1.00  0.00     0.006 C 
BRANCH   3   4
ATOM      4  C   UNL     1      81.386   0.971   0.749  1.00  0.00     0.053 C 
BRANCH   4   5
ATOM      5  C   UNL     1      81.114   2.370   1.215  1.00  0.00     0.041 C 
ATOM      6  O   UNL     1      79.964   2.692   1.614  1.00  0.00    -0.550 OA
ATOM      7  O   UNL     1      82.123   3.323   1.178  1.00  0.00    -0.550 OA
ENDBRANCH   4   5
ENDBRANCH   3   4
ENDBRANCH   2   3
ENDBRANCH   1   2
BRANCH   1   8
ATOM      8  C   UNL     1      83.378  -1.916   2.680  1.00  0.00     0.000 C 
BRANCH   8   9
ATOM      9  C   UNL     1      82.897  -3.366   2.847  1.00  0.00     0.006 C 
BRANCH   9  10
ATOM     10  C   UNL     1      81.373  -3.500   2.727  1.00  0.00     0.053 C 
BRANCH  10  11
ATOM     11  C   UNL     1      80.947  -3.357   1.301  1.00  0.00     0.041 C 
ATOM     12  O   UNL     1      80.242  -2.376   0.946  1.00  0.00    -0.550 OA
ATOM     13  O   UNL     1      81.370  -4.280   0.352  1.00  0.00    -0.550 OA
ENDBRANCH  10  11
ENDBRANCH   9  10
ENDBRANCH   8   9
ENDBRANCH   1   8
TORSDOF 8
ENDMDL
MODEL 9
REMARK VINA RESULT:    -4.903     13.203     15.138
REMARK INTER + INTRA:          -7.649
REMARK INTER:                  -6.996
REMARK INTRA:                  -0.653
REMARK UNBOUND:                -0.453
REMARK SMILES O=C([O-])CCCCCCCC(=O)[O-]
REMARK SMILES IDX 7 1 6 2 5 3 4 4 2 5 1 6 3 7 8 8 9 9 10 10 11 11 12 12 13 13
REMARK H PARENT
REMARK Flexibility Score: inf
ROOT
ATOM      1  C   UNL     1      96.761  -4.124  10.665  1.00  0.00     0.000 C 
ENDROOT
BRANCH   1   2
ATOM      2  C   UNL     1      95.356  -4.703  10.869  1.00  0.00     0.000 C 
BRANCH   2   3
ATOM      3  C   UNL     1      94.285  -3.763  10.295  1.00  0.00     0.006 C 
BRANCH   3   4
ATOM      4  C   UNL     1      93.311  -4.495   9.363  1.00  0.00     0.053 C 
BRANCH   4   5
ATOM      5  C   UNL     1      93.057  -3.719   8.106  1.00  0.00     0.041 C 
ATOM      6  O   UNL     1      92.200  -4.121   7.275  1.00  0.00    -0.550 OA
ATOM      7  O   UNL     1      93.790  -2.570   7.837  1.00  0.00    -0.550 OA
ENDBRANCH   4   5
ENDBRANCH   3   4
ENDBRANCH   2   3
ENDBRANCH   1   2
BRANCH   1   8
ATOM      8  C   UNL     1      96.713  -2.852   9.805  1.00  0.00     0.000 C 
BRANCH   8   9
ATOM      9  C   UNL     1      97.501  -2.993   8.494  1.00  0.00     0.006 C 
BRANCH   9  10
ATOM     10  C   UNL     1      96.877  -4.017   7.536  1.00  0.00     0.053 C 
BRANCH  10  11
ATOM     11  C   UNL     1      97.892  -4.491   6.546  1.00  0.00     0.041 C 
ATOM     12  O   UNL     1      98.697  -3.675   6.023  1.00  0.00    -0.550 OA
ATOM     13  O   UNL     1      97.983  -5.842   6.235  1.00  0.00    -0.550 OA
ENDBRANCH  10  11
ENDBRANCH   9  10
ENDBRANCH   8   9
ENDBRANCH   1   8
TORSDOF 8
ENDMDL
