MODEL 1
REMARK VINA RESULT:    -3.049      0.000      0.000
REMARK INTER + INTRA:          -3.049
REMARK INTER:                  -3.049
REMARK INTRA:                   0.000
REMARK UNBOUND:                 0.000
REMARK SMILES O=C1CCCCC1
REMARK SMILES IDX 5 1 4 2 3 3 2 4 1 5 7 6 6 7
REMARK H PARENT
REMARK Flexibility Score: inf
ROOT
ATOM      1  C   UNL     1     106.558 107.458 101.875  1.00  0.00     0.001 C 
ATOM      2  C   UNL     1     105.492 108.564 101.886  1.00  0.00     0.008 C 
ATOM      3  C   UNL     1     104.535 108.407 103.075  1.00  0.00     0.075 C 
ATOM      4  C   UNL     1     105.310 108.250 104.354  1.00  0.00     0.132 C 
ATOM      5  O   UNL     1     104.964 108.846 105.362  1.00  0.00    -0.300 OA
ATOM      6  C   UNL     1     106.456 107.278 104.403  1.00  0.00     0.075 C 
ATOM      7  C   UNL     1     107.366 107.462 103.182  1.00  0.00     0.008 C 
ENDROOT
TORSDOF 0
ENDMDL
MODEL 2
REMARK VINA RESULT:    -3.047      2.719      3.406
REMARK INTER + INTRA:          -3.047
REMARK INTER:                  -3.047
REMARK INTRA:                   0.000
REMARK UNBOUND:                 0.000
REMARK SMILES O=C1CCCCC1
REMARK SMILES IDX 5 1 4 2 3 3 2 4 1 5 7 6 6 7
REMARK H PARENT
REMARK Flexibility Score: inf
ROOT
ATOM      1  C   UNL     1     103.855 104.516 103.044  1.00  0.00     0.001 C 
ATOM      2  C   UNL     1     103.739 105.247 104.390  1.00  0.00     0.008 C 
ATOM      3  C   UNL     1     104.692 106.447 104.459  1.00  0.00     0.075 C 
ATOM      4  C   UNL     1     104.531 107.315 103.241  1.00  0.00     0.132 C 
ATOM      5  O   UNL     1     104.498 108.530 103.350  1.00  0.00    -0.300 OA
ATOM      6  C   UNL     1     104.508 106.674 101.881  1.00  0.00     0.075 C 
ATOM      7  C   UNL     1     103.560 105.468 101.875  1.00  0.00     0.008 C 
ENDROOT
TORSDOF 0
ENDMDL
MODEL 3
REMARK VINA RESULT:    -3.023      3.386      3.959
REMARK INTER + INTRA:          -3.023
REMARK INTER:                  -3.023
REMARK INTRA:                   0.000
REMARK UNBOUND:                 0.000
REMARK SMILES O=C1CCCCC1
REMARK SMILES IDX 5 1 4 2 3 3 2 4 1 5 7 6 6 7
REMARK H PARENT
REMARK Flexibility Score: inf
ROOT
ATOM      1  C   UNL     1     108.152 107.511 103.021  1.00  0.00     0.001 C 
ATOM      2  C   UNL     1     108.254 106.823 104.391  1.00  0.00     0.008 C 
ATOM      3  C   UNL     1     107.297 105.628 104.489  1.00  0.00     0.075 C 
ATOM      4  C   UNL     1     107.465 104.722 103.300  1.00  0.00     0.132 C 
ATOM      5  O   UNL     1     107.493 103.510 103.448  1.00  0.00    -0.300 OA
ATOM      6  C   UNL     1     107.503 105.320 101.921  1.00  0.00     0.075 C 
ATOM      7  C   UNL     1     108.455 106.522 101.886  1.00  0.00     0.008 C 
ENDROOT
TORSDOF 0
ENDMDL
MODEL 4
REMARK VINA RESULT:    -3.007      3.054      3.665
REMARK INTER + INTRA:          -3.007
REMARK INTER:                  -3.007
REMARK INTRA:                   0.000
REMARK UNBOUND:                 0.000
REMARK SMILES O=C1CCCCC1
REMARK SMILES IDX 5 1 4 2 3 3 2 4 1 5 7 6 6 7
REMARK H PARENT
REMARK Flexibility Score: inf
ROOT
ATOM      1  C   UNL     1     106.829 104.833 103.798  1.00  0.00     0.001 C 
ATOM      2  C   UNL     1     107.575 104.785 102.457  1.00  0.00     0.008 C 
ATOM      3  C   UNL     1     107.779 106.192 101.879  1.00  0.00     0.075 C 
ATOM      4  C   UNL     1     108.378 107.102 102.915  1.00  0.00     0.132 C 
ATOM      5  O   UNL     1     109.279 107.869 102.615  1.00  0.00    -0.300 OA
ATOM      6  C   UNL     1     107.791 107.126 104.299  1.00  0.00     0.075 C 
ATOM      7  C   UNL     1     107.587 105.697 104.817  1.00  0.00     0.008 C 
ENDROOT
TORSDOF 0
ENDMDL
MODEL 5
REMARK VINA RESULT:    -2.999      1.910      3.128
REMARK INTER + INTRA:          -2.999
REMARK INTER:                  -2.999
REMARK INTRA:                   0.000
REMARK UNBOUND:                 0.000
REMARK SMILES O=C1CCCCC1
REMARK SMILES IDX 5 1 4 2 3 3 2 4 1 5 7 6 6 7
REMARK H PARENT
REMARK Flexibility Score: inf
ROOT
ATOM      1  C   UNL     1     104.846 107.774 103.681  1.00  0.00     0.001 C 
ATOM      2  C   UNL     1     105.928 107.858 104.768  1.00  0.00     0.008 C 
ATOM      3  C   UNL     1     107.192 107.090 104.361  1.00  0.00     0.075 C 
ATOM      4  C   UNL     1     107.633 107.500 102.983  1.00  0.00     0.132 C 
ATOM      5  O   UNL     1     108.814 107.699 102.747  1.00  0.00    -0.300 OA
ATOM      6  C   UNL     1     106.617 107.567 101.876  1.00  0.00     0.075 C 
ATOM      7  C   UNL     1     105.367 108.323 102.344  1.00  0.00     0.008 C 
ENDROOT
TORSDOF 0
ENDMDL
MODEL 6
REMARK VINA RESULT:    -2.995      1.261      2.076
REMARK INTER + INTRA:          -2.995
REMARK INTER:                  -2.995
REMARK INTRA:                   0.000
REMARK UNBOUND:                 0.000
REMARK SMILES O=C1CCCCC1
REMARK SMILES IDX 5 1 4 2 3 3 2 4 1 5 7 6 6 7
REMARK H PARENT
REMARK Flexibility Score: inf
ROOT
ATOM      1  C   UNL     1     107.195 106.867 103.886  1.00  0.00     0.001 C 
ATOM      2  C   UNL     1     107.288 107.602 102.541  1.00  0.00     0.008 C 
ATOM      3  C   UNL     1     105.900 107.827 101.929  1.00  0.00     0.075 C 
ATOM      4  C   UNL     1     104.976 108.450 102.939  1.00  0.00     0.132 C 
ATOM      5  O   UNL     1     104.232 109.363 102.614  1.00  0.00    -0.300 OA
ATOM      6  C   UNL     1     104.909 107.874 104.326  1.00  0.00     0.075 C 
ATOM      7  C   UNL     1     106.321 107.648 104.879  1.00  0.00     0.008 C 
ENDROOT
TORSDOF 0
ENDMDL
MODEL 7
REMARK VINA RESULT:    -2.974      3.825      4.347
REMARK INTER + INTRA:          -2.974
REMARK INTER:                  -2.974
REMARK INTRA:                   0.000
REMARK UNBOUND:                 0.000
REMARK SMILES O=C1CCCCC1
REMARK SMILES IDX 5 1 4 2 3 3 2 4 1 5 7 6 6 7
REMARK H PARENT
REMARK Flexibility Score: inf
ROOT
ATOM      1  C   UNL     1     106.521 104.669 103.896  1.00  0.00     0.001 C 
ATOM      2  C   UNL     1     105.346 104.512 104.872  1.00  0.00     0.008 C 
ATOM      3  C   UNL     1     104.051 105.092 104.287  1.00  0.00     0.075 C 
ATOM      4  C   UNL     1     103.814 104.553 102.903  1.00  0.00     0.132 C 
ATOM      5  O   UNL     1     102.697 104.194 102.565  1.00  0.00    -0.300 OA
ATOM      6  C   UNL     1     104.945 104.550 101.912  1.00  0.00     0.075 C 
ATOM      7  C   UNL     1     106.217 103.984 102.555  1.00  0.00     0.008 C 
ENDROOT
TORSDOF 0
ENDMDL
MODEL 8
REMARK VINA RESULT:    -2.966      3.243      3.577
REMARK INTER + INTRA:          -2.966
REMARK INTER:                  -2.966
REMARK INTRA:                   0.000
REMARK UNBOUND:                 0.000
REMARK SMILES O=C1CCCCC1
REMARK SMILES IDX 5 1 4 2 3 3 2 4 1 5 7 6 6 7
REMARK H PARENT
REMARK Flexibility Score: inf
ROOT
ATOM      1  C   UNL     1     105.233 107.177 103.787  1.00  0.00     0.001 C 
ATOM      2  C   UNL     1     104.446 107.250 102.470  1.00  0.00     0.008 C 
ATOM      3  C   UNL     1     104.218 105.855 101.875  1.00  0.00     0.075 C 
ATOM      4  C   UNL     1     103.647 104.930 102.914  1.00  0.00     0.132 C 
ATOM      5  O   UNL     1     102.733 104.172 102.629  1.00  0.00    -0.300 OA
ATOM      6  C   UNL     1     104.276 104.880 104.279  1.00  0.00     0.075 C 
ATOM      7  C   UNL     1     104.503 106.299 104.814  1.00  0.00     0.008 C 
ENDROOT
TORSDOF 0
ENDMDL
MODEL 9
REMARK VINA RESULT:    -2.964      4.168      4.754
REMARK INTER + INTRA:          -2.964
REMARK INTER:                  -2.964
REMARK INTRA:                   0.000
REMARK UNBOUND:                 0.000
REMARK SMILES O=C1CCCCC1
REMARK SMILES IDX 5 1 4 2 3 3 2 4 1 5 7 6 6 7
REMARK H PARENT
REMARK Flexibility Score: inf
ROOT
ATOM      1  C   UNL     1     104.814 105.159 103.820  1.00  0.00     0.001 C 
ATOM      2  C   UNL     1     104.745 104.421 102.475  1.00  0.00     0.008 C 
ATOM      3  C   UNL     1     106.145 104.189 101.891  1.00  0.00     0.075 C 
ATOM      4  C   UNL     1     107.046 103.566 102.921  1.00  0.00     0.132 C 
ATOM      5  O   UNL     1     107.792 102.650 102.613  1.00  0.00    -0.300 OA
ATOM      6  C   UNL     1     107.088 104.146 104.307  1.00  0.00     0.075 C 
ATOM      7  C   UNL     1     105.666 104.379 104.832  1.00  0.00     0.008 C 
ENDROOT
TORSDOF 0
ENDMDL
