MODEL 1
REMARK VINA RESULT:    -3.698      0.000      0.000
REMARK INTER + INTRA:          -4.924
REMARK INTER:                  -4.995
REMARK INTRA:                   0.072
REMARK UNBOUND:                 0.072
REMARK SMILES C=C1C(=O)O[C@H]2[C@@H]1CCC(C)=CCC[C@]1(C)O[C@H]21
REMARK SMILES IDX 6 1 7 2 2 3 1 4 3 5 4 6 5 7 8 8 9 9 10 10 11 11 12 12 18 14
REMARK SMILES IDX 15 15 17 16 16 17 14 18 13 19
REMARK H PARENT
REMARK Flexibility Score: 70.00
ROOT
ATOM      1  C   UNL     1       3.525 108.485 182.461  1.00  0.00     0.216 C 
ATOM      2  C   UNL     1       3.981 107.114 181.859  1.00  0.00     0.070 C 
ATOM      3  C   UNL     1       3.275 107.081 180.534  1.00  0.00     0.037 C 
ATOM      4  C   UNL     1       3.454 106.218 179.534  1.00  0.00     0.021 C 
ATOM      5  C   UNL     1       2.158 107.991 180.672  1.00  0.00     0.334 C 
ATOM      6  O   UNL     1       1.206 108.116 179.857  1.00  0.00    -0.247 OA
ATOM      7  O   UNL     1       2.245 108.689 181.862  1.00  0.00    -0.455 OA
ENDROOT
BRANCH   2   8
ATOM      8  C   UNL     1       5.501 106.831 181.873  1.00  0.00     0.017 C 
BRANCH   8   9
ATOM      9  C   UNL     1       5.957 106.601 183.331  1.00  0.00     0.031 C 
BRANCH   9  10
ATOM     10  C   UNL     1       7.447 106.709 183.609  1.00  0.00    -0.077 C 
ATOM     11  C   UNL     1       8.243 105.430 183.727  1.00  0.00     0.039 C 
ATOM     12  C   UNL     1       8.081 107.861 183.948  1.00  0.00    -0.028 CG0
ATOM     13  G   UNL     1       7.632 109.268 183.637  1.00  0.00     0.000 G0
ENDBRANCH   9  10
ENDBRANCH   8   9
ENDBRANCH   2   8
BRANCH   1  14
ATOM     14  C   UNL     1       4.372 109.711 182.035  1.00  0.00     0.192 C 
ATOM     15  C   UNL     1       5.511 110.336 182.780  1.00  0.00     0.096 C 
ATOM     16  O   UNL     1       4.183 110.720 183.014  1.00  0.00    -0.362 OA
ATOM     17  C   UNL     1       6.279 111.458 182.071  1.00  0.00     0.045 C 
BRANCH  15  18
ATOM     18  C   UNL     1       6.174 109.642 183.981  1.00  0.00     0.042 C 
BRANCH  18  19
ATOM     19  C   UNL     1       7.635 109.277 183.636  1.00  0.00     0.030 CG0
ATOM     20  G   UNL     1       8.078 107.870 183.952  1.00  0.00     0.000 G0
ENDBRANCH  18  19
ENDBRANCH  15  18
ENDBRANCH   1  14
TORSDOF 0
ENDMDL
MODEL 2
REMARK VINA RESULT:    -3.655      0.986      1.059
REMARK INTER + INTRA:          -4.865
REMARK INTER:                  -4.855
REMARK INTRA:                  -0.009
REMARK UNBOUND:                 0.072
REMARK SMILES C=C1C(=O)O[C@H]2[C@@H]1CCC(C)=CCC[C@]1(C)O[C@H]21
REMARK SMILES IDX 6 1 7 2 2 3 1 4 3 5 4 6 5 7 8 8 9 9 10 10 11 11 12 12 18 14
REMARK SMILES IDX 15 15 17 16 16 17 14 18 13 19
REMARK H PARENT
REMARK Flexibility Score: 70.00
ROOT
ATOM      1  C   UNL     1       4.374 108.315 183.171  1.00  0.00     0.216 C 
ATOM      2  C   UNL     1       4.694 106.985 182.412  1.00  0.00     0.070 C 
ATOM      3  C   UNL     1       3.837 107.089 181.183  1.00  0.00     0.037 C 
ATOM      4  C   UNL     1       3.859 106.307 180.103  1.00  0.00     0.021 C 
ATOM      5  C   UNL     1       2.786 108.023 181.526  1.00  0.00     0.334 C 
ATOM      6  O   UNL     1       1.753 108.251 180.843  1.00  0.00    -0.247 OA
ATOM      7  O   UNL     1       3.044 108.615 182.749  1.00  0.00    -0.455 OA
ENDROOT
BRANCH   2   8
ATOM      8  C   UNL     1       6.190 106.647 182.221  1.00  0.00     0.017 C 
BRANCH   8   9
ATOM      9  C   UNL     1       6.775 106.169 183.569  1.00  0.00     0.031 C 
BRANCH   9  10
ATOM     10  C   UNL     1       8.287 106.210 183.713  1.00  0.00    -0.077 C 
ATOM     11  C   UNL     1       9.039 104.899 183.688  1.00  0.00     0.039 C 
ATOM     12  C   UNL     1       8.995 107.317 184.054  1.00  0.00    -0.028 CG0
ATOM     13  G   UNL     1       8.576 108.754 183.861  1.00  0.00     0.000 G0
ENDBRANCH   9  10
ENDBRANCH   8   9
ENDBRANCH   2   8
BRANCH   1  14
ATOM     14  C   UNL     1       5.221 109.542 182.746  1.00  0.00     0.192 C 
ATOM     15  C   UNL     1       6.470 110.056 183.391  1.00  0.00     0.096 C 
ATOM     16  O   UNL     1       5.200 110.468 183.820  1.00  0.00    -0.362 OA
ATOM     17  C   UNL     1       7.199 111.207 182.687  1.00  0.00     0.045 C 
BRANCH  15  18
ATOM     18  C   UNL     1       7.240 109.236 184.439  1.00  0.00     0.042 C 
BRANCH  18  19
ATOM     19  C   UNL     1       8.588 108.766 183.852  1.00  0.00     0.030 CG0
ATOM     20  G   UNL     1       8.959 107.319 184.071  1.00  0.00     0.000 G0
ENDBRANCH  18  19
ENDBRANCH  15  18
ENDBRANCH   1  14
TORSDOF 0
ENDMDL
MODEL 3
REMARK VINA RESULT:    -3.506      2.755      5.230
REMARK INTER + INTRA:          -4.664
REMARK INTER:                  -4.658
REMARK INTRA:                  -0.005
REMARK UNBOUND:                 0.072
REMARK SMILES C=C1C(=O)O[C@H]2[C@@H]1CCC(C)=CCC[C@]1(C)O[C@H]21
REMARK SMILES IDX 6 1 7 2 2 3 1 4 3 5 4 6 5 7 8 8 9 9 10 10 11 11 12 12 18 14
REMARK SMILES IDX 15 15 17 16 16 17 14 18 13 19
REMARK H PARENT
REMARK Flexibility Score: 70.00
ROOT
ATOM      1  C   UNL     1       5.824 108.702 181.979  1.00  0.00     0.216 C 
ATOM      2  C   UNL     1       6.231 107.199 181.820  1.00  0.00     0.070 C 
ATOM      3  C   UNL     1       6.944 106.909 183.108  1.00  0.00     0.037 C 
ATOM      4  C   UNL     1       7.339 105.724 183.575  1.00  0.00     0.021 C 
ATOM      5  C   UNL     1       7.377 108.197 183.606  1.00  0.00     0.334 C 
ATOM      6  O   UNL     1       8.170 108.387 184.566  1.00  0.00    -0.247 OA
ATOM      7  O   UNL     1       6.832 109.217 182.848  1.00  0.00    -0.455 OA
ENDROOT
BRANCH   2   8
ATOM      8  C   UNL     1       5.110 106.228 181.381  1.00  0.00     0.017 C 
BRANCH   8   9
ATOM      9  C   UNL     1       4.826 106.434 179.876  1.00  0.00     0.031 C 
BRANCH   9  10
ATOM     10  C   UNL     1       3.497 105.915 179.353  1.00  0.00    -0.077 C 
ATOM     11  C   UNL     1       3.513 104.698 178.457  1.00  0.00     0.039 C 
ATOM     12  C   UNL     1       2.316 106.575 179.472  1.00  0.00    -0.028 CG0
ATOM     13  G   UNL     1       1.957 107.606 180.514  1.00  0.00     0.000 G0
ENDBRANCH   9  10
ENDBRANCH   8   9
ENDBRANCH   2   8
BRANCH   1  14
ATOM     14  C   UNL     1       4.485 108.952 182.718  1.00  0.00     0.192 C 
ATOM     15  C   UNL     1       3.131 109.150 182.110  1.00  0.00     0.096 C 
ATOM     16  O   UNL     1       4.008 110.226 182.316  1.00  0.00    -0.362 OA
ATOM     17  C   UNL     1       1.939 109.237 183.071  1.00  0.00     0.045 C 
BRANCH  15  18
ATOM     18  C   UNL     1       2.855 108.854 180.627  1.00  0.00     0.042 C 
BRANCH  18  19
ATOM     19  C   UNL     1       1.921 107.630 180.501  1.00  0.00     0.030 CG0
ATOM     20  G   UNL     1       2.310 106.578 179.492  1.00  0.00     0.000 G0
ENDBRANCH  18  19
ENDBRANCH  15  18
ENDBRANCH   1  14
TORSDOF 0
ENDMDL
MODEL 4
REMARK VINA RESULT:    -3.490      3.095      5.757
REMARK INTER + INTRA:          -4.643
REMARK INTER:                  -4.685
REMARK INTRA:                   0.042
REMARK UNBOUND:                 0.072
REMARK SMILES C=C1C(=O)O[C@H]2[C@@H]1CCC(C)=CCC[C@]1(C)O[C@H]21
REMARK SMILES IDX 6 1 7 2 2 3 1 4 3 5 4 6 5 7 8 8 9 9 10 10 11 11 12 12 18 14
REMARK SMILES IDX 15 15 17 16 16 17 14 18 13 19
REMARK H PARENT
REMARK Flexibility Score: 70.00
ROOT
ATOM      1  C   UNL     1       4.593 108.210 182.891  1.00  0.00     0.216 C 
ATOM      2  C   UNL     1       3.767 109.415 182.330  1.00  0.00     0.070 C 
ATOM      3  C   UNL     1       4.661 110.589 182.607  1.00  0.00     0.037 C 
ATOM      4  C   UNL     1       4.525 111.842 182.170  1.00  0.00     0.021 C 
ATOM      5  C   UNL     1       5.537 110.161 183.677  1.00  0.00     0.334 C 
ATOM      6  O   UNL     1       6.313 110.904 184.334  1.00  0.00    -0.247 OA
ATOM      7  O   UNL     1       5.376 108.810 183.923  1.00  0.00    -0.455 OA
ENDROOT
BRANCH   2   8
ATOM      8  C   UNL     1       3.209 109.256 180.897  1.00  0.00     0.017 C 
BRANCH   8   9
ATOM      9  C   UNL     1       1.866 108.493 180.962  1.00  0.00     0.031 C 
BRANCH   9  10
ATOM     10  C   UNL     1       1.427 107.770 179.699  1.00  0.00    -0.077 C 
ATOM     11  C   UNL     1       0.070 108.104 179.125  1.00  0.00     0.039 C 
ATOM     12  C   UNL     1       2.080 106.710 179.158  1.00  0.00    -0.028 CG0
ATOM     13  G   UNL     1       3.539 106.363 179.327  1.00  0.00     0.000 G0
ENDBRANCH   9  10
ENDBRANCH   8   9
ENDBRANCH   2   8
BRANCH   1  14
ATOM     14  C   UNL     1       5.621 107.595 181.908  1.00  0.00     0.192 C 
ATOM     15  C   UNL     1       5.417 106.436 180.981  1.00  0.00     0.096 C 
ATOM     16  O   UNL     1       5.841 106.251 182.306  1.00  0.00    -0.362 OA
ATOM     17  C   UNL     1       6.553 106.114 180.003  1.00  0.00     0.045 C 
BRANCH  15  18
ATOM     18  C   UNL     1       4.020 105.862 180.694  1.00  0.00     0.042 C 
BRANCH  18  19
ATOM     19  C   UNL     1       3.536 106.327 179.303  1.00  0.00     0.030 CG0
ATOM     20  G   UNL     1       2.080 106.703 179.179  1.00  0.00     0.000 G0
ENDBRANCH  18  19
ENDBRANCH  15  18
ENDBRANCH   1  14
TORSDOF 0
ENDMDL
MODEL 5
REMARK VINA RESULT:    -3.379      3.932      6.449
REMARK INTER + INTRA:          -4.492
REMARK INTER:                  -4.457
REMARK INTRA:                  -0.035
REMARK UNBOUND:                 0.072
REMARK SMILES C=C1C(=O)O[C@H]2[C@@H]1CCC(C)=CCC[C@]1(C)O[C@H]21
REMARK SMILES IDX 6 1 7 2 2 3 1 4 3 5 4 6 5 7 8 8 9 9 10 10 11 11 12 12 18 14
REMARK SMILES IDX 15 15 17 16 16 17 14 18 13 19
REMARK H PARENT
REMARK Flexibility Score: 70.00
ROOT
ATOM      1  C   UNL     1       4.700 105.977 180.869  1.00  0.00     0.216 C 
ATOM      2  C   UNL     1       3.246 106.556 180.845  1.00  0.00     0.070 C 
ATOM      3  C   UNL     1       3.360 107.779 181.709  1.00  0.00     0.037 C 
ATOM      4  C   UNL     1       2.458 108.746 181.881  1.00  0.00     0.021 C 
ATOM      5  C   UNL     1       4.522 107.553 182.542  1.00  0.00     0.334 C 
ATOM      6  O   UNL     1       4.862 108.249 183.535  1.00  0.00    -0.247 OA
ATOM      7  O   UNL     1       5.202 106.422 182.129  1.00  0.00    -0.455 OA
ENDROOT
BRANCH   2   8
ATOM      8  C   UNL     1       2.595 106.715 179.452  1.00  0.00     0.017 C 
BRANCH   8   9
ATOM      9  C   UNL     1       2.296 105.314 178.873  1.00  0.00     0.031 C 
BRANCH   9  10
ATOM     10  C   UNL     1       2.059 105.229 177.374  1.00  0.00    -0.077 C 
ATOM     11  C   UNL     1       0.631 105.179 176.882  1.00  0.00     0.039 C 
ATOM     12  C   UNL     1       3.034 105.002 176.456  1.00  0.00    -0.028 CG0
ATOM     13  G   UNL     1       4.507 105.292 176.609  1.00  0.00     0.000 G0
ENDBRANCH   9  10
ENDBRANCH   8   9
ENDBRANCH   2   8
BRANCH   1  14
ATOM     14  C   UNL     1       5.668 106.571 179.814  1.00  0.00     0.192 C 
ATOM     15  C   UNL     1       6.030 105.993 178.481  1.00  0.00     0.096 C 
ATOM     16  O   UNL     1       6.732 105.648 179.645  1.00  0.00    -0.362 OA
ATOM     17  C   UNL     1       6.904 106.852 177.560  1.00  0.00     0.045 C 
BRANCH  15  18
ATOM     18  C   UNL     1       5.247 104.823 177.863  1.00  0.00     0.042 C 
BRANCH  18  19
ATOM     19  C   UNL     1       4.528 105.292 176.579  1.00  0.00     0.030 CG0
ATOM     20  G   UNL     1       3.050 105.003 176.482  1.00  0.00     0.000 G0
ENDBRANCH  18  19
ENDBRANCH  15  18
ENDBRANCH   1  14
TORSDOF 0
ENDMDL
MODEL 6
REMARK VINA RESULT:    -3.322      2.605      5.033
REMARK INTER + INTRA:          -4.416
REMARK INTER:                  -4.446
REMARK INTRA:                   0.031
REMARK UNBOUND:                 0.072
REMARK SMILES C=C1C(=O)O[C@H]2[C@@H]1CCC(C)=CCC[C@]1(C)O[C@H]21
REMARK SMILES IDX 6 1 7 2 2 3 1 4 3 5 4 6 5 7 8 8 9 9 10 10 11 11 12 12 18 14
REMARK SMILES IDX 15 15 17 16 16 17 14 18 13 19
REMARK H PARENT
REMARK Flexibility Score: 70.00
ROOT
ATOM      1  C   UNL     1       4.988 110.248 183.625  1.00  0.00     0.216 C 
ATOM      2  C   UNL     1       4.201 110.847 182.412  1.00  0.00     0.070 C 
ATOM      3  C   UNL     1       4.900 112.154 182.174  1.00  0.00     0.037 C 
ATOM      4  C   UNL     1       4.750 112.985 181.143  1.00  0.00     0.021 C 
ATOM      5  C   UNL     1       5.551 112.474 183.427  1.00  0.00     0.334 C 
ATOM      6  O   UNL     1       6.090 113.575 183.715  1.00  0.00    -0.247 OA
ATOM      7  O   UNL     1       5.463 111.410 184.305  1.00  0.00    -0.455 OA
ENDROOT
BRANCH   2   8
ATOM      8  C   UNL     1       3.993 109.909 181.200  1.00  0.00     0.017 C 
BRANCH   8   9
ATOM      9  C   UNL     1       2.910 108.864 181.552  1.00  0.00     0.031 C 
BRANCH   9  10
ATOM     10  C   UNL     1       2.862 107.612 180.692  1.00  0.00    -0.077 C 
ATOM     11  C   UNL     1       1.714 107.461 179.720  1.00  0.00     0.039 C 
ATOM     12  C   UNL     1       3.665 106.532 180.867  1.00  0.00    -0.028 CG0
ATOM     13  G   UNL     1       5.024 106.510 181.523  1.00  0.00     0.000 G0
ENDBRANCH   9  10
ENDBRANCH   8   9
ENDBRANCH   2   8
BRANCH   1  14
ATOM     14  C   UNL     1       6.261 109.443 183.259  1.00  0.00     0.192 C 
ATOM     15  C   UNL     1       6.381 107.963 183.070  1.00  0.00     0.096 C 
ATOM     16  O   UNL     1       6.528 108.556 184.332  1.00  0.00    -0.362 OA
ATOM     17  C   UNL     1       7.728 107.429 182.566  1.00  0.00     0.045 C 
BRANCH  15  18
ATOM     18  C   UNL     1       5.146 107.055 182.954  1.00  0.00     0.042 C 
BRANCH  18  19
ATOM     19  C   UNL     1       5.037 106.496 181.519  1.00  0.00     0.030 CG0
ATOM     20  G   UNL     1       3.673 106.533 180.875  1.00  0.00     0.000 G0
ENDBRANCH  18  19
ENDBRANCH  15  18
ENDBRANCH   1  14
TORSDOF 0
ENDMDL
MODEL 7
REMARK VINA RESULT:    -3.281      1.528      2.070
REMARK INTER + INTRA:          -4.360
REMARK INTER:                  -4.458
REMARK INTRA:                   0.098
REMARK UNBOUND:                 0.072
REMARK SMILES C=C1C(=O)O[C@H]2[C@@H]1CCC(C)=CCC[C@]1(C)O[C@H]21
REMARK SMILES IDX 6 1 7 2 2 3 1 4 3 5 4 6 5 7 8 8 9 9 10 10 11 11 12 12 18 14
REMARK SMILES IDX 15 15 17 16 16 17 14 18 13 19
REMARK H PARENT
REMARK Flexibility Score: 70.00
ROOT
ATOM      1  C   UNL     1       3.739 106.854 181.025  1.00  0.00     0.216 C 
ATOM      2  C   UNL     1       5.015 106.010 180.696  1.00  0.00     0.070 C 
ATOM      3  C   UNL     1       4.897 105.792 179.215  1.00  0.00     0.037 C 
ATOM      4  C   UNL     1       5.813 105.287 178.388  1.00  0.00     0.021 C 
ATOM      5  C   UNL     1       3.493 105.966 178.912  1.00  0.00     0.334 C 
ATOM      6  O   UNL     1       2.936 105.688 177.817  1.00  0.00    -0.247 OA
ATOM      7  O   UNL     1       2.814 106.444 180.018  1.00  0.00    -0.455 OA
ENDROOT
BRANCH   2   8
ATOM      8  C   UNL     1       6.356 106.554 181.240  1.00  0.00     0.017 C 
BRANCH   8   9
ATOM      9  C   UNL     1       6.331 106.502 182.785  1.00  0.00     0.031 C 
BRANCH   9  10
ATOM     10  C   UNL     1       7.362 107.346 183.515  1.00  0.00    -0.077 C 
ATOM     11  C   UNL     1       8.670 106.694 183.901  1.00  0.00     0.039 C 
ATOM     12  C   UNL     1       7.121 108.584 184.017  1.00  0.00    -0.028 CG0
ATOM     13  G   UNL     1       6.066 109.559 183.555  1.00  0.00     0.000 G0
ENDBRANCH   9  10
ENDBRANCH   8   9
ENDBRANCH   2   8
BRANCH   1  14
ATOM     14  C   UNL     1       3.890 108.385 180.838  1.00  0.00     0.192 C 
ATOM     15  C   UNL     1       4.184 109.408 181.891  1.00  0.00     0.096 C 
ATOM     16  O   UNL     1       2.871 109.010 181.602  1.00  0.00    -0.362 OA
ATOM     17  C   UNL     1       4.427 110.847 181.421  1.00  0.00     0.045 C 
BRANCH  15  18
ATOM     18  C   UNL     1       4.653 109.011 183.301  1.00  0.00     0.042 C 
BRANCH  18  19
ATOM     19  C   UNL     1       6.066 109.574 183.563  1.00  0.00     0.030 CG0
ATOM     20  G   UNL     1       7.116 108.593 184.025  1.00  0.00     0.000 G0
ENDBRANCH  18  19
ENDBRANCH  15  18
ENDBRANCH   1  14
TORSDOF 0
ENDMDL
MODEL 8
REMARK VINA RESULT:    -3.161      4.077      6.289
REMARK INTER + INTRA:          -4.199
REMARK INTER:                  -4.240
REMARK INTRA:                   0.041
REMARK UNBOUND:                 0.072
REMARK SMILES C=C1C(=O)O[C@H]2[C@@H]1CCC(C)=CCC[C@]1(C)O[C@H]21
REMARK SMILES IDX 6 1 7 2 2 3 1 4 3 5 4 6 5 7 8 8 9 9 10 10 11 11 12 12 18 14
REMARK SMILES IDX 15 15 17 16 16 17 14 18 13 19
REMARK H PARENT
REMARK Flexibility Score: 70.00
ROOT
ATOM      1  C   UNL     1       3.756 104.599 178.443  1.00  0.00     0.216 C 
ATOM      2  C   UNL     1       4.991 105.303 179.098  1.00  0.00     0.070 C 
ATOM      3  C   UNL     1       6.062 105.131 178.059  1.00  0.00     0.037 C 
ATOM      4  C   UNL     1       7.266 105.701 178.025  1.00  0.00     0.021 C 
ATOM      5  C   UNL     1       5.640 104.002 177.258  1.00  0.00     0.334 C 
ATOM      6  O   UNL     1       6.342 103.409 176.396  1.00  0.00    -0.247 OA
ATOM      7  O   UNL     1       4.356 103.618 177.598  1.00  0.00    -0.455 OA
ENDROOT
BRANCH   2   8
ATOM      8  C   UNL     1       4.752 106.724 179.659  1.00  0.00     0.017 C 
BRANCH   8   9
ATOM      9  C   UNL     1       4.004 106.614 181.007  1.00  0.00     0.031 C 
BRANCH   9  10
ATOM     10  C   UNL     1       3.284 107.860 181.494  1.00  0.00    -0.077 C 
ATOM     11  C   UNL     1       3.818 108.553 182.727  1.00  0.00     0.039 C 
ATOM     12  C   UNL     1       2.085 108.287 181.020  1.00  0.00    -0.028 CG0
ATOM     13  G   UNL     1       1.489 107.988 179.666  1.00  0.00     0.000 G0
ENDBRANCH   9  10
ENDBRANCH   8   9
ENDBRANCH   2   8
BRANCH   1  14
ATOM     14  C   UNL     1       2.910 105.488 177.497  1.00  0.00     0.192 C 
ATOM     15  C   UNL     1       1.685 106.277 177.839  1.00  0.00     0.096 C 
ATOM     16  O   UNL     1       1.605 104.934 177.445  1.00  0.00    -0.362 OA
ATOM     17  C   UNL     1       1.115 107.193 176.750  1.00  0.00     0.045 C 
BRANCH  15  18
ATOM     18  C   UNL     1       1.256 106.519 179.296  1.00  0.00     0.042 C 
BRANCH  18  19
ATOM     19  C   UNL     1       1.470 108.003 179.667  1.00  0.00     0.030 CG0
ATOM     20  G   UNL     1       2.077 108.286 181.019  1.00  0.00     0.000 G0
ENDBRANCH  18  19
ENDBRANCH  15  18
ENDBRANCH   1  14
TORSDOF 0
ENDMDL
MODEL 9
REMARK VINA RESULT:    -3.117      1.584      2.125
REMARK INTER + INTRA:          -4.139
REMARK INTER:                  -4.187
REMARK INTRA:                   0.048
REMARK UNBOUND:                 0.072
REMARK SMILES C=C1C(=O)O[C@H]2[C@@H]1CCC(C)=CCC[C@]1(C)O[C@H]21
REMARK SMILES IDX 6 1 7 2 2 3 1 4 3 5 4 6 5 7 8 8 9 9 10 10 11 11 12 12 18 14
REMARK SMILES IDX 15 15 17 16 16 17 14 18 13 19
REMARK H PARENT
REMARK Flexibility Score: 70.00
ROOT
ATOM      1  C   UNL     1       2.652 107.523 180.832  1.00  0.00     0.216 C 
ATOM      2  C   UNL     1       3.614 107.013 179.709  1.00  0.00     0.070 C 
ATOM      3  C   UNL     1       3.037 107.633 178.469  1.00  0.00     0.037 C 
ATOM      4  C   UNL     1       3.574 107.674 177.249  1.00  0.00     0.021 C 
ATOM      5  C   UNL     1       1.656 107.921 178.792  1.00  0.00     0.334 C 
ATOM      6  O   UNL     1       0.767 108.274 177.973  1.00  0.00    -0.247 OA
ATOM      7  O   UNL     1       1.419 107.711 180.138  1.00  0.00    -0.455 OA
ENDROOT
BRANCH   2   8
ATOM      8  C   UNL     1       5.128 107.196 179.969  1.00  0.00     0.017 C 
BRANCH   8   9
ATOM      9  C   UNL     1       5.618 106.067 180.904  1.00  0.00     0.031 C 
BRANCH   9  10
ATOM     10  C   UNL     1       6.918 106.314 181.652  1.00  0.00    -0.077 C 
ATOM     11  C   UNL     1       8.091 105.407 181.355  1.00  0.00     0.039 C 
ATOM     12  C   UNL     1       7.048 107.162 182.703  1.00  0.00    -0.028 CG0
ATOM     13  G   UNL     1       6.178 108.355 183.017  1.00  0.00     0.000 G0
ENDBRANCH   9  10
ENDBRANCH   8   9
ENDBRANCH   2   8
BRANCH   1  14
ATOM     14  C   UNL     1       2.999 108.912 181.426  1.00  0.00     0.192 C 
ATOM     15  C   UNL     1       3.827 109.204 182.638  1.00  0.00     0.096 C 
ATOM     16  O   UNL     1       2.448 108.968 182.731  1.00  0.00    -0.362 OA
ATOM     17  C   UNL     1       4.142 110.676 182.933  1.00  0.00     0.045 C 
BRANCH  15  18
ATOM     18  C   UNL     1       4.685 108.124 183.316  1.00  0.00     0.042 C 
BRANCH  18  19
ATOM     19  C   UNL     1       6.180 108.381 183.025  1.00  0.00     0.030 CG0
ATOM     20  G   UNL     1       7.027 107.176 182.698  1.00  0.00     0.000 G0
ENDBRANCH  18  19
ENDBRANCH  15  18
ENDBRANCH   1  14
TORSDOF 0
ENDMDL
