MODEL 1
REMARK VINA RESULT:    -4.266      0.000      0.000
REMARK INTER + INTRA:          -7.529
REMARK INTER:                  -6.510
REMARK INTRA:                  -1.019
REMARK UNBOUND:                -1.019
REMARK SMILES O=C([O-])CCCCCCCCC(=O)[O-]
REMARK SMILES IDX 7 1 6 2 5 3 4 4 2 5 1 6 3 7 8 8 9 9 10 10 11 11 12 12 13 13
REMARK SMILES IDX 14 14
REMARK H PARENT
REMARK Flexibility Score: inf
ROOT
ATOM      1  C   UNL     1       4.419   3.143  15.325  1.00  0.00     0.000 C 
ENDROOT
BRANCH   1   2
ATOM      2  C   UNL     1       3.483   2.256  16.166  1.00  0.00     0.000 C 
BRANCH   2   3
ATOM      3  C   UNL     1       4.165   1.697  17.426  1.00  0.00     0.006 C 
BRANCH   3   4
ATOM      4  C   UNL     1       5.344   0.776  17.084  1.00  0.00     0.053 C 
BRANCH   4   5
ATOM      5  C   UNL     1       5.417  -0.400  18.010  1.00  0.00     0.041 C 
ATOM      6  O   UNL     1       5.133  -0.267  19.229  1.00  0.00    -0.550 OA
ATOM      7  O   UNL     1       5.770  -1.651  17.519  1.00  0.00    -0.550 OA
ENDBRANCH   4   5
ENDBRANCH   3   4
ENDBRANCH   2   3
ENDBRANCH   1   2
BRANCH   1   8
ATOM      8  C   UNL     1       4.335   2.918  13.801  1.00  0.00     0.000 C 
BRANCH   8   9
ATOM      9  C   UNL     1       5.013   1.631  13.289  1.00  0.00     0.000 C 
BRANCH   9  10
ATOM     10  C   UNL     1       4.047   0.486  12.933  1.00  0.00     0.006 C 
BRANCH  10  11
ATOM     11  C   UNL     1       4.147  -0.700  13.901  1.00  0.00     0.053 C 
BRANCH  11  12
ATOM     12  C   UNL     1       2.849  -0.898  14.617  1.00  0.00     0.041 C 
ATOM     13  O   UNL     1       2.809  -1.575  15.679  1.00  0.00    -0.550 OA
ATOM     14  O   UNL     1       1.692  -0.295  14.141  1.00  0.00    -0.550 OA
ENDBRANCH  11  12
ENDBRANCH  10  11
ENDBRANCH   9  10
ENDBRANCH   8   9
ENDBRANCH   1   8
TORSDOF 9
ENDMDL
MODEL 2
REMARK VINA RESULT:    -4.191      1.622      2.899
REMARK INTER + INTRA:          -7.416
REMARK INTER:                  -6.681
REMARK INTRA:                  -0.735
REMARK UNBOUND:                -1.019
REMARK SMILES O=C([O-])CCCCCCCCC(=O)[O-]
REMARK SMILES IDX 7 1 6 2 5 3 4 4 2 5 1 6 3 7 8 8 9 9 10 10 11 11 12 12 13 13
REMARK SMILES IDX 14 14
REMARK H PARENT
REMARK Flexibility Score: inf
ROOT
ATOM      1  C   UNL     1       6.084   0.479  14.615  1.00  0.00     0.000 C 
ENDROOT
BRANCH   1   2
ATOM      2  C   UNL     1       5.461  -0.924  14.732  1.00  0.00     0.000 C 
BRANCH   2   3
ATOM      3  C   UNL     1       5.811  -1.622  16.057  1.00  0.00     0.006 C 
BRANCH   3   4
ATOM      4  C   UNL     1       4.800  -1.299  17.166  1.00  0.00     0.053 C 
BRANCH   4   5
ATOM      5  C   UNL     1       5.480  -0.975  18.461  1.00  0.00     0.041 C 
ATOM      6  O   UNL     1       6.498  -1.621  18.822  1.00  0.00    -0.550 OA
ATOM      7  O   UNL     1       5.004   0.059  19.256  1.00  0.00    -0.550 OA
ENDBRANCH   4   5
ENDBRANCH   3   4
ENDBRANCH   2   3
ENDBRANCH   1   2
BRANCH   1   8
ATOM      8  C   UNL     1       5.889   1.167  13.248  1.00  0.00     0.000 C 
BRANCH   8   9
ATOM      9  C   UNL     1       4.623   2.040  13.128  1.00  0.00     0.000 C 
BRANCH   9  10
ATOM     10  C   UNL     1       4.482   3.130  14.205  1.00  0.00     0.006 C 
BRANCH  10  11
ATOM     11  C   UNL     1       3.121   3.096  14.912  1.00  0.00     0.053 C 
BRANCH  11  12
ATOM     12  C   UNL     1       3.059   1.949  15.870  1.00  0.00     0.041 C 
ATOM     13  O   UNL     1       3.671   2.008  16.969  1.00  0.00    -0.550 OA
ATOM     14  O   UNL     1       2.285   0.835  15.572  1.00  0.00    -0.550 OA
ENDBRANCH  11  12
ENDBRANCH  10  11
ENDBRANCH   9  10
ENDBRANCH   8   9
ENDBRANCH   1   8
TORSDOF 9
ENDMDL
MODEL 3
REMARK VINA RESULT:    -4.189      1.971      4.395
REMARK INTER + INTRA:          -7.411
REMARK INTER:                  -6.309
REMARK INTRA:                  -1.102
REMARK UNBOUND:                -1.019
REMARK SMILES O=C([O-])CCCCCCCCC(=O)[O-]
REMARK SMILES IDX 7 1 6 2 5 3 4 4 2 5 1 6 3 7 8 8 9 9 10 10 11 11 12 12 13 13
REMARK SMILES IDX 14 14
REMARK H PARENT
REMARK Flexibility Score: inf
ROOT
ATOM      1  C   UNL     1       2.554   1.535  15.157  1.00  0.00     0.000 C 
ENDROOT
BRANCH   1   2
ATOM      2  C   UNL     1       2.162   0.115  14.706  1.00  0.00     0.000 C 
BRANCH   2   3
ATOM      3  C   UNL     1       3.263  -0.574  13.882  1.00  0.00     0.006 C 
BRANCH   3   4
ATOM      4  C   UNL     1       4.025   0.418  12.992  1.00  0.00     0.053 C 
BRANCH   4   5
ATOM      5  C   UNL     1       5.506   0.204  13.063  1.00  0.00     0.041 C 
ATOM      6  O   UNL     1       6.295   1.169  12.886  1.00  0.00    -0.550 OA
ATOM      7  O   UNL     1       6.014  -1.055  13.354  1.00  0.00    -0.550 OA
ENDBRANCH   4   5
ENDBRANCH   3   4
ENDBRANCH   2   3
ENDBRANCH   1   2
BRANCH   1   8
ATOM      8  C   UNL     1       3.361   1.603  16.470  1.00  0.00     0.000 C 
BRANCH   8   9
ATOM      9  C   UNL     1       4.845   1.988  16.308  1.00  0.00     0.000 C 
BRANCH   9  10
ATOM     10  C   UNL     1       5.846   0.860  16.618  1.00  0.00     0.006 C 
BRANCH  10  11
ATOM     11  C   UNL     1       5.163  -0.425  17.103  1.00  0.00     0.053 C 
BRANCH  11  12
ATOM     12  C   UNL     1       5.532  -0.707  18.525  1.00  0.00     0.041 C 
ATOM     13  O   UNL     1       6.402  -1.577  18.793  1.00  0.00    -0.550 OA
ATOM     14  O   UNL     1       4.952   0.027  19.552  1.00  0.00    -0.550 OA
ENDBRANCH  11  12
ENDBRANCH  10  11
ENDBRANCH   9  10
ENDBRANCH   8   9
ENDBRANCH   1   8
TORSDOF 9
ENDMDL
MODEL 4
REMARK VINA RESULT:    -4.179      1.346      4.194
REMARK INTER + INTRA:          -7.397
REMARK INTER:                  -6.506
REMARK INTRA:                  -0.890
REMARK UNBOUND:                -1.019
REMARK SMILES O=C([O-])CCCCCCCCC(=O)[O-]
REMARK SMILES IDX 7 1 6 2 5 3 4 4 2 5 1 6 3 7 8 8 9 9 10 10 11 11 12 12 13 13
REMARK SMILES IDX 14 14
REMARK H PARENT
REMARK Flexibility Score: inf
ROOT
ATOM      1  C   UNL     1       5.053   1.568  13.923  1.00  0.00     0.000 C 
ENDROOT
BRANCH   1   2
ATOM      2  C   UNL     1       4.136   2.403  14.836  1.00  0.00     0.000 C 
BRANCH   2   3
ATOM      3  C   UNL     1       2.879   1.635  15.279  1.00  0.00     0.006 C 
BRANCH   3   4
ATOM      4  C   UNL     1       2.513   0.510  14.301  1.00  0.00     0.053 C 
BRANCH   4   5
ATOM      5  C   UNL     1       1.589  -0.490  14.925  1.00  0.00     0.041 C 
ATOM      6  O   UNL     1       0.349  -0.274  14.959  1.00  0.00    -0.550 OA
ATOM      7  O   UNL     1       2.095  -1.675  15.443  1.00  0.00    -0.550 OA
ENDBRANCH   4   5
ENDBRANCH   3   4
ENDBRANCH   2   3
ENDBRANCH   1   2
BRANCH   1   8
ATOM      8  C   UNL     1       6.170   0.794  14.653  1.00  0.00     0.000 C 
BRANCH   8   9
ATOM      9  C   UNL     1       5.932  -0.722  14.797  1.00  0.00     0.000 C 
BRANCH   9  10
ATOM     10  C   UNL     1       5.532  -1.185  16.210  1.00  0.00     0.006 C 
BRANCH  10  11
ATOM     11  C   UNL     1       5.539  -0.043  17.234  1.00  0.00     0.053 C 
BRANCH  11  12
ATOM     12  C   UNL     1       5.621  -0.590  18.624  1.00  0.00     0.041 C 
ATOM     13  O   UNL     1       6.374  -1.567  18.877  1.00  0.00    -0.550 OA
ATOM     14  O   UNL     1       4.904   0.011  19.651  1.00  0.00    -0.550 OA
ENDBRANCH  11  12
ENDBRANCH  10  11
ENDBRANCH   9  10
ENDBRANCH   8   9
ENDBRANCH   1   8
TORSDOF 9
ENDMDL
MODEL 5
REMARK VINA RESULT:    -4.153      1.714      4.114
REMARK INTER + INTRA:          -7.357
REMARK INTER:                  -6.571
REMARK INTRA:                  -0.787
REMARK UNBOUND:                -1.019
REMARK SMILES O=C([O-])CCCCCCCCC(=O)[O-]
REMARK SMILES IDX 7 1 6 2 5 3 4 4 2 5 1 6 3 7 8 8 9 9 10 10 11 11 12 12 13 13
REMARK SMILES IDX 14 14
REMARK H PARENT
REMARK Flexibility Score: inf
ROOT
ATOM      1  C   UNL     1       6.063   1.271  12.996  1.00  0.00     0.000 C 
ENDROOT
BRANCH   1   2
ATOM      2  C   UNL     1       4.593   1.713  13.120  1.00  0.00     0.000 C 
BRANCH   2   3
ATOM      3  C   UNL     1       4.447   3.149  13.653  1.00  0.00     0.006 C 
BRANCH   3   4
ATOM      4  C   UNL     1       3.302   3.275  14.668  1.00  0.00     0.053 C 
BRANCH   4   5
ATOM      5  C   UNL     1       3.408   2.248  15.754  1.00  0.00     0.041 C 
ATOM      6  O   UNL     1       4.344   2.307  16.594  1.00  0.00    -0.550 OA
ATOM      7  O   UNL     1       2.455   1.242  15.855  1.00  0.00    -0.550 OA
ENDBRANCH   4   5
ENDBRANCH   3   4
ENDBRANCH   2   3
ENDBRANCH   1   2
BRANCH   1   8
ATOM      8  C   UNL     1       6.534   0.264  14.066  1.00  0.00     0.000 C 
BRANCH   8   9
ATOM      9  C   UNL     1       5.451  -0.708  14.574  1.00  0.00     0.000 C 
BRANCH   9  10
ATOM     10  C   UNL     1       5.803  -1.448  15.877  1.00  0.00     0.006 C 
BRANCH  10  11
ATOM     11  C   UNL     1       4.752  -1.249  16.977  1.00  0.00     0.053 C 
BRANCH  11  12
ATOM     12  C   UNL     1       5.416  -0.950  18.284  1.00  0.00     0.041 C 
ATOM     13  O   UNL     1       5.104   0.084  18.931  1.00  0.00    -0.550 OA
ATOM     14  O   UNL     1       6.344  -1.840  18.812  1.00  0.00    -0.550 OA
ENDBRANCH  11  12
ENDBRANCH  10  11
ENDBRANCH   9  10
ENDBRANCH   8   9
ENDBRANCH   1   8
TORSDOF 9
ENDMDL
MODEL 6
REMARK VINA RESULT:    -4.131      0.686      4.124
REMARK INTER + INTRA:          -7.324
REMARK INTER:                  -6.248
REMARK INTRA:                  -1.076
REMARK UNBOUND:                -1.019
REMARK SMILES O=C([O-])CCCCCCCCC(=O)[O-]
REMARK SMILES IDX 7 1 6 2 5 3 4 4 2 5 1 6 3 7 8 8 9 9 10 10 11 11 12 12 13 13
REMARK SMILES IDX 14 14
REMARK H PARENT
REMARK Flexibility Score: inf
ROOT
ATOM      1  C   UNL     1       4.463   1.907  13.479  1.00  0.00     0.000 C 
ENDROOT
BRANCH   1   2
ATOM      2  C   UNL     1       5.188   0.568  13.246  1.00  0.00     0.000 C 
BRANCH   2   3
ATOM      3  C   UNL     1       4.335  -0.648  13.648  1.00  0.00     0.006 C 
BRANCH   3   4
ATOM      4  C   UNL     1       2.833  -0.336  13.616  1.00  0.00     0.053 C 
BRANCH   4   5
ATOM      5  C   UNL     1       2.143  -0.799  14.863  1.00  0.00     0.041 C 
ATOM      6  O   UNL     1       2.752  -1.524  15.693  1.00  0.00    -0.550 OA
ATOM      7  O   UNL     1       0.836  -0.407  15.122  1.00  0.00    -0.550 OA
ENDBRANCH   4   5
ENDBRANCH   3   4
ENDBRANCH   2   3
ENDBRANCH   1   2
BRANCH   1   8
ATOM      8  C   UNL     1       4.788   2.600  14.818  1.00  0.00     0.000 C 
BRANCH   8   9
ATOM      9  C   UNL     1       3.708   2.457  15.909  1.00  0.00     0.000 C 
BRANCH   9  10
ATOM     10  C   UNL     1       4.122   1.607  17.124  1.00  0.00     0.006 C 
BRANCH  10  11
ATOM     11  C   UNL     1       5.456   0.880  16.914  1.00  0.00     0.053 C 
BRANCH  11  12
ATOM     12  C   UNL     1       5.528  -0.338  17.781  1.00  0.00     0.041 C 
ATOM     13  O   UNL     1       5.278  -0.255  19.012  1.00  0.00    -0.550 OA
ATOM     14  O   UNL     1       5.823  -1.574  17.220  1.00  0.00    -0.550 OA
ENDBRANCH  11  12
ENDBRANCH  10  11
ENDBRANCH   9  10
ENDBRANCH   8   9
ENDBRANCH   1   8
TORSDOF 9
ENDMDL
MODEL 7
REMARK VINA RESULT:    -4.074      1.577      2.449
REMARK INTER + INTRA:          -7.237
REMARK INTER:                  -6.271
REMARK INTRA:                  -0.966
REMARK UNBOUND:                -1.019
REMARK SMILES O=C([O-])CCCCCCCCC(=O)[O-]
REMARK SMILES IDX 7 1 6 2 5 3 4 4 2 5 1 6 3 7 8 8 9 9 10 10 11 11 12 12 13 13
REMARK SMILES IDX 14 14
REMARK H PARENT
REMARK Flexibility Score: inf
ROOT
ATOM      1  C   UNL     1       6.249   0.454  14.351  1.00  0.00     0.000 C 
ENDROOT
BRANCH   1   2
ATOM      2  C   UNL     1       5.998  -1.064  14.302  1.00  0.00     0.000 C 
BRANCH   2   3
ATOM      3  C   UNL     1       6.174  -1.742  15.672  1.00  0.00     0.006 C 
BRANCH   3   4
ATOM      4  C   UNL     1       5.055  -1.362  16.652  1.00  0.00     0.053 C 
BRANCH   4   5
ATOM      5  C   UNL     1       5.584  -0.606  17.832  1.00  0.00     0.041 C 
ATOM      6  O   UNL     1       5.427   0.641  17.909  1.00  0.00    -0.550 OA
ATOM      7  O   UNL     1       6.226  -1.283  18.861  1.00  0.00    -0.550 OA
ENDBRANCH   4   5
ENDBRANCH   3   4
ENDBRANCH   2   3
ENDBRANCH   1   2
BRANCH   1   8
ATOM      8  C   UNL     1       5.092   1.324  13.818  1.00  0.00     0.000 C 
BRANCH   8   9
ATOM      9  C   UNL     1       4.240   2.017  14.899  1.00  0.00     0.000 C 
BRANCH   9  10
ATOM     10  C   UNL     1       2.872   1.363  15.165  1.00  0.00     0.006 C 
BRANCH  10  11
ATOM     11  C   UNL     1       2.593   0.170  14.241  1.00  0.00     0.053 C 
BRANCH  11  12
ATOM     12  C   UNL     1       1.568  -0.733  14.851  1.00  0.00     0.041 C 
ATOM     13  O   UNL     1       1.858  -1.928  15.122  1.00  0.00    -0.550 OA
ATOM     14  O   UNL     1       0.308  -0.241  15.167  1.00  0.00    -0.550 OA
ENDBRANCH  11  12
ENDBRANCH  10  11
ENDBRANCH   9  10
ENDBRANCH   8   9
ENDBRANCH   1   8
TORSDOF 9
ENDMDL
MODEL 8
REMARK VINA RESULT:    -4.064      2.047      3.268
REMARK INTER + INTRA:          -7.221
REMARK INTER:                  -6.199
REMARK INTRA:                  -1.023
REMARK UNBOUND:                -1.019
REMARK SMILES O=C([O-])CCCCCCCCC(=O)[O-]
REMARK SMILES IDX 7 1 6 2 5 3 4 4 2 5 1 6 3 7 8 8 9 9 10 10 11 11 12 12 13 13
REMARK SMILES IDX 14 14
REMARK H PARENT
REMARK Flexibility Score: inf
ROOT
ATOM      1  C   UNL     1       4.963  -0.768  13.536  1.00  0.00     0.000 C 
ENDROOT
BRANCH   1   2
ATOM      2  C   UNL     1       4.779  -1.777  14.684  1.00  0.00     0.000 C 
BRANCH   2   3
ATOM      3  C   UNL     1       5.568  -1.392  15.947  1.00  0.00     0.006 C 
BRANCH   3   4
ATOM      4  C   UNL     1       4.684  -1.392  17.202  1.00  0.00     0.053 C 
BRANCH   4   5
ATOM      5  C   UNL     1       5.465  -1.046  18.432  1.00  0.00     0.041 C 
ATOM      6  O   UNL     1       5.154  -0.038  19.119  1.00  0.00    -0.550 OA
ATOM      7  O   UNL     1       6.521  -1.853  18.835  1.00  0.00    -0.550 OA
ENDBRANCH   4   5
ENDBRANCH   3   4
ENDBRANCH   2   3
ENDBRANCH   1   2
BRANCH   1   8
ATOM      8  C   UNL     1       3.728   0.106  13.231  1.00  0.00     0.000 C 
BRANCH   8   9
ATOM      9  C   UNL     1       2.452  -0.269  14.010  1.00  0.00     0.000 C 
BRANCH   9  10
ATOM     10  C   UNL     1       2.106   0.671  15.180  1.00  0.00     0.006 C 
BRANCH  10  11
ATOM     11  C   UNL     1       2.881   1.994  15.128  1.00  0.00     0.053 C 
BRANCH  11  12
ATOM     12  C   UNL     1       3.908   2.039  16.216  1.00  0.00     0.041 C 
ATOM     13  O   UNL     1       3.552   2.038  17.424  1.00  0.00    -0.550 OA
ATOM     14  O   UNL     1       5.260   2.033  15.896  1.00  0.00    -0.550 OA
ENDBRANCH  11  12
ENDBRANCH  10  11
ENDBRANCH   9  10
ENDBRANCH   8   9
ENDBRANCH   1   8
TORSDOF 9
ENDMDL
MODEL 9
REMARK VINA RESULT:    -4.039      2.550      3.855
REMARK INTER + INTRA:          -7.183
REMARK INTER:                  -6.192
REMARK INTRA:                  -0.991
REMARK UNBOUND:                -1.019
REMARK SMILES O=C([O-])CCCCCCCCC(=O)[O-]
REMARK SMILES IDX 7 1 6 2 5 3 4 4 2 5 1 6 3 7 8 8 9 9 10 10 11 11 12 12 13 13
REMARK SMILES IDX 14 14
REMARK H PARENT
REMARK Flexibility Score: inf
ROOT
ATOM      1  C   UNL     1       5.539   0.452  17.640  1.00  0.00     0.000 C 
ENDROOT
BRANCH   1   2
ATOM      2  C   UNL     1       4.384   1.413  17.975  1.00  0.00     0.000 C 
BRANCH   2   3
ATOM      3  C   UNL     1       3.700   1.982  16.720  1.00  0.00     0.006 C 
BRANCH   3   4
ATOM      4  C   UNL     1       4.717   2.425  15.659  1.00  0.00     0.053 C 
BRANCH   4   5
ATOM      5  C   UNL     1       4.050   3.093  14.495  1.00  0.00     0.041 C 
ATOM      6  O   UNL     1       4.470   2.897  13.325  1.00  0.00    -0.550 OA
ATOM      7  O   UNL     1       2.946   3.910  14.702  1.00  0.00    -0.550 OA
ENDBRANCH   4   5
ENDBRANCH   3   4
ENDBRANCH   2   3
ENDBRANCH   1   2
BRANCH   1   8
ATOM      8  C   UNL     1       5.106  -0.969  17.223  1.00  0.00     0.000 C 
BRANCH   8   9
ATOM      9  C   UNL     1       5.510  -1.384  15.794  1.00  0.00     0.000 C 
BRANCH   9  10
ATOM     10  C   UNL     1       4.333  -1.715  14.857  1.00  0.00     0.006 C 
BRANCH  10  11
ATOM     11  C   UNL     1       2.967  -1.460  15.507  1.00  0.00     0.053 C 
BRANCH  11  12
ATOM     12  C   UNL     1       2.124  -0.594  14.625  1.00  0.00     0.041 C 
ATOM     13  O   UNL     1       2.632  -0.027  13.622  1.00  0.00    -0.550 OA
ATOM     14  O   UNL     1       0.766  -0.452  14.882  1.00  0.00    -0.550 OA
ENDBRANCH  11  12
ENDBRANCH  10  11
ENDBRANCH   9  10
ENDBRANCH   8   9
ENDBRANCH   1   8
TORSDOF 9
ENDMDL
