MODEL 1
REMARK VINA RESULT:    -2.832      0.000      0.000
REMARK INTER + INTRA:          -4.884
REMARK INTER:                  -4.322
REMARK INTRA:                  -0.562
REMARK UNBOUND:                -0.562
REMARK SMILES O=C([O-])CCCCCCCCC(=O)[O-]
REMARK SMILES IDX 7 1 6 2 5 3 4 4 2 5 1 6 3 7 8 8 9 9 10 10 11 11 12 12 13 13
REMARK SMILES IDX 14 14
REMARK H PARENT
REMARK Flexibility Score: inf
ROOT
ATOM      1  C   UNL     1      -6.691  40.344  18.475  1.00  0.00     0.000 C 
ENDROOT
BRANCH   1   2
ATOM      2  C   UNL     1      -7.290  40.749  17.117  1.00  0.00     0.000 C 
BRANCH   2   3
ATOM      3  C   UNL     1      -8.733  40.252  16.934  1.00  0.00     0.006 C 
BRANCH   3   4
ATOM      4  C   UNL     1      -9.060  40.060  15.449  1.00  0.00     0.053 C 
BRANCH   4   5
ATOM      5  C   UNL     1     -10.504  40.351  15.189  1.00  0.00     0.041 C 
ATOM      6  O   UNL     1     -10.838  41.090  14.226  1.00  0.00    -0.550 OA
ATOM      7  O   UNL     1     -11.479  39.847  16.040  1.00  0.00    -0.550 OA
ENDBRANCH   4   5
ENDBRANCH   3   4
ENDBRANCH   2   3
ENDBRANCH   1   2
BRANCH   1   8
ATOM      8  C   UNL     1      -7.601  39.381  19.257  1.00  0.00     0.000 C 
BRANCH   8   9
ATOM      9  C   UNL     1      -8.088  39.970  20.594  1.00  0.00     0.000 C 
BRANCH   9  10
ATOM     10  C   UNL     1      -9.505  39.542  21.019  1.00  0.00     0.006 C 
BRANCH  10  11
ATOM     11  C   UNL     1     -10.291  38.867  19.888  1.00  0.00     0.053 C 
BRANCH  11  12
ATOM     12  C   UNL     1     -11.424  38.065  20.447  1.00  0.00     0.041 C 
ATOM     13  O   UNL     1     -11.226  37.274  21.406  1.00  0.00    -0.550 OA
ATOM     14  O   UNL     1     -12.707  38.228  19.941  1.00  0.00    -0.550 OA
ENDBRANCH  11  12
ENDBRANCH  10  11
ENDBRANCH   9  10
ENDBRANCH   8   9
ENDBRANCH   1   8
TORSDOF 9
ENDMDL
MODEL 2
REMARK VINA RESULT:    -2.786      0.917      5.095
REMARK INTER + INTRA:          -4.813
REMARK INTER:                  -4.237
REMARK INTRA:                  -0.576
REMARK UNBOUND:                -0.562
REMARK SMILES O=C([O-])CCCCCCCCC(=O)[O-]
REMARK SMILES IDX 7 1 6 2 5 3 4 4 2 5 1 6 3 7 8 8 9 9 10 10 11 11 12 12 13 13
REMARK SMILES IDX 14 14
REMARK H PARENT
REMARK Flexibility Score: inf
ROOT
ATOM      1  C   UNL     1      -7.958  40.392  20.286  1.00  0.00     0.000 C 
ENDROOT
BRANCH   1   2
ATOM      2  C   UNL     1      -8.507  39.700  21.545  1.00  0.00     0.000 C 
BRANCH   2   3
ATOM      3  C   UNL     1     -10.043  39.706  21.602  1.00  0.00     0.006 C 
BRANCH   3   4
ATOM      4  C   UNL     1     -10.585  38.296  21.859  1.00  0.00     0.053 C 
BRANCH   4   5
ATOM      5  C   UNL     1     -11.442  37.848  20.717  1.00  0.00     0.041 C 
ATOM      6  O   UNL     1     -11.880  36.668  20.679  1.00  0.00    -0.550 OA
ATOM      7  O   UNL     1     -11.717  38.718  19.670  1.00  0.00    -0.550 OA
ENDBRANCH   4   5
ENDBRANCH   3   4
ENDBRANCH   2   3
ENDBRANCH   1   2
BRANCH   1   8
ATOM      8  C   UNL     1      -7.536  39.389  19.198  1.00  0.00     0.000 C 
BRANCH   8   9
ATOM      9  C   UNL     1      -8.607  39.203  18.107  1.00  0.00     0.000 C 
BRANCH   9  10
ATOM     10  C   UNL     1      -8.731  40.368  17.108  1.00  0.00     0.006 C 
BRANCH  10  11
ATOM     11  C   UNL     1      -9.168  39.913  15.709  1.00  0.00     0.053 C 
BRANCH  11  12
ATOM     12  C   UNL     1     -10.608  40.248  15.479  1.00  0.00     0.041 C 
ATOM     13  O   UNL     1     -10.983  40.702  14.366  1.00  0.00    -0.550 OA
ATOM     14  O   UNL     1     -11.545  40.015  16.478  1.00  0.00    -0.550 OA
ENDBRANCH  11  12
ENDBRANCH  10  11
ENDBRANCH   9  10
ENDBRANCH   8   9
ENDBRANCH   1   8
TORSDOF 9
ENDMDL
MODEL 3
REMARK VINA RESULT:    -2.771     23.998     25.016
REMARK INTER + INTRA:          -4.790
REMARK INTER:                  -3.866
REMARK INTRA:                  -0.924
REMARK UNBOUND:                -0.562
REMARK SMILES O=C([O-])CCCCCCCCC(=O)[O-]
REMARK SMILES IDX 7 1 6 2 5 3 4 4 2 5 1 6 3 7 8 8 9 9 10 10 11 11 12 12 13 13
REMARK SMILES IDX 14 14
REMARK H PARENT
REMARK Flexibility Score: inf
ROOT
ATOM      1  C   UNL     1       5.745  23.895   4.967  1.00  0.00     0.000 C 
ENDROOT
BRANCH   1   2
ATOM      2  C   UNL     1       6.122  24.757   6.185  1.00  0.00     0.000 C 
BRANCH   2   3
ATOM      3  C   UNL     1       6.164  23.949   7.492  1.00  0.00     0.006 C 
BRANCH   3   4
ATOM      4  C   UNL     1       6.497  22.479   7.215  1.00  0.00     0.053 C 
BRANCH   4   5
ATOM      5  C   UNL     1       6.016  21.613   8.336  1.00  0.00     0.041 C 
ATOM      6  O   UNL     1       4.821  21.217   8.363  1.00  0.00    -0.550 OA
ATOM      7  O   UNL     1       6.874  21.283   9.377  1.00  0.00    -0.550 OA
ENDBRANCH   4   5
ENDBRANCH   3   4
ENDBRANCH   2   3
ENDBRANCH   1   2
BRANCH   1   8
ATOM      8  C   UNL     1       4.458  24.380   4.278  1.00  0.00     0.000 C 
BRANCH   8   9
ATOM      9  C   UNL     1       3.393  23.274   4.152  1.00  0.00     0.000 C 
BRANCH   9  10
ATOM     10  C   UNL     1       3.226  22.382   5.396  1.00  0.00     0.006 C 
BRANCH  10  11
ATOM     11  C   UNL     1       2.436  23.064   6.521  1.00  0.00     0.053 C 
BRANCH  11  12
ATOM     12  C   UNL     1       1.014  22.597   6.515  1.00  0.00     0.041 C 
ATOM     13  O   UNL     1       0.606  21.801   7.401  1.00  0.00    -0.550 OA
ATOM     14  O   UNL     1       0.128  23.079   5.561  1.00  0.00    -0.550 OA
ENDBRANCH  11  12
ENDBRANCH  10  11
ENDBRANCH   9  10
ENDBRANCH   8   9
ENDBRANCH   1   8
TORSDOF 9
ENDMDL
MODEL 4
REMARK VINA RESULT:    -2.735     23.680     24.697
REMARK INTER + INTRA:          -4.736
REMARK INTER:                  -3.815
REMARK INTRA:                  -0.922
REMARK UNBOUND:                -0.562
REMARK SMILES O=C([O-])CCCCCCCCC(=O)[O-]
REMARK SMILES IDX 7 1 6 2 5 3 4 4 2 5 1 6 3 7 8 8 9 9 10 10 11 11 12 12 13 13
REMARK SMILES IDX 14 14
REMARK H PARENT
REMARK Flexibility Score: inf
ROOT
ATOM      1  C   UNL     1       5.407  23.648   7.426  1.00  0.00     0.000 C 
ENDROOT
BRANCH   1   2
ATOM      2  C   UNL     1       6.230  24.571   6.512  1.00  0.00     0.000 C 
BRANCH   2   3
ATOM      3  C   UNL     1       6.433  23.985   5.105  1.00  0.00     0.006 C 
BRANCH   3   4
ATOM      4  C   UNL     1       5.840  24.910   4.037  1.00  0.00     0.053 C 
BRANCH   4   5
ATOM      5  C   UNL     1       4.594  24.315   3.462  1.00  0.00     0.041 C 
ATOM      6  O   UNL     1       4.472  23.065   3.373  1.00  0.00    -0.550 OA
ATOM      7  O   UNL     1       3.588  25.142   2.978  1.00  0.00    -0.550 OA
ENDBRANCH   4   5
ENDBRANCH   3   4
ENDBRANCH   2   3
ENDBRANCH   1   2
BRANCH   1   8
ATOM      8  C   UNL     1       5.135  22.275   6.786  1.00  0.00     0.000 C 
BRANCH   8   9
ATOM      9  C   UNL     1       3.633  21.964   6.650  1.00  0.00     0.000 C 
BRANCH   9  10
ATOM     10  C   UNL     1       2.724  23.194   6.471  1.00  0.00     0.006 C 
BRANCH  10  11
ATOM     11  C   UNL     1       1.249  22.896   6.770  1.00  0.00     0.053 C 
BRANCH  11  12
ATOM     12  C   UNL     1       0.477  22.757   5.496  1.00  0.00     0.041 C 
ATOM     13  O   UNL     1      -0.772  22.601   5.526  1.00  0.00    -0.550 OA
ATOM     14  O   UNL     1       1.130  22.848   4.273  1.00  0.00    -0.550 OA
ENDBRANCH  11  12
ENDBRANCH  10  11
ENDBRANCH   9  10
ENDBRANCH   8   9
ENDBRANCH   1   8
TORSDOF 9
ENDMDL
MODEL 5
REMARK VINA RESULT:    -2.719     23.828     25.032
REMARK INTER + INTRA:          -4.712
REMARK INTER:                  -3.752
REMARK INTRA:                  -0.960
REMARK UNBOUND:                -0.562
REMARK SMILES O=C([O-])CCCCCCCCC(=O)[O-]
REMARK SMILES IDX 7 1 6 2 5 3 4 4 2 5 1 6 3 7 8 8 9 9 10 10 11 11 12 12 13 13
REMARK SMILES IDX 14 14
REMARK H PARENT
REMARK Flexibility Score: inf
ROOT
ATOM      1  C   UNL     1       5.018  23.488   7.321  1.00  0.00     0.000 C 
ENDROOT
BRANCH   1   2
ATOM      2  C   UNL     1       4.721  21.992   7.125  1.00  0.00     0.000 C 
BRANCH   2   3
ATOM      3  C   UNL     1       3.290  21.732   6.628  1.00  0.00     0.006 C 
BRANCH   3   4
ATOM      4  C   UNL     1       2.438  23.001   6.726  1.00  0.00     0.053 C 
BRANCH   4   5
ATOM      5  C   UNL     1       0.989  22.676   6.548  1.00  0.00     0.041 C 
ATOM      6  O   UNL     1       0.400  22.977   5.477  1.00  0.00    -0.550 OA
ATOM      7  O   UNL     1       0.276  22.086   7.584  1.00  0.00    -0.550 OA
ENDBRANCH   4   5
ENDBRANCH   3   4
ENDBRANCH   2   3
ENDBRANCH   1   2
BRANCH   1   8
ATOM      8  C   UNL     1       6.485  23.841   7.025  1.00  0.00     0.000 C 
BRANCH   8   9
ATOM      9  C   UNL     1       6.634  24.945   5.962  1.00  0.00     0.000 C 
BRANCH   9  10
ATOM     10  C   UNL     1       6.496  24.470   4.504  1.00  0.00     0.006 C 
BRANCH  10  11
ATOM     11  C   UNL     1       5.149  24.853   3.875  1.00  0.00     0.053 C 
BRANCH  11  12
ATOM     12  C   UNL     1       4.346  23.626   3.578  1.00  0.00     0.041 C 
ATOM     13  O   UNL     1       4.900  22.495   3.563  1.00  0.00    -0.550 OA
ATOM     14  O   UNL     1       2.977  23.725   3.366  1.00  0.00    -0.550 OA
ENDBRANCH  11  12
ENDBRANCH  10  11
ENDBRANCH   9  10
ENDBRANCH   8   9
ENDBRANCH   1   8
TORSDOF 9
ENDMDL
MODEL 6
REMARK VINA RESULT:    -2.698     23.602     24.575
REMARK INTER + INTRA:          -4.680
REMARK INTER:                  -3.712
REMARK INTRA:                  -0.968
REMARK UNBOUND:                -0.562
REMARK SMILES O=C([O-])CCCCCCCCC(=O)[O-]
REMARK SMILES IDX 7 1 6 2 5 3 4 4 2 5 1 6 3 7 8 8 9 9 10 10 11 11 12 12 13 13
REMARK SMILES IDX 14 14
REMARK H PARENT
REMARK Flexibility Score: inf
ROOT
ATOM      1  C   UNL     1       0.685  22.366   7.077  1.00  0.00     0.000 C 
ENDROOT
BRANCH   1   2
ATOM      2  C   UNL     1      -0.714  22.002   6.552  1.00  0.00     0.000 C 
BRANCH   2   3
ATOM      3  C   UNL     1      -0.792  22.010   5.017  1.00  0.00     0.006 C 
BRANCH   3   4
ATOM      4  C   UNL     1      -0.282  23.339   4.451  1.00  0.00     0.053 C 
BRANCH   4   5
ATOM      5  C   UNL     1       0.785  23.098   3.430  1.00  0.00     0.041 C 
ATOM      6  O   UNL     1       1.306  21.958   3.315  1.00  0.00    -0.550 OA
ATOM      7  O   UNL     1       1.239  24.146   2.639  1.00  0.00    -0.550 OA
ENDBRANCH   4   5
ENDBRANCH   3   4
ENDBRANCH   2   3
ENDBRANCH   1   2
BRANCH   1   8
ATOM      8  C   UNL     1       1.693  21.215   6.917  1.00  0.00     0.000 C 
BRANCH   8   9
ATOM      9  C   UNL     1       3.047  21.678   6.349  1.00  0.00     0.000 C 
BRANCH   9  10
ATOM     10  C   UNL     1       3.309  23.192   6.435  1.00  0.00     0.006 C 
BRANCH  10  11
ATOM     11  C   UNL     1       4.067  23.739   5.218  1.00  0.00     0.053 C 
BRANCH  11  12
ATOM     12  C   UNL     1       5.359  24.361   5.645  1.00  0.00     0.041 C 
ATOM     13  O   UNL     1       6.066  24.987   4.812  1.00  0.00    -0.550 OA
ATOM     14  O   UNL     1       5.760  24.290   6.972  1.00  0.00    -0.550 OA
ENDBRANCH  11  12
ENDBRANCH  10  11
ENDBRANCH   9  10
ENDBRANCH   8   9
ENDBRANCH   1   8
TORSDOF 9
ENDMDL
MODEL 7
REMARK VINA RESULT:    -2.630     23.525     24.490
REMARK INTER + INTRA:          -4.575
REMARK INTER:                  -3.691
REMARK INTRA:                  -0.884
REMARK UNBOUND:                -0.562
REMARK SMILES O=C([O-])CCCCCCCCC(=O)[O-]
REMARK SMILES IDX 7 1 6 2 5 3 4 4 2 5 1 6 3 7 8 8 9 9 10 10 11 11 12 12 13 13
REMARK SMILES IDX 14 14
REMARK H PARENT
REMARK Flexibility Score: inf
ROOT
ATOM      1  C   UNL     1       1.637  21.125   6.991  1.00  0.00     0.000 C 
ENDROOT
BRANCH   1   2
ATOM      2  C   UNL     1       2.904  21.635   6.283  1.00  0.00     0.000 C 
BRANCH   2   3
ATOM      3  C   UNL     1       3.087  23.155   6.419  1.00  0.00     0.006 C 
BRANCH   3   4
ATOM      4  C   UNL     1       4.553  23.506   6.689  1.00  0.00     0.053 C 
BRANCH   4   5
ATOM      5  C   UNL     1       5.103  24.350   5.583  1.00  0.00     0.041 C 
ATOM      6  O   UNL     1       6.235  24.890   5.701  1.00  0.00    -0.550 OA
ATOM      7  O   UNL     1       4.345  24.582   4.443  1.00  0.00    -0.550 OA
ENDBRANCH   4   5
ENDBRANCH   3   4
ENDBRANCH   2   3
ENDBRANCH   1   2
BRANCH   1   8
ATOM      8  C   UNL     1       0.606  22.241   7.231  1.00  0.00     0.000 C 
BRANCH   8   9
ATOM      9  C   UNL     1      -0.785  21.905   6.661  1.00  0.00     0.000 C 
BRANCH   9  10
ATOM     10  C   UNL     1      -0.914  22.035   5.132  1.00  0.00     0.006 C 
BRANCH  10  11
ATOM     11  C   UNL     1      -0.422  23.389   4.604  1.00  0.00     0.053 C 
BRANCH  11  12
ATOM     12  C   UNL     1       0.601  23.189   3.530  1.00  0.00     0.041 C 
ATOM     13  O   UNL     1       1.087  22.046   3.325  1.00  0.00    -0.550 OA
ATOM     14  O   UNL     1       0.982  24.254   2.725  1.00  0.00    -0.550 OA
ENDBRANCH  11  12
ENDBRANCH  10  11
ENDBRANCH   9  10
ENDBRANCH   8   9
ENDBRANCH   1   8
TORSDOF 9
ENDMDL
MODEL 8
REMARK VINA RESULT:    -2.573      1.433      5.128
REMARK INTER + INTRA:          -4.489
REMARK INTER:                  -3.975
REMARK INTRA:                  -0.514
REMARK UNBOUND:                -0.562
REMARK SMILES O=C([O-])CCCCCCCCC(=O)[O-]
REMARK SMILES IDX 7 1 6 2 5 3 4 4 2 5 1 6 3 7 8 8 9 9 10 10 11 11 12 12 13 13
REMARK SMILES IDX 14 14
REMARK H PARENT
REMARK Flexibility Score: inf
ROOT
ATOM      1  C   UNL     1      -7.887  40.673  21.901  1.00  0.00     0.000 C 
ENDROOT
BRANCH   1   2
ATOM      2  C   UNL     1      -8.627  39.331  22.031  1.00  0.00     0.000 C 
BRANCH   2   3
ATOM      3  C   UNL     1     -10.151  39.501  22.124  1.00  0.00     0.006 C 
BRANCH   3   4
ATOM      4  C   UNL     1     -10.860  38.147  22.016  1.00  0.00     0.053 C 
BRANCH   4   5
ATOM      5  C   UNL     1     -11.400  37.947  20.635  1.00  0.00     0.041 C 
ATOM      6  O   UNL     1     -11.270  38.850  19.767  1.00  0.00    -0.550 OA
ATOM      7  O   UNL     1     -12.092  36.784  20.321  1.00  0.00    -0.550 OA
ENDBRANCH   4   5
ENDBRANCH   3   4
ENDBRANCH   2   3
ENDBRANCH   1   2
BRANCH   1   8
ATOM      8  C   UNL     1      -7.467  40.976  20.452  1.00  0.00     0.000 C 
BRANCH   8   9
ATOM      9  C   UNL     1      -7.614  39.760  19.518  1.00  0.00     0.000 C 
BRANCH   9  10
ATOM     10  C   UNL     1      -7.661  40.092  18.016  1.00  0.00     0.006 C 
BRANCH  10  11
ATOM     11  C   UNL     1      -8.961  39.633  17.341  1.00  0.00     0.053 C 
BRANCH  11  12
ATOM     12  C   UNL     1      -9.034  40.155  15.941  1.00  0.00     0.041 C 
ATOM     13  O   UNL     1      -8.031  40.708  15.419  1.00  0.00    -0.550 OA
ATOM     14  O   UNL     1     -10.195  39.989  15.197  1.00  0.00    -0.550 OA
ENDBRANCH  11  12
ENDBRANCH  10  11
ENDBRANCH   9  10
ENDBRANCH   8   9
ENDBRANCH   1   8
TORSDOF 9
ENDMDL
