MODEL 1
REMARK VINA RESULT:    -6.634      0.000      0.000
REMARK INTER + INTRA:          -8.094
REMARK INTER:                  -7.797
REMARK INTRA:                  -0.297
REMARK UNBOUND:                -0.297
REMARK SMILES C=C(C)[C@@H]1CC[C@@]2(C(=O)[O-])CC[C@]3(C)[C@@H](CC[C@@H]4[C@]5(C)C[C@@H](O)[C@@H](O)C(C)(C)[C@@H]5CC[C@]43C)[C@@H]12
REMARK SMILES IDX 7 1 6 2 34 3 11 4 5 5 15 6 4 7 12 8 16 9 13 10 17 11 32 12
REMARK SMILES IDX 14 13 18 14 31 15 33 16 19 17 30 18 29 19 21 20 20 21 26 22
REMARK SMILES IDX 22 23 24 24 27 25 28 26 8 27 9 28 10 29 2 30 3 31 1 32 23 33
REMARK SMILES IDX 25 35
REMARK H PARENT 23 34 25 36
REMARK Flexibility Score: inf
ROOT
ATOM      1  C   UNL     1      61.977  -5.501   5.411  1.00  0.00     0.014 C 
ATOM      2  C   UNL     1      62.505  -6.875   5.860  1.00  0.00     0.014 C 
ATOM      3  C   UNL     1      60.740  -5.882   4.546  1.00  0.00     0.012 C 
ATOM      4  C   UNL     1      63.090  -4.747   4.600  1.00  0.00     0.014 C 
ATOM      5  C   UNL     1      62.318  -7.798   4.670  1.00  0.00     0.009 C 
ATOM      6  C   UNL     1      60.205  -4.741   3.589  1.00  0.00     0.000 C 
ATOM      7  C   UNL     1      61.120  -7.247   3.885  1.00  0.00     0.018 C 
ATOM      8  C   UNL     1      62.719  -4.420   3.144  1.00  0.00     0.008 C 
ATOM      9  C   UNL     1      59.189  -5.322   2.577  1.00  0.00     0.005 C 
ATOM     10  C   UNL     1      61.309  -3.764   2.989  1.00  0.00    -0.024 C 
ATOM     11  C   UNL     1      58.629  -4.351   1.529  1.00  0.00     0.005 C 
ATOM     12  C   UNL     1      61.017  -3.367   1.441  1.00  0.00    -0.024 C 
ATOM     13  C   UNL     1      61.330  -2.470   3.886  1.00  0.00     0.012 C 
ATOM     14  C   UNL     1      59.488  -3.086   1.241  1.00  0.00     0.002 C 
ATOM     15  C   UNL     1      61.767  -2.055   1.075  1.00  0.00     0.008 C 
ATOM     16  C   UNL     1      61.484  -4.502   0.471  1.00  0.00     0.012 C 
ATOM     17  C   UNL     1      59.004  -2.222  -0.050  1.00  0.00    -0.023 C 
ATOM     18  C   UNL     1      61.615  -1.685  -0.383  1.00  0.00     0.005 C 
ATOM     19  C   UNL     1      60.153  -1.361  -0.782  1.00  0.00     0.004 C 
ATOM     20  C   UNL     1      58.261  -3.106  -1.103  1.00  0.00     0.042 C 
ATOM     21  C   UNL     1      57.927  -1.240   0.524  1.00  0.00     0.012 C 
ATOM     22  C   UNL     1      60.039  -1.213  -2.369  1.00  0.00    -0.003 C 
ATOM     23  C   UNL     1      57.740  -2.390  -2.375  1.00  0.00     0.144 C 
ATOM     24  C   UNL     1      58.553  -1.147  -2.819  1.00  0.00     0.149 C 
ATOM     25  C   UNL     1      60.738  -2.366  -3.159  1.00  0.00     0.014 C 
ATOM     26  C   UNL     1      60.735   0.102  -2.822  1.00  0.00     0.014 C 
ENDROOT
BRANCH   1  27
ATOM     27  C   UNL     1      61.612  -4.707   6.657  1.00  0.00     0.048 C 
ATOM     28  O   UNL     1      61.354  -3.475   6.600  1.00  0.00    -0.550 OA
ATOM     29  O   UNL     1      61.565  -5.349   7.888  1.00  0.00    -0.550 OA
ENDBRANCH   1  27
BRANCH   7  30
ATOM     30  C   UNL     1      59.971  -8.256   3.867  1.00  0.00    -0.077 C 
ATOM     31  C   UNL     1      59.612  -9.016   2.614  1.00  0.00     0.039 C 
ATOM     32  C   UNL     1      59.205  -8.428   4.957  1.00  0.00     0.008 C 
ENDBRANCH   7  30
BRANCH  23  33
ATOM     33  O   UNL     1      56.383  -2.057  -2.209  1.00  0.00    -0.390 OA
ATOM     34  H   UNL     1      55.869  -2.906  -2.263  1.00  0.00     0.211 HD
ENDBRANCH  23  33
BRANCH  24  35
ATOM     35  O   UNL     1      57.944   0.039  -2.364  1.00  0.00    -0.390 OA
ATOM     36  H   UNL     1      57.646  -0.107  -1.429  1.00  0.00     0.211 HD
ENDBRANCH  24  35
TORSDOF 4
ENDMDL
MODEL 2
REMARK VINA RESULT:    -6.521      4.402      8.195
REMARK INTER + INTRA:          -7.962
REMARK INTER:                  -7.555
REMARK INTRA:                  -0.407
REMARK UNBOUND:                -0.297
REMARK SMILES C=C(C)[C@@H]1CC[C@@]2(C(=O)[O-])CC[C@]3(C)[C@@H](CC[C@@H]4[C@]5(C)C[C@@H](O)[C@@H](O)C(C)(C)[C@@H]5CC[C@]43C)[C@@H]12
REMARK SMILES IDX 7 1 6 2 34 3 11 4 5 5 15 6 4 7 12 8 16 9 13 10 17 11 32 12
REMARK SMILES IDX 14 13 18 14 31 15 33 16 19 17 30 18 29 19 21 20 20 21 26 22
REMARK SMILES IDX 22 23 24 24 27 25 28 26 8 27 9 28 10 29 2 30 3 31 1 32 23 33
REMARK SMILES IDX 25 35
REMARK H PARENT 23 34 25 36
REMARK Flexibility Score: inf
ROOT
ATOM      1  C   UNL     1      58.874  -1.199  -0.056  1.00  0.00     0.014 C 
ATOM      2  C   UNL     1      58.609   0.271   0.315  1.00  0.00     0.014 C 
ATOM      3  C   UNL     1      59.357  -1.092  -1.532  1.00  0.00     0.012 C 
ATOM      4  C   UNL     1      57.551  -2.029   0.102  1.00  0.00     0.014 C 
ATOM      5  C   UNL     1      58.014   0.909  -0.926  1.00  0.00     0.009 C 
ATOM      6  C   UNL     1      59.319  -2.442  -2.357  1.00  0.00     0.000 C 
ATOM      7  C   UNL     1      58.575   0.126  -2.121  1.00  0.00     0.018 C 
ATOM      8  C   UNL     1      57.036  -2.679  -1.193  1.00  0.00     0.008 C 
ATOM      9  C   UNL     1      59.524  -2.156  -3.863  1.00  0.00     0.005 C 
ATOM     10  C   UNL     1      58.140  -3.446  -1.990  1.00  0.00    -0.024 C 
ATOM     11  C   UNL     1      59.442  -3.360  -4.811  1.00  0.00     0.005 C 
ATOM     12  C   UNL     1      57.513  -4.178  -3.298  1.00  0.00    -0.024 C 
ATOM     13  C   UNL     1      58.728  -4.519  -0.999  1.00  0.00     0.012 C 
ATOM     14  C   UNL     1      58.662  -4.596  -4.278  1.00  0.00     0.002 C 
ATOM     15  C   UNL     1      56.779  -5.484  -2.880  1.00  0.00     0.008 C 
ATOM     16  C   UNL     1      56.497  -3.243  -4.034  1.00  0.00     0.012 C 
ATOM     17  C   UNL     1      58.371  -5.742  -5.396  1.00  0.00    -0.023 C 
ATOM     18  C   UNL     1      56.089  -6.160  -4.042  1.00  0.00     0.005 C 
ATOM     19  C   UNL     1      57.072  -6.658  -5.132  1.00  0.00     0.004 C 
ATOM     20  C   UNL     1      58.310  -5.151  -6.842  1.00  0.00     0.042 C 
ATOM     21  C   UNL     1      59.645  -6.652  -5.357  1.00  0.00     0.012 C 
ATOM     22  C   UNL     1      56.260  -7.144  -6.420  1.00  0.00    -0.003 C 
ATOM     23  C   UNL     1      58.049  -6.152  -7.997  1.00  0.00     0.144 C 
ATOM     24  C   UNL     1      57.215  -7.402  -7.618  1.00  0.00     0.149 C 
ATOM     25  C   UNL     1      55.158  -6.137  -6.883  1.00  0.00     0.014 C 
ATOM     26  C   UNL     1      55.521  -8.474  -6.102  1.00  0.00     0.014 C 
ENDROOT
BRANCH   1  27
ATOM     27  C   UNL     1      59.943  -1.737   0.884  1.00  0.00     0.048 C 
ATOM     28  O   UNL     1      61.169  -1.642   0.609  1.00  0.00    -0.550 OA
ATOM     29  O   UNL     1      59.564  -2.351   2.071  1.00  0.00    -0.550 OA
ENDBRANCH   1  27
BRANCH   7  30
ATOM     30  C   UNL     1      59.432   1.030  -3.009  1.00  0.00    -0.077 C 
ATOM     31  C   UNL     1      60.886   0.723  -3.272  1.00  0.00     0.039 C 
ATOM     32  C   UNL     1      58.920   2.165  -3.511  1.00  0.00     0.008 C 
ENDBRANCH   7  30
BRANCH  23  33
ATOM     33  O   UNL     1      59.273  -6.532  -8.577  1.00  0.00    -0.390 OA
ATOM     34  H   UNL     1      59.699  -7.178  -7.955  1.00  0.00     0.211 HD
ENDBRANCH  23  33
BRANCH  24  35
ATOM     35  O   UNL     1      58.054  -8.504  -7.361  1.00  0.00    -0.390 OA
ATOM     36  H   UNL     1      57.639  -9.045  -6.639  1.00  0.00     0.211 HD
ENDBRANCH  24  35
TORSDOF 4
ENDMDL
MODEL 3
REMARK VINA RESULT:    -6.075      6.755     10.291
REMARK INTER + INTRA:          -7.437
REMARK INTER:                  -6.857
REMARK INTRA:                  -0.580
REMARK UNBOUND:                -0.297
REMARK SMILES C=C(C)[C@@H]1CC[C@@]2(C(=O)[O-])CC[C@]3(C)[C@@H](CC[C@@H]4[C@]5(C)C[C@@H](O)[C@@H](O)C(C)(C)[C@@H]5CC[C@]43C)[C@@H]12
REMARK SMILES IDX 7 1 6 2 34 3 11 4 5 5 15 6 4 7 12 8 16 9 13 10 17 11 32 12
REMARK SMILES IDX 14 13 18 14 31 15 33 16 19 17 30 18 29 19 21 20 20 21 26 22
REMARK SMILES IDX 22 23 24 24 27 25 28 26 8 27 9 28 10 29 2 30 3 31 1 32 23 33
REMARK SMILES IDX 25 35
REMARK H PARENT 23 34 25 36
REMARK Flexibility Score: inf
ROOT
ATOM      1  C   UNL     1      58.111  -4.280  -4.017  1.00  0.00     0.014 C 
ATOM      2  C   UNL     1      59.449  -4.940  -3.640  1.00  0.00     0.014 C 
ATOM      3  C   UNL     1      57.074  -5.167  -3.269  1.00  0.00     0.012 C 
ATOM      4  C   UNL     1      57.932  -4.303  -5.577  1.00  0.00     0.014 C 
ATOM      5  C   UNL     1      59.182  -6.434  -3.627  1.00  0.00     0.009 C 
ATOM      6  C   UNL     1      55.579  -5.029  -3.766  1.00  0.00     0.000 C 
ATOM      7  C   UNL     1      57.698  -6.601  -3.274  1.00  0.00     0.018 C 
ATOM      8  C   UNL     1      56.711  -5.093  -6.075  1.00  0.00     0.008 C 
ATOM      9  C   UNL     1      54.708  -6.161  -3.170  1.00  0.00     0.005 C 
ATOM     10  C   UNL     1      55.388  -4.745  -5.320  1.00  0.00    -0.024 C 
ATOM     11  C   UNL     1      53.240  -6.208  -3.615  1.00  0.00     0.005 C 
ATOM     12  C   UNL     1      54.126  -5.550  -5.952  1.00  0.00    -0.024 C 
ATOM     13  C   UNL     1      55.183  -3.194  -5.493  1.00  0.00     0.012 C 
ATOM     14  C   UNL     1      52.912  -5.502  -4.962  1.00  0.00     0.002 C 
ATOM     15  C   UNL     1      53.661  -4.866  -7.269  1.00  0.00     0.008 C 
ATOM     16  C   UNL     1      54.504  -7.036  -6.263  1.00  0.00     0.012 C 
ATOM     17  C   UNL     1      51.415  -5.795  -5.530  1.00  0.00    -0.023 C 
ATOM     18  C   UNL     1      52.551  -5.626  -7.958  1.00  0.00     0.005 C 
ATOM     19  C   UNL     1      51.244  -5.686  -7.128  1.00  0.00     0.004 C 
ATOM     20  C   UNL     1      50.859  -7.169  -5.035  1.00  0.00     0.042 C 
ATOM     21  C   UNL     1      50.524  -4.700  -4.851  1.00  0.00     0.012 C 
ATOM     22  C   UNL     1      50.208  -6.694  -7.811  1.00  0.00    -0.003 C 
ATOM     23  C   UNL     1      49.432  -7.555  -5.502  1.00  0.00     0.144 C 
ATOM     24  C   UNL     1      49.001  -6.974  -6.873  1.00  0.00     0.149 C 
ATOM     25  C   UNL     1      50.840  -8.065  -8.215  1.00  0.00     0.014 C 
ATOM     26  C   UNL     1      49.659  -6.069  -9.125  1.00  0.00     0.014 C 
ENDROOT
BRANCH   1  27
ATOM     27  C   UNL     1      58.138  -2.843  -3.516  1.00  0.00     0.048 C 
ATOM     28  O   UNL     1      57.174  -2.354  -2.868  1.00  0.00    -0.550 OA
ATOM     29  O   UNL     1      59.244  -2.046  -3.782  1.00  0.00    -0.550 OA
ENDBRANCH   1  27
BRANCH   7  30
ATOM     30  C   UNL     1      57.535  -7.342  -1.946  1.00  0.00    -0.077 C 
ATOM     31  C   UNL     1      57.201  -8.813  -1.902  1.00  0.00     0.039 C 
ATOM     32  C   UNL     1      57.612  -6.672  -0.784  1.00  0.00     0.008 C 
ENDBRANCH   7  30
BRANCH  23  33
ATOM     33  O   UNL     1      48.499  -7.212  -4.506  1.00  0.00    -0.390 OA
ATOM     34  H   UNL     1      48.761  -6.318  -4.161  1.00  0.00     0.211 HD
ENDBRANCH  23  33
BRANCH  24  35
ATOM     35  O   UNL     1      48.220  -5.814  -6.703  1.00  0.00    -0.390 OA
ATOM     36  H   UNL     1      47.685  -5.679  -7.528  1.00  0.00     0.211 HD
ENDBRANCH  24  35
TORSDOF 4
ENDMDL
MODEL 4
REMARK VINA RESULT:    -5.986      4.302      9.651
REMARK INTER + INTRA:          -7.333
REMARK INTER:                  -6.625
REMARK INTRA:                  -0.708
REMARK UNBOUND:                -0.297
REMARK SMILES C=C(C)[C@@H]1CC[C@@]2(C(=O)[O-])CC[C@]3(C)[C@@H](CC[C@@H]4[C@]5(C)C[C@@H](O)[C@@H](O)C(C)(C)[C@@H]5CC[C@]43C)[C@@H]12
REMARK SMILES IDX 7 1 6 2 34 3 11 4 5 5 15 6 4 7 12 8 16 9 13 10 17 11 32 12
REMARK SMILES IDX 14 13 18 14 31 15 33 16 19 17 30 18 29 19 21 20 20 21 26 22
REMARK SMILES IDX 22 23 24 24 27 25 28 26 8 27 9 28 10 29 2 30 3 31 1 32 23 33
REMARK SMILES IDX 25 35
REMARK H PARENT 23 34 25 36
REMARK Flexibility Score: inf
ROOT
ATOM      1  C   UNL     1      56.549  -5.443  -7.446  1.00  0.00     0.014 C 
ATOM      2  C   UNL     1      56.779  -6.571  -8.467  1.00  0.00     0.014 C 
ATOM      3  C   UNL     1      57.987  -4.894  -7.219  1.00  0.00     0.012 C 
ATOM      4  C   UNL     1      55.900  -6.035  -6.144  1.00  0.00     0.014 C 
ATOM      5  C   UNL     1      58.087  -7.228  -8.067  1.00  0.00     0.009 C 
ATOM      6  C   UNL     1      58.177  -4.008  -5.922  1.00  0.00     0.000 C 
ATOM      7  C   UNL     1      58.919  -6.140  -7.374  1.00  0.00     0.018 C 
ATOM      8  C   UNL     1      56.741  -5.865  -4.868  1.00  0.00     0.008 C 
ATOM      9  C   UNL     1      59.682  -3.781  -5.644  1.00  0.00     0.005 C 
ATOM     10  C   UNL     1      57.288  -4.415  -4.667  1.00  0.00    -0.024 C 
ATOM     11  C   UNL     1      60.037  -2.995  -4.374  1.00  0.00     0.005 C 
ATOM     12  C   UNL     1      58.093  -4.285  -3.262  1.00  0.00    -0.024 C 
ATOM     13  C   UNL     1      56.027  -3.472  -4.658  1.00  0.00     0.012 C 
ATOM     14  C   UNL     1      58.952  -2.975  -3.259  1.00  0.00     0.002 C 
ATOM     15  C   UNL     1      57.090  -4.168  -2.079  1.00  0.00     0.008 C 
ATOM     16  C   UNL     1      59.012  -5.528  -3.022  1.00  0.00     0.012 C 
ATOM     17  C   UNL     1      59.459  -2.364  -1.838  1.00  0.00    -0.023 C 
ATOM     18  C   UNL     1      57.777  -4.144  -0.734  1.00  0.00     0.005 C 
ATOM     19  C   UNL     1      58.683  -2.902  -0.532  1.00  0.00     0.004 C 
ATOM     20  C   UNL     1      61.000  -2.536  -1.640  1.00  0.00     0.042 C 
ATOM     21  C   UNL     1      59.212  -0.822  -1.970  1.00  0.00     0.012 C 
ATOM     22  C   UNL     1      59.547  -3.067   0.802  1.00  0.00    -0.003 C 
ATOM     23  C   UNL     1      61.603  -1.980  -0.325  1.00  0.00     0.144 C 
ATOM     24  C   UNL     1      60.645  -1.971   0.894  1.00  0.00     0.149 C 
ATOM     25  C   UNL     1      60.239  -4.461   0.934  1.00  0.00     0.014 C 
ATOM     26  C   UNL     1      58.624  -2.925   2.044  1.00  0.00     0.014 C 
ENDROOT
BRANCH   1  27
ATOM     27  C   UNL     1      55.613  -4.422  -8.077  1.00  0.00     0.048 C 
ATOM     28  O   UNL     1      55.989  -3.683  -9.026  1.00  0.00    -0.550 OA
ATOM     29  O   UNL     1      54.316  -4.294  -7.597  1.00  0.00    -0.550 OA
ENDBRANCH   1  27
BRANCH   7  30
ATOM     30  C   UNL     1      60.198  -5.850  -8.161  1.00  0.00    -0.077 C 
ATOM     31  C   UNL     1      60.283  -4.692  -9.125  1.00  0.00     0.039 C 
ATOM     32  C   UNL     1      61.252  -6.676  -8.065  1.00  0.00     0.008 C 
ENDBRANCH   7  30
BRANCH  23  33
ATOM     33  O   UNL     1      62.126  -0.694  -0.551  1.00  0.00    -0.390 OA
ATOM     34  H   UNL     1      62.951  -0.809  -1.092  1.00  0.00     0.211 HD
ENDBRANCH  23  33
BRANCH  24  35
ATOM     35  O   UNL     1      60.068  -0.697   1.068  1.00  0.00    -0.390 OA
ATOM     36  H   UNL     1      60.440  -0.093   0.373  1.00  0.00     0.211 HD
ENDBRANCH  24  35
TORSDOF 4
ENDMDL
MODEL 5
REMARK VINA RESULT:    -5.929      3.810      6.454
REMARK INTER + INTRA:          -7.265
REMARK INTER:                  -6.533
REMARK INTRA:                  -0.731
REMARK UNBOUND:                -0.297
REMARK SMILES C=C(C)[C@@H]1CC[C@@]2(C(=O)[O-])CC[C@]3(C)[C@@H](CC[C@@H]4[C@]5(C)C[C@@H](O)[C@@H](O)C(C)(C)[C@@H]5CC[C@]43C)[C@@H]12
REMARK SMILES IDX 7 1 6 2 34 3 11 4 5 5 15 6 4 7 12 8 16 9 13 10 17 11 32 12
REMARK SMILES IDX 14 13 18 14 31 15 33 16 19 17 30 18 29 19 21 20 20 21 26 22
REMARK SMILES IDX 22 23 24 24 27 25 28 26 8 27 9 28 10 29 2 30 3 31 1 32 23 33
REMARK SMILES IDX 25 35
REMARK H PARENT 23 34 25 36
REMARK Flexibility Score: inf
ROOT
ATOM      1  C   UNL     1      58.515  -2.133   0.702  1.00  0.00     0.014 C 
ATOM      2  C   UNL     1      58.888  -2.541   2.138  1.00  0.00     0.014 C 
ATOM      3  C   UNL     1      57.685  -3.354   0.209  1.00  0.00     0.012 C 
ATOM      4  C   UNL     1      59.821  -1.896  -0.136  1.00  0.00     0.014 C 
ATOM      5  C   UNL     1      59.171  -4.031   2.083  1.00  0.00     0.009 C 
ATOM      6  C   UNL     1      57.495  -3.458  -1.358  1.00  0.00     0.000 C 
ATOM      7  C   UNL     1      58.319  -4.586   0.934  1.00  0.00     0.018 C 
ATOM      8  C   UNL     1      59.989  -2.826  -1.349  1.00  0.00     0.008 C 
ATOM      9  C   UNL     1      56.930  -4.846  -1.740  1.00  0.00     0.005 C 
ATOM     10  C   UNL     1      58.710  -2.931  -2.240  1.00  0.00    -0.024 C 
ATOM     11  C   UNL     1      56.754  -5.131  -3.238  1.00  0.00     0.005 C 
ATOM     12  C   UNL     1      58.982  -3.858  -3.546  1.00  0.00    -0.024 C 
ATOM     13  C   UNL     1      58.366  -1.459  -2.683  1.00  0.00     0.012 C 
ATOM     14  C   UNL     1      57.620  -4.269  -4.202  1.00  0.00     0.002 C 
ATOM     15  C   UNL     1      59.773  -3.054  -4.617  1.00  0.00     0.008 C 
ATOM     16  C   UNL     1      59.802  -5.136  -3.168  1.00  0.00     0.012 C 
ATOM     17  C   UNL     1      57.606  -4.773  -5.750  1.00  0.00    -0.023 C 
ATOM     18  C   UNL     1      60.144  -3.894  -5.818  1.00  0.00     0.005 C 
ATOM     19  C   UNL     1      58.914  -4.399  -6.614  1.00  0.00     0.004 C 
ATOM     20  C   UNL     1      57.319  -6.304  -5.867  1.00  0.00     0.042 C 
ATOM     21  C   UNL     1      56.365  -4.053  -6.378  1.00  0.00     0.012 C 
ATOM     22  C   UNL     1      59.375  -5.462  -7.716  1.00  0.00    -0.003 C 
ATOM     23  C   UNL     1      57.270  -6.899  -7.298  1.00  0.00     0.144 C 
ATOM     24  C   UNL     1      58.149  -6.176  -8.350  1.00  0.00     0.149 C 
ATOM     25  C   UNL     1      60.346  -6.555  -7.166  1.00  0.00     0.014 C 
ATOM     26  C   UNL     1      60.146  -4.734  -8.853  1.00  0.00     0.014 C 
ENDROOT
BRANCH   1  27
ATOM     27  C   UNL     1      57.701  -0.849   0.774  1.00  0.00     0.048 C 
ATOM     28  O   UNL     1      56.531  -0.837   1.242  1.00  0.00    -0.550 OA
ATOM     29  O   UNL     1      58.254   0.338   0.310  1.00  0.00    -0.550 OA
ENDBRANCH   1  27
BRANCH   7  30
ATOM     30  C   UNL     1      57.286  -5.585   1.456  1.00  0.00    -0.077 C 
ATOM     31  C   UNL     1      55.929  -5.133   1.938  1.00  0.00     0.039 C 
ATOM     32  C   UNL     1      57.600  -6.886   1.570  1.00  0.00     0.008 C 
ENDBRANCH   7  30
BRANCH  23  33
ATOM     33  O   UNL     1      55.934  -6.968  -7.735  1.00  0.00    -0.390 OA
ATOM     34  H   UNL     1      55.568  -7.831  -7.408  1.00  0.00     0.211 HD
ENDBRANCH  23  33
BRANCH  24  35
ATOM     35  O   UNL     1      57.381  -5.272  -9.110  1.00  0.00    -0.390 OA
ATOM     36  H   UNL     1      57.041  -5.753  -9.909  1.00  0.00     0.211 HD
ENDBRANCH  24  35
TORSDOF 4
ENDMDL
MODEL 6
REMARK VINA RESULT:    -5.755      4.850      9.740
REMARK INTER + INTRA:          -7.061
REMARK INTER:                  -6.333
REMARK INTRA:                  -0.727
REMARK UNBOUND:                -0.297
REMARK SMILES C=C(C)[C@@H]1CC[C@@]2(C(=O)[O-])CC[C@]3(C)[C@@H](CC[C@@H]4[C@]5(C)C[C@@H](O)[C@@H](O)C(C)(C)[C@@H]5CC[C@]43C)[C@@H]12
REMARK SMILES IDX 7 1 6 2 34 3 11 4 5 5 15 6 4 7 12 8 16 9 13 10 17 11 32 12
REMARK SMILES IDX 14 13 18 14 31 15 33 16 19 17 30 18 29 19 21 20 20 21 26 22
REMARK SMILES IDX 22 23 24 24 27 25 28 26 8 27 9 28 10 29 2 30 3 31 1 32 23 33
REMARK SMILES IDX 25 35
REMARK H PARENT 23 34 25 36
REMARK Flexibility Score: inf
ROOT
ATOM      1  C   UNL     1      53.448  -6.956  -5.423  1.00  0.00     0.014 C 
ATOM      2  C   UNL     1      53.018  -7.481  -6.804  1.00  0.00     0.014 C 
ATOM      3  C   UNL     1      53.863  -5.489  -5.734  1.00  0.00     0.012 C 
ATOM      4  C   UNL     1      54.631  -7.829  -4.871  1.00  0.00     0.014 C 
ATOM      5  C   UNL     1      53.986  -6.868  -7.799  1.00  0.00     0.009 C 
ATOM      6  C   UNL     1      54.746  -4.785  -4.627  1.00  0.00     0.000 C 
ATOM      7  C   UNL     1      54.444  -5.537  -7.185  1.00  0.00     0.018 C 
ATOM      8  C   UNL     1      55.942  -7.063  -4.630  1.00  0.00     0.008 C 
ATOM      9  C   UNL     1      55.343  -3.466  -5.174  1.00  0.00     0.005 C 
ATOM     10  C   UNL     1      55.751  -5.731  -3.836  1.00  0.00    -0.024 C 
ATOM     11  C   UNL     1      56.285  -2.696  -4.239  1.00  0.00     0.005 C 
ATOM     12  C   UNL     1      57.181  -5.018  -3.541  1.00  0.00    -0.024 C 
ATOM     13  C   UNL     1      55.055  -6.128  -2.480  1.00  0.00     0.012 C 
ATOM     14  C   UNL     1      56.955  -3.529  -3.108  1.00  0.00     0.002 C 
ATOM     15  C   UNL     1      57.900  -5.726  -2.358  1.00  0.00     0.008 C 
ATOM     16  C   UNL     1      58.108  -5.074  -4.801  1.00  0.00     0.012 C 
ATOM     17  C   UNL     1      58.139  -2.748  -2.309  1.00  0.00    -0.023 C 
ATOM     18  C   UNL     1      59.281  -5.171  -2.100  1.00  0.00     0.005 C 
ATOM     19  C   UNL     1      59.269  -3.688  -1.649  1.00  0.00     0.004 C 
ATOM     20  C   UNL     1      58.819  -1.651  -3.190  1.00  0.00     0.042 C 
ATOM     21  C   UNL     1      57.392  -1.981  -1.166  1.00  0.00     0.012 C 
ATOM     22  C   UNL     1      60.760  -3.112  -1.624  1.00  0.00    -0.003 C 
ATOM     23  C   UNL     1      59.957  -0.830  -2.531  1.00  0.00     0.144 C 
ATOM     24  C   UNL     1      60.760  -1.570  -1.431  1.00  0.00     0.149 C 
ATOM     25  C   UNL     1      61.581  -3.441  -2.912  1.00  0.00     0.014 C 
ATOM     26  C   UNL     1      61.545  -3.743  -0.440  1.00  0.00     0.014 C 
ENDROOT
BRANCH   1  27
ATOM     27  C   UNL     1      52.250  -7.052  -4.490  1.00  0.00     0.048 C 
ATOM     28  O   UNL     1      52.186  -7.931  -3.589  1.00  0.00    -0.550 OA
ATOM     29  O   UNL     1      51.198  -6.156  -4.632  1.00  0.00    -0.550 OA
ENDBRANCH   1  27
BRANCH   7  30
ATOM     30  C   UNL     1      54.009  -4.359  -8.057  1.00  0.00    -0.077 C 
ATOM     31  C   UNL     1      55.010  -3.558  -8.853  1.00  0.00     0.039 C 
ATOM     32  C   UNL     1      52.725  -3.964  -8.067  1.00  0.00     0.008 C 
ENDBRANCH   7  30
BRANCH  23  33
ATOM     33  O   UNL     1      59.440   0.380  -2.035  1.00  0.00    -0.390 OA
ATOM     34  H   UNL     1      59.842   1.109  -2.577  1.00  0.00     0.211 HD
ENDBRANCH  23  33
BRANCH  24  35
ATOM     35  O   UNL     1      60.286  -1.227  -0.149  1.00  0.00    -0.390 OA
ATOM     36  H   UNL     1      60.059  -0.260  -0.153  1.00  0.00     0.211 HD
ENDBRANCH  24  35
TORSDOF 4
ENDMDL
MODEL 7
REMARK VINA RESULT:    -5.743      4.275      8.963
REMARK INTER + INTRA:          -7.047
REMARK INTER:                  -6.310
REMARK INTRA:                  -0.737
REMARK UNBOUND:                -0.297
REMARK SMILES C=C(C)[C@@H]1CC[C@@]2(C(=O)[O-])CC[C@]3(C)[C@@H](CC[C@@H]4[C@]5(C)C[C@@H](O)[C@@H](O)C(C)(C)[C@@H]5CC[C@]43C)[C@@H]12
REMARK SMILES IDX 7 1 6 2 34 3 11 4 5 5 15 6 4 7 12 8 16 9 13 10 17 11 32 12
REMARK SMILES IDX 14 13 18 14 31 15 33 16 19 17 30 18 29 19 21 20 20 21 26 22
REMARK SMILES IDX 22 23 24 24 27 25 28 26 8 27 9 28 10 29 2 30 3 31 1 32 23 33
REMARK SMILES IDX 25 35
REMARK H PARENT 23 34 25 36
REMARK Flexibility Score: inf
ROOT
ATOM      1  C   UNL     1      59.801  -5.840  -7.209  1.00  0.00     0.014 C 
ATOM      2  C   UNL     1      59.444  -5.478  -8.662  1.00  0.00     0.014 C 
ATOM      3  C   UNL     1      58.454  -5.611  -6.464  1.00  0.00     0.012 C 
ATOM      4  C   UNL     1      60.955  -4.904  -6.701  1.00  0.00     0.014 C 
ATOM      5  C   UNL     1      58.498  -4.295  -8.572  1.00  0.00     0.009 C 
ATOM      6  C   UNL     1      58.562  -5.487  -4.890  1.00  0.00     0.000 C 
ATOM      7  C   UNL     1      57.771  -4.430  -7.227  1.00  0.00     0.018 C 
ATOM      8  C   UNL     1      60.588  -4.022  -5.496  1.00  0.00     0.008 C 
ATOM      9  C   UNL     1      57.231  -4.965  -4.300  1.00  0.00     0.005 C 
ATOM     10  C   UNL     1      59.888  -4.802  -4.338  1.00  0.00    -0.024 C 
ATOM     11  C   UNL     1      57.196  -4.722  -2.785  1.00  0.00     0.005 C 
ATOM     12  C   UNL     1      59.606  -3.831  -3.066  1.00  0.00    -0.024 C 
ATOM     13  C   UNL     1      60.878  -5.956  -3.929  1.00  0.00     0.012 C 
ATOM     14  C   UNL     1      58.575  -4.505  -2.098  1.00  0.00     0.002 C 
ATOM     15  C   UNL     1      60.915  -3.619  -2.254  1.00  0.00     0.008 C 
ATOM     16  C   UNL     1      59.071  -2.436  -3.531  1.00  0.00     0.012 C 
ATOM     17  C   UNL     1      58.485  -3.992  -0.555  1.00  0.00    -0.023 C 
ATOM     18  C   UNL     1      60.741  -2.644  -1.113  1.00  0.00     0.005 C 
ATOM     19  C   UNL     1      59.748  -3.140  -0.031  1.00  0.00     0.004 C 
ATOM     20  C   UNL     1      57.167  -3.202  -0.274  1.00  0.00     0.042 C 
ATOM     21  C   UNL     1      58.384  -5.311   0.284  1.00  0.00     0.012 C 
ATOM     22  C   UNL     1      59.442  -1.966   1.009  1.00  0.00    -0.003 C 
ATOM     23  C   UNL     1      56.962  -2.672   1.168  1.00  0.00     0.144 C 
ATOM     24  C   UNL     1      58.261  -2.344   1.947  1.00  0.00     0.149 C 
ATOM     25  C   UNL     1      59.107  -0.598   0.332  1.00  0.00     0.014 C 
ATOM     26  C   UNL     1      60.694  -1.712   1.895  1.00  0.00     0.014 C 
ENDROOT
BRANCH   1  27
ATOM     27  C   UNL     1      60.257  -7.291  -7.184  1.00  0.00     0.048 C 
ATOM     28  O   UNL     1      59.430  -8.242  -7.206  1.00  0.00    -0.550 OA
ATOM     29  O   UNL     1      61.615  -7.581  -7.130  1.00  0.00    -0.550 OA
ENDBRANCH   1  27
BRANCH   7  30
ATOM     30  C   UNL     1      56.269  -4.627  -7.438  1.00  0.00    -0.077 C 
ATOM     31  C   UNL     1      55.286  -3.508  -7.191  1.00  0.00     0.039 C 
ATOM     32  C   UNL     1      55.787  -5.834  -7.777  1.00  0.00     0.008 C 
ENDBRANCH   7  30
BRANCH  23  33
ATOM     33  O   UNL     1      56.166  -3.576   1.895  1.00  0.00    -0.390 OA
ATOM     34  H   UNL     1      55.520  -3.034   2.421  1.00  0.00     0.211 HD
ENDBRANCH  23  33
BRANCH  24  35
ATOM     35  O   UNL     1      58.618  -3.410   2.796  1.00  0.00    -0.390 OA
ATOM     36  H   UNL     1      58.363  -4.259   2.350  1.00  0.00     0.211 HD
ENDBRANCH  24  35
TORSDOF 4
ENDMDL
MODEL 8
REMARK VINA RESULT:    -5.698      8.328     12.193
REMARK INTER + INTRA:          -6.994
REMARK INTER:                  -7.201
REMARK INTRA:                   0.207
REMARK UNBOUND:                -0.297
REMARK SMILES C=C(C)[C@@H]1CC[C@@]2(C(=O)[O-])CC[C@]3(C)[C@@H](CC[C@@H]4[C@]5(C)C[C@@H](O)[C@@H](O)C(C)(C)[C@@H]5CC[C@]43C)[C@@H]12
REMARK SMILES IDX 7 1 6 2 34 3 11 4 5 5 15 6 4 7 12 8 16 9 13 10 17 11 32 12
REMARK SMILES IDX 14 13 18 14 31 15 33 16 19 17 30 18 29 19 21 20 20 21 26 22
REMARK SMILES IDX 22 23 24 24 27 25 28 26 8 27 9 28 10 29 2 30 3 31 1 32 23 33
REMARK SMILES IDX 25 35
REMARK H PARENT 23 34 25 36
REMARK Flexibility Score: inf
ROOT
ATOM      1  C   UNL     1      49.442  -7.137  -5.810  1.00  0.00     0.014 C 
ATOM      2  C   UNL     1      48.268  -6.925  -4.837  1.00  0.00     0.014 C 
ATOM      3  C   UNL     1      50.500  -7.843  -4.913  1.00  0.00     0.012 C 
ATOM      4  C   UNL     1      49.927  -5.749  -6.361  1.00  0.00     0.014 C 
ATOM      5  C   UNL     1      48.897  -6.571  -3.503  1.00  0.00     0.009 C 
ATOM      6  C   UNL     1      51.979  -7.833  -5.474  1.00  0.00     0.000 C 
ATOM      7  C   UNL     1      50.275  -7.248  -3.485  1.00  0.00     0.018 C 
ATOM      8  C   UNL     1      51.383  -5.391  -6.019  1.00  0.00     0.008 C 
ATOM      9  C   UNL     1      52.972  -8.283  -4.377  1.00  0.00     0.005 C 
ATOM     10  C   UNL     1      52.396  -6.544  -6.308  1.00  0.00    -0.024 C 
ATOM     11  C   UNL     1      54.462  -8.259  -4.744  1.00  0.00     0.005 C 
ATOM     12  C   UNL     1      53.920  -6.070  -6.007  1.00  0.00    -0.024 C 
ATOM     13  C   UNL     1      52.230  -6.897  -7.834  1.00  0.00     0.012 C 
ATOM     14  C   UNL     1      54.860  -7.321  -5.920  1.00  0.00     0.002 C 
ATOM     15  C   UNL     1      54.449  -5.191  -7.175  1.00  0.00     0.008 C 
ATOM     16  C   UNL     1      54.002  -5.246  -4.679  1.00  0.00     0.012 C 
ATOM     17  C   UNL     1      56.465  -7.120  -6.107  1.00  0.00    -0.023 C 
ATOM     18  C   UNL     1      55.829  -4.636  -6.908  1.00  0.00     0.005 C 
ATOM     19  C   UNL     1      56.917  -5.734  -6.793  1.00  0.00     0.004 C 
ATOM     20  C   UNL     1      57.243  -7.321  -4.767  1.00  0.00     0.042 C 
ATOM     21  C   UNL     1      56.896  -8.306  -7.036  1.00  0.00     0.012 C 
ATOM     22  C   UNL     1      58.289  -5.093  -6.281  1.00  0.00    -0.003 C 
ATOM     23  C   UNL     1      58.784  -7.166  -4.823  1.00  0.00     0.144 C 
ATOM     24  C   UNL     1      59.317  -6.197  -5.909  1.00  0.00     0.149 C 
ATOM     25  C   UNL     1      58.119  -4.148  -5.049  1.00  0.00     0.014 C 
ATOM     26  C   UNL     1      58.911  -4.221  -7.409  1.00  0.00     0.014 C 
ENDROOT
BRANCH   1  27
ATOM     27  C   UNL     1      48.952  -8.010  -6.955  1.00  0.00     0.048 C 
ATOM     28  O   UNL     1      49.484  -9.125  -7.207  1.00  0.00    -0.550 OA
ATOM     29  O   UNL     1      47.898  -7.573  -7.748  1.00  0.00    -0.550 OA
ENDBRANCH   1  27
BRANCH   7  30
ATOM     30  C   UNL     1      50.353  -8.291  -2.370  1.00  0.00    -0.077 C 
ATOM     31  C   UNL     1      49.123  -8.724  -1.611  1.00  0.00     0.039 C 
ATOM     32  C   UNL     1      51.542  -8.788  -1.991  1.00  0.00     0.008 C 
ENDBRANCH   7  30
BRANCH  23  33
ATOM     33  O   UNL     1      59.382  -8.433  -4.956  1.00  0.00    -0.390 OA
ATOM     34  H   UNL     1      60.341  -8.279  -5.163  1.00  0.00     0.211 HD
ENDBRANCH  23  33
BRANCH  24  35
ATOM     35  O   UNL     1      59.728  -6.906  -7.055  1.00  0.00    -0.390 OA
ATOM     36  H   UNL     1      59.359  -6.443  -7.852  1.00  0.00     0.211 HD
ENDBRANCH  24  35
TORSDOF 4
ENDMDL
MODEL 9
REMARK VINA RESULT:    -5.644      7.047     10.801
REMARK INTER + INTRA:          -6.930
REMARK INTER:                  -6.693
REMARK INTRA:                  -0.237
REMARK UNBOUND:                -0.297
REMARK SMILES C=C(C)[C@@H]1CC[C@@]2(C(=O)[O-])CC[C@]3(C)[C@@H](CC[C@@H]4[C@]5(C)C[C@@H](O)[C@@H](O)C(C)(C)[C@@H]5CC[C@]43C)[C@@H]12
REMARK SMILES IDX 7 1 6 2 34 3 11 4 5 5 15 6 4 7 12 8 16 9 13 10 17 11 32 12
REMARK SMILES IDX 14 13 18 14 31 15 33 16 19 17 30 18 29 19 21 20 20 21 26 22
REMARK SMILES IDX 22 23 24 24 27 25 28 26 8 27 9 28 10 29 2 30 3 31 1 32 23 33
REMARK SMILES IDX 25 35
REMARK H PARENT 23 34 25 36
REMARK Flexibility Score: inf
ROOT
ATOM      1  C   UNL     1      59.497  -4.773  -6.093  1.00  0.00     0.014 C 
ATOM      2  C   UNL     1      60.720  -4.578  -5.180  1.00  0.00     0.014 C 
ATOM      3  C   UNL     1      58.397  -3.948  -5.364  1.00  0.00     0.012 C 
ATOM      4  C   UNL     1      59.154  -6.302  -6.197  1.00  0.00     0.014 C 
ATOM      5  C   UNL     1      60.182  -4.594  -3.761  1.00  0.00     0.009 C 
ATOM      6  C   UNL     1      56.909  -4.266  -5.800  1.00  0.00     0.000 C 
ATOM      7  C   UNL     1      58.738  -4.081  -3.844  1.00  0.00     0.018 C 
ATOM      8  C   UNL     1      57.762  -6.690  -5.672  1.00  0.00     0.008 C 
ATOM      9  C   UNL     1      55.910  -3.620  -4.811  1.00  0.00     0.005 C 
ATOM     10  C   UNL     1      56.614  -5.775  -6.207  1.00  0.00    -0.024 C 
ATOM     11  C   UNL     1      54.421  -3.897  -5.057  1.00  0.00     0.005 C 
ATOM     12  C   UNL     1      55.165  -6.291  -5.684  1.00  0.00    -0.024 C 
ATOM     13  C   UNL     1      56.685  -5.861  -7.778  1.00  0.00     0.012 C 
ATOM     14  C   UNL     1      54.092  -5.168  -5.891  1.00  0.00     0.002 C 
ATOM     15  C   UNL     1      54.700  -7.518  -6.519  1.00  0.00     0.008 C 
ATOM     16  C   UNL     1      55.225  -6.702  -4.176  1.00  0.00     0.012 C 
ATOM     17  C   UNL     1      52.515  -5.573  -5.908  1.00  0.00    -0.023 C 
ATOM     18  C   UNL     1      53.402  -8.106  -6.016  1.00  0.00     0.005 C 
ATOM     19  C   UNL     1      52.201  -7.136  -6.143  1.00  0.00     0.004 C 
ATOM     20  C   UNL     1      51.767  -5.074  -4.630  1.00  0.00     0.042 C 
ATOM     21  C   UNL     1      51.920  -4.754  -7.103  1.00  0.00     0.012 C 
ATOM     22  C   UNL     1      50.930  -7.736  -5.382  1.00  0.00    -0.003 C 
ATOM     23  C   UNL     1      50.252  -5.391  -4.538  1.00  0.00     0.144 C 
ATOM     24  C   UNL     1      49.796  -6.679  -5.269  1.00  0.00     0.149 C 
ATOM     25  C   UNL     1      51.249  -8.264  -3.947  1.00  0.00     0.014 C 
ATOM     26  C   UNL     1      50.373  -8.953  -6.174  1.00  0.00     0.014 C 
ENDROOT
BRANCH   1  27
ATOM     27  C   UNL     1      59.843  -4.222  -7.468  1.00  0.00     0.048 C 
ATOM     28  O   UNL     1      58.950  -3.981  -8.325  1.00  0.00    -0.550 OA
ATOM     29  O   UNL     1      61.172  -3.981  -7.794  1.00  0.00    -0.550 OA
ENDBRANCH   1  27
BRANCH   7  30
ATOM     30  C   UNL     1      58.580  -2.774  -3.066  1.00  0.00    -0.077 C 
ATOM     31  C   UNL     1      57.650  -2.672  -1.882  1.00  0.00     0.039 C 
ATOM     32  C   UNL     1      59.214  -1.663  -3.475  1.00  0.00     0.008 C 
ENDBRANCH   7  30
BRANCH  23  33
ATOM     33  O   UNL     1      49.509  -4.282  -4.983  1.00  0.00    -0.390 OA
ATOM     34  H   UNL     1      48.773  -4.147  -4.331  1.00  0.00     0.211 HD
ENDBRANCH  23  33
BRANCH  24  35
ATOM     35  O   UNL     1      49.267  -6.374  -6.539  1.00  0.00    -0.390 OA
ATOM     36  H   UNL     1      48.780  -5.512  -6.470  1.00  0.00     0.211 HD
ENDBRANCH  24  35
TORSDOF 4
ENDMDL
