MODEL 1
REMARK VINA RESULT:    -4.779      0.000      0.000
REMARK INTER + INTRA:          -9.175
REMARK INTER:                  -8.411
REMARK INTRA:                  -0.765
REMARK UNBOUND:                -0.765
REMARK SMILES CCCCCCC=CCCCCCCCC(=O)[O-]
REMARK SMILES IDX 10 1 11 2 12 3 13 4 14 5 15 6 16 7 17 8 18 9 9 10 8 11 7 12
REMARK SMILES IDX 6 13 5 14 4 15 3 16 2 17 1 18
REMARK H PARENT
REMARK Flexibility Score: inf
ROOT
ATOM      1  C   UNL     1      -2.364   4.982   5.158  1.00  0.00     0.004 C 
ENDROOT
BRANCH   1   2
ATOM      2  C   UNL     1      -3.542   5.750   4.532  1.00  0.00     0.000 C 
BRANCH   2   3
ATOM      3  C   UNL     1      -3.447   7.268   4.760  1.00  0.00     0.000 C 
BRANCH   3   4
ATOM      4  C   UNL     1      -4.169   7.717   6.042  1.00  0.00     0.000 C 
BRANCH   4   5
ATOM      5  C   UNL     1      -5.000   6.594   6.689  1.00  0.00     0.006 C 
BRANCH   5   6
ATOM      6  C   UNL     1      -5.838   7.051   7.896  1.00  0.00     0.053 C 
BRANCH   6   7
ATOM      7  C   UNL     1      -6.757   5.982   8.402  1.00  0.00     0.041 C 
ATOM      8  O   UNL     1      -6.338   5.116   9.214  1.00  0.00    -0.550 OA
ATOM      9  O   UNL     1      -8.072   5.927   7.957  1.00  0.00    -0.550 OA
ENDBRANCH   6   7
ENDBRANCH   5   6
ENDBRANCH   4   5
ENDBRANCH   3   4
ENDBRANCH   2   3
ENDBRANCH   1   2
BRANCH   1  10
ATOM     10  C   UNL     1      -2.820   3.681   5.837  1.00  0.00     0.027 C 
BRANCH  10  11
ATOM     11  C   UNL     1      -1.706   3.010   6.595  1.00  0.00    -0.031 C 
ATOM     12  C   UNL     1      -1.701   2.953   7.935  1.00  0.00    -0.031 C 
BRANCH  12  13
ATOM     13  C   UNL     1      -0.576   2.271   8.668  1.00  0.00     0.027 C 
BRANCH  13  14
ATOM     14  C   UNL     1      -1.076   1.375   9.813  1.00  0.00     0.004 C 
BRANCH  14  15
ATOM     15  C   UNL     1      -0.782  -0.128   9.630  1.00  0.00     0.000 C 
BRANCH  15  16
ATOM     16  C   UNL     1       0.069  -0.484   8.398  1.00  0.00    -0.000 C 
BRANCH  16  17
ATOM     17  C   UNL     1      -0.412  -1.756   7.684  1.00  0.00    -0.003 C 
ATOM     18  C   UNL     1      -1.128  -2.692   8.653  1.00  0.00     0.004 C 
ENDBRANCH  16  17
ENDBRANCH  15  16
ENDBRANCH  14  15
ENDBRANCH  13  14
ENDBRANCH  12  13
ENDBRANCH  10  11
ENDBRANCH   1  10
TORSDOF 13
ENDMDL
MODEL 2
REMARK VINA RESULT:    -4.723     12.845     14.797
REMARK INTER + INTRA:          -9.077
REMARK INTER:                  -8.036
REMARK INTRA:                  -1.041
REMARK UNBOUND:                -0.765
REMARK SMILES CCCCCCC=CCCCCCCCC(=O)[O-]
REMARK SMILES IDX 10 1 11 2 12 3 13 4 14 5 15 6 16 7 17 8 18 9 9 10 8 11 7 12
REMARK SMILES IDX 6 13 5 14 4 15 3 16 2 17 1 18
REMARK H PARENT
REMARK Flexibility Score: inf
ROOT
ATOM      1  C   UNL     1       8.968   5.780   0.901  1.00  0.00     0.004 C 
ENDROOT
BRANCH   1   2
ATOM      2  C   UNL     1      10.064   5.225  -0.025  1.00  0.00     0.000 C 
BRANCH   2   3
ATOM      3  C   UNL     1       9.492   4.411  -1.198  1.00  0.00     0.000 C 
BRANCH   3   4
ATOM      4  C   UNL     1       7.960   4.284  -1.133  1.00  0.00     0.000 C 
BRANCH   4   5
ATOM      5  C   UNL     1       7.257   4.839  -2.385  1.00  0.00     0.006 C 
BRANCH   5   6
ATOM      6  C   UNL     1       7.765   6.223  -2.827  1.00  0.00     0.053 C 
BRANCH   6   7
ATOM      7  C   UNL     1       7.150   7.343  -2.046  1.00  0.00     0.041 C 
ATOM      8  O   UNL     1       5.898   7.477  -2.005  1.00  0.00    -0.550 OA
ATOM      9  O   UNL     1       7.960   8.255  -1.381  1.00  0.00    -0.550 OA
ENDBRANCH   6   7
ENDBRANCH   5   6
ENDBRANCH   4   5
ENDBRANCH   3   4
ENDBRANCH   2   3
ENDBRANCH   1   2
BRANCH   1  10
ATOM     10  C   UNL     1       9.444   5.883   2.359  1.00  0.00     0.027 C 
BRANCH  10  11
ATOM     11  C   UNL     1       9.382   7.293   2.883  1.00  0.00    -0.031 C 
ATOM     12  C   UNL     1       9.072   8.327   2.087  1.00  0.00    -0.031 C 
BRANCH  12  13
ATOM     13  C   UNL     1       9.013   9.727   2.637  1.00  0.00     0.027 C 
BRANCH  13  14
ATOM     14  C   UNL     1       9.099   9.761   4.172  1.00  0.00     0.004 C 
BRANCH  14  15
ATOM     15  C   UNL     1       7.989  10.582   4.861  1.00  0.00     0.000 C 
BRANCH  15  16
ATOM     16  C   UNL     1       7.585  10.090   6.263  1.00  0.00    -0.000 C 
BRANCH  16  17
ATOM     17  C   UNL     1       6.348  10.812   6.818  1.00  0.00    -0.003 C 
ATOM     18  C   UNL     1       5.801  10.097   8.049  1.00  0.00     0.004 C 
ENDBRANCH  16  17
ENDBRANCH  15  16
ENDBRANCH  14  15
ENDBRANCH  13  14
ENDBRANCH  12  13
ENDBRANCH  10  11
ENDBRANCH   1  10
TORSDOF 13
ENDMDL
MODEL 3
REMARK VINA RESULT:    -4.662     12.866     14.268
REMARK INTER + INTRA:          -8.970
REMARK INTER:                  -7.544
REMARK INTRA:                  -1.426
REMARK UNBOUND:                -0.765
REMARK SMILES CCCCCCC=CCCCCCCCC(=O)[O-]
REMARK SMILES IDX 10 1 11 2 12 3 13 4 14 5 15 6 16 7 17 8 18 9 9 10 8 11 7 12
REMARK SMILES IDX 6 13 5 14 4 15 3 16 2 17 1 18
REMARK H PARENT
REMARK Flexibility Score: inf
ROOT
ATOM      1  C   UNL     1       7.489   4.766  -1.417  1.00  0.00     0.004 C 
ENDROOT
BRANCH   1   2
ATOM      2  C   UNL     1       7.364   5.229  -2.880  1.00  0.00     0.000 C 
BRANCH   2   3
ATOM      3  C   UNL     1       7.593   6.740  -3.044  1.00  0.00     0.000 C 
BRANCH   3   4
ATOM      4  C   UNL     1       6.820   7.569  -2.003  1.00  0.00     0.000 C 
BRANCH   4   5
ATOM      5  C   UNL     1       7.063   9.083  -2.139  1.00  0.00     0.006 C 
BRANCH   5   6
ATOM      6  C   UNL     1       6.211   9.942  -1.189  1.00  0.00     0.053 C 
BRANCH   6   7
ATOM      7  C   UNL     1       4.901  10.348  -1.791  1.00  0.00     0.041 C 
ATOM      8  O   UNL     1       4.867  10.920  -2.913  1.00  0.00    -0.550 OA
ATOM      9  O   UNL     1       3.717  10.118  -1.103  1.00  0.00    -0.550 OA
ENDBRANCH   6   7
ENDBRANCH   5   6
ENDBRANCH   4   5
ENDBRANCH   3   4
ENDBRANCH   2   3
ENDBRANCH   1   2
BRANCH   1  10
ATOM     10  C   UNL     1       8.929   4.364  -1.060  1.00  0.00     0.027 C 
BRANCH  10  11
ATOM     11  C   UNL     1       9.682   5.478  -0.384  1.00  0.00    -0.031 C 
ATOM     12  C   UNL     1       9.126   6.217   0.587  1.00  0.00    -0.031 C 
BRANCH  12  13
ATOM     13  C   UNL     1       9.904   7.322   1.251  1.00  0.00     0.027 C 
BRANCH  13  14
ATOM     14  C   UNL     1       9.031   8.185   2.176  1.00  0.00     0.004 C 
BRANCH  14  15
ATOM     15  C   UNL     1       9.649   8.473   3.560  1.00  0.00     0.000 C 
BRANCH  15  16
ATOM     16  C   UNL     1      10.405   7.294   4.198  1.00  0.00    -0.000 C 
BRANCH  16  17
ATOM     17  C   UNL     1       9.493   6.373   5.022  1.00  0.00    -0.003 C 
ATOM     18  C   UNL     1       9.198   5.078   4.271  1.00  0.00     0.004 C 
ENDBRANCH  16  17
ENDBRANCH  15  16
ENDBRANCH  14  15
ENDBRANCH  13  14
ENDBRANCH  12  13
ENDBRANCH  10  11
ENDBRANCH   1  10
TORSDOF 13
ENDMDL
MODEL 4
REMARK VINA RESULT:    -4.648     14.956     16.866
REMARK INTER + INTRA:          -8.944
REMARK INTER:                  -7.367
REMARK INTRA:                  -1.578
REMARK UNBOUND:                -0.765
REMARK SMILES CCCCCCC=CCCCCCCCC(=O)[O-]
REMARK SMILES IDX 10 1 11 2 12 3 13 4 14 5 15 6 16 7 17 8 18 9 9 10 8 11 7 12
REMARK SMILES IDX 6 13 5 14 4 15 3 16 2 17 1 18
REMARK H PARENT
REMARK Flexibility Score: inf
ROOT
ATOM      1  C   UNL     1       7.615   4.528  -1.179  1.00  0.00     0.004 C 
ENDROOT
BRANCH   1   2
ATOM      2  C   UNL     1       7.084   4.834  -2.591  1.00  0.00     0.000 C 
BRANCH   2   3
ATOM      3  C   UNL     1       8.144   5.487  -3.493  1.00  0.00     0.000 C 
BRANCH   3   4
ATOM      4  C   UNL     1       7.663   5.646  -4.946  1.00  0.00     0.000 C 
BRANCH   4   5
ATOM      5  C   UNL     1       8.759   5.329  -5.980  1.00  0.00     0.006 C 
BRANCH   5   6
ATOM      6  C   UNL     1       8.230   4.701  -7.281  1.00  0.00     0.053 C 
BRANCH   6   7
ATOM      7  C   UNL     1       8.024   5.709  -8.369  1.00  0.00     0.041 C 
ATOM      8  O   UNL     1       7.029   6.481  -8.340  1.00  0.00    -0.550 OA
ATOM      9  O   UNL     1       8.917   5.781  -9.431  1.00  0.00    -0.550 OA
ENDBRANCH   6   7
ENDBRANCH   5   6
ENDBRANCH   4   5
ENDBRANCH   3   4
ENDBRANCH   2   3
ENDBRANCH   1   2
BRANCH   1  10
ATOM     10  C   UNL     1       9.146   4.391  -1.157  1.00  0.00     0.027 C 
BRANCH  10  11
ATOM     11  C   UNL     1       9.778   5.216  -0.068  1.00  0.00    -0.031 C 
ATOM     12  C   UNL     1       9.070   5.659   0.981  1.00  0.00    -0.031 C 
BRANCH  12  13
ATOM     13  C   UNL     1       9.728   6.478   2.059  1.00  0.00     0.027 C 
BRANCH  13  14
ATOM     14  C   UNL     1       9.172   7.909   2.136  1.00  0.00     0.004 C 
BRANCH  14  15
ATOM     15  C   UNL     1       9.585   8.824   0.964  1.00  0.00     0.000 C 
BRANCH  15  16
ATOM     16  C   UNL     1       8.432   9.280   0.052  1.00  0.00    -0.000 C 
BRANCH  16  17
ATOM     17  C   UNL     1       8.333   8.461  -1.243  1.00  0.00    -0.003 C 
ATOM     18  C   UNL     1       6.940   8.569  -1.857  1.00  0.00     0.004 C 
ENDBRANCH  16  17
ENDBRANCH  15  16
ENDBRANCH  14  15
ENDBRANCH  13  14
ENDBRANCH  12  13
ENDBRANCH  10  11
ENDBRANCH   1  10
TORSDOF 13
ENDMDL
MODEL 5
REMARK VINA RESULT:    -4.639     12.183     13.858
REMARK INTER + INTRA:          -8.929
REMARK INTER:                  -7.978
REMARK INTRA:                  -0.952
REMARK UNBOUND:                -0.765
REMARK SMILES CCCCCCC=CCCCCCCCC(=O)[O-]
REMARK SMILES IDX 10 1 11 2 12 3 13 4 14 5 15 6 16 7 17 8 18 9 9 10 8 11 7 12
REMARK SMILES IDX 6 13 5 14 4 15 3 16 2 17 1 18
REMARK H PARENT
REMARK Flexibility Score: inf
ROOT
ATOM      1  C   UNL     1       9.417   7.228   3.594  1.00  0.00     0.004 C 
ENDROOT
BRANCH   1   2
ATOM      2  C   UNL     1       9.169   8.744   3.680  1.00  0.00     0.000 C 
BRANCH   2   3
ATOM      3  C   UNL     1       8.847   9.211   5.109  1.00  0.00     0.000 C 
BRANCH   3   4
ATOM      4  C   UNL     1       8.285  10.643   5.148  1.00  0.00     0.000 C 
BRANCH   4   5
ATOM      5  C   UNL     1       7.078  10.790   6.092  1.00  0.00     0.006 C 
BRANCH   5   6
ATOM      6  C   UNL     1       7.249  10.073   7.443  1.00  0.00     0.053 C 
BRANCH   6   7
ATOM      7  C   UNL     1       5.966   9.962   8.208  1.00  0.00     0.041 C 
ATOM      8  O   UNL     1       5.064  10.830   8.064  1.00  0.00    -0.550 OA
ATOM      9  O   UNL     1       5.774   8.913   9.098  1.00  0.00    -0.550 OA
ENDBRANCH   6   7
ENDBRANCH   5   6
ENDBRANCH   4   5
ENDBRANCH   3   4
ENDBRANCH   2   3
ENDBRANCH   1   2
BRANCH   1  10
ATOM     10  C   UNL     1       9.469   6.734   2.140  1.00  0.00     0.027 C 
BRANCH  10  11
ATOM     11  C   UNL     1       9.215   7.839   1.151  1.00  0.00    -0.031 C 
ATOM     12  C   UNL     1       8.931   7.582  -0.135  1.00  0.00    -0.031 C 
BRANCH  12  13
ATOM     13  C   UNL     1       8.675   8.707  -1.102  1.00  0.00     0.027 C 
BRANCH  13  14
ATOM     14  C   UNL     1       7.682   8.318  -2.210  1.00  0.00     0.004 C 
BRANCH  14  15
ATOM     15  C   UNL     1       6.916   7.003  -1.954  1.00  0.00     0.000 C 
BRANCH  15  16
ATOM     16  C   UNL     1       7.224   5.863  -2.941  1.00  0.00    -0.000 C 
BRANCH  16  17
ATOM     17  C   UNL     1       8.046   4.730  -2.310  1.00  0.00    -0.003 C 
ATOM     18  C   UNL     1       7.499   4.352  -0.937  1.00  0.00     0.004 C 
ENDBRANCH  16  17
ENDBRANCH  15  16
ENDBRANCH  14  15
ENDBRANCH  13  14
ENDBRANCH  12  13
ENDBRANCH  10  11
ENDBRANCH   1  10
TORSDOF 13
ENDMDL
MODEL 6
REMARK VINA RESULT:    -4.639     13.796     15.756
REMARK INTER + INTRA:          -8.928
REMARK INTER:                  -7.477
REMARK INTRA:                  -1.452
REMARK UNBOUND:                -0.765
REMARK SMILES CCCCCCC=CCCCCCCCC(=O)[O-]
REMARK SMILES IDX 10 1 11 2 12 3 13 4 14 5 15 6 16 7 17 8 18 9 9 10 8 11 7 12
REMARK SMILES IDX 6 13 5 14 4 15 3 16 2 17 1 18
REMARK H PARENT
REMARK Flexibility Score: inf
ROOT
ATOM      1  C   UNL     1       9.283   5.869   2.424  1.00  0.00     0.004 C 
ENDROOT
BRANCH   1   2
ATOM      2  C   UNL     1      10.509   5.541   1.553  1.00  0.00     0.000 C 
BRANCH   2   3
ATOM      3  C   UNL     1      10.128   5.182   0.108  1.00  0.00     0.000 C 
BRANCH   3   4
ATOM      4  C   UNL     1       8.609   5.229  -0.130  1.00  0.00     0.000 C 
BRANCH   4   5
ATOM      5  C   UNL     1       8.178   4.491  -1.410  1.00  0.00     0.006 C 
BRANCH   5   6
ATOM      6  C   UNL     1       8.564   5.215  -2.712  1.00  0.00     0.053 C 
BRANCH   6   7
ATOM      7  C   UNL     1       7.404   5.398  -3.641  1.00  0.00     0.041 C 
ATOM      8  O   UNL     1       6.238   5.532  -3.183  1.00  0.00    -0.550 OA
ATOM      9  O   UNL     1       7.605   5.396  -5.015  1.00  0.00    -0.550 OA
ENDBRANCH   6   7
ENDBRANCH   5   6
ENDBRANCH   4   5
ENDBRANCH   3   4
ENDBRANCH   2   3
ENDBRANCH   1   2
BRANCH   1  10
ATOM     10  C   UNL     1       9.643   6.785   3.604  1.00  0.00     0.027 C 
BRANCH  10  11
ATOM     11  C   UNL     1       9.215   8.210   3.373  1.00  0.00    -0.031 C 
ATOM     12  C   UNL     1       9.234   8.762   2.150  1.00  0.00    -0.031 C 
BRANCH  12  13
ATOM     13  C   UNL     1       8.796  10.187   1.946  1.00  0.00     0.027 C 
BRANCH  13  14
ATOM     14  C   UNL     1       8.171  10.419   0.561  1.00  0.00     0.004 C 
BRANCH  14  15
ATOM     15  C   UNL     1       8.741   9.526  -0.561  1.00  0.00     0.000 C 
BRANCH  15  16
ATOM     16  C   UNL     1       7.725   8.582  -1.227  1.00  0.00    -0.000 C 
BRANCH  16  17
ATOM     17  C   UNL     1       6.861   9.281  -2.286  1.00  0.00    -0.003 C 
ATOM     18  C   UNL     1       5.490   9.646  -1.725  1.00  0.00     0.004 C 
ENDBRANCH  16  17
ENDBRANCH  15  16
ENDBRANCH  14  15
ENDBRANCH  13  14
ENDBRANCH  12  13
ENDBRANCH  10  11
ENDBRANCH   1  10
TORSDOF 13
ENDMDL
MODEL 7
REMARK VINA RESULT:    -4.611     16.379     18.133
REMARK INTER + INTRA:          -8.880
REMARK INTER:                  -7.077
REMARK INTRA:                  -1.804
REMARK UNBOUND:                -0.765
REMARK SMILES CCCCCCC=CCCCCCCCC(=O)[O-]
REMARK SMILES IDX 10 1 11 2 12 3 13 4 14 5 15 6 16 7 17 8 18 9 9 10 8 11 7 12
REMARK SMILES IDX 6 13 5 14 4 15 3 16 2 17 1 18
REMARK H PARENT
REMARK Flexibility Score: inf
ROOT
ATOM      1  C   UNL     1       1.646  -5.131  -6.665  1.00  0.00     0.004 C 
ENDROOT
BRANCH   1   2
ATOM      2  C   UNL     1       1.443  -5.627  -8.108  1.00  0.00     0.000 C 
BRANCH   2   3
ATOM      3  C   UNL     1       2.106  -4.709  -9.148  1.00  0.00     0.000 C 
BRANCH   3   4
ATOM      4  C   UNL     1       1.097  -3.776  -9.839  1.00  0.00     0.000 C 
BRANCH   4   5
ATOM      5  C   UNL     1       0.991  -2.398  -9.161  1.00  0.00     0.006 C 
BRANCH   5   6
ATOM      6  C   UNL     1       0.207  -1.356  -9.979  1.00  0.00     0.053 C 
BRANCH   6   7
ATOM      7  C   UNL     1      -1.042  -0.899  -9.291  1.00  0.00     0.041 C 
ATOM      8  O   UNL     1      -2.140  -0.887  -9.909  1.00  0.00    -0.550 OA
ATOM      9  O   UNL     1      -0.992  -0.464  -7.973  1.00  0.00    -0.550 OA
ENDBRANCH   6   7
ENDBRANCH   5   6
ENDBRANCH   4   5
ENDBRANCH   3   4
ENDBRANCH   2   3
ENDBRANCH   1   2
BRANCH   1  10
ATOM     10  C   UNL     1       0.315  -4.773  -5.986  1.00  0.00     0.027 C 
BRANCH  10  11
ATOM     11  C   UNL     1      -0.830  -4.721  -6.962  1.00  0.00    -0.031 C 
ATOM     12  C   UNL     1      -1.764  -3.761  -6.902  1.00  0.00    -0.031 C 
BRANCH  12  13
ATOM     13  C   UNL     1      -2.896  -3.729  -7.894  1.00  0.00     0.027 C 
BRANCH  13  14
ATOM     14  C   UNL     1      -3.031  -5.046  -8.676  1.00  0.00     0.004 C 
BRANCH  14  15
ATOM     15  C   UNL     1      -4.176  -5.964  -8.198  1.00  0.00     0.000 C 
BRANCH  15  16
ATOM     16  C   UNL     1      -5.560  -5.295  -8.115  1.00  0.00    -0.000 C 
BRANCH  16  17
ATOM     17  C   UNL     1      -6.199  -5.412  -6.724  1.00  0.00    -0.003 C 
ATOM     18  C   UNL     1      -5.890  -4.185  -5.871  1.00  0.00     0.004 C 
ENDBRANCH  16  17
ENDBRANCH  15  16
ENDBRANCH  14  15
ENDBRANCH  13  14
ENDBRANCH  12  13
ENDBRANCH  10  11
ENDBRANCH   1  10
TORSDOF 13
ENDMDL
MODEL 8
REMARK VINA RESULT:    -4.609     14.227     16.247
REMARK INTER + INTRA:          -8.876
REMARK INTER:                  -7.513
REMARK INTRA:                  -1.363
REMARK UNBOUND:                -0.765
REMARK SMILES CCCCCCC=CCCCCCCCC(=O)[O-]
REMARK SMILES IDX 10 1 11 2 12 3 13 4 14 5 15 6 16 7 17 8 18 9 9 10 8 11 7 12
REMARK SMILES IDX 6 13 5 14 4 15 3 16 2 17 1 18
REMARK H PARENT
REMARK Flexibility Score: inf
ROOT
ATOM      1  C   UNL     1       8.513   5.119   0.023  1.00  0.00     0.004 C 
ENDROOT
BRANCH   1   2
ATOM      2  C   UNL     1       9.227   6.392  -0.464  1.00  0.00     0.000 C 
BRANCH   2   3
ATOM      3  C   UNL     1       9.216   7.515   0.586  1.00  0.00     0.000 C 
BRANCH   3   4
ATOM      4  C   UNL     1       8.823   8.877  -0.011  1.00  0.00     0.000 C 
BRANCH   4   5
ATOM      5  C   UNL     1       7.971   8.750  -1.287  1.00  0.00     0.006 C 
BRANCH   5   6
ATOM      6  C   UNL     1       6.878   9.825  -1.420  1.00  0.00     0.053 C 
BRANCH   6   7
ATOM      7  C   UNL     1       5.546   9.255  -1.800  1.00  0.00     0.041 C 
ATOM      8  O   UNL     1       4.544  10.008  -1.926  1.00  0.00    -0.550 OA
ATOM      9  O   UNL     1       5.404   7.886  -1.991  1.00  0.00    -0.550 OA
ENDBRANCH   6   7
ENDBRANCH   5   6
ENDBRANCH   4   5
ENDBRANCH   3   4
ENDBRANCH   2   3
ENDBRANCH   1   2
BRANCH   1  10
ATOM     10  C   UNL     1       7.664   4.474  -1.084  1.00  0.00     0.027 C 
BRANCH  10  11
ATOM     11  C   UNL     1       8.018   4.993  -2.452  1.00  0.00    -0.031 C 
ATOM     12  C   UNL     1       7.078   5.248  -3.373  1.00  0.00    -0.031 C 
BRANCH  12  13
ATOM     13  C   UNL     1       7.459   5.773  -4.732  1.00  0.00     0.027 C 
BRANCH  13  14
ATOM     14  C   UNL     1       8.977   5.734  -4.975  1.00  0.00     0.004 C 
BRANCH  14  15
ATOM     15  C   UNL     1       9.407   4.973  -6.246  1.00  0.00     0.000 C 
BRANCH  15  16
ATOM     16  C   UNL     1       8.299   4.771  -7.295  1.00  0.00    -0.000 C 
BRANCH  16  17
ATOM     17  C   UNL     1       8.446   5.699  -8.509  1.00  0.00    -0.003 C 
ATOM     18  C   UNL     1       7.788   7.051  -8.250  1.00  0.00     0.004 C 
ENDBRANCH  16  17
ENDBRANCH  15  16
ENDBRANCH  14  15
ENDBRANCH  13  14
ENDBRANCH  12  13
ENDBRANCH  10  11
ENDBRANCH   1  10
TORSDOF 13
ENDMDL
MODEL 9
REMARK VINA RESULT:    -4.552     14.279     16.321
REMARK INTER + INTRA:          -8.776
REMARK INTER:                  -7.389
REMARK INTRA:                  -1.387
REMARK UNBOUND:                -0.765
REMARK SMILES CCCCCCC=CCCCCCCCC(=O)[O-]
REMARK SMILES IDX 10 1 11 2 12 3 13 4 14 5 15 6 16 7 17 8 18 9 9 10 8 11 7 12
REMARK SMILES IDX 6 13 5 14 4 15 3 16 2 17 1 18
REMARK H PARENT
REMARK Flexibility Score: inf
ROOT
ATOM      1  C   UNL     1       9.631   5.341   0.178  1.00  0.00     0.004 C 
ENDROOT
BRANCH   1   2
ATOM      2  C   UNL     1       8.198   5.040  -0.296  1.00  0.00     0.000 C 
BRANCH   2   3
ATOM      3  C   UNL     1       8.141   4.614  -1.772  1.00  0.00     0.000 C 
BRANCH   3   4
ATOM      4  C   UNL     1       7.340   5.601  -2.639  1.00  0.00     0.000 C 
BRANCH   4   5
ATOM      5  C   UNL     1       8.153   6.158  -3.822  1.00  0.00     0.006 C 
BRANCH   5   6
ATOM      6  C   UNL     1       7.767   5.558  -5.186  1.00  0.00     0.053 C 
BRANCH   6   7
ATOM      7  C   UNL     1       7.833   6.556  -6.300  1.00  0.00     0.041 C 
ATOM      8  O   UNL     1       8.415   7.661  -6.129  1.00  0.00    -0.550 OA
ATOM      9  O   UNL     1       7.232   6.279  -7.520  1.00  0.00    -0.550 OA
ENDBRANCH   6   7
ENDBRANCH   5   6
ENDBRANCH   4   5
ENDBRANCH   3   4
ENDBRANCH   2   3
ENDBRANCH   1   2
BRANCH   1  10
ATOM     10  C   UNL     1       9.673   5.751   1.658  1.00  0.00     0.027 C 
BRANCH  10  11
ATOM     11  C   UNL     1       9.177   7.156   1.878  1.00  0.00    -0.031 C 
ATOM     12  C   UNL     1       9.400   8.129   0.982  1.00  0.00    -0.031 C 
BRANCH  12  13
ATOM     13  C   UNL     1       8.888   9.524   1.224  1.00  0.00     0.027 C 
BRANCH  13  14
ATOM     14  C   UNL     1       8.084  10.072   0.033  1.00  0.00     0.004 C 
BRANCH  14  15
ATOM     15  C   UNL     1       7.954   9.099  -1.158  1.00  0.00     0.000 C 
BRANCH  15  16
ATOM     16  C   UNL     1       6.880   9.473  -2.195  1.00  0.00    -0.000 C 
BRANCH  16  17
ATOM     17  C   UNL     1       5.477   8.985  -1.806  1.00  0.00    -0.003 C 
ATOM     18  C   UNL     1       4.547  10.159  -1.515  1.00  0.00     0.004 C 
ENDBRANCH  16  17
ENDBRANCH  15  16
ENDBRANCH  14  15
ENDBRANCH  13  14
ENDBRANCH  12  13
ENDBRANCH  10  11
ENDBRANCH   1  10
TORSDOF 13
ENDMDL
