MODEL 1
REMARK VINA RESULT:    -4.772      0.000      0.000
REMARK INTER + INTRA:          -6.174
REMARK INTER:                  -5.888
REMARK INTRA:                  -0.285
REMARK UNBOUND:                -0.285
REMARK SMILES CCCCC=CC(C)=O
REMARK SMILES IDX 4 1 3 2 2 3 1 4 5 5 6 6 7 7 9 8 8 9
REMARK H PARENT
REMARK Flexibility Score: inf
ROOT
ATOM      1  C   UNL     1       7.385  32.880  27.361  1.00  0.00     0.027 C 
ENDROOT
BRANCH   1   2
ATOM      2  C   UNL     1       8.164  34.038  28.013  1.00  0.00     0.004 C 
BRANCH   2   3
ATOM      3  C   UNL     1       9.518  33.618  28.610  1.00  0.00    -0.003 C 
ATOM      4  C   UNL     1      10.122  32.393  27.926  1.00  0.00     0.004 C 
ENDBRANCH   2   3
ENDBRANCH   1   2
BRANCH   1   5
ATOM      5  C   UNL     1       6.249  32.383  28.217  1.00  0.00    -0.023 C 
ATOM      6  C   UNL     1       6.149  31.158  28.761  1.00  0.00     0.042 C 
BRANCH   6   7
ATOM      7  C   UNL     1       7.109  30.042  28.596  1.00  0.00     0.152 C 
ATOM      8  O   UNL     1       8.251  30.067  29.125  1.00  0.00    -0.295 OA
ATOM      9  C   UNL     1       6.740  28.887  27.722  1.00  0.00     0.093 C 
ENDBRANCH   6   7
ENDBRANCH   1   5
TORSDOF 4
ENDMDL
MODEL 2
REMARK VINA RESULT:    -4.738     15.850     16.980
REMARK INTER + INTRA:          -6.131
REMARK INTER:                  -5.691
REMARK INTRA:                  -0.440
REMARK UNBOUND:                -0.285
REMARK SMILES CCCCC=CC(C)=O
REMARK SMILES IDX 4 1 3 2 2 3 1 4 5 5 6 6 7 7 9 8 8 9
REMARK H PARENT
REMARK Flexibility Score: inf
ROOT
ATOM      1  C   UNL     1      -9.079  33.385  21.585  1.00  0.00     0.027 C 
ENDROOT
BRANCH   1   2
ATOM      2  C   UNL     1      -7.851  34.227  21.187  1.00  0.00     0.004 C 
BRANCH   2   3
ATOM      3  C   UNL     1      -7.500  35.332  22.199  1.00  0.00    -0.003 C 
ATOM      4  C   UNL     1      -7.460  34.832  23.642  1.00  0.00     0.004 C 
ENDBRANCH   2   3
ENDBRANCH   1   2
BRANCH   1   5
ATOM      5  C   UNL     1      -9.013  31.972  21.064  1.00  0.00    -0.023 C 
ATOM      6  C   UNL     1      -8.550  30.905  21.736  1.00  0.00     0.042 C 
BRANCH   6   7
ATOM      7  C   UNL     1      -7.974  30.908  23.101  1.00  0.00     0.152 C 
ATOM      8  O   UNL     1      -8.696  31.046  24.123  1.00  0.00    -0.295 OA
ATOM      9  C   UNL     1      -6.492  30.815  23.268  1.00  0.00     0.093 C 
ENDBRANCH   6   7
ENDBRANCH   1   5
TORSDOF 4
ENDMDL
MODEL 3
REMARK VINA RESULT:    -4.632     16.012     17.197
REMARK INTER + INTRA:          -6.001
REMARK INTER:                  -5.661
REMARK INTRA:                  -0.340
REMARK UNBOUND:                -0.285
REMARK SMILES CCCCC=CC(C)=O
REMARK SMILES IDX 4 1 3 2 2 3 1 4 5 5 6 6 7 7 9 8 8 9
REMARK H PARENT
REMARK Flexibility Score: inf
ROOT
ATOM      1  C   UNL     1      -7.585  32.462  23.705  1.00  0.00     0.027 C 
ENDROOT
BRANCH   1   2
ATOM      2  C   UNL     1      -7.107  31.036  23.369  1.00  0.00     0.004 C 
BRANCH   2   3
ATOM      3  C   UNL     1      -8.117  29.937  23.744  1.00  0.00    -0.003 C 
ATOM      4  C   UNL     1      -8.282  28.876  22.658  1.00  0.00     0.004 C 
ENDBRANCH   2   3
ENDBRANCH   1   2
BRANCH   1   5
ATOM      5  C   UNL     1      -8.837  32.849  22.961  1.00  0.00    -0.023 C 
ATOM      6  C   UNL     1      -8.906  33.701  21.924  1.00  0.00     0.042 C 
BRANCH   6   7
ATOM      7  C   UNL     1      -7.778  34.459  21.332  1.00  0.00     0.152 C 
ATOM      8  O   UNL     1      -7.431  35.584  21.779  1.00  0.00    -0.295 OA
ATOM      9  C   UNL     1      -7.079  33.908  20.132  1.00  0.00     0.093 C 
ENDBRANCH   6   7
ENDBRANCH   1   5
TORSDOF 4
ENDMDL
MODEL 4
REMARK VINA RESULT:    -4.481     15.711     17.069
REMARK INTER + INTRA:          -5.815
REMARK INTER:                  -5.424
REMARK INTRA:                  -0.390
REMARK UNBOUND:                -0.285
REMARK SMILES CCCCC=CC(C)=O
REMARK SMILES IDX 4 1 3 2 2 3 1 4 5 5 6 6 7 7 9 8 8 9
REMARK H PARENT
REMARK Flexibility Score: inf
ROOT
ATOM      1  C   UNL     1      -9.105  33.704  22.017  1.00  0.00     0.027 C 
ENDROOT
BRANCH   1   2
ATOM      2  C   UNL     1      -8.880  32.215  22.347  1.00  0.00     0.004 C 
BRANCH   2   3
ATOM      3  C   UNL     1      -7.471  31.707  21.994  1.00  0.00    -0.003 C 
ATOM      4  C   UNL     1      -6.788  30.978  23.150  1.00  0.00     0.004 C 
ENDBRANCH   2   3
ENDBRANCH   1   2
BRANCH   1   5
ATOM      5  C   UNL     1      -7.867  34.540  22.214  1.00  0.00    -0.023 C 
ATOM      6  C   UNL     1      -7.462  35.087  23.372  1.00  0.00     0.042 C 
BRANCH   6   7
ATOM      7  C   UNL     1      -8.166  35.013  24.674  1.00  0.00     0.152 C 
ATOM      8  O   UNL     1      -8.222  33.944  25.336  1.00  0.00    -0.295 OA
ATOM      9  C   UNL     1      -8.888  36.219  25.181  1.00  0.00     0.093 C 
ENDBRANCH   6   7
ENDBRANCH   1   5
TORSDOF 4
ENDMDL
MODEL 5
REMARK VINA RESULT:    -4.481     15.836     17.227
REMARK INTER + INTRA:          -5.814
REMARK INTER:                  -5.479
REMARK INTRA:                  -0.336
REMARK UNBOUND:                -0.285
REMARK SMILES CCCCC=CC(C)=O
REMARK SMILES IDX 4 1 3 2 2 3 1 4 5 5 6 6 7 7 9 8 8 9
REMARK H PARENT
REMARK Flexibility Score: inf
ROOT
ATOM      1  C   UNL     1      -8.263  31.546  21.541  1.00  0.00     0.027 C 
ENDROOT
BRANCH   1   2
ATOM      2  C   UNL     1      -8.561  30.129  22.068  1.00  0.00     0.004 C 
BRANCH   2   3
ATOM      3  C   UNL     1      -7.537  29.620  23.098  1.00  0.00    -0.003 C 
ATOM      4  C   UNL     1      -6.466  30.654  23.440  1.00  0.00     0.004 C 
ENDBRANCH   2   3
ENDBRANCH   1   2
BRANCH   1   5
ATOM      5  C   UNL     1      -9.401  32.507  21.769  1.00  0.00    -0.023 C 
ATOM      6  C   UNL     1      -9.304  33.728  22.321  1.00  0.00     0.042 C 
BRANCH   6   7
ATOM      7  C   UNL     1      -8.072  34.357  22.853  1.00  0.00     0.152 C 
ATOM      8  O   UNL     1      -7.557  33.988  23.941  1.00  0.00    -0.295 OA
ATOM      9  C   UNL     1      -7.462  35.505  22.114  1.00  0.00     0.093 C 
ENDBRANCH   6   7
ENDBRANCH   1   5
TORSDOF 4
ENDMDL
MODEL 6
REMARK VINA RESULT:    -4.469     15.853     16.811
REMARK INTER + INTRA:          -5.800
REMARK INTER:                  -5.480
REMARK INTRA:                  -0.320
REMARK UNBOUND:                -0.285
REMARK SMILES CCCCC=CC(C)=O
REMARK SMILES IDX 4 1 3 2 2 3 1 4 5 5 6 6 7 7 9 8 8 9
REMARK H PARENT
REMARK Flexibility Score: inf
ROOT
ATOM      1  C   UNL     1      -8.384  32.863  23.452  1.00  0.00     0.027 C 
ENDROOT
BRANCH   1   2
ATOM      2  C   UNL     1      -8.611  33.686  22.168  1.00  0.00     0.004 C 
BRANCH   2   3
ATOM      3  C   UNL     1      -8.092  33.001  20.892  1.00  0.00    -0.003 C 
ATOM      4  C   UNL     1      -7.093  33.857  20.115  1.00  0.00     0.004 C 
ENDBRANCH   2   3
ENDBRANCH   1   2
BRANCH   1   5
ATOM      5  C   UNL     1      -7.116  32.050  23.409  1.00  0.00    -0.023 C 
ATOM      6  C   UNL     1      -7.037  30.710  23.455  1.00  0.00     0.042 C 
BRANCH   6   7
ATOM      7  C   UNL     1      -8.172  29.767  23.599  1.00  0.00     0.152 C 
ATOM      8  O   UNL     1      -8.806  29.655  24.680  1.00  0.00    -0.295 OA
ATOM      9  C   UNL     1      -8.529  28.876  22.453  1.00  0.00     0.093 C 
ENDBRANCH   6   7
ENDBRANCH   1   5
TORSDOF 4
ENDMDL
MODEL 7
REMARK VINA RESULT:    -4.469     16.413     17.048
REMARK INTER + INTRA:          -5.799
REMARK INTER:                  -5.350
REMARK INTRA:                  -0.449
REMARK UNBOUND:                -0.285
REMARK SMILES CCCCC=CC(C)=O
REMARK SMILES IDX 4 1 3 2 2 3 1 4 5 5 6 6 7 7 9 8 8 9
REMARK H PARENT
REMARK Flexibility Score: inf
ROOT
ATOM      1  C   UNL     1      -7.975  35.301  22.195  1.00  0.00     0.027 C 
ENDROOT
BRANCH   1   2
ATOM      2  C   UNL     1      -7.186  35.038  23.492  1.00  0.00     0.004 C 
BRANCH   2   3
ATOM      3  C   UNL     1      -8.066  34.977  24.753  1.00  0.00    -0.003 C 
ATOM      4  C   UNL     1      -8.489  33.557  25.123  1.00  0.00     0.004 C 
ENDBRANCH   2   3
ENDBRANCH   1   2
BRANCH   1   5
ATOM      5  C   UNL     1      -7.368  34.624  20.993  1.00  0.00    -0.023 C 
ATOM      6  C   UNL     1      -7.508  33.329  20.664  1.00  0.00     0.042 C 
BRANCH   6   7
ATOM      7  C   UNL     1      -8.247  32.301  21.433  1.00  0.00     0.152 C 
ATOM      8  O   UNL     1      -9.505  32.250  21.429  1.00  0.00    -0.295 OA
ATOM      9  C   UNL     1      -7.485  31.343  22.291  1.00  0.00     0.093 C 
ENDBRANCH   6   7
ENDBRANCH   1   5
TORSDOF 4
ENDMDL
MODEL 8
REMARK VINA RESULT:    -4.401     16.443     17.555
REMARK INTER + INTRA:          -5.716
REMARK INTER:                  -5.268
REMARK INTRA:                  -0.448
REMARK UNBOUND:                -0.285
REMARK SMILES CCCCC=CC(C)=O
REMARK SMILES IDX 4 1 3 2 2 3 1 4 5 5 6 6 7 7 9 8 8 9
REMARK H PARENT
REMARK Flexibility Score: inf
ROOT
ATOM      1  C   UNL     1      -7.882  32.406  24.009  1.00  0.00     0.027 C 
ENDROOT
BRANCH   1   2
ATOM      2  C   UNL     1      -7.885  30.906  24.366  1.00  0.00     0.004 C 
BRANCH   2   3
ATOM      3  C   UNL     1      -7.271  30.007  23.278  1.00  0.00    -0.003 C 
ATOM      4  C   UNL     1      -8.231  28.931  22.776  1.00  0.00     0.004 C 
ENDBRANCH   2   3
ENDBRANCH   1   2
BRANCH   1   5
ATOM      5  C   UNL     1      -9.241  32.912  23.599  1.00  0.00    -0.023 C 
ATOM      6  C   UNL     1      -9.741  32.906  22.352  1.00  0.00     0.042 C 
BRANCH   6   7
ATOM      7  C   UNL     1      -9.046  32.443  21.128  1.00  0.00     0.152 C 
ATOM      8  O   UNL     1      -9.406  31.404  20.516  1.00  0.00    -0.295 OA
ATOM      9  C   UNL     1      -7.844  33.190  20.645  1.00  0.00     0.093 C 
ENDBRANCH   6   7
ENDBRANCH   1   5
TORSDOF 4
ENDMDL
MODEL 9
REMARK VINA RESULT:    -4.344     16.038     17.034
REMARK INTER + INTRA:          -5.645
REMARK INTER:                  -5.376
REMARK INTRA:                  -0.270
REMARK UNBOUND:                -0.285
REMARK SMILES CCCCC=CC(C)=O
REMARK SMILES IDX 4 1 3 2 2 3 1 4 5 5 6 6 7 7 9 8 8 9
REMARK H PARENT
REMARK Flexibility Score: inf
ROOT
ATOM      1  C   UNL     1      -7.122  31.388  22.375  1.00  0.00     0.027 C 
ENDROOT
BRANCH   1   2
ATOM      2  C   UNL     1      -7.192  30.448  23.594  1.00  0.00     0.004 C 
BRANCH   2   3
ATOM      3  C   UNL     1      -8.256  30.853  24.630  1.00  0.00    -0.003 C 
ATOM      4  C   UNL     1      -7.778  30.700  26.072  1.00  0.00     0.004 C 
ENDBRANCH   2   3
ENDBRANCH   1   2
BRANCH   1   5
ATOM      5  C   UNL     1      -8.477  31.875  21.932  1.00  0.00    -0.023 C 
ATOM      6  C   UNL     1      -8.744  33.073  21.384  1.00  0.00     0.042 C 
BRANCH   6   7
ATOM      7  C   UNL     1      -7.773  34.166  21.145  1.00  0.00     0.152 C 
ATOM      8  O   UNL     1      -7.005  34.162  20.148  1.00  0.00    -0.295 OA
ATOM      9  C   UNL     1      -7.653  35.267  22.148  1.00  0.00     0.093 C 
ENDBRANCH   6   7
ENDBRANCH   1   5
TORSDOF 4
ENDMDL
