MODEL 1
REMARK VINA RESULT:    -1.204      0.000      0.000
REMARK INTER + INTRA:          -1.075
REMARK INTER:                  -1.627
REMARK INTRA:                   0.551
REMARK UNBOUND:                 0.551
REMARK SMILES CCCCCCCC(=O)[O-]
REMARK SMILES IDX 5 1 6 2 7 3 8 4 9 5 10 6 4 7 3 8 2 9 1 10
REMARK H PARENT
REMARK Flexibility Score: inf
ROOT
ATOM      1  C   UNL     1      11.357  14.108  -0.361  1.00  0.00     0.000 C 
ENDROOT
BRANCH   1   2
ATOM      2  C   UNL     1      12.201  14.034   0.921  1.00  0.00     0.006 C 
BRANCH   2   3
ATOM      3  C   UNL     1      11.509  14.690   2.125  1.00  0.00     0.053 C 
BRANCH   3   4
ATOM      4  C   UNL     1      11.542  16.180   1.997  1.00  0.00     0.041 C 
ATOM      5  O   UNL     1      12.642  16.793   2.015  1.00  0.00    -0.550 OA
ATOM      6  O   UNL     1      10.356  16.897   1.910  1.00  0.00    -0.550 OA
ENDBRANCH   3   4
ENDBRANCH   2   3
ENDBRANCH   1   2
BRANCH   1   7
ATOM      7  C   UNL     1       9.981  13.439  -0.200  1.00  0.00     0.000 C 
BRANCH   7   8
ATOM      8  C   UNL     1       8.887  14.423   0.257  1.00  0.00    -0.000 C 
BRANCH   8   9
ATOM      9  C   UNL     1       8.491  14.312   1.739  1.00  0.00    -0.003 C 
ATOM     10  C   UNL     1       6.979  14.277   1.955  1.00  0.00     0.004 C 
ENDBRANCH   8   9
ENDBRANCH   7   8
ENDBRANCH   1   7
TORSDOF 6
ENDMDL
MODEL 2
REMARK VINA RESULT:    -0.148     15.752     16.482
REMARK INTER + INTRA:           0.351
REMARK INTER:                   0.574
REMARK INTRA:                  -0.222
REMARK UNBOUND:                 0.551
REMARK SMILES CCCCCCCC(=O)[O-]
REMARK SMILES IDX 5 1 6 2 7 3 8 4 9 5 10 6 4 7 3 8 2 9 1 10
REMARK H PARENT
REMARK Flexibility Score: inf
ROOT
ATOM      1  C   UNL     1      18.274  16.997 -12.633  1.00  0.00     0.000 C 
ENDROOT
BRANCH   1   2
ATOM      2  C   UNL     1      18.237  18.160 -11.629  1.00  0.00     0.006 C 
BRANCH   2   3
ATOM      3  C   UNL     1      19.354  19.185 -11.869  1.00  0.00     0.053 C 
BRANCH   3   4
ATOM      4  C   UNL     1      18.796  20.429 -12.484  1.00  0.00     0.041 C 
ATOM      5  O   UNL     1      19.320  21.548 -12.238  1.00  0.00    -0.550 OA
ATOM      6  O   UNL     1      17.666  20.361 -13.289  1.00  0.00    -0.550 OA
ENDBRANCH   3   4
ENDBRANCH   2   3
ENDBRANCH   1   2
BRANCH   1   7
ATOM      7  C   UNL     1      17.007  16.127 -12.573  1.00  0.00     0.000 C 
BRANCH   7   8
ATOM      8  C   UNL     1      17.184  14.764 -13.270  1.00  0.00    -0.000 C 
BRANCH   8   9
ATOM      9  C   UNL     1      18.627  14.426 -13.679  1.00  0.00    -0.003 C 
ATOM     10  C   UNL     1      19.197  13.222 -12.929  1.00  0.00     0.004 C 
ENDBRANCH   8   9
ENDBRANCH   7   8
ENDBRANCH   1   7
TORSDOF 6
ENDMDL
MODEL 3
REMARK VINA RESULT:    -0.142     15.796     16.780
REMARK INTER + INTRA:           0.360
REMARK INTER:                   0.595
REMARK INTRA:                  -0.236
REMARK UNBOUND:                 0.551
REMARK SMILES CCCCCCCC(=O)[O-]
REMARK SMILES IDX 5 1 6 2 7 3 8 4 9 5 10 6 4 7 3 8 2 9 1 10
REMARK H PARENT
REMARK Flexibility Score: inf
ROOT
ATOM      1  C   UNL     1      17.899  17.307 -12.812  1.00  0.00     0.000 C 
ENDROOT
BRANCH   1   2
ATOM      2  C   UNL     1      17.353  15.871 -12.775  1.00  0.00     0.006 C 
BRANCH   2   3
ATOM      3  C   UNL     1      18.076  14.936 -13.754  1.00  0.00     0.053 C 
BRANCH   3   4
ATOM      4  C   UNL     1      19.094  14.111 -13.032  1.00  0.00     0.041 C 
ATOM      5  O   UNL     1      18.910  12.875 -12.873  1.00  0.00    -0.550 OA
ATOM      6  O   UNL     1      20.221  14.714 -12.490  1.00  0.00    -0.550 OA
ENDBRANCH   3   4
ENDBRANCH   2   3
ENDBRANCH   1   2
BRANCH   1   7
ATOM      7  C   UNL     1      18.350  17.802 -11.428  1.00  0.00     0.000 C 
BRANCH   7   8
ATOM      8  C   UNL     1      18.295  19.335 -11.293  1.00  0.00    -0.000 C 
BRANCH   8   9
ATOM      9  C   UNL     1      18.818  20.114 -12.512  1.00  0.00    -0.003 C 
ATOM     10  C   UNL     1      20.112  20.875 -12.228  1.00  0.00     0.004 C 
ENDBRANCH   8   9
ENDBRANCH   7   8
ENDBRANCH   1   7
TORSDOF 6
ENDMDL
MODEL 4
REMARK VINA RESULT:    -0.119     15.876     16.662
REMARK INTER + INTRA:           0.391
REMARK INTER:                   0.647
REMARK INTRA:                  -0.256
REMARK UNBOUND:                 0.551
REMARK SMILES CCCCCCCC(=O)[O-]
REMARK SMILES IDX 5 1 6 2 7 3 8 4 9 5 10 6 4 7 3 8 2 9 1 10
REMARK H PARENT
REMARK Flexibility Score: inf
ROOT
ATOM      1  C   UNL     1      18.670  17.402 -11.598  1.00  0.00     0.000 C 
ENDROOT
BRANCH   1   2
ATOM      2  C   UNL     1      18.260  18.847 -11.271  1.00  0.00     0.006 C 
BRANCH   2   3
ATOM      3  C   UNL     1      18.366  19.782 -12.484  1.00  0.00     0.053 C 
BRANCH   3   4
ATOM      4  C   UNL     1      19.540  20.697 -12.336  1.00  0.00     0.041 C 
ATOM      5  O   UNL     1      19.367  21.942 -12.265  1.00  0.00    -0.550 OA
ATOM      6  O   UNL     1      20.829  20.179 -12.327  1.00  0.00    -0.550 OA
ENDBRANCH   3   4
ENDBRANCH   2   3
ENDBRANCH   1   2
BRANCH   1   7
ATOM      7  C   UNL     1      18.191  16.954 -12.989  1.00  0.00     0.000 C 
BRANCH   7   8
ATOM      8  C   UNL     1      17.510  15.572 -12.971  1.00  0.00    -0.000 C 
BRANCH   8   9
ATOM      9  C   UNL     1      18.250  14.473 -13.752  1.00  0.00    -0.003 C 
ATOM     10  C   UNL     1      19.294  13.739 -12.911  1.00  0.00     0.004 C 
ENDBRANCH   8   9
ENDBRANCH   7   8
ENDBRANCH   1   7
TORSDOF 6
ENDMDL
MODEL 5
REMARK VINA RESULT:    -0.094      1.475      3.222
REMARK INTER + INTRA:           0.425
REMARK INTER:                  -0.200
REMARK INTRA:                   0.624
REMARK UNBOUND:                 0.551
REMARK SMILES CCCCCCCC(=O)[O-]
REMARK SMILES IDX 5 1 6 2 7 3 8 4 9 5 10 6 4 7 3 8 2 9 1 10
REMARK H PARENT
REMARK Flexibility Score: inf
ROOT
ATOM      1  C   UNL     1      11.125  13.485   0.778  1.00  0.00     0.000 C 
ENDROOT
BRANCH   1   2
ATOM      2  C   UNL     1      10.630  14.035   2.125  1.00  0.00     0.006 C 
BRANCH   2   3
ATOM      3  C   UNL     1       9.289  14.771   2.008  1.00  0.00     0.053 C 
BRANCH   3   4
ATOM      4  C   UNL     1       9.508  16.249   1.952  1.00  0.00     0.041 C 
ATOM      5  O   UNL     1      10.672  16.721   2.045  1.00  0.00    -0.550 OA
ATOM      6  O   UNL     1       8.423  17.111   1.849  1.00  0.00    -0.550 OA
ENDBRANCH   3   4
ENDBRANCH   2   3
ENDBRANCH   1   2
BRANCH   1   7
ATOM      7  C   UNL     1      10.052  13.564  -0.321  1.00  0.00     0.000 C 
BRANCH   7   8
ATOM      8  C   UNL     1      10.652  13.692  -1.735  1.00  0.00    -0.000 C 
BRANCH   8   9
ATOM      9  C   UNL     1      12.161  13.989  -1.776  1.00  0.00    -0.003 C 
ATOM     10  C   UNL     1      13.006  12.887  -1.140  1.00  0.00     0.004 C 
ENDBRANCH   8   9
ENDBRANCH   7   8
ENDBRANCH   1   7
TORSDOF 6
ENDMDL
MODEL 6
REMARK VINA RESULT:     0.267     15.402     16.896
REMARK INTER + INTRA:           0.912
REMARK INTER:                   1.017
REMARK INTRA:                  -0.105
REMARK UNBOUND:                 0.551
REMARK SMILES CCCCCCCC(=O)[O-]
REMARK SMILES IDX 5 1 6 2 7 3 8 4 9 5 10 6 4 7 3 8 2 9 1 10
REMARK H PARENT
REMARK Flexibility Score: inf
ROOT
ATOM      1  C   UNL     1      18.530  18.493 -11.489  1.00  0.00     0.000 C 
ENDROOT
BRANCH   1   2
ATOM      2  C   UNL     1      17.924  17.091 -11.664  1.00  0.00     0.006 C 
BRANCH   2   3
ATOM      3  C   UNL     1      18.131  16.529 -13.077  1.00  0.00     0.053 C 
BRANCH   3   4
ATOM      4  C   UNL     1      17.532  15.163 -13.188  1.00  0.00     0.041 C 
ATOM      5  O   UNL     1      18.244  14.185 -13.540  1.00  0.00    -0.550 OA
ATOM      6  O   UNL     1      16.176  14.977 -12.951  1.00  0.00    -0.550 OA
ENDBRANCH   3   4
ENDBRANCH   2   3
ENDBRANCH   1   2
BRANCH   1   7
ATOM      7  C   UNL     1      18.618  19.267 -12.816  1.00  0.00     0.000 C 
BRANCH   7   8
ATOM      8  C   UNL     1      18.440  20.786 -12.636  1.00  0.00    -0.000 C 
BRANCH   8   9
ATOM      9  C   UNL     1      19.679  21.527 -12.102  1.00  0.00    -0.003 C 
ATOM     10  C   UNL     1      20.976  20.743 -12.296  1.00  0.00     0.004 C 
ENDBRANCH   8   9
ENDBRANCH   7   8
ENDBRANCH   1   7
TORSDOF 6
ENDMDL
MODEL 7
REMARK VINA RESULT:     0.662     15.509     16.301
REMARK INTER + INTRA:           1.446
REMARK INTER:                   1.709
REMARK INTRA:                  -0.263
REMARK UNBOUND:                 0.551
REMARK SMILES CCCCCCCC(=O)[O-]
REMARK SMILES IDX 5 1 6 2 7 3 8 4 9 5 10 6 4 7 3 8 2 9 1 10
REMARK H PARENT
REMARK Flexibility Score: inf
ROOT
ATOM      1  C   UNL     1      18.531  17.447 -11.503  1.00  0.00     0.000 C 
ENDROOT
BRANCH   1   2
ATOM      2  C   UNL     1      18.150  18.900 -11.176  1.00  0.00     0.006 C 
BRANCH   2   3
ATOM      3  C   UNL     1      18.216  19.820 -12.403  1.00  0.00     0.053 C 
BRANCH   3   4
ATOM      4  C   UNL     1      19.439  20.679 -12.345  1.00  0.00     0.041 C 
ATOM      5  O   UNL     1      20.581  20.152 -12.271  1.00  0.00    -0.550 OA
ATOM      6  O   UNL     1      19.317  22.062 -12.321  1.00  0.00    -0.550 OA
ENDBRANCH   3   4
ENDBRANCH   2   3
ENDBRANCH   1   2
BRANCH   1   7
ATOM      7  C   UNL     1      17.915  16.959 -12.825  1.00  0.00     0.000 C 
BRANCH   7   8
ATOM      8  C   UNL     1      18.387  15.547 -13.219  1.00  0.00    -0.000 C 
BRANCH   8   9
ATOM      9  C   UNL     1      17.284  14.474 -13.236  1.00  0.00    -0.003 C 
ATOM     10  C   UNL     1      15.931  14.997 -12.753  1.00  0.00     0.004 C 
ENDBRANCH   8   9
ENDBRANCH   7   8
ENDBRANCH   1   7
TORSDOF 6
ENDMDL
