MODEL 1
REMARK VINA RESULT:    -6.120      0.000      0.000
REMARK INTER + INTRA:          -6.519
REMARK INTER:                  -6.478
REMARK INTRA:                  -0.041
REMARK UNBOUND:                -0.041
REMARK SMILES COc1ccc2ccc(=O)oc2c1
REMARK SMILES IDX 3 1 13 2 12 3 6 4 5 5 4 6 7 7 8 8 9 9 10 10 11 11 2 12 1 13
REMARK H PARENT
REMARK Flexibility Score: inf
ROOT
ATOM      1  C   UNL     1      27.953  24.733  45.607  1.00  0.00     0.122 A 
ATOM      2  C   UNL     1      27.128  23.997  46.469  1.00  0.00     0.094 A 
ATOM      3  C   UNL     1      27.616  23.536  47.696  1.00  0.00     0.142 A 
ATOM      4  C   UNL     1      28.948  23.812  48.071  1.00  0.00     0.018 A 
ATOM      5  C   UNL     1      29.776  24.548  47.212  1.00  0.00     0.016 A 
ATOM      6  C   UNL     1      29.282  25.006  45.987  1.00  0.00     0.047 A 
ATOM      7  C   UNL     1      29.406  23.338  49.303  1.00  0.00     0.019 A 
ATOM      8  C   UNL     1      28.542  22.611  50.121  1.00  0.00     0.094 A 
ATOM      9  C   UNL     1      27.234  22.375  49.684  1.00  0.00     0.336 A 
ATOM     10  O   UNL     1      26.438  21.722  50.408  1.00  0.00    -0.246 OA
ATOM     11  O   UNL     1      26.823  22.838  48.506  1.00  0.00    -0.423 OA
ENDROOT
BRANCH   1  12
ATOM     12  O   UNL     1      27.415  25.172  44.387  1.00  0.00    -0.497 OA
ATOM     13  C   UNL     1      26.043  25.499  44.186  1.00  0.00     0.278 C 
ENDBRANCH   1  12
TORSDOF 1
ENDMDL
MODEL 2
REMARK VINA RESULT:    -5.730      2.198      3.139
REMARK INTER + INTRA:          -6.106
REMARK INTER:                  -6.065
REMARK INTRA:                  -0.041
REMARK UNBOUND:                -0.041
REMARK SMILES COc1ccc2ccc(=O)oc2c1
REMARK SMILES IDX 3 1 13 2 12 3 6 4 5 5 4 6 7 7 8 8 9 9 10 10 11 11 2 12 1 13
REMARK H PARENT
REMARK Flexibility Score: inf
ROOT
ATOM      1  C   UNL     1      28.722  24.396  47.497  1.00  0.00     0.122 A 
ATOM      2  C   UNL     1      29.568  23.683  48.357  1.00  0.00     0.094 A 
ATOM      3  C   UNL     1      29.087  23.183  49.572  1.00  0.00     0.142 A 
ATOM      4  C   UNL     1      27.740  23.399  49.936  1.00  0.00     0.018 A 
ATOM      5  C   UNL     1      26.891  24.111  49.078  1.00  0.00     0.016 A 
ATOM      6  C   UNL     1      27.379  24.608  47.865  1.00  0.00     0.047 A 
ATOM      7  C   UNL     1      27.289  22.887  51.156  1.00  0.00     0.019 A 
ATOM      8  C   UNL     1      28.174  22.184  51.973  1.00  0.00     0.094 A 
ATOM      9  C   UNL     1      29.496  22.010  51.547  1.00  0.00     0.336 A 
ATOM     10  O   UNL     1      30.310  21.378  52.270  1.00  0.00    -0.246 OA
ATOM     11  O   UNL     1      29.899  22.507  50.380  1.00  0.00    -0.423 OA
ENDROOT
BRANCH   1  12
ATOM     12  O   UNL     1      29.255  24.876  46.290  1.00  0.00    -0.497 OA
ATOM     13  C   UNL     1      30.616  25.251  46.106  1.00  0.00     0.278 C 
ENDBRANCH   1  12
TORSDOF 1
ENDMDL
MODEL 3
REMARK VINA RESULT:    -5.718      1.880      5.385
REMARK INTER + INTRA:          -6.093
REMARK INTER:                  -6.063
REMARK INTRA:                  -0.030
REMARK UNBOUND:                -0.041
REMARK SMILES COc1ccc2ccc(=O)oc2c1
REMARK SMILES IDX 3 1 13 2 12 3 6 4 5 5 4 6 7 7 8 8 9 9 10 10 11 11 2 12 1 13
REMARK H PARENT
REMARK Flexibility Score: inf
ROOT
ATOM      1  C   UNL     1      28.312  22.113  50.620  1.00  0.00     0.122 A 
ATOM      2  C   UNL     1      29.285  22.764  49.849  1.00  0.00     0.094 A 
ATOM      3  C   UNL     1      28.926  23.451  48.684  1.00  0.00     0.142 A 
ATOM      4  C   UNL     1      27.574  23.490  48.281  1.00  0.00     0.018 A 
ATOM      5  C   UNL     1      26.598  22.841  49.048  1.00  0.00     0.016 A 
ATOM      6  C   UNL     1      26.963  22.157  50.212  1.00  0.00     0.047 A 
ATOM      7  C   UNL     1      27.247  24.185  47.113  1.00  0.00     0.019 A 
ATOM      8  C   UNL     1      28.256  24.814  46.385  1.00  0.00     0.094 A 
ATOM      9  C   UNL     1      29.575  24.732  46.845  1.00  0.00     0.336 A 
ATOM     10  O   UNL     1      30.501  25.293  46.202  1.00  0.00    -0.246 OA
ATOM     11  O   UNL     1      29.859  24.064  47.961  1.00  0.00    -0.423 OA
ENDROOT
BRANCH   1  12
ATOM     12  O   UNL     1      28.725  21.438  51.779  1.00  0.00    -0.497 OA
ATOM     13  C   UNL     1      28.367  21.822  53.102  1.00  0.00     0.278 C 
ENDBRANCH   1  12
TORSDOF 1
ENDMDL
MODEL 4
REMARK VINA RESULT:    -5.501      1.728      2.535
REMARK INTER + INTRA:          -5.864
REMARK INTER:                  -5.831
REMARK INTRA:                  -0.033
REMARK UNBOUND:                -0.041
REMARK SMILES COc1ccc2ccc(=O)oc2c1
REMARK SMILES IDX 3 1 13 2 12 3 6 4 5 5 4 6 7 7 8 8 9 9 10 10 11 11 2 12 1 13
REMARK H PARENT
REMARK Flexibility Score: inf
ROOT
ATOM      1  C   UNL     1      27.716  24.215  48.076  1.00  0.00     0.122 A 
ATOM      2  C   UNL     1      27.101  23.854  49.283  1.00  0.00     0.094 A 
ATOM      3  C   UNL     1      27.821  23.175  50.271  1.00  0.00     0.142 A 
ATOM      4  C   UNL     1      29.178  22.850  50.053  1.00  0.00     0.018 A 
ATOM      5  C   UNL     1      29.796  23.210  48.849  1.00  0.00     0.016 A 
ATOM      6  C   UNL     1      29.070  23.889  47.865  1.00  0.00     0.047 A 
ATOM      7  C   UNL     1      29.871  22.172  51.060  1.00  0.00     0.019 A 
ATOM      8  C   UNL     1      29.209  21.837  52.240  1.00  0.00     0.094 A 
ATOM      9  C   UNL     1      27.863  22.190  52.386  1.00  0.00     0.336 A 
ATOM     10  O   UNL     1      27.248  21.898  53.445  1.00  0.00    -0.246 OA
ATOM     11  O   UNL     1      27.227  22.837  51.413  1.00  0.00    -0.423 OA
ENDROOT
BRANCH   1  12
ATOM     12  O   UNL     1      26.948  24.895  47.118  1.00  0.00    -0.497 OA
ATOM     13  C   UNL     1      26.968  24.610  45.723  1.00  0.00     0.278 C 
ENDBRANCH   1  12
TORSDOF 1
ENDMDL
MODEL 5
REMARK VINA RESULT:    -5.492      2.211      5.606
REMARK INTER + INTRA:          -5.854
REMARK INTER:                  -5.811
REMARK INTRA:                  -0.043
REMARK UNBOUND:                -0.041
REMARK SMILES COc1ccc2ccc(=O)oc2c1
REMARK SMILES IDX 3 1 13 2 12 3 6 4 5 5 4 6 7 7 8 8 9 9 10 10 11 11 2 12 1 13
REMARK H PARENT
REMARK Flexibility Score: inf
ROOT
ATOM      1  C   UNL     1      29.331  22.257  51.459  1.00  0.00     0.122 A 
ATOM      2  C   UNL     1      29.847  22.711  50.237  1.00  0.00     0.094 A 
ATOM      3  C   UNL     1      29.031  23.403  49.335  1.00  0.00     0.142 A 
ATOM      4  C   UNL     1      27.679  23.646  49.656  1.00  0.00     0.018 A 
ATOM      5  C   UNL     1      27.159  23.195  50.876  1.00  0.00     0.016 A 
ATOM      6  C   UNL     1      27.980  22.504  51.774  1.00  0.00     0.047 A 
ATOM      7  C   UNL     1      26.890  24.340  48.734  1.00  0.00     0.019 A 
ATOM      8  C   UNL     1      27.455  24.769  47.534  1.00  0.00     0.094 A 
ATOM      9  C   UNL     1      28.804  24.490  47.283  1.00  0.00     0.336 A 
ATOM     10  O   UNL     1      29.333  24.869  46.206  1.00  0.00    -0.246 OA
ATOM     11  O   UNL     1      29.533  23.828  48.178  1.00  0.00    -0.423 OA
ENDROOT
BRANCH   1  12
ATOM     12  O   UNL     1      30.191  21.568  52.328  1.00  0.00    -0.497 OA
ATOM     13  C   UNL     1      31.472  21.068  51.960  1.00  0.00     0.278 C 
ENDBRANCH   1  12
TORSDOF 1
ENDMDL
MODEL 6
REMARK VINA RESULT:    -5.486      1.320      4.880
REMARK INTER + INTRA:          -5.847
REMARK INTER:                  -5.812
REMARK INTRA:                  -0.036
REMARK UNBOUND:                -0.041
REMARK SMILES COc1ccc2ccc(=O)oc2c1
REMARK SMILES IDX 3 1 13 2 12 3 6 4 5 5 4 6 7 7 8 8 9 9 10 10 11 11 2 12 1 13
REMARK H PARENT
REMARK Flexibility Score: inf
ROOT
ATOM      1  C   UNL     1      27.842  23.088  50.679  1.00  0.00     0.122 A 
ATOM      2  C   UNL     1      27.048  23.483  49.593  1.00  0.00     0.094 A 
ATOM      3  C   UNL     1      27.638  23.941  48.411  1.00  0.00     0.142 A 
ATOM      4  C   UNL     1      29.044  24.007  48.308  1.00  0.00     0.018 A 
ATOM      5  C   UNL     1      29.842  23.613  49.390  1.00  0.00     0.016 A 
ATOM      6  C   UNL     1      29.246  23.156  50.569  1.00  0.00     0.047 A 
ATOM      7  C   UNL     1      29.604  24.468  47.113  1.00  0.00     0.019 A 
ATOM      8  C   UNL     1      28.766  24.848  46.066  1.00  0.00     0.094 A 
ATOM      9  C   UNL     1      27.381  24.756  46.240  1.00  0.00     0.336 A 
ATOM     10  O   UNL     1      26.607  25.093  45.306  1.00  0.00    -0.246 OA
ATOM     11  O   UNL     1      26.873  24.313  47.387  1.00  0.00    -0.423 OA
ENDROOT
BRANCH   1  12
ATOM     12  O   UNL     1      27.200  22.637  51.842  1.00  0.00    -0.497 OA
ATOM     13  C   UNL     1      27.875  22.105  52.978  1.00  0.00     0.278 C 
ENDBRANCH   1  12
TORSDOF 1
ENDMDL
MODEL 7
REMARK VINA RESULT:    -5.390      2.713      4.090
REMARK INTER + INTRA:          -5.746
REMARK INTER:                  -5.713
REMARK INTRA:                  -0.033
REMARK UNBOUND:                -0.041
REMARK SMILES COc1ccc2ccc(=O)oc2c1
REMARK SMILES IDX 3 1 13 2 12 3 6 4 5 5 4 6 7 7 8 8 9 9 10 10 11 11 2 12 1 13
REMARK H PARENT
REMARK Flexibility Score: inf
ROOT
ATOM      1  C   UNL     1      27.313  24.073  49.048  1.00  0.00     0.122 A 
ATOM      2  C   UNL     1      28.530  24.376  49.674  1.00  0.00     0.094 A 
ATOM      3  C   UNL     1      28.975  23.621  50.764  1.00  0.00     0.142 A 
ATOM      4  C   UNL     1      28.193  22.546  51.240  1.00  0.00     0.018 A 
ATOM      5  C   UNL     1      26.976  22.240  50.617  1.00  0.00     0.016 A 
ATOM      6  C   UNL     1      26.538  22.998  49.527  1.00  0.00     0.047 A 
ATOM      7  C   UNL     1      28.665  21.811  52.331  1.00  0.00     0.019 A 
ATOM      8  C   UNL     1      29.883  22.157  52.915  1.00  0.00     0.094 A 
ATOM      9  C   UNL     1      30.603  23.236  52.390  1.00  0.00     0.336 A 
ATOM     10  O   UNL     1      31.705  23.564  52.903  1.00  0.00    -0.246 OA
ATOM     11  O   UNL     1      30.132  23.919  51.350  1.00  0.00    -0.423 OA
ENDROOT
BRANCH   1  12
ATOM     12  O   UNL     1      26.913  24.861  47.958  1.00  0.00    -0.497 OA
ATOM     13  C   UNL     1      27.233  24.576  46.600  1.00  0.00     0.278 C 
ENDBRANCH   1  12
TORSDOF 1
ENDMDL
MODEL 8
REMARK VINA RESULT:    -5.065      2.340      5.717
REMARK INTER + INTRA:          -5.403
REMARK INTER:                  -5.362
REMARK INTRA:                  -0.041
REMARK UNBOUND:                -0.041
REMARK SMILES COc1ccc2ccc(=O)oc2c1
REMARK SMILES IDX 3 1 13 2 12 3 6 4 5 5 4 6 7 7 8 8 9 9 10 10 11 11 2 12 1 13
REMARK H PARENT
REMARK Flexibility Score: inf
ROOT
ATOM      1  C   UNL     1      29.111  22.054  52.502  1.00  0.00     0.122 A 
ATOM      2  C   UNL     1      28.157  22.797  51.793  1.00  0.00     0.094 A 
ATOM      3  C   UNL     1      28.418  23.225  50.487  1.00  0.00     0.142 A 
ATOM      4  C   UNL     1      29.650  22.907  49.877  1.00  0.00     0.018 A 
ATOM      5  C   UNL     1      30.606  22.164  50.582  1.00  0.00     0.016 A 
ATOM      6  C   UNL     1      30.339  21.739  51.887  1.00  0.00     0.047 A 
ATOM      7  C   UNL     1      29.881  23.348  48.571  1.00  0.00     0.019 A 
ATOM      8  C   UNL     1      28.896  24.084  47.913  1.00  0.00     0.094 A 
ATOM      9  C   UNL     1      27.698  24.363  48.581  1.00  0.00     0.336 A 
ATOM     10  O   UNL     1      26.797  25.025  48.004  1.00  0.00    -0.246 OA
ATOM     11  O   UNL     1      27.504  23.930  49.824  1.00  0.00    -0.423 OA
ENDROOT
BRANCH   1  12
ATOM     12  O   UNL     1      28.799  21.649  53.809  1.00  0.00    -0.497 OA
ATOM     13  C   UNL     1      27.955  22.377  54.696  1.00  0.00     0.278 C 
ENDBRANCH   1  12
TORSDOF 1
ENDMDL
MODEL 9
REMARK VINA RESULT:    -4.842     10.325     11.880
REMARK INTER + INTRA:          -5.166
REMARK INTER:                  -5.132
REMARK INTRA:                  -0.034
REMARK UNBOUND:                -0.041
REMARK SMILES COc1ccc2ccc(=O)oc2c1
REMARK SMILES IDX 3 1 13 2 12 3 6 4 5 5 4 6 7 7 8 8 9 9 10 10 11 11 2 12 1 13
REMARK H PARENT
REMARK Flexibility Score: inf
ROOT
ATOM      1  C   UNL     1      17.411  26.406  43.829  1.00  0.00     0.122 A 
ATOM      2  C   UNL     1      17.437  26.396  42.428  1.00  0.00     0.094 A 
ATOM      3  C   UNL     1      18.587  26.789  41.736  1.00  0.00     0.142 A 
ATOM      4  C   UNL     1      19.732  27.200  42.452  1.00  0.00     0.018 A 
ATOM      5  C   UNL     1      19.710  27.211  43.853  1.00  0.00     0.016 A 
ATOM      6  C   UNL     1      18.557  26.817  44.539  1.00  0.00     0.047 A 
ATOM      7  C   UNL     1      20.866  27.586  41.733  1.00  0.00     0.019 A 
ATOM      8  C   UNL     1      20.836  27.556  40.339  1.00  0.00     0.094 A 
ATOM      9  C   UNL     1      19.665  27.138  39.696  1.00  0.00     0.336 A 
ATOM     10  O   UNL     1      19.618  27.104  38.438  1.00  0.00    -0.246 OA
ATOM     11  O   UNL     1      18.600  26.775  40.405  1.00  0.00    -0.423 OA
ENDROOT
BRANCH   1  12
ATOM     12  O   UNL     1      16.231  26.003  44.474  1.00  0.00    -0.497 OA
ATOM     13  C   UNL     1      15.834  24.647  44.647  1.00  0.00     0.278 C 
ENDBRANCH   1  12
TORSDOF 1
ENDMDL
