MODEL 1
REMARK VINA RESULT:    -7.738      0.000      0.000
REMARK INTER + INTRA:         -11.064
REMARK INTER:                  -9.774
REMARK INTRA:                  -1.290
REMARK UNBOUND:                -1.290
REMARK SMILES O=c1c(-c2ccc(O)cc2)coc2c([C@@H]3O[C@H](CO)[C@H](O)[C@@H](O)[C@H]3O)c(O)ccc12
REMARK SMILES IDX 3 1 11 2 12 3 13 4 30 5 2 6 1 7 29 8 28 9 26 10 14 11 4 12
REMARK SMILES IDX 5 13 6 14 7 15 10 16 9 17 8 18 15 20 24 21 16 22 22 23 17 24
REMARK SMILES IDX 20 25 25 26 23 28 18 30 19 31 21 33 27 35
REMARK H PARENT 8 19 25 27 23 29 19 32 21 34 27 36
REMARK Flexibility Score: inf
ROOT
ATOM      1  C   UNL     1      15.045  16.085  13.658  1.00  0.00     0.065 A 
ATOM      2  C   UNL     1      15.082  17.470  13.350  1.00  0.00     0.208 A 
ATOM      3  O   UNL     1      14.522  17.942  12.275  1.00  0.00    -0.463 OA
ATOM      4  C   UNL     1      14.242  17.073  11.191  1.00  0.00     0.147 A 
ATOM      5  C   UNL     1      14.144  15.636  11.514  1.00  0.00     0.066 A 
ATOM      6  C   UNL     1      14.419  15.267  12.816  1.00  0.00     0.200 A 
ATOM      7  O   UNL     1      13.990  14.143  13.265  1.00  0.00    -0.288 OA
ATOM      8  C   UNL     1      13.807  14.790  10.479  1.00  0.00     0.020 A 
ATOM      9  C   UNL     1      13.559  15.520   9.188  1.00  0.00     0.047 A 
ATOM     10  C   UNL     1      13.735  16.945   9.278  1.00  0.00     0.125 A 
ATOM     11  C   UNL     1      15.052  17.670   9.915  1.00  0.00     0.069 A 
ENDROOT
BRANCH   1  12
ATOM     12  C   UNL     1      15.826  15.598  14.799  1.00  0.00    -0.011 A 
ATOM     13  C   UNL     1      15.657  16.081  16.091  1.00  0.00     0.013 A 
ATOM     14  C   UNL     1      16.363  15.536  17.158  1.00  0.00     0.047 A 
ATOM     15  C   UNL     1      17.317  14.574  16.948  1.00  0.00     0.115 A 
ATOM     16  C   UNL     1      16.992  14.788  14.536  1.00  0.00     0.013 A 
ATOM     17  C   UNL     1      17.722  14.332  15.617  1.00  0.00     0.047 A 
BRANCH  15  18
ATOM     18  O   UNL     1      17.857  13.774  17.977  1.00  0.00    -0.508 OA
ATOM     19  H   UNL     1      18.866  13.477  17.802  1.00  0.00     0.293 HD
ENDBRANCH  15  18
ENDBRANCH   1  12
BRANCH  11  20
ATOM     20  C   UNL     1      16.353  16.855   9.567  1.00  0.00     0.188 C 
ATOM     21  C   UNL     1      16.811  17.079   8.053  1.00  0.00     0.179 C 
ATOM     22  O   UNL     1      17.500  16.849  10.530  1.00  0.00    -0.362 OA
ATOM     23  C   UNL     1      17.756  15.889   7.751  1.00  0.00     0.177 C 
ATOM     24  C   UNL     1      18.390  15.698  10.239  1.00  0.00     0.176 C 
ATOM     25  C   UNL     1      18.933  15.730   8.765  1.00  0.00     0.177 C 
BRANCH  21  26
ATOM     26  O   UNL     1      15.740  17.195   7.117  1.00  0.00    -0.387 OA
ATOM     27  H   UNL     1      15.453  18.144   7.091  1.00  0.00     0.211 HD
ENDBRANCH  21  26
BRANCH  23  28
ATOM     28  O   UNL     1      17.025  14.617   7.407  1.00  0.00    -0.387 OA
ATOM     29  H   UNL     1      17.391  14.058   8.307  1.00  0.00     0.211 HD
ENDBRANCH  23  28
BRANCH  24  30
ATOM     30  C   UNL     1      19.715  15.539  11.287  1.00  0.00     0.191 C 
BRANCH  30  31
ATOM     31  O   UNL     1      20.125  16.783  11.697  1.00  0.00    -0.394 OA
ATOM     32  H   UNL     1      21.096  16.931  11.396  1.00  0.00     0.210 HD
ENDBRANCH  30  31
ENDBRANCH  24  30
BRANCH  25  33
ATOM     33  O   UNL     1      19.898  16.760   8.646  1.00  0.00    -0.388 OA
ATOM     34  H   UNL     1      19.441  17.399   8.099  1.00  0.00     0.211 HD
ENDBRANCH  25  33
ENDBRANCH  11  20
BRANCH  10  35
ATOM     35  O   UNL     1      12.833  17.757   8.529  1.00  0.00    -0.507 OA
ATOM     36  H   UNL     1      12.390  17.451   7.694  1.00  0.00     0.293 HD
ENDBRANCH  10  35
TORSDOF 9
ENDMDL
MODEL 2
REMARK VINA RESULT:    -7.220      2.776      7.817
REMARK INTER + INTRA:         -10.409
REMARK INTER:                  -8.992
REMARK INTRA:                  -1.417
REMARK UNBOUND:                -1.290
REMARK SMILES O=c1c(-c2ccc(O)cc2)coc2c([C@@H]3O[C@H](CO)[C@H](O)[C@@H](O)[C@H]3O)c(O)ccc12
REMARK SMILES IDX 3 1 11 2 12 3 13 4 30 5 2 6 1 7 29 8 28 9 26 10 14 11 4 12
REMARK SMILES IDX 5 13 6 14 7 15 10 16 9 17 8 18 15 20 24 21 16 22 22 23 17 24
REMARK SMILES IDX 20 25 25 26 23 28 18 30 19 31 21 33 27 35
REMARK H PARENT 8 19 25 27 23 29 19 32 21 34 27 36
REMARK Flexibility Score: inf
ROOT
ATOM      1  C   UNL     1      16.228  15.838  13.345  1.00  0.00     0.065 A 
ATOM      2  C   UNL     1      15.617  16.258  14.556  1.00  0.00     0.208 A 
ATOM      3  O   UNL     1      16.020  15.814  15.710  1.00  0.00    -0.463 OA
ATOM      4  C   UNL     1      16.765  14.610  15.776  1.00  0.00     0.147 A 
ATOM      5  C   UNL     1      17.452  14.197  14.537  1.00  0.00     0.066 A 
ATOM      6  C   UNL     1      17.234  14.970  13.413  1.00  0.00     0.200 A 
ATOM      7  O   UNL     1      18.065  14.923  12.436  1.00  0.00    -0.288 OA
ATOM      8  C   UNL     1      18.232  13.063  14.609  1.00  0.00     0.020 A 
ATOM      9  C   UNL     1      18.267  12.467  15.989  1.00  0.00     0.047 A 
ATOM     10  C   UNL     1      17.473  13.179  16.954  1.00  0.00     0.125 A 
ATOM     11  C   UNL     1      15.912  13.604  16.727  1.00  0.00     0.069 A 
ENDROOT
BRANCH   1  12
ATOM     12  C   UNL     1      15.628  16.253  12.074  1.00  0.00    -0.011 A 
ATOM     13  C   UNL     1      14.913  15.386  11.257  1.00  0.00     0.013 A 
ATOM     14  C   UNL     1      14.292  15.840  10.098  1.00  0.00     0.047 A 
ATOM     15  C   UNL     1      14.452  17.137   9.680  1.00  0.00     0.115 A 
ATOM     16  C   UNL     1      16.014  17.528  11.518  1.00  0.00     0.013 A 
ATOM     17  C   UNL     1      15.443  17.914  10.320  1.00  0.00     0.047 A 
BRANCH  15  18
ATOM     18  O   UNL     1      13.639  17.747   8.702  1.00  0.00    -0.508 OA
ATOM     19  H   UNL     1      14.082  18.607   8.255  1.00  0.00     0.293 HD
ENDBRANCH  15  18
ENDBRANCH   1  12
BRANCH  11  20
ATOM     20  C   UNL     1      15.147  12.488  15.923  1.00  0.00     0.188 C 
ATOM     21  C   UNL     1      14.073  11.729  16.831  1.00  0.00     0.179 C 
ATOM     22  O   UNL     1      14.643  12.784  14.545  1.00  0.00    -0.362 OA
ATOM     23  C   UNL     1      13.783  10.410  16.073  1.00  0.00     0.177 C 
ATOM     24  C   UNL     1      14.383  11.512  13.826  1.00  0.00     0.176 C 
ATOM     25  C   UNL     1      13.350  10.605  14.585  1.00  0.00     0.177 C 
BRANCH  21  26
ATOM     26  O   UNL     1      14.476  11.521  18.184  1.00  0.00    -0.387 OA
ATOM     27  H   UNL     1      13.671  11.289  18.714  1.00  0.00     0.211 HD
ENDBRANCH  21  26
BRANCH  23  28
ATOM     28  O   UNL     1      14.824   9.345  16.307  1.00  0.00    -0.387 OA
ATOM     29  H   UNL     1      14.126   8.656  16.849  1.00  0.00     0.211 HD
ENDBRANCH  23  28
BRANCH  24  30
ATOM     30  C   UNL     1      13.848  11.696  12.225  1.00  0.00     0.191 C 
BRANCH  30  31
ATOM     31  O   UNL     1      12.936  12.720  12.163  1.00  0.00    -0.394 OA
ATOM     32  H   UNL     1      13.070  13.338  12.974  1.00  0.00     0.210 HD
ENDBRANCH  30  31
ENDBRANCH  24  30
BRANCH  25  33
ATOM     33  O   UNL     1      12.056  11.169  14.464  1.00  0.00    -0.388 OA
ATOM     34  H   UNL     1      11.973  11.275  13.516  1.00  0.00     0.211 HD
ENDBRANCH  25  33
ENDBRANCH  11  20
BRANCH  10  35
ATOM     35  O   UNL     1      17.997  13.279  18.277  1.00  0.00    -0.507 OA
ATOM     36  H   UNL     1      17.469  13.058  19.089  1.00  0.00     0.293 HD
ENDBRANCH  10  35
TORSDOF 9
ENDMDL
MODEL 3
REMARK VINA RESULT:    -7.088      2.945      4.626
REMARK INTER + INTRA:         -10.242
REMARK INTER:                  -8.739
REMARK INTRA:                  -1.503
REMARK UNBOUND:                -1.290
REMARK SMILES O=c1c(-c2ccc(O)cc2)coc2c([C@@H]3O[C@H](CO)[C@H](O)[C@@H](O)[C@H]3O)c(O)ccc12
REMARK SMILES IDX 3 1 11 2 12 3 13 4 30 5 2 6 1 7 29 8 28 9 26 10 14 11 4 12
REMARK SMILES IDX 5 13 6 14 7 15 10 16 9 17 8 18 15 20 24 21 16 22 22 23 17 24
REMARK SMILES IDX 20 25 25 26 23 28 18 30 19 31 21 33 27 35
REMARK H PARENT 8 19 25 27 23 29 19 32 21 34 27 36
REMARK Flexibility Score: inf
ROOT
ATOM      1  C   UNL     1      15.959  12.706  14.568  1.00  0.00     0.065 A 
ATOM      2  C   UNL     1      14.599  12.298  14.577  1.00  0.00     0.208 A 
ATOM      3  O   UNL     1      13.978  11.978  13.481  1.00  0.00    -0.463 OA
ATOM      4  C   UNL     1      14.483  12.423  12.233  1.00  0.00     0.147 A 
ATOM      5  C   UNL     1      15.911  12.792  12.201  1.00  0.00     0.066 A 
ATOM      6  C   UNL     1      16.595  12.753  13.400  1.00  0.00     0.200 A 
ATOM      7  O   UNL     1      17.877  12.675  13.402  1.00  0.00    -0.288 OA
ATOM      8  C   UNL     1      16.428  13.164  10.978  1.00  0.00     0.020 A 
ATOM      9  C   UNL     1      15.416  13.081   9.869  1.00  0.00     0.047 A 
ATOM     10  C   UNL     1      14.112  12.651  10.298  1.00  0.00     0.125 A 
ATOM     11  C   UNL     1      13.296  13.302  11.554  1.00  0.00     0.069 A 
ENDROOT
BRANCH   1  12
ATOM     12  C   UNL     1      16.552  13.201  15.813  1.00  0.00    -0.011 A 
ATOM     13  C   UNL     1      16.868  12.372  16.881  1.00  0.00     0.013 A 
ATOM     14  C   UNL     1      17.503  12.871  18.014  1.00  0.00     0.047 A 
ATOM     15  C   UNL     1      17.745  14.214  18.146  1.00  0.00     0.115 A 
ATOM     16  C   UNL     1      16.562  14.626  16.048  1.00  0.00     0.013 A 
ATOM     17  C   UNL     1      17.125  15.086  17.223  1.00  0.00     0.047 A 
BRANCH  15  18
ATOM     18  O   UNL     1      18.627  14.757  19.103  1.00  0.00    -0.508 OA
ATOM     19  H   UNL     1      18.215  15.575  19.648  1.00  0.00     0.293 HD
ENDBRANCH  15  18
ENDBRANCH   1  12
BRANCH  11  20
ATOM     20  C   UNL     1      13.548  14.853  11.632  1.00  0.00     0.188 C 
ATOM     21  C   UNL     1      12.265  15.690  11.177  1.00  0.00     0.179 C 
ATOM     22  O   UNL     1      14.227  15.432  12.835  1.00  0.00    -0.362 OA
ATOM     23  C   UNL     1      12.815  17.102  10.854  1.00  0.00     0.177 C 
ATOM     24  C   UNL     1      14.760  16.777  12.508  1.00  0.00     0.176 C 
ATOM     25  C   UNL     1      13.633  17.754  12.013  1.00  0.00     0.177 C 
BRANCH  21  26
ATOM     26  O   UNL     1      11.530  15.114  10.098  1.00  0.00    -0.387 OA
ATOM     27  H   UNL     1      11.936  14.236   9.882  1.00  0.00     0.211 HD
ENDBRANCH  21  26
BRANCH  23  28
ATOM     28  O   UNL     1      13.441  17.201   9.486  1.00  0.00    -0.387 OA
ATOM     29  H   UNL     1      14.213  16.414   9.685  1.00  0.00     0.211 HD
ENDBRANCH  23  28
BRANCH  24  30
ATOM     30  C   UNL     1      15.600  17.537  13.772  1.00  0.00     0.191 C 
BRANCH  30  31
ATOM     31  O   UNL     1      14.877  17.425  14.933  1.00  0.00    -0.394 OA
ATOM     32  H   UNL     1      15.491  17.072  15.678  1.00  0.00     0.210 HD
ENDBRANCH  30  31
ENDBRANCH  24  30
BRANCH  25  33
ATOM     33  O   UNL     1      12.822  18.125  13.112  1.00  0.00    -0.388 OA
ATOM     34  H   UNL     1      12.037  18.459  12.677  1.00  0.00     0.211 HD
ENDBRANCH  25  33
ENDBRANCH  11  20
BRANCH  10  35
ATOM     35  O   UNL     1      13.388  11.799   9.413  1.00  0.00    -0.507 OA
ATOM     36  H   UNL     1      13.821  11.266   8.694  1.00  0.00     0.293 HD
ENDBRANCH  10  35
TORSDOF 9
ENDMDL
MODEL 4
REMARK VINA RESULT:    -6.986      3.606      6.176
REMARK INTER + INTRA:         -10.114
REMARK INTER:                  -8.735
REMARK INTRA:                  -1.380
REMARK UNBOUND:                -1.290
REMARK SMILES O=c1c(-c2ccc(O)cc2)coc2c([C@@H]3O[C@H](CO)[C@H](O)[C@@H](O)[C@H]3O)c(O)ccc12
REMARK SMILES IDX 3 1 11 2 12 3 13 4 30 5 2 6 1 7 29 8 28 9 26 10 14 11 4 12
REMARK SMILES IDX 5 13 6 14 7 15 10 16 9 17 8 18 15 20 24 21 16 22 22 23 17 24
REMARK SMILES IDX 20 25 25 26 23 28 18 30 19 31 21 33 27 35
REMARK H PARENT 8 19 25 27 23 29 19 32 21 34 27 36
REMARK Flexibility Score: inf
ROOT
ATOM      1  C   UNL     1      12.867  11.694   9.875  1.00  0.00     0.065 A 
ATOM      2  C   UNL     1      13.375  11.898  11.185  1.00  0.00     0.208 A 
ATOM      3  O   UNL     1      13.040  12.938  11.890  1.00  0.00    -0.463 OA
ATOM      4  C   UNL     1      12.521  14.086  11.241  1.00  0.00     0.147 A 
ATOM      5  C   UNL     1      11.937  13.873   9.902  1.00  0.00     0.066 A 
ATOM      6  C   UNL     1      12.031  12.600   9.375  1.00  0.00     0.200 A 
ATOM      7  O   UNL     1      11.236  12.240   8.432  1.00  0.00    -0.288 OA
ATOM      8  C   UNL     1      11.371  14.971   9.291  1.00  0.00     0.020 A 
ATOM      9  C   UNL     1      11.423  16.205  10.147  1.00  0.00     0.047 A 
ATOM     10  C   UNL     1      12.062  16.008  11.421  1.00  0.00     0.125 A 
ATOM     11  C   UNL     1      13.525  15.309  11.616  1.00  0.00     0.069 A 
ENDROOT
BRANCH   1  12
ATOM     12  C   UNL     1      13.403  10.587   9.078  1.00  0.00    -0.011 A 
ATOM     13  C   UNL     1      12.881   9.301   9.126  1.00  0.00     0.013 A 
ATOM     14  C   UNL     1      13.368   8.297   8.294  1.00  0.00     0.047 A 
ATOM     15  C   UNL     1      14.443   8.528   7.475  1.00  0.00     0.115 A 
ATOM     16  C   UNL     1      14.678  10.766   8.426  1.00  0.00     0.013 A 
ATOM     17  C   UNL     1      15.176   9.718   7.674  1.00  0.00     0.047 A 
BRANCH  15  18
ATOM     18  O   UNL     1      14.807   7.680   6.408  1.00  0.00    -0.508 OA
ATOM     19  H   UNL     1      15.608   7.018   6.644  1.00  0.00     0.293 HD
ENDBRANCH  15  18
ENDBRANCH   1  12
BRANCH  11  20
ATOM     20  C   UNL     1      14.489  15.706  10.437  1.00  0.00     0.188 C 
ATOM     21  C   UNL     1      15.069  17.184  10.613  1.00  0.00     0.179 C 
ATOM     22  O   UNL     1      15.518  14.727   9.962  1.00  0.00    -0.362 OA
ATOM     23  C   UNL     1      15.570  17.578   9.201  1.00  0.00     0.177 C 
ATOM     24  C   UNL     1      15.978  15.108   8.604  1.00  0.00     0.176 C 
ATOM     25  C   UNL     1      16.572  16.561   8.568  1.00  0.00     0.177 C 
BRANCH  21  26
ATOM     26  O   UNL     1      14.148  18.125  11.163  1.00  0.00    -0.387 OA
ATOM     27  H   UNL     1      13.244  17.912  10.815  1.00  0.00     0.211 HD
ENDBRANCH  21  26
BRANCH  23  28
ATOM     28  O   UNL     1      14.469  18.052   8.287  1.00  0.00    -0.387 OA
ATOM     29  H   UNL     1      14.938  17.634   7.359  1.00  0.00     0.211 HD
ENDBRANCH  23  28
BRANCH  24  30
ATOM     30  C   UNL     1      17.118  14.054   7.917  1.00  0.00     0.191 C 
BRANCH  30  31
ATOM     31  O   UNL     1      17.849  13.458   8.915  1.00  0.00    -0.394 OA
ATOM     32  H   UNL     1      17.330  12.645   9.270  1.00  0.00     0.210 HD
ENDBRANCH  30  31
ENDBRANCH  24  30
BRANCH  25  33
ATOM     33  O   UNL     1      17.833  16.566   9.213  1.00  0.00    -0.388 OA
ATOM     34  H   UNL     1      18.266  17.313   8.799  1.00  0.00     0.211 HD
ENDBRANCH  25  33
ENDBRANCH  11  20
BRANCH  10  35
ATOM     35  O   UNL     1      11.509  16.701  12.538  1.00  0.00    -0.507 OA
ATOM     36  H   UNL     1      11.974  16.785  13.412  1.00  0.00     0.293 HD
ENDBRANCH  10  35
TORSDOF 9
ENDMDL
MODEL 5
REMARK VINA RESULT:    -6.772      2.873      7.503
REMARK INTER + INTRA:          -9.844
REMARK INTER:                  -8.571
REMARK INTRA:                  -1.273
REMARK UNBOUND:                -1.290
REMARK SMILES O=c1c(-c2ccc(O)cc2)coc2c([C@@H]3O[C@H](CO)[C@H](O)[C@@H](O)[C@H]3O)c(O)ccc12
REMARK SMILES IDX 3 1 11 2 12 3 13 4 30 5 2 6 1 7 29 8 28 9 26 10 14 11 4 12
REMARK SMILES IDX 5 13 6 14 7 15 10 16 9 17 8 18 15 20 24 21 16 22 22 23 17 24
REMARK SMILES IDX 20 25 25 26 23 28 18 30 19 31 21 33 27 35
REMARK H PARENT 8 19 25 27 23 29 19 32 21 34 27 36
REMARK Flexibility Score: inf
ROOT
ATOM      1  C   UNL     1      14.599  15.873  11.155  1.00  0.00     0.065 A 
ATOM      2  C   UNL     1      14.121  16.145  12.464  1.00  0.00     0.208 A 
ATOM      3  O   UNL     1      14.860  15.937  13.514  1.00  0.00    -0.463 OA
ATOM      4  C   UNL     1      15.966  15.055  13.428  1.00  0.00     0.147 A 
ATOM      5  C   UNL     1      16.506  14.813  12.076  1.00  0.00     0.066 A 
ATOM      6  C   UNL     1      15.832  15.395  11.020  1.00  0.00     0.200 A 
ATOM      7  O   UNL     1      16.431  15.562   9.896  1.00  0.00    -0.288 OA
ATOM      8  C   UNL     1      17.622  14.009  11.988  1.00  0.00     0.020 A 
ATOM      9  C   UNL     1      18.115  13.550  13.332  1.00  0.00     0.047 A 
ATOM     10  C   UNL     1      17.324  14.020  14.438  1.00  0.00     0.125 A 
ATOM     11  C   UNL     1      15.699  13.888  14.527  1.00  0.00     0.069 A 
ENDROOT
BRANCH   1  12
ATOM     12  C   UNL     1      13.665  15.982  10.030  1.00  0.00    -0.011 A 
ATOM     13  C   UNL     1      13.771  16.965   9.054  1.00  0.00     0.013 A 
ATOM     14  C   UNL     1      12.911  16.985   7.960  1.00  0.00     0.047 A 
ATOM     15  C   UNL     1      11.874  16.093   7.869  1.00  0.00     0.115 A 
ATOM     16  C   UNL     1      12.441  15.218  10.078  1.00  0.00     0.013 A 
ATOM     17  C   UNL     1      11.567  15.325   9.013  1.00  0.00     0.047 A 
BRANCH  15  18
ATOM     18  O   UNL     1      11.152  15.855   6.680  1.00  0.00    -0.508 OA
ATOM     19  H   UNL     1      10.621  16.708   6.326  1.00  0.00     0.293 HD
ENDBRANCH  15  18
ENDBRANCH   1  12
BRANCH  11  20
ATOM     20  C   UNL     1      15.219  12.531  13.891  1.00  0.00     0.188 C 
ATOM     21  C   UNL     1      14.689  11.507  14.997  1.00  0.00     0.179 C 
ATOM     22  O   UNL     1      14.367  12.553  12.659  1.00  0.00    -0.362 OA
ATOM     23  C   UNL     1      14.724  10.125  14.298  1.00  0.00     0.177 C 
ATOM     24  C   UNL     1      14.420  11.229  11.992  1.00  0.00     0.176 C 
ATOM     25  C   UNL     1      13.949  10.071  12.943  1.00  0.00     0.177 C 
BRANCH  21  26
ATOM     26  O   UNL     1      15.412  11.531  16.227  1.00  0.00    -0.387 OA
ATOM     27  H   UNL     1      15.053  12.271  16.782  1.00  0.00     0.211 HD
ENDBRANCH  21  26
BRANCH  23  28
ATOM     28  O   UNL     1      16.093   9.496  14.284  1.00  0.00    -0.387 OA
ATOM     29  H   UNL     1      15.758   8.564  13.761  1.00  0.00     0.211 HD
ENDBRANCH  23  28
BRANCH  24  30
ATOM     30  C   UNL     1      13.533  11.122  10.549  1.00  0.00     0.191 C 
BRANCH  30  31
ATOM     31  O   UNL     1      12.416  11.915  10.640  1.00  0.00    -0.394 OA
ATOM     32  H   UNL     1      11.588  11.354  10.404  1.00  0.00     0.210 HD
ENDBRANCH  30  31
ENDBRANCH  24  30
BRANCH  25  33
ATOM     33  O   UNL     1      12.545  10.150  13.114  1.00  0.00    -0.388 OA
ATOM     34  H   UNL     1      12.224   9.658  12.358  1.00  0.00     0.211 HD
ENDBRANCH  25  33
ENDBRANCH  11  20
BRANCH  10  35
ATOM     35  O   UNL     1      18.023  14.374  15.630  1.00  0.00    -0.507 OA
ATOM     36  H   UNL     1      17.566  14.578  16.489  1.00  0.00     0.293 HD
ENDBRANCH  10  35
TORSDOF 9
ENDMDL
MODEL 6
REMARK VINA RESULT:    -6.740      3.204      8.035
REMARK INTER + INTRA:          -9.804
REMARK INTER:                  -8.387
REMARK INTRA:                  -1.417
REMARK UNBOUND:                -1.290
REMARK SMILES O=c1c(-c2ccc(O)cc2)coc2c([C@@H]3O[C@H](CO)[C@H](O)[C@@H](O)[C@H]3O)c(O)ccc12
REMARK SMILES IDX 3 1 11 2 12 3 13 4 30 5 2 6 1 7 29 8 28 9 26 10 14 11 4 12
REMARK SMILES IDX 5 13 6 14 7 15 10 16 9 17 8 18 15 20 24 21 16 22 22 23 17 24
REMARK SMILES IDX 20 25 25 26 23 28 18 30 19 31 21 33 27 35
REMARK H PARENT 8 19 25 27 23 29 19 32 21 34 27 36
REMARK Flexibility Score: inf
ROOT
ATOM      1  C   UNL     1      16.327  15.290  14.630  1.00  0.00     0.065 A 
ATOM      2  C   UNL     1      15.983  15.243  16.007  1.00  0.00     0.208 A 
ATOM      3  O   UNL     1      16.622  14.478  16.842  1.00  0.00    -0.463 OA
ATOM      4  C   UNL     1      17.370  13.378  16.351  1.00  0.00     0.147 A 
ATOM      5  C   UNL     1      17.782  13.447  14.936  1.00  0.00     0.066 A 
ATOM      6  C   UNL     1      17.329  14.526  14.204  1.00  0.00     0.200 A 
ATOM      7  O   UNL     1      17.935  14.864  13.124  1.00  0.00    -0.288 OA
ATOM      8  C   UNL     1      18.565  12.414  14.468  1.00  0.00     0.020 A 
ATOM      9  C   UNL     1      18.893  11.403  15.532  1.00  0.00     0.047 A 
ATOM     10  C   UNL     1      18.317  11.698  16.816  1.00  0.00     0.125 A 
ATOM     11  C   UNL     1      16.742  12.055  17.057  1.00  0.00     0.069 A 
ENDROOT
BRANCH   1  12
ATOM     12  C   UNL     1      15.470  16.053  13.718  1.00  0.00    -0.011 A 
ATOM     13  C   UNL     1      15.247  17.417  13.855  1.00  0.00     0.013 A 
ATOM     14  C   UNL     1      14.490  18.117  12.920  1.00  0.00     0.047 A 
ATOM     15  C   UNL     1      13.862  17.460  11.894  1.00  0.00     0.115 A 
ATOM     16  C   UNL     1      14.615  15.324  12.811  1.00  0.00     0.013 A 
ATOM     17  C   UNL     1      13.810  16.050  11.953  1.00  0.00     0.047 A 
BRANCH  15  18
ATOM     18  O   UNL     1      13.333  18.111  10.760  1.00  0.00    -0.508 OA
ATOM     19  H   UNL     1      13.678  17.706   9.836  1.00  0.00     0.293 HD
ENDBRANCH  15  18
ENDBRANCH   1  12
BRANCH  11  20
ATOM     20  C   UNL     1      15.830  11.210  16.094  1.00  0.00     0.188 C 
ATOM     21  C   UNL     1      14.963  10.127  16.889  1.00  0.00     0.179 C 
ATOM     22  O   UNL     1      15.055  11.900  15.014  1.00  0.00    -0.362 OA
ATOM     23  C   UNL     1      14.526   9.107  15.808  1.00  0.00     0.177 C 
ATOM     24  C   UNL     1      14.654  10.915  13.980  1.00  0.00     0.176 C 
ATOM     25  C   UNL     1      13.798   9.743  14.581  1.00  0.00     0.177 C 
BRANCH  21  26
ATOM     26  O   UNL     1      15.634   9.521  17.993  1.00  0.00    -0.387 OA
ATOM     27  H   UNL     1      16.537   9.242  17.691  1.00  0.00     0.211 HD
ENDBRANCH  21  26
BRANCH  23  28
ATOM     28  O   UNL     1      15.593   8.097  15.473  1.00  0.00    -0.387 OA
ATOM     29  H   UNL     1      14.878   7.238  15.387  1.00  0.00     0.211 HD
ENDBRANCH  23  28
BRANCH  24  30
ATOM     30  C   UNL     1      13.804  11.569  12.665  1.00  0.00     0.191 C 
BRANCH  30  31
ATOM     31  O   UNL     1      12.850  12.442  13.126  1.00  0.00    -0.394 OA
ATOM     32  H   UNL     1      12.315  11.987  13.876  1.00  0.00     0.210 HD
ENDBRANCH  30  31
ENDBRANCH  24  30
BRANCH  25  33
ATOM     33  O   UNL     1      12.507  10.227  14.904  1.00  0.00    -0.388 OA
ATOM     34  H   UNL     1      12.489  11.068  14.446  1.00  0.00     0.211 HD
ENDBRANCH  25  33
ENDBRANCH  11  20
BRANCH  10  35
ATOM     35  O   UNL     1      19.108  11.398  17.965  1.00  0.00    -0.507 OA
ATOM     36  H   UNL     1      19.312  12.063  18.674  1.00  0.00     0.293 HD
ENDBRANCH  10  35
TORSDOF 9
ENDMDL
MODEL 7
REMARK VINA RESULT:    -6.703      6.411     11.222
REMARK INTER + INTRA:          -9.757
REMARK INTER:                  -8.222
REMARK INTRA:                  -1.535
REMARK UNBOUND:                -1.290
REMARK SMILES O=c1c(-c2ccc(O)cc2)coc2c([C@@H]3O[C@H](CO)[C@H](O)[C@@H](O)[C@H]3O)c(O)ccc12
REMARK SMILES IDX 3 1 11 2 12 3 13 4 30 5 2 6 1 7 29 8 28 9 26 10 14 11 4 12
REMARK SMILES IDX 5 13 6 14 7 15 10 16 9 17 8 18 15 20 24 21 16 22 22 23 17 24
REMARK SMILES IDX 20 25 25 26 23 28 18 30 19 31 21 33 27 35
REMARK H PARENT 8 19 25 27 23 29 19 32 21 34 27 36
REMARK Flexibility Score: inf
ROOT
ATOM      1  C   UNL     1      17.738  11.411  18.690  1.00  0.00     0.065 A 
ATOM      2  C   UNL     1      17.262  11.063  19.982  1.00  0.00     0.208 A 
ATOM      3  O   UNL     1      17.593   9.941  20.549  1.00  0.00    -0.463 OA
ATOM      4  C   UNL     1      18.069   8.868  19.755  1.00  0.00     0.147 A 
ATOM      5  C   UNL     1      18.620   9.227  18.434  1.00  0.00     0.066 A 
ATOM      6  C   UNL     1      18.540  10.555  18.063  1.00  0.00     0.200 A 
ATOM      7  O   UNL     1      19.316  11.009  17.146  1.00  0.00    -0.288 OA
ATOM      8  C   UNL     1      19.146   8.200  17.681  1.00  0.00     0.020 A 
ATOM      9  C   UNL     1      19.091   6.873  18.387  1.00  0.00     0.047 A 
ATOM     10  C   UNL     1      18.491   6.931  19.693  1.00  0.00     0.125 A 
ATOM     11  C   UNL     1      17.050   7.628  20.013  1.00  0.00     0.069 A 
ENDROOT
BRANCH   1  12
ATOM     12  C   UNL     1      17.204  12.614  18.046  1.00  0.00    -0.011 A 
ATOM     13  C   UNL     1      16.340  12.568  16.959  1.00  0.00     0.013 A 
ATOM     14  C   UNL     1      15.794  13.732  16.427  1.00  0.00     0.047 A 
ATOM     15  C   UNL     1      16.174  14.962  16.899  1.00  0.00     0.115 A 
ATOM     16  C   UNL     1      17.801  13.887  18.371  1.00  0.00     0.013 A 
ATOM     17  C   UNL     1      17.292  15.018  17.760  1.00  0.00     0.047 A 
BRANCH  15  18
ATOM     18  O   UNL     1      15.468  16.153  16.627  1.00  0.00    -0.508 OA
ATOM     19  H   UNL     1      14.993  16.573  17.484  1.00  0.00     0.293 HD
ENDBRANCH  15  18
ENDBRANCH   1  12
BRANCH  11  20
ATOM     20  C   UNL     1      16.045   7.391  18.825  1.00  0.00     0.188 C 
ATOM     21  C   UNL     1      14.982   6.247  19.163  1.00  0.00     0.179 C 
ATOM     22  O   UNL     1      15.437   8.567  18.125  1.00  0.00    -0.362 OA
ATOM     23  C   UNL     1      14.420   5.818  17.784  1.00  0.00     0.177 C 
ATOM     24  C   UNL     1      14.915   8.145  16.802  1.00  0.00     0.176 C 
ATOM     25  C   UNL     1      13.854   6.993  16.926  1.00  0.00     0.177 C 
BRANCH  21  26
ATOM     26  O   UNL     1      15.500   5.156  19.921  1.00  0.00    -0.387 OA
ATOM     27  H   UNL     1      14.746   4.726  20.401  1.00  0.00     0.211 HD
ENDBRANCH  21  26
BRANCH  23  28
ATOM     28  O   UNL     1      15.315   4.854  17.048  1.00  0.00    -0.387 OA
ATOM     29  H   UNL     1      16.168   4.958  17.766  1.00  0.00     0.211 HD
ENDBRANCH  23  28
BRANCH  24  30
ATOM     30  C   UNL     1      14.236   9.393  15.873  1.00  0.00     0.191 C 
BRANCH  30  31
ATOM     31  O   UNL     1      13.626  10.299  16.704  1.00  0.00    -0.394 OA
ATOM     32  H   UNL     1      13.896  11.249  16.420  1.00  0.00     0.210 HD
ENDBRANCH  30  31
ENDBRANCH  24  30
BRANCH  25  33
ATOM     33  O   UNL     1      12.651   7.523  17.453  1.00  0.00    -0.388 OA
ATOM     34  H   UNL     1      12.067   7.482  16.695  1.00  0.00     0.211 HD
ENDBRANCH  25  33
ENDBRANCH  11  20
BRANCH  10  35
ATOM     35  O   UNL     1      19.060   6.100  20.704  1.00  0.00    -0.507 OA
ATOM     36  H   UNL     1      18.848   5.134  20.797  1.00  0.00     0.293 HD
ENDBRANCH  10  35
TORSDOF 9
ENDMDL
MODEL 8
REMARK VINA RESULT:    -6.614      3.677      8.138
REMARK INTER + INTRA:          -9.644
REMARK INTER:                  -8.270
REMARK INTRA:                  -1.375
REMARK UNBOUND:                -1.290
REMARK SMILES O=c1c(-c2ccc(O)cc2)coc2c([C@@H]3O[C@H](CO)[C@H](O)[C@@H](O)[C@H]3O)c(O)ccc12
REMARK SMILES IDX 3 1 11 2 12 3 13 4 30 5 2 6 1 7 29 8 28 9 26 10 14 11 4 12
REMARK SMILES IDX 5 13 6 14 7 15 10 16 9 17 8 18 15 20 24 21 16 22 22 23 17 24
REMARK SMILES IDX 20 25 25 26 23 28 18 30 19 31 21 33 27 35
REMARK H PARENT 8 19 25 27 23 29 19 32 21 34 27 36
REMARK Flexibility Score: inf
ROOT
ATOM      1  C   UNL     1      15.499  14.489  13.111  1.00  0.00     0.065 A 
ATOM      2  C   UNL     1      15.869  14.849  14.434  1.00  0.00     0.208 A 
ATOM      3  O   UNL     1      16.944  14.375  14.992  1.00  0.00    -0.463 OA
ATOM      4  C   UNL     1      17.531  13.189  14.484  1.00  0.00     0.147 A 
ATOM      5  C   UNL     1      17.198  12.839  13.090  1.00  0.00     0.066 A 
ATOM      6  C   UNL     1      16.282  13.646  12.444  1.00  0.00     0.200 A 
ATOM      7  O   UNL     1      16.233  13.655  11.161  1.00  0.00    -0.288 OA
ATOM      8  C   UNL     1      17.816  11.723  12.566  1.00  0.00     0.020 A 
ATOM      9  C   UNL     1      18.771  11.079  13.532  1.00  0.00     0.047 A 
ATOM     10  C   UNL     1      18.842  11.736  14.810  1.00  0.00     0.125 A 
ATOM     11  C   UNL     1      17.540  12.128  15.716  1.00  0.00     0.069 A 
ENDROOT
BRANCH   1  12
ATOM     12  C   UNL     1      14.199  14.934  12.600  1.00  0.00    -0.011 A 
ATOM     13  C   UNL     1      13.223  14.054  12.151  1.00  0.00     0.013 A 
ATOM     14  C   UNL     1      11.973  14.515  11.748  1.00  0.00     0.047 A 
ATOM     15  C   UNL     1      11.708  15.859  11.690  1.00  0.00     0.115 A 
ATOM     16  C   UNL     1      14.026  16.335  12.298  1.00  0.00     0.013 A 
ATOM     17  C   UNL     1      12.797  16.748  11.817  1.00  0.00     0.047 A 
BRANCH  15  18
ATOM     18  O   UNL     1      10.407  16.392  11.580  1.00  0.00    -0.508 OA
ATOM     19  H   UNL     1       9.973  16.656  12.517  1.00  0.00     0.293 HD
ENDBRANCH  15  18
ENDBRANCH   1  12
BRANCH  11  20
ATOM     20  C   UNL     1      16.428  11.022  15.592  1.00  0.00     0.188 C 
ATOM     21  C   UNL     1      16.250  10.200  16.951  1.00  0.00     0.179 C 
ATOM     22  O   UNL     1      15.124  11.356  14.936  1.00  0.00    -0.362 OA
ATOM     23  C   UNL     1      15.516   8.902  16.529  1.00  0.00     0.177 C 
ATOM     24  C   UNL     1      14.438  10.105  14.525  1.00  0.00     0.176 C 
ATOM     25  C   UNL     1      14.190   9.142  15.741  1.00  0.00     0.177 C 
BRANCH  21  26
ATOM     26  O   UNL     1      17.463   9.952  17.661  1.00  0.00    -0.387 OA
ATOM     27  H   UNL     1      17.453   9.010  17.970  1.00  0.00     0.211 HD
ENDBRANCH  21  26
BRANCH  23  28
ATOM     28  O   UNL     1      16.434   7.859  15.946  1.00  0.00    -0.387 OA
ATOM     29  H   UNL     1      16.757   8.496  15.083  1.00  0.00     0.211 HD
ENDBRANCH  23  28
BRANCH  24  30
ATOM     30  C   UNL     1      12.961  10.335  13.722  1.00  0.00     0.191 C 
BRANCH  30  31
ATOM     31  O   UNL     1      12.294  11.395  14.285  1.00  0.00    -0.394 OA
ATOM     32  H   UNL     1      11.325  11.115  14.480  1.00  0.00     0.210 HD
ENDBRANCH  30  31
ENDBRANCH  24  30
BRANCH  25  33
ATOM     33  O   UNL     1      13.160   9.674  16.554  1.00  0.00    -0.388 OA
ATOM     34  H   UNL     1      13.636  10.312  17.087  1.00  0.00     0.211 HD
ENDBRANCH  25  33
ENDBRANCH  11  20
BRANCH  10  35
ATOM     35  O   UNL     1      20.122  11.801  15.434  1.00  0.00    -0.507 OA
ATOM     36  H   UNL     1      20.294  11.483  16.360  1.00  0.00     0.293 HD
ENDBRANCH  10  35
TORSDOF 9
ENDMDL
MODEL 9
REMARK VINA RESULT:    -6.611      3.517      6.351
REMARK INTER + INTRA:          -9.640
REMARK INTER:                  -8.255
REMARK INTRA:                  -1.385
REMARK UNBOUND:                -1.290
REMARK SMILES O=c1c(-c2ccc(O)cc2)coc2c([C@@H]3O[C@H](CO)[C@H](O)[C@@H](O)[C@H]3O)c(O)ccc12
REMARK SMILES IDX 3 1 11 2 12 3 13 4 30 5 2 6 1 7 29 8 28 9 26 10 14 11 4 12
REMARK SMILES IDX 5 13 6 14 7 15 10 16 9 17 8 18 15 20 24 21 16 22 22 23 17 24
REMARK SMILES IDX 20 25 25 26 23 28 18 30 19 31 21 33 27 35
REMARK H PARENT 8 19 25 27 23 29 19 32 21 34 27 36
REMARK Flexibility Score: inf
ROOT
ATOM      1  C   UNL     1      17.412  12.418   8.947  1.00  0.00     0.065 A 
ATOM      2  C   UNL     1      17.055  12.847   7.642  1.00  0.00     0.208 A 
ATOM      3  O   UNL     1      17.201  14.085   7.270  1.00  0.00    -0.463 OA
ATOM      4  C   UNL     1      17.307  15.103   8.251  1.00  0.00     0.147 A 
ATOM      5  C   UNL     1      17.736  14.673   9.596  1.00  0.00     0.066 A 
ATOM      6  C   UNL     1      17.906  13.316   9.794  1.00  0.00     0.200 A 
ATOM      7  O   UNL     1      18.629  12.900  10.771  1.00  0.00    -0.288 OA
ATOM      8  C   UNL     1      17.906  15.663  10.539  1.00  0.00     0.020 A 
ATOM      9  C   UNL     1      17.652  17.040   9.990  1.00  0.00     0.047 A 
ATOM     10  C   UNL     1      17.269  17.055   8.603  1.00  0.00     0.125 A 
ATOM     11  C   UNL     1      16.081  16.132   7.968  1.00  0.00     0.069 A 
ENDROOT
BRANCH   1  12
ATOM     12  C   UNL     1      17.080  11.049   9.351  1.00  0.00    -0.011 A 
ATOM     13  C   UNL     1      18.006  10.013   9.344  1.00  0.00     0.013 A 
ATOM     14  C   UNL     1      17.668   8.746   9.811  1.00  0.00     0.047 A 
ATOM     15  C   UNL     1      16.384   8.462  10.198  1.00  0.00     0.115 A 
ATOM     16  C   UNL     1      15.687  10.699   9.504  1.00  0.00     0.013 A 
ATOM     17  C   UNL     1      15.381   9.406   9.887  1.00  0.00     0.047 A 
BRANCH  15  18
ATOM     18  O   UNL     1      16.030   7.319  10.945  1.00  0.00    -0.508 OA
ATOM     19  H   UNL     1      15.670   6.514  10.348  1.00  0.00     0.293 HD
ENDBRANCH  15  18
ENDBRANCH   1  12
BRANCH  11  20
ATOM     20  C   UNL     1      14.893  15.980   8.989  1.00  0.00     0.188 C 
ATOM     21  C   UNL     1      13.598  16.791   8.522  1.00  0.00     0.179 C 
ATOM     22  O   UNL     1      14.568  14.630   9.549  1.00  0.00    -0.362 OA
ATOM     23  C   UNL     1      12.744  16.936   9.807  1.00  0.00     0.177 C 
ATOM     24  C   UNL     1      13.762  14.783  10.785  1.00  0.00     0.176 C 
ATOM     25  C   UNL     1      12.436  15.586  10.530  1.00  0.00     0.177 C 
BRANCH  21  26
ATOM     26  O   UNL     1      13.872  18.039   7.888  1.00  0.00    -0.387 OA
ATOM     27  H   UNL     1      14.835  18.060   7.652  1.00  0.00     0.211 HD
ENDBRANCH  21  26
BRANCH  23  28
ATOM     28  O   UNL     1      13.199  18.058  10.704  1.00  0.00    -0.387 OA
ATOM     29  H   UNL     1      12.362  18.746  10.417  1.00  0.00     0.211 HD
ENDBRANCH  23  28
BRANCH  24  30
ATOM     30  C   UNL     1      13.358  13.327  11.558  1.00  0.00     0.191 C 
BRANCH  30  31
ATOM     31  O   UNL     1      12.943  12.413  10.621  1.00  0.00    -0.394 OA
ATOM     32  H   UNL     1      13.767  11.963  10.204  1.00  0.00     0.210 HD
ENDBRANCH  30  31
ENDBRANCH  24  30
BRANCH  25  33
ATOM     33  O   UNL     1      11.532  14.773   9.805  1.00  0.00    -0.388 OA
ATOM     34  H   UNL     1      11.347  15.316   9.038  1.00  0.00     0.211 HD
ENDBRANCH  25  33
ENDBRANCH  11  20
BRANCH  10  35
ATOM     35  O   UNL     1      17.771  18.124   7.804  1.00  0.00    -0.507 OA
ATOM     36  H   UNL     1      17.186  18.802   7.372  1.00  0.00     0.293 HD
ENDBRANCH  10  35
TORSDOF 9
ENDMDL
