MODEL 1
REMARK VINA RESULT:    -7.032      0.000      0.000
REMARK INTER + INTRA:         -10.570
REMARK INTER:                  -9.499
REMARK INTRA:                  -1.071
REMARK UNBOUND:                -1.071
REMARK SMILES O=c1c(-c2ccc(O)cc2)coc2c([C@@H]3O[C@H](CO)[C@@H](O)[C@@H](O)[C@@H]3O)c(O)ccc12
REMARK SMILES IDX 3 1 11 2 12 3 13 4 30 5 2 6 1 7 29 8 28 9 26 10 14 11 4 12
REMARK SMILES IDX 5 13 6 14 7 15 10 16 9 17 8 18 15 20 24 21 16 22 22 23 17 24
REMARK SMILES IDX 20 25 25 26 23 28 18 30 19 31 21 33 27 35
REMARK H PARENT 8 19 25 27 23 29 19 32 21 34 27 36
REMARK Flexibility Score: inf
ROOT
ATOM      1  C   UNL     1      -7.468  -2.478   6.522  1.00  0.00     0.065 A 
ATOM      2  C   UNL     1      -6.247  -2.861   5.949  1.00  0.00     0.208 A 
ATOM      3  O   UNL     1      -5.962  -4.140   5.749  1.00  0.00    -0.463 OA
ATOM      4  C   UNL     1      -6.786  -5.139   6.068  1.00  0.00     0.147 A 
ATOM      5  C   UNL     1      -8.032  -4.847   6.669  1.00  0.00     0.066 A 
ATOM      6  C   UNL     1      -8.375  -3.497   6.885  1.00  0.00     0.200 A 
ATOM      7  O   UNL     1      -9.505  -3.202   7.370  1.00  0.00    -0.288 OA
ATOM      8  C   UNL     1      -8.902  -5.892   7.009  1.00  0.00     0.020 A 
ATOM      9  C   UNL     1      -8.559  -7.208   6.721  1.00  0.00     0.047 A 
ATOM     10  C   UNL     1      -7.350  -7.517   6.091  1.00  0.00     0.125 A 
ATOM     11  C   UNL     1      -6.416  -6.482   5.798  1.00  0.00     0.069 A 
ENDROOT
BRANCH   1  12
ATOM     12  C   UNL     1      -7.771  -1.032   6.717  1.00  0.00    -0.011 A 
ATOM     13  C   UNL     1      -8.240  -0.260   5.640  1.00  0.00     0.013 A 
ATOM     14  C   UNL     1      -8.522   1.104   5.819  1.00  0.00     0.047 A 
ATOM     15  C   UNL     1      -8.328   1.714   7.064  1.00  0.00     0.115 A 
ATOM     16  C   UNL     1      -7.575  -0.406   7.967  1.00  0.00     0.013 A 
ATOM     17  C   UNL     1      -7.856   0.955   8.141  1.00  0.00     0.047 A 
BRANCH  15  18
ATOM     18  O   UNL     1      -8.598   3.070   7.219  1.00  0.00    -0.508 OA
ATOM     19  H   UNL     1      -8.008   3.779   6.803  1.00  0.00     0.293 HD
ENDBRANCH  15  18
ENDBRANCH   1  12
BRANCH  11  20
ATOM     20  C   UNL     1      -5.081  -6.796   5.119  1.00  0.00     0.188 C 
ATOM     21  C   UNL     1      -3.899  -6.877   6.149  1.00  0.00     0.179 C 
ATOM     22  O   UNL     1      -5.220  -7.976   4.333  1.00  0.00    -0.362 OA
ATOM     23  C   UNL     1      -3.553  -8.346   6.488  1.00  0.00     0.177 C 
ATOM     24  C   UNL     1      -3.965  -8.510   3.964  1.00  0.00     0.176 C 
ATOM     25  C   UNL     1      -3.281  -9.161   5.194  1.00  0.00     0.177 C 
BRANCH  21  26
ATOM     26  O   UNL     1      -4.141  -6.105   7.303  1.00  0.00    -0.387 OA
ATOM     27  H   UNL     1      -4.877  -5.469   7.099  1.00  0.00     0.211 HD
ENDBRANCH  21  26
BRANCH  23  28
ATOM     28  O   UNL     1      -2.437  -8.412   7.343  1.00  0.00    -0.387 OA
ATOM     29  H   UNL     1      -1.710  -8.862   6.841  1.00  0.00     0.211 HD
ENDBRANCH  23  28
BRANCH  24  30
ATOM     30  C   UNL     1      -4.164  -9.513   2.820  1.00  0.00     0.191 C 
BRANCH  30  31
ATOM     31  O   UNL     1      -2.948 -10.124   2.485  1.00  0.00    -0.394 OA
ATOM     32  H   UNL     1      -3.114 -10.628   1.646  1.00  0.00     0.210 HD
ENDBRANCH  30  31
ENDBRANCH  24  30
BRANCH  25  33
ATOM     33  O   UNL     1      -1.897  -9.249   4.960  1.00  0.00    -0.388 OA
ATOM     34  H   UNL     1      -1.620  -8.401   4.533  1.00  0.00     0.211 HD
ENDBRANCH  25  33
ENDBRANCH  11  20
BRANCH  10  35
ATOM     35  O   UNL     1      -7.128  -8.854   5.750  1.00  0.00    -0.507 OA
ATOM     36  H   UNL     1      -7.719  -9.622   6.049  1.00  0.00     0.293 HD
ENDBRANCH  10  35
TORSDOF 9
ENDMDL
MODEL 2
REMARK VINA RESULT:    -7.014      1.449      8.708
REMARK INTER + INTRA:         -10.545
REMARK INTER:                  -9.564
REMARK INTRA:                  -0.982
REMARK UNBOUND:                -1.071
REMARK SMILES O=c1c(-c2ccc(O)cc2)coc2c([C@@H]3O[C@H](CO)[C@@H](O)[C@@H](O)[C@@H]3O)c(O)ccc12
REMARK SMILES IDX 3 1 11 2 12 3 13 4 30 5 2 6 1 7 29 8 28 9 26 10 14 11 4 12
REMARK SMILES IDX 5 13 6 14 7 15 10 16 9 17 8 18 15 20 24 21 16 22 22 23 17 24
REMARK SMILES IDX 20 25 25 26 23 28 18 30 19 31 21 33 27 35
REMARK H PARENT 8 19 25 27 23 29 19 32 21 34 27 36
REMARK Flexibility Score: inf
ROOT
ATOM      1  C   UNL     1      -5.397  -6.290   5.661  1.00  0.00     0.065 A 
ATOM      2  C   UNL     1      -5.076  -4.927   5.603  1.00  0.00     0.208 A 
ATOM      3  O   UNL     1      -5.938  -4.008   6.016  1.00  0.00    -0.463 OA
ATOM      4  C   UNL     1      -7.146  -4.295   6.503  1.00  0.00     0.147 A 
ATOM      5  C   UNL     1      -7.562  -5.645   6.580  1.00  0.00     0.066 A 
ATOM      6  C   UNL     1      -6.666  -6.649   6.162  1.00  0.00     0.200 A 
ATOM      7  O   UNL     1      -6.988  -7.868   6.270  1.00  0.00    -0.288 OA
ATOM      8  C   UNL     1      -8.831  -5.953   7.088  1.00  0.00     0.020 A 
ATOM      9  C   UNL     1      -9.662  -4.941   7.554  1.00  0.00     0.047 A 
ATOM     10  C   UNL     1      -9.256  -3.604   7.524  1.00  0.00     0.125 A 
ATOM     11  C   UNL     1      -8.001  -3.254   6.947  1.00  0.00     0.069 A 
ENDROOT
BRANCH   1  12
ATOM     12  C   UNL     1      -4.401  -7.303   5.209  1.00  0.00    -0.011 A 
ATOM     13  C   UNL     1      -3.161  -7.412   5.862  1.00  0.00     0.013 A 
ATOM     14  C   UNL     1      -2.219  -8.361   5.436  1.00  0.00     0.047 A 
ATOM     15  C   UNL     1      -2.495  -9.201   4.350  1.00  0.00     0.115 A 
ATOM     16  C   UNL     1      -4.667  -8.152   4.112  1.00  0.00     0.013 A 
ATOM     17  C   UNL     1      -3.723  -9.097   3.689  1.00  0.00     0.047 A 
BRANCH  15  18
ATOM     18  O   UNL     1      -1.543 -10.125   3.931  1.00  0.00    -0.508 OA
ATOM     19  H   UNL     1      -1.379 -10.985   4.438  1.00  0.00     0.293 HD
ENDBRANCH  15  18
ENDBRANCH   1  12
BRANCH  11  20
ATOM     20  C   UNL     1      -7.538  -1.796   6.894  1.00  0.00     0.188 C 
ATOM     21  C   UNL     1      -7.847  -1.130   5.506  1.00  0.00     0.179 C 
ATOM     22  O   UNL     1      -8.099  -1.085   7.993  1.00  0.00    -0.362 OA
ATOM     23  C   UNL     1      -9.116  -0.249   5.580  1.00  0.00     0.177 C 
ATOM     24  C   UNL     1      -8.001   0.314   7.817  1.00  0.00     0.176 C 
ATOM     25  C   UNL     1      -9.003   0.786   6.733  1.00  0.00     0.177 C 
BRANCH  21  26
ATOM     26  O   UNL     1      -7.911  -2.073   4.462  1.00  0.00    -0.387 OA
ATOM     27  H   UNL     1      -7.596  -1.631   3.628  1.00  0.00     0.211 HD
ENDBRANCH  21  26
BRANCH  23  28
ATOM     28  O   UNL     1      -9.336   0.414   4.358  1.00  0.00    -0.387 OA
ATOM     29  H   UNL     1      -8.943  -0.150   3.643  1.00  0.00     0.211 HD
ENDBRANCH  23  28
BRANCH  24  30
ATOM     30  C   UNL     1      -8.242   1.007   9.164  1.00  0.00     0.191 C 
BRANCH  30  31
ATOM     31  O   UNL     1      -8.225   2.400   9.011  1.00  0.00    -0.394 OA
ATOM     32  H   UNL     1      -7.312   2.632   8.695  1.00  0.00     0.210 HD
ENDBRANCH  30  31
ENDBRANCH  24  30
BRANCH  25  33
ATOM     33  O   UNL     1      -8.586   2.030   6.228  1.00  0.00    -0.388 OA
ATOM     34  H   UNL     1      -9.171   2.242   5.460  1.00  0.00     0.211 HD
ENDBRANCH  25  33
ENDBRANCH  11  20
BRANCH  10  35
ATOM     35  O   UNL     1     -10.112  -2.661   8.100  1.00  0.00    -0.507 OA
ATOM     36  H   UNL     1     -11.071  -2.853   8.368  1.00  0.00     0.293 HD
ENDBRANCH  10  35
TORSDOF 9
ENDMDL
MODEL 3
REMARK VINA RESULT:    -7.010     12.043     16.234
REMARK INTER + INTRA:         -10.540
REMARK INTER:                  -9.399
REMARK INTRA:                  -1.140
REMARK UNBOUND:                -1.071
REMARK SMILES O=c1c(-c2ccc(O)cc2)coc2c([C@@H]3O[C@H](CO)[C@@H](O)[C@@H](O)[C@@H]3O)c(O)ccc12
REMARK SMILES IDX 3 1 11 2 12 3 13 4 30 5 2 6 1 7 29 8 28 9 26 10 14 11 4 12
REMARK SMILES IDX 5 13 6 14 7 15 10 16 9 17 8 18 15 20 24 21 16 22 22 23 17 24
REMARK SMILES IDX 20 25 25 26 23 28 18 30 19 31 21 33 27 35
REMARK H PARENT 8 19 25 27 23 29 19 32 21 34 27 36
REMARK Flexibility Score: inf
ROOT
ATOM      1  C   UNL     1       3.384  -5.654  -5.948  1.00  0.00     0.065 A 
ATOM      2  C   UNL     1       2.380  -4.919  -5.303  1.00  0.00     0.208 A 
ATOM      3  O   UNL     1       1.129  -4.946  -5.743  1.00  0.00    -0.463 OA
ATOM      4  C   UNL     1       0.735  -5.651  -6.804  1.00  0.00     0.147 A 
ATOM      5  C   UNL     1       1.685  -6.407  -7.528  1.00  0.00     0.066 A 
ATOM      6  C   UNL     1       3.022  -6.413  -7.082  1.00  0.00     0.200 A 
ATOM      7  O   UNL     1       3.883  -7.123  -7.675  1.00  0.00    -0.288 OA
ATOM      8  C   UNL     1       1.278  -7.148  -8.646  1.00  0.00     0.020 A 
ATOM      9  C   UNL     1      -0.061  -7.173  -9.018  1.00  0.00     0.047 A 
ATOM     10  C   UNL     1      -1.024  -6.464  -8.293  1.00  0.00     0.125 A 
ATOM     11  C   UNL     1      -0.629  -5.646  -7.196  1.00  0.00     0.069 A 
ENDROOT
BRANCH   1  12
ATOM     12  C   UNL     1       4.777  -5.622  -5.420  1.00  0.00    -0.011 A 
ATOM     13  C   UNL     1       5.245  -6.666  -4.604  1.00  0.00     0.013 A 
ATOM     14  C   UNL     1       6.555  -6.637  -4.101  1.00  0.00     0.047 A 
ATOM     15  C   UNL     1       7.408  -5.564  -4.393  1.00  0.00     0.115 A 
ATOM     16  C   UNL     1       5.643  -4.544  -5.705  1.00  0.00     0.013 A 
ATOM     17  C   UNL     1       6.949  -4.517  -5.200  1.00  0.00     0.047 A 
BRANCH  15  18
ATOM     18  O   UNL     1       8.697  -5.545  -3.873  1.00  0.00    -0.508 OA
ATOM     19  H   UNL     1       9.511  -5.521  -4.473  1.00  0.00     0.293 HD
ENDBRANCH  15  18
ENDBRANCH   1  12
BRANCH  11  20
ATOM     20  C   UNL     1      -1.662  -4.853  -6.393  1.00  0.00     0.188 C 
ATOM     21  C   UNL     1      -2.105  -3.541  -7.134  1.00  0.00     0.179 C 
ATOM     22  O   UNL     1      -2.755  -5.705  -6.064  1.00  0.00    -0.362 OA
ATOM     23  C   UNL     1      -3.468  -3.730  -7.840  1.00  0.00     0.177 C 
ATOM     24  C   UNL     1      -3.883  -4.968  -5.634  1.00  0.00     0.176 C 
ATOM     25  C   UNL     1      -4.539  -4.248  -6.840  1.00  0.00     0.177 C 
BRANCH  21  26
ATOM     26  O   UNL     1      -1.112  -3.060  -8.011  1.00  0.00    -0.387 OA
ATOM     27  H   UNL     1      -1.230  -2.077  -8.100  1.00  0.00     0.211 HD
ENDBRANCH  21  26
BRANCH  23  28
ATOM     28  O   UNL     1      -3.899  -2.526  -8.426  1.00  0.00    -0.387 OA
ATOM     29  H   UNL     1      -4.223  -1.942  -7.693  1.00  0.00     0.211 HD
ENDBRANCH  23  28
BRANCH  24  30
ATOM     30  C   UNL     1      -4.861  -5.915  -4.929  1.00  0.00     0.191 C 
BRANCH  30  31
ATOM     31  O   UNL     1      -5.941  -5.199  -4.396  1.00  0.00    -0.394 OA
ATOM     32  H   UNL     1      -5.803  -5.180  -3.413  1.00  0.00     0.210 HD
ENDBRANCH  30  31
ENDBRANCH  24  30
BRANCH  25  33
ATOM     33  O   UNL     1      -5.319  -3.177  -6.369  1.00  0.00    -0.388 OA
ATOM     34  H   UNL     1      -6.217  -3.538  -6.167  1.00  0.00     0.211 HD
ENDBRANCH  25  33
ENDBRANCH  11  20
BRANCH  10  35
ATOM     35  O   UNL     1      -2.359  -6.621  -8.676  1.00  0.00    -0.507 OA
ATOM     36  H   UNL     1      -2.715  -6.394  -9.599  1.00  0.00     0.293 HD
ENDBRANCH  10  35
TORSDOF 9
ENDMDL
MODEL 4
REMARK VINA RESULT:    -6.805     12.802     16.252
REMARK INTER + INTRA:         -10.263
REMARK INTER:                  -9.347
REMARK INTRA:                  -0.916
REMARK UNBOUND:                -1.071
REMARK SMILES O=c1c(-c2ccc(O)cc2)coc2c([C@@H]3O[C@H](CO)[C@@H](O)[C@@H](O)[C@@H]3O)c(O)ccc12
REMARK SMILES IDX 3 1 11 2 12 3 13 4 30 5 2 6 1 7 29 8 28 9 26 10 14 11 4 12
REMARK SMILES IDX 5 13 6 14 7 15 10 16 9 17 8 18 15 20 24 21 16 22 22 23 17 24
REMARK SMILES IDX 20 25 25 26 23 28 18 30 19 31 21 33 27 35
REMARK H PARENT 8 19 25 27 23 29 19 32 21 34 27 36
REMARK Flexibility Score: inf
ROOT
ATOM      1  C   UNL     1       0.572  -5.440  -6.204  1.00  0.00     0.065 A 
ATOM      2  C   UNL     1       1.471  -4.964  -5.240  1.00  0.00     0.208 A 
ATOM      3  O   UNL     1       2.780  -5.073  -5.420  1.00  0.00    -0.463 OA
ATOM      4  C   UNL     1       3.334  -5.631  -6.497  1.00  0.00     0.147 A 
ATOM      5  C   UNL     1       2.501  -6.156  -7.512  1.00  0.00     0.066 A 
ATOM      6  C   UNL     1       1.105  -6.046  -7.362  1.00  0.00     0.200 A 
ATOM      7  O   UNL     1       0.336  -6.456  -8.278  1.00  0.00    -0.288 OA
ATOM      8  C   UNL     1       3.077  -6.746  -8.647  1.00  0.00     0.020 A 
ATOM      9  C   UNL     1       4.459  -6.778  -8.793  1.00  0.00     0.047 A 
ATOM     10  C   UNL     1       5.299  -6.229  -7.820  1.00  0.00     0.125 A 
ATOM     11  C   UNL     1       4.746  -5.688  -6.625  1.00  0.00     0.069 A 
ENDROOT
BRANCH   1  12
ATOM     12  C   UNL     1      -0.894  -5.285  -5.986  1.00  0.00    -0.011 A 
ATOM     13  C   UNL     1      -1.563  -6.121  -5.076  1.00  0.00     0.013 A 
ATOM     14  C   UNL     1      -2.945  -5.982  -4.873  1.00  0.00     0.047 A 
ATOM     15  C   UNL     1      -3.677  -5.020  -5.581  1.00  0.00     0.115 A 
ATOM     16  C   UNL     1      -1.642  -4.322  -6.699  1.00  0.00     0.013 A 
ATOM     17  C   UNL     1      -3.021  -4.187  -6.494  1.00  0.00     0.047 A 
BRANCH  15  18
ATOM     18  O   UNL     1      -5.048  -4.907  -5.378  1.00  0.00    -0.508 OA
ATOM     19  H   UNL     1      -5.712  -5.126  -6.109  1.00  0.00     0.293 HD
ENDBRANCH  15  18
ENDBRANCH   1  12
BRANCH  11  20
ATOM     20  C   UNL     1       5.645  -5.090  -5.541  1.00  0.00     0.188 C 
ATOM     21  C   UNL     1       5.956  -6.121  -4.398  1.00  0.00     0.179 C 
ATOM     22  O   UNL     1       6.819  -4.556  -6.146  1.00  0.00    -0.362 OA
ATOM     23  C   UNL     1       7.358  -6.749  -4.577  1.00  0.00     0.177 C 
ATOM     24  C   UNL     1       7.833  -4.307  -5.194  1.00  0.00     0.176 C 
ATOM     25  C   UNL     1       8.444  -5.644  -4.705  1.00  0.00     0.177 C 
BRANCH  21  26
ATOM     26  O   UNL     1       4.948  -7.096  -4.267  1.00  0.00    -0.387 OA
ATOM     27  H   UNL     1       4.465  -6.927  -3.415  1.00  0.00     0.211 HD
ENDBRANCH  21  26
BRANCH  23  28
ATOM     28  O   UNL     1       7.665  -7.604  -3.503  1.00  0.00    -0.387 OA
ATOM     29  H   UNL     1       7.040  -8.373  -3.552  1.00  0.00     0.211 HD
ENDBRANCH  23  28
BRANCH  24  30
ATOM     30  C   UNL     1       8.890  -3.386  -5.817  1.00  0.00     0.191 C 
BRANCH  30  31
ATOM     31  O   UNL     1       8.555  -3.079  -7.142  1.00  0.00    -0.394 OA
ATOM     32  H   UNL     1       9.106  -3.676  -7.713  1.00  0.00     0.210 HD
ENDBRANCH  30  31
ENDBRANCH  24  30
BRANCH  25  33
ATOM     33  O   UNL     1       9.073  -5.439  -3.463  1.00  0.00    -0.388 OA
ATOM     34  H   UNL     1       8.850  -4.520  -3.174  1.00  0.00     0.211 HD
ENDBRANCH  25  33
ENDBRANCH  11  20
BRANCH  10  35
ATOM     35  O   UNL     1       6.670  -6.217  -8.091  1.00  0.00    -0.507 OA
ATOM     36  H   UNL     1       7.265  -5.404  -7.975  1.00  0.00     0.293 HD
ENDBRANCH  10  35
TORSDOF 9
ENDMDL
MODEL 5
REMARK VINA RESULT:    -6.797      1.853      3.120
REMARK INTER + INTRA:         -10.252
REMARK INTER:                  -9.394
REMARK INTRA:                  -0.858
REMARK UNBOUND:                -1.071
REMARK SMILES O=c1c(-c2ccc(O)cc2)coc2c([C@@H]3O[C@H](CO)[C@@H](O)[C@@H](O)[C@@H]3O)c(O)ccc12
REMARK SMILES IDX 3 1 11 2 12 3 13 4 30 5 2 6 1 7 29 8 28 9 26 10 14 11 4 12
REMARK SMILES IDX 5 13 6 14 7 15 10 16 9 17 8 18 15 20 24 21 16 22 22 23 17 24
REMARK SMILES IDX 20 25 25 26 23 28 18 30 19 31 21 33 27 35
REMARK H PARENT 8 19 25 27 23 29 19 32 21 34 27 36
REMARK Flexibility Score: inf
ROOT
ATOM      1  C   UNL     1      -7.911  -1.089   6.539  1.00  0.00     0.065 A 
ATOM      2  C   UNL     1      -8.100  -2.026   5.514  1.00  0.00     0.208 A 
ATOM      3  O   UNL     1      -7.621  -3.258   5.624  1.00  0.00    -0.463 OA
ATOM      4  C   UNL     1      -6.937  -3.694   6.682  1.00  0.00     0.147 A 
ATOM      5  C   UNL     1      -6.682  -2.809   7.756  1.00  0.00     0.066 A 
ATOM      6  C   UNL     1      -7.187  -1.496   7.681  1.00  0.00     0.200 A 
ATOM      7  O   UNL     1      -7.022  -0.699   8.649  1.00  0.00    -0.288 OA
ATOM      8  C   UNL     1      -5.961  -3.260   8.871  1.00  0.00     0.020 A 
ATOM      9  C   UNL     1      -5.535  -4.581   8.940  1.00  0.00     0.047 A 
ATOM     10  C   UNL     1      -5.812  -5.483   7.908  1.00  0.00     0.125 A 
ATOM     11  C   UNL     1      -6.479  -5.035   6.732  1.00  0.00     0.069 A 
ENDROOT
BRANCH   1  12
ATOM     12  C   UNL     1      -8.478   0.282   6.400  1.00  0.00    -0.011 A 
ATOM     13  C   UNL     1      -7.889   1.201   5.515  1.00  0.00     0.013 A 
ATOM     14  C   UNL     1      -8.417   2.496   5.385  1.00  0.00     0.047 A 
ATOM     15  C   UNL     1      -9.526   2.892   6.144  1.00  0.00     0.115 A 
ATOM     16  C   UNL     1      -9.593   0.693   7.163  1.00  0.00     0.013 A 
ATOM     17  C   UNL     1     -10.116   1.986   7.032  1.00  0.00     0.047 A 
BRANCH  15  18
ATOM     18  O   UNL     1     -10.026   4.183   6.014  1.00  0.00    -0.508 OA
ATOM     19  H   UNL     1     -10.371   4.532   5.130  1.00  0.00     0.293 HD
ENDBRANCH  15  18
ENDBRANCH   1  12
BRANCH  11  20
ATOM     20  C   UNL     1      -6.784  -6.000   5.584  1.00  0.00     0.188 C 
ATOM     21  C   UNL     1      -5.509  -6.313   4.723  1.00  0.00     0.179 C 
ATOM     22  O   UNL     1      -7.406  -7.170   6.107  1.00  0.00    -0.362 OA
ATOM     23  C   UNL     1      -4.897  -7.680   5.107  1.00  0.00     0.177 C 
ATOM     24  C   UNL     1      -7.399  -8.230   5.172  1.00  0.00     0.176 C 
ATOM     25  C   UNL     1      -5.966  -8.805   5.031  1.00  0.00     0.177 C 
BRANCH  21  26
ATOM     26  O   UNL     1      -4.562  -5.272   4.770  1.00  0.00    -0.387 OA
ATOM     27  H   UNL     1      -3.655  -5.679   4.745  1.00  0.00     0.211 HD
ENDBRANCH  21  26
BRANCH  23  28
ATOM     28  O   UNL     1      -3.809  -7.994   4.271  1.00  0.00    -0.387 OA
ATOM     29  H   UNL     1      -3.669  -8.974   4.326  1.00  0.00     0.211 HD
ENDBRANCH  23  28
BRANCH  24  30
ATOM     30  C   UNL     1      -8.405  -9.298   5.618  1.00  0.00     0.191 C 
BRANCH  30  31
ATOM     31  O   UNL     1      -8.734  -9.130   6.970  1.00  0.00    -0.394 OA
ATOM     32  H   UNL     1      -8.272  -8.303   7.267  1.00  0.00     0.210 HD
ENDBRANCH  30  31
ENDBRANCH  24  30
BRANCH  25  33
ATOM     33  O   UNL     1      -5.862  -9.489   3.806  1.00  0.00    -0.388 OA
ATOM     34  H   UNL     1      -4.978  -9.930   3.794  1.00  0.00     0.211 HD
ENDBRANCH  25  33
ENDBRANCH  11  20
BRANCH  10  35
ATOM     35  O   UNL     1      -5.432  -6.814   8.102  1.00  0.00    -0.507 OA
ATOM     36  H   UNL     1      -5.853  -7.600   7.619  1.00  0.00     0.293 HD
ENDBRANCH  10  35
TORSDOF 9
ENDMDL
MODEL 6
REMARK VINA RESULT:    -6.752      3.013      5.120
REMARK INTER + INTRA:         -10.191
REMARK INTER:                  -9.202
REMARK INTRA:                  -0.989
REMARK UNBOUND:                -1.071
REMARK SMILES O=c1c(-c2ccc(O)cc2)coc2c([C@@H]3O[C@H](CO)[C@@H](O)[C@@H](O)[C@@H]3O)c(O)ccc12
REMARK SMILES IDX 3 1 11 2 12 3 13 4 30 5 2 6 1 7 29 8 28 9 26 10 14 11 4 12
REMARK SMILES IDX 5 13 6 14 7 15 10 16 9 17 8 18 15 20 24 21 16 22 22 23 17 24
REMARK SMILES IDX 20 25 25 26 23 28 18 30 19 31 21 33 27 35
REMARK H PARENT 8 19 25 27 23 29 19 32 21 34 27 36
REMARK Flexibility Score: inf
ROOT
ATOM      1  C   UNL     1      -8.733   1.726   9.071  1.00  0.00     0.065 A 
ATOM      2  C   UNL     1      -8.012   1.344   7.931  1.00  0.00     0.208 A 
ATOM      3  O   UNL     1      -7.799   0.064   7.660  1.00  0.00    -0.463 OA
ATOM      4  C   UNL     1      -8.235  -0.936   8.426  1.00  0.00     0.147 A 
ATOM      5  C   UNL     1      -8.955  -0.643   9.607  1.00  0.00     0.066 A 
ATOM      6  C   UNL     1      -9.213   0.706   9.921  1.00  0.00     0.200 A 
ATOM      7  O   UNL     1      -9.901   0.997  10.942  1.00  0.00    -0.288 OA
ATOM      8  C   UNL     1      -9.414  -1.690  10.419  1.00  0.00     0.020 A 
ATOM      9  C   UNL     1      -9.199  -3.011  10.044  1.00  0.00     0.047 A 
ATOM     10  C   UNL     1      -8.525  -3.323   8.860  1.00  0.00     0.125 A 
ATOM     11  C   UNL     1      -7.985  -2.281   8.052  1.00  0.00     0.069 A 
ENDROOT
BRANCH   1  12
ATOM     12  C   UNL     1      -8.977   3.171   9.342  1.00  0.00    -0.011 A 
ATOM     13  C   UNL     1      -9.535   3.990   8.346  1.00  0.00     0.013 A 
ATOM     14  C   UNL     1      -9.762   5.352   8.595  1.00  0.00     0.047 A 
ATOM     15  C   UNL     1      -9.423   5.916   9.832  1.00  0.00     0.115 A 
ATOM     16  C   UNL     1      -8.635   3.751  10.583  1.00  0.00     0.013 A 
ATOM     17  C   UNL     1      -8.861   5.111  10.828  1.00  0.00     0.047 A 
BRANCH  15  18
ATOM     18  O   UNL     1      -9.639   7.272  10.055  1.00  0.00    -0.508 OA
ATOM     19  H   UNL     1      -8.981   7.973   9.743  1.00  0.00     0.293 HD
ENDBRANCH  15  18
ENDBRANCH   1  12
BRANCH  11  20
ATOM     20  C   UNL     1      -7.234  -2.598   6.757  1.00  0.00     0.188 C 
ATOM     21  C   UNL     1      -5.715  -2.903   7.015  1.00  0.00     0.179 C 
ATOM     22  O   UNL     1      -7.906  -3.649   6.069  1.00  0.00    -0.362 OA
ATOM     23  C   UNL     1      -5.443  -4.425   7.011  1.00  0.00     0.177 C 
ATOM     24  C   UNL     1      -7.095  -4.220   5.062  1.00  0.00     0.176 C 
ATOM     25  C   UNL     1      -5.975  -5.077   5.704  1.00  0.00     0.177 C 
BRANCH  21  26
ATOM     26  O   UNL     1      -5.234  -2.277   8.182  1.00  0.00    -0.387 OA
ATOM     27  H   UNL     1      -4.420  -1.760   7.940  1.00  0.00     0.211 HD
ENDBRANCH  21  26
BRANCH  23  28
ATOM     28  O   UNL     1      -4.068  -4.688   7.154  1.00  0.00    -0.387 OA
ATOM     29  H   UNL     1      -3.966  -5.317   7.914  1.00  0.00     0.211 HD
ENDBRANCH  23  28
BRANCH  24  30
ATOM     30  C   UNL     1      -7.977  -5.042   4.115  1.00  0.00     0.191 C 
BRANCH  30  31
ATOM     31  O   UNL     1      -7.529  -6.369   4.053  1.00  0.00    -0.394 OA
ATOM     32  H   UNL     1      -8.340  -6.930   3.945  1.00  0.00     0.210 HD
ENDBRANCH  30  31
ENDBRANCH  24  30
BRANCH  25  33
ATOM     33  O   UNL     1      -4.926  -5.235   4.780  1.00  0.00    -0.388 OA
ATOM     34  H   UNL     1      -5.330  -5.225   3.878  1.00  0.00     0.211 HD
ENDBRANCH  25  33
ENDBRANCH  11  20
BRANCH  10  35
ATOM     35  O   UNL     1      -8.437  -4.674   8.509  1.00  0.00    -0.507 OA
ATOM     36  H   UNL     1      -7.563  -5.170   8.377  1.00  0.00     0.293 HD
ENDBRANCH  10  35
TORSDOF 9
ENDMDL
MODEL 7
REMARK VINA RESULT:    -6.713      2.247      3.705
REMARK INTER + INTRA:         -10.139
REMARK INTER:                  -9.572
REMARK INTRA:                  -0.567
REMARK UNBOUND:                -1.071
REMARK SMILES O=c1c(-c2ccc(O)cc2)coc2c([C@@H]3O[C@H](CO)[C@@H](O)[C@@H](O)[C@@H]3O)c(O)ccc12
REMARK SMILES IDX 3 1 11 2 12 3 13 4 30 5 2 6 1 7 29 8 28 9 26 10 14 11 4 12
REMARK SMILES IDX 5 13 6 14 7 15 10 16 9 17 8 18 15 20 24 21 16 22 22 23 17 24
REMARK SMILES IDX 20 25 25 26 23 28 18 30 19 31 21 33 27 35
REMARK H PARENT 8 19 25 27 23 29 19 32 21 34 27 36
REMARK Flexibility Score: inf
ROOT
ATOM      1  C   UNL     1      -8.771   0.385   6.898  1.00  0.00     0.065 A 
ATOM      2  C   UNL     1      -8.275  -0.297   5.779  1.00  0.00     0.208 A 
ATOM      3  O   UNL     1      -8.017  -1.597   5.835  1.00  0.00    -0.463 OA
ATOM      4  C   UNL     1      -8.197  -2.339   6.928  1.00  0.00     0.147 A 
ATOM      5  C   UNL     1      -8.674  -1.729   8.111  1.00  0.00     0.066 A 
ATOM      6  C   UNL     1      -8.973  -0.352   8.085  1.00  0.00     0.200 A 
ATOM      7  O   UNL     1      -9.454   0.210   9.111  1.00  0.00    -0.288 OA
ATOM      8  C   UNL     1      -8.863  -2.503   9.265  1.00  0.00     0.020 A 
ATOM      9  C   UNL     1      -8.621  -3.871   9.236  1.00  0.00     0.047 A 
ATOM     10  C   UNL     1      -8.187  -4.501   8.066  1.00  0.00     0.125 A 
ATOM     11  C   UNL     1      -7.918  -3.729   6.899  1.00  0.00     0.069 A 
ENDROOT
BRANCH   1  12
ATOM     12  C   UNL     1      -9.073   1.841   6.802  1.00  0.00    -0.011 A 
ATOM     13  C   UNL     1      -9.649   2.365   5.632  1.00  0.00     0.013 A 
ATOM     14  C   UNL     1      -9.931   3.737   5.535  1.00  0.00     0.047 A 
ATOM     15  C   UNL     1      -9.630   4.602   6.594  1.00  0.00     0.115 A 
ATOM     16  C   UNL     1      -8.770   2.723   7.862  1.00  0.00     0.013 A 
ATOM     17  C   UNL     1      -9.051   4.092   7.761  1.00  0.00     0.047 A 
BRANCH  15  18
ATOM     18  O   UNL     1      -9.902   5.961   6.475  1.00  0.00    -0.508 OA
ATOM     19  H   UNL     1      -9.521   6.513   5.718  1.00  0.00     0.293 HD
ENDBRANCH  15  18
ENDBRANCH   1  12
BRANCH  11  20
ATOM     20  C   UNL     1      -7.432  -4.395   5.610  1.00  0.00     0.188 C 
ATOM     21  C   UNL     1      -5.865  -4.456   5.532  1.00  0.00     0.179 C 
ATOM     22  O   UNL     1      -8.048  -5.673   5.480  1.00  0.00    -0.362 OA
ATOM     23  C   UNL     1      -5.340  -5.859   5.918  1.00  0.00     0.177 C 
ATOM     24  C   UNL     1      -7.395  -6.473   4.515  1.00  0.00     0.176 C 
ATOM     25  C   UNL     1      -6.029  -6.959   5.063  1.00  0.00     0.177 C 
BRANCH  21  26
ATOM     26  O   UNL     1      -5.251  -3.432   6.282  1.00  0.00    -0.387 OA
ATOM     27  H   UNL     1      -5.965  -2.832   6.625  1.00  0.00     0.211 HD
ENDBRANCH  21  26
BRANCH  23  28
ATOM     28  O   UNL     1      -3.944  -5.931   5.761  1.00  0.00    -0.387 OA
ATOM     29  H   UNL     1      -3.537  -5.652   6.621  1.00  0.00     0.211 HD
ENDBRANCH  23  28
BRANCH  24  30
ATOM     30  C   UNL     1      -8.310  -7.643   4.133  1.00  0.00     0.191 C 
BRANCH  30  31
ATOM     31  O   UNL     1      -9.510  -7.171   3.584  1.00  0.00    -0.394 OA
ATOM     32  H   UNL     1     -10.186  -7.222   4.310  1.00  0.00     0.210 HD
ENDBRANCH  30  31
ENDBRANCH  24  30
BRANCH  25  33
ATOM     33  O   UNL     1      -5.202  -7.322   3.985  1.00  0.00    -0.388 OA
ATOM     34  H   UNL     1      -5.750  -7.866   3.369  1.00  0.00     0.211 HD
ENDBRANCH  25  33
ENDBRANCH  11  20
BRANCH  10  35
ATOM     35  O   UNL     1      -8.061  -5.893   8.097  1.00  0.00    -0.507 OA
ATOM     36  H   UNL     1      -7.702  -6.448   7.328  1.00  0.00     0.293 HD
ENDBRANCH  10  35
TORSDOF 9
ENDMDL
MODEL 8
REMARK VINA RESULT:    -6.590     11.069     14.203
REMARK INTER + INTRA:          -9.973
REMARK INTER:                  -9.472
REMARK INTRA:                  -0.501
REMARK UNBOUND:                -1.071
REMARK SMILES O=c1c(-c2ccc(O)cc2)coc2c([C@@H]3O[C@H](CO)[C@@H](O)[C@@H](O)[C@@H]3O)c(O)ccc12
REMARK SMILES IDX 3 1 11 2 12 3 13 4 30 5 2 6 1 7 29 8 28 9 26 10 14 11 4 12
REMARK SMILES IDX 5 13 6 14 7 15 10 16 9 17 8 18 15 20 24 21 16 22 22 23 17 24
REMARK SMILES IDX 20 25 25 26 23 28 18 30 19 31 21 33 27 35
REMARK H PARENT 8 19 25 27 23 29 19 32 21 34 27 36
REMARK Flexibility Score: inf
ROOT
ATOM      1  C   UNL     1      -1.923  -6.013  -6.243  1.00  0.00     0.065 A 
ATOM      2  C   UNL     1      -2.843  -4.961  -6.142  1.00  0.00     0.208 A 
ATOM      3  O   UNL     1      -4.147  -5.191  -6.201  1.00  0.00    -0.463 OA
ATOM      4  C   UNL     1      -4.677  -6.404  -6.360  1.00  0.00     0.147 A 
ATOM      5  C   UNL     1      -3.822  -7.523  -6.490  1.00  0.00     0.066 A 
ATOM      6  C   UNL     1      -2.430  -7.319  -6.419  1.00  0.00     0.200 A 
ATOM      7  O   UNL     1      -1.643  -8.307  -6.477  1.00  0.00    -0.288 OA
ATOM      8  C   UNL     1      -4.372  -8.801  -6.660  1.00  0.00     0.020 A 
ATOM      9  C   UNL     1      -5.752  -8.975  -6.659  1.00  0.00     0.047 A 
ATOM     10  C   UNL     1      -6.614  -7.888  -6.491  1.00  0.00     0.125 A 
ATOM     11  C   UNL     1      -6.086  -6.569  -6.389  1.00  0.00     0.069 A 
ENDROOT
BRANCH   1  12
ATOM     12  C   UNL     1      -0.463  -5.729  -6.153  1.00  0.00    -0.011 A 
ATOM     13  C   UNL     1       0.358  -5.893  -7.282  1.00  0.00     0.013 A 
ATOM     14  C   UNL     1       1.734  -5.632  -7.199  1.00  0.00     0.047 A 
ATOM     15  C   UNL     1       2.310  -5.219  -5.991  1.00  0.00     0.115 A 
ATOM     16  C   UNL     1       0.128  -5.316  -4.939  1.00  0.00     0.013 A 
ATOM     17  C   UNL     1       1.503  -5.058  -4.860  1.00  0.00     0.047 A 
BRANCH  15  18
ATOM     18  O   UNL     1       3.679  -4.980  -5.924  1.00  0.00    -0.508 OA
ATOM     19  H   UNL     1       4.117  -4.639  -5.078  1.00  0.00     0.293 HD
ENDBRANCH  15  18
ENDBRANCH   1  12
BRANCH  11  20
ATOM     20  C   UNL     1      -7.010  -5.362  -6.215  1.00  0.00     0.188 C 
ATOM     21  C   UNL     1      -7.143  -4.933  -4.710  1.00  0.00     0.179 C 
ATOM     22  O   UNL     1      -6.566  -4.304  -7.060  1.00  0.00    -0.362 OA
ATOM     23  C   UNL     1      -6.242  -3.716  -4.394  1.00  0.00     0.177 C 
ATOM     24  C   UNL     1      -7.149  -3.067  -6.702  1.00  0.00     0.176 C 
ATOM     25  C   UNL     1      -6.527  -2.549  -5.380  1.00  0.00     0.177 C 
BRANCH  21  26
ATOM     26  O   UNL     1      -6.919  -6.006  -3.825  1.00  0.00    -0.387 OA
ATOM     27  H   UNL     1      -6.544  -6.764  -4.349  1.00  0.00     0.211 HD
ENDBRANCH  21  26
BRANCH  23  28
ATOM     28  O   UNL     1      -6.433  -3.283  -3.069  1.00  0.00    -0.387 OA
ATOM     29  H   UNL     1      -6.813  -2.367  -3.111  1.00  0.00     0.211 HD
ENDBRANCH  23  28
BRANCH  24  30
ATOM     30  C   UNL     1      -6.961  -2.073  -7.855  1.00  0.00     0.191 C 
BRANCH  30  31
ATOM     31  O   UNL     1      -6.054  -1.067  -7.494  1.00  0.00    -0.394 OA
ATOM     32  H   UNL     1      -5.508  -1.440  -6.753  1.00  0.00     0.210 HD
ENDBRANCH  30  31
ENDBRANCH  24  30
BRANCH  25  33
ATOM     33  O   UNL     1      -7.402  -1.619  -4.791  1.00  0.00    -0.388 OA
ATOM     34  H   UNL     1      -7.095  -1.480  -3.862  1.00  0.00     0.211 HD
ENDBRANCH  25  33
ENDBRANCH  11  20
BRANCH  10  35
ATOM     35  O   UNL     1      -7.982  -8.162  -6.406  1.00  0.00    -0.507 OA
ATOM     36  H   UNL     1      -8.389  -9.077  -6.567  1.00  0.00     0.293 HD
ENDBRANCH  10  35
TORSDOF 9
ENDMDL
MODEL 9
REMARK VINA RESULT:    -6.432      1.990      3.351
REMARK INTER + INTRA:          -9.759
REMARK INTER:                  -8.980
REMARK INTRA:                  -0.780
REMARK UNBOUND:                -1.071
REMARK SMILES O=c1c(-c2ccc(O)cc2)coc2c([C@@H]3O[C@H](CO)[C@@H](O)[C@@H](O)[C@@H]3O)c(O)ccc12
REMARK SMILES IDX 3 1 11 2 12 3 13 4 30 5 2 6 1 7 29 8 28 9 26 10 14 11 4 12
REMARK SMILES IDX 5 13 6 14 7 15 10 16 9 17 8 18 15 20 24 21 16 22 22 23 17 24
REMARK SMILES IDX 20 25 25 26 23 28 18 30 19 31 21 33 27 35
REMARK H PARENT 8 19 25 27 23 29 19 32 21 34 27 36
REMARK Flexibility Score: inf
ROOT
ATOM      1  C   UNL     1      -8.042  -0.896   8.027  1.00  0.00     0.065 A 
ATOM      2  C   UNL     1      -7.250  -1.915   8.573  1.00  0.00     0.208 A 
ATOM      3  O   UNL     1      -6.962  -3.002   7.871  1.00  0.00    -0.463 OA
ATOM      4  C   UNL     1      -7.393  -3.212   6.626  1.00  0.00     0.147 A 
ATOM      5  C   UNL     1      -8.215  -2.245   6.003  1.00  0.00     0.066 A 
ATOM      6  C   UNL     1      -8.530  -1.070   6.714  1.00  0.00     0.200 A 
ATOM      7  O   UNL     1      -9.218  -0.163   6.163  1.00  0.00    -0.288 OA
ATOM      8  C   UNL     1      -8.673  -2.461   4.696  1.00  0.00     0.020 A 
ATOM      9  C   UNL     1      -8.288  -3.601   4.000  1.00  0.00     0.047 A 
ATOM     10  C   UNL     1      -7.444  -4.550   4.582  1.00  0.00     0.125 A 
ATOM     11  C   UNL     1      -7.021  -4.393   5.934  1.00  0.00     0.069 A 
ENDROOT
BRANCH   1  12
ATOM     12  C   UNL     1      -8.333   0.325   8.831  1.00  0.00    -0.011 A 
ATOM     13  C   UNL     1      -9.020   0.218  10.052  1.00  0.00     0.013 A 
ATOM     14  C   UNL     1      -9.300   1.366  10.809  1.00  0.00     0.047 A 
ATOM     15  C   UNL     1      -8.911   2.633  10.354  1.00  0.00     0.115 A 
ATOM     16  C   UNL     1      -7.949   1.607   8.379  1.00  0.00     0.013 A 
ATOM     17  C   UNL     1      -8.231   2.751   9.136  1.00  0.00     0.047 A 
BRANCH  15  18
ATOM     18  O   UNL     1      -9.211   3.761  11.109  1.00  0.00    -0.508 OA
ATOM     19  H   UNL     1      -8.601   4.080  11.851  1.00  0.00     0.293 HD
ENDBRANCH  15  18
ENDBRANCH   1  12
BRANCH  11  20
ATOM     20  C   UNL     1      -6.104  -5.423   6.597  1.00  0.00     0.188 C 
ATOM     21  C   UNL     1      -6.855  -6.767   6.906  1.00  0.00     0.179 C 
ATOM     22  O   UNL     1      -4.942  -5.604   5.794  1.00  0.00    -0.362 OA
ATOM     23  C   UNL     1      -6.538  -7.842   5.840  1.00  0.00     0.177 C 
ATOM     24  C   UNL     1      -4.231  -6.771   6.156  1.00  0.00     0.176 C 
ATOM     25  C   UNL     1      -5.003  -8.031   5.687  1.00  0.00     0.177 C 
BRANCH  21  26
ATOM     26  O   UNL     1      -8.241  -6.580   7.078  1.00  0.00    -0.387 OA
ATOM     27  H   UNL     1      -8.473  -5.672   6.743  1.00  0.00     0.211 HD
ENDBRANCH  21  26
BRANCH  23  28
ATOM     28  O   UNL     1      -7.143  -9.069   6.171  1.00  0.00    -0.387 OA
ATOM     29  H   UNL     1      -6.612  -9.785   5.736  1.00  0.00     0.211 HD
ENDBRANCH  23  28
BRANCH  24  30
ATOM     30  C   UNL     1      -2.821  -6.705   5.556  1.00  0.00     0.191 C 
BRANCH  30  31
ATOM     31  O   UNL     1      -2.037  -7.768   6.025  1.00  0.00    -0.394 OA
ATOM     32  H   UNL     1      -2.601  -8.262   6.676  1.00  0.00     0.210 HD
ENDBRANCH  30  31
ENDBRANCH  24  30
BRANCH  25  33
ATOM     33  O   UNL     1      -4.575  -9.141   6.438  1.00  0.00    -0.388 OA
ATOM     34  H   UNL     1      -5.286  -9.824   6.378  1.00  0.00     0.211 HD
ENDBRANCH  25  33
ENDBRANCH  11  20
BRANCH  10  35
ATOM     35  O   UNL     1      -7.028  -5.616   3.780  1.00  0.00    -0.507 OA
ATOM     36  H   UNL     1      -6.117  -6.058   3.849  1.00  0.00     0.293 HD
ENDBRANCH  10  35
TORSDOF 9
ENDMDL
