MODEL 1
REMARK VINA RESULT:    -8.347      0.000      0.000
REMARK INTER + INTRA:         -16.157
REMARK INTER:                 -13.715
REMARK INTRA:                  -2.442
REMARK UNBOUND:                -2.442
REMARK SMILES C[C@@H]1O[C@@H](OC[C@H]2O[C@@H](Oc3c(-c4ccc(O)c(O)c4)oc4cc(O)cc(O)c4c3=O)[C@@H](O)[C@H](O)[C@H]2O)[C@@H](O)[C@@H](O)[C@H]1O
REMARK SMILES IDX 7 1 36 2 34 3 32 4 9 5 8 6 6 7 5 8 4 9 1 10 2 11 42 12 3 13
REMARK SMILES IDX 40 14 38 15 43 16 41 18 39 20 37 22 35 24 10 26 11 27 12 28
REMARK SMILES IDX 30 29 21 30 29 31 31 32 22 33 27 34 23 35 26 36 24 37 13 38
REMARK SMILES IDX 20 39 14 40 18 41 15 42 16 43 19 44 17 46 28 48 25 50 33 52
REMARK H PARENT 43 17 41 19 39 21 37 23 35 25 19 45 17 47 28 49 25 51 33 53
REMARK Flexibility Score: inf
ROOT
ATOM      1  C   UNL     1       8.268 -33.068  43.085  1.00  0.00     0.180 C 
ATOM      2  C   UNL     1       8.879 -33.405  44.458  1.00  0.00     0.177 C 
ATOM      3  C   UNL     1       7.955 -32.615  45.482  1.00  0.00     0.180 C 
ATOM      4  C   UNL     1       8.477 -31.170  45.455  1.00  0.00     0.214 C 
ATOM      5  C   UNL     1       8.865 -30.770  43.971  1.00  0.00     0.339 C 
ATOM      6  O   UNL     1       8.039 -31.623  43.075  1.00  0.00    -0.332 OA
ENDROOT
BRANCH   1   7
ATOM      7  C   UNL     1       6.914 -33.866  42.876  1.00  0.00     0.198 C 
BRANCH   7   8
ATOM      8  O   UNL     1       7.259 -35.324  42.757  1.00  0.00    -0.347 OA
BRANCH   8   9
ATOM      9  C   UNL     1       6.186 -36.234  42.582  1.00  0.00     0.281 C 
ATOM     10  C   UNL     1       2.893 -36.861  42.003  1.00  0.00     0.041 C 
ATOM     11  C   UNL     1       3.651 -35.945  42.957  1.00  0.00     0.150 C 
ATOM     12  C   UNL     1       3.655 -36.508  44.437  1.00  0.00     0.174 C 
ATOM     13  O   UNL     1       4.953 -35.447  42.489  1.00  0.00    -0.344 OA
ATOM     14  C   UNL     1       5.095 -36.722  44.915  1.00  0.00     0.179 C 
ATOM     15  C   UNL     1       6.185 -37.117  43.875  1.00  0.00     0.202 C 
BRANCH  12  16
ATOM     16  O   UNL     1       2.963 -35.632  45.352  1.00  0.00    -0.388 OA
ATOM     17  H   UNL     1       3.731 -35.077  45.807  1.00  0.00     0.211 HD
ENDBRANCH  12  16
BRANCH  14  18
ATOM     18  O   UNL     1       5.557 -35.616  45.690  1.00  0.00    -0.387 OA
ATOM     19  H   UNL     1       6.114 -35.030  45.097  1.00  0.00     0.211 HD
ENDBRANCH  14  18
BRANCH  15  20
ATOM     20  O   UNL     1       7.436 -37.225  44.536  1.00  0.00    -0.385 OA
ATOM     21  H   UNL     1       8.150 -36.997  43.847  1.00  0.00     0.211 HD
ENDBRANCH  15  20
ENDBRANCH   8   9
ENDBRANCH   7   8
ENDBRANCH   1   7
BRANCH   2  22
ATOM     22  O   UNL     1       8.959 -34.773  44.834  1.00  0.00    -0.387 OA
ATOM     23  H   UNL     1       9.940 -35.046  45.009  1.00  0.00     0.211 HD
ENDBRANCH   2  22
BRANCH   3  24
ATOM     24  O   UNL     1       8.002 -33.143  46.868  1.00  0.00    -0.387 OA
ATOM     25  H   UNL     1       7.231 -33.677  47.431  1.00  0.00     0.211 HD
ENDBRANCH   3  24
BRANCH   5  26
ATOM     26  O   UNL     1       8.917 -29.407  43.487  1.00  0.00    -0.454 OA
BRANCH  26  27
ATOM     27  C   UNL     1       9.951 -28.324  43.588  1.00  0.00     0.214 A 
ATOM     28  C   UNL     1      10.361 -27.732  42.352  1.00  0.00     0.180 A 
ATOM     29  C   UNL     1      10.514 -27.613  44.785  1.00  0.00     0.239 A 
ATOM     30  O   UNL     1      10.689 -26.455  42.238  1.00  0.00    -0.452 OA
ATOM     31  C   UNL     1      10.588 -26.207  44.631  1.00  0.00     0.111 A 
ATOM     32  O   UNL     1      10.546 -28.165  45.919  1.00  0.00    -0.285 OA
ATOM     33  C   UNL     1      10.791 -25.685  43.289  1.00  0.00     0.146 A 
ATOM     34  C   UNL     1       9.641 -25.457  45.384  1.00  0.00     0.134 A 
ATOM     35  C   UNL     1      10.428 -24.375  43.034  1.00  0.00     0.094 A 
ATOM     36  C   UNL     1       8.709 -24.721  44.666  1.00  0.00     0.093 A 
ATOM     37  C   UNL     1       9.115 -24.216  43.438  1.00  0.00     0.123 A 
BRANCH  28  38
ATOM     38  C   UNL     1      10.169 -28.420  41.116  1.00  0.00     0.025 A 
ATOM     39  C   UNL     1      11.086 -29.432  40.784  1.00  0.00     0.062 A 
ATOM     40  C   UNL     1       9.338 -27.855  40.156  1.00  0.00     0.016 A 
ATOM     41  C   UNL     1      10.812 -30.232  39.640  1.00  0.00     0.158 A 
ATOM     42  C   UNL     1       9.048 -28.621  39.018  1.00  0.00     0.051 A 
ATOM     43  C   UNL     1       9.672 -29.875  38.834  1.00  0.00     0.157 A 
BRANCH  41  44
ATOM     44  O   UNL     1      11.593 -31.361  39.323  1.00  0.00    -0.504 OA
ATOM     45  H   UNL     1      11.410 -32.278  39.722  1.00  0.00     0.293 HD
ENDBRANCH  41  44
BRANCH  43  46
ATOM     46  O   UNL     1       9.123 -30.784  37.973  1.00  0.00    -0.504 OA
ATOM     47  H   UNL     1       8.234 -30.537  37.463  1.00  0.00     0.293 HD
ENDBRANCH  43  46
ENDBRANCH  28  38
BRANCH  34  48
ATOM     48  O   UNL     1       9.403 -25.727  46.755  1.00  0.00    -0.507 OA
ATOM     49  H   UNL     1       8.443 -25.477  47.105  1.00  0.00     0.293 HD
ENDBRANCH  34  48
BRANCH  37  50
ATOM     50  O   UNL     1       8.159 -23.734  42.579  1.00  0.00    -0.508 OA
ATOM     51  H   UNL     1       8.220 -22.792  42.194  1.00  0.00     0.293 HD
ENDBRANCH  37  50
ENDBRANCH  26  27
ENDBRANCH   5  26
BRANCH   4  52
ATOM     52  O   UNL     1       7.738 -30.257  46.330  1.00  0.00    -0.384 OA
ATOM     53  H   UNL     1       7.749 -30.722  47.242  1.00  0.00     0.211 HD
ENDBRANCH   4  52
TORSDOF 16
ENDMDL
MODEL 2
REMARK VINA RESULT:    -8.320      1.754      4.558
REMARK INTER + INTRA:         -16.113
REMARK INTER:                 -13.465
REMARK INTRA:                  -2.647
REMARK UNBOUND:                -2.442
REMARK SMILES C[C@@H]1O[C@@H](OC[C@H]2O[C@@H](Oc3c(-c4ccc(O)c(O)c4)oc4cc(O)cc(O)c4c3=O)[C@@H](O)[C@H](O)[C@H]2O)[C@@H](O)[C@@H](O)[C@H]1O
REMARK SMILES IDX 7 1 36 2 34 3 32 4 9 5 8 6 6 7 5 8 4 9 1 10 2 11 42 12 3 13
REMARK SMILES IDX 40 14 38 15 43 16 41 18 39 20 37 22 35 24 10 26 11 27 12 28
REMARK SMILES IDX 30 29 21 30 29 31 31 32 22 33 27 34 23 35 26 36 24 37 13 38
REMARK SMILES IDX 20 39 14 40 18 41 15 42 16 43 19 44 17 46 28 48 25 50 33 52
REMARK H PARENT 43 17 41 19 39 21 37 23 35 25 19 45 17 47 28 49 25 51 33 53
REMARK Flexibility Score: inf
ROOT
ATOM      1  C   UNL     1       8.271 -34.372  43.012  1.00  0.00     0.180 C 
ATOM      2  C   UNL     1       8.527 -34.207  44.523  1.00  0.00     0.177 C 
ATOM      3  C   UNL     1       7.610 -32.972  44.924  1.00  0.00     0.180 C 
ATOM      4  C   UNL     1       8.416 -31.730  44.516  1.00  0.00     0.214 C 
ATOM      5  C   UNL     1       9.154 -32.000  43.139  1.00  0.00     0.339 C 
ATOM      6  O   UNL     1       8.353 -33.034  42.428  1.00  0.00    -0.332 OA
ENDROOT
BRANCH   1   7
ATOM      7  C   UNL     1       6.846 -35.020  42.765  1.00  0.00     0.198 C 
BRANCH   7   8
ATOM      8  O   UNL     1       7.015 -36.514  42.781  1.00  0.00    -0.347 OA
BRANCH   8   9
ATOM      9  C   UNL     1       5.838 -37.303  42.812  1.00  0.00     0.281 C 
ATOM     10  C   UNL     1       2.479 -37.634  42.388  1.00  0.00     0.041 C 
ATOM     11  C   UNL     1       3.366 -36.631  43.116  1.00  0.00     0.150 C 
ATOM     12  C   UNL     1       3.344 -36.852  44.683  1.00  0.00     0.174 C 
ATOM     13  O   UNL     1       4.705 -36.411  42.548  1.00  0.00    -0.344 OA
ATOM     14  C   UNL     1       4.761 -37.131  45.196  1.00  0.00     0.179 C 
ATOM     15  C   UNL     1       5.768 -37.874  44.269  1.00  0.00     0.202 C 
BRANCH  12  16
ATOM     16  O   UNL     1       2.786 -35.720  45.383  1.00  0.00    -0.388 OA
ATOM     17  H   UNL     1       2.540 -35.041  44.618  1.00  0.00     0.211 HD
ENDBRANCH  12  16
BRANCH  14  18
ATOM     18  O   UNL     1       5.372 -35.946  45.707  1.00  0.00    -0.387 OA
ATOM     19  H   UNL     1       4.796 -35.593  46.449  1.00  0.00     0.211 HD
ENDBRANCH  14  18
BRANCH  15  20
ATOM     20  O   UNL     1       7.014 -37.986  44.936  1.00  0.00    -0.385 OA
ATOM     21  H   UNL     1       6.854 -38.567  45.757  1.00  0.00     0.211 HD
ENDBRANCH  15  20
ENDBRANCH   8   9
ENDBRANCH   7   8
ENDBRANCH   1   7
BRANCH   2  22
ATOM     22  O   UNL     1       8.247 -35.313  45.370  1.00  0.00    -0.387 OA
ATOM     23  H   UNL     1       7.706 -35.011  46.197  1.00  0.00     0.211 HD
ENDBRANCH   2  22
BRANCH   3  24
ATOM     24  O   UNL     1       7.283 -32.910  46.370  1.00  0.00    -0.387 OA
ATOM     25  H   UNL     1       6.862 -32.082  46.949  1.00  0.00     0.211 HD
ENDBRANCH   3  24
BRANCH   5  26
ATOM     26  O   UNL     1       9.579 -30.957  42.230  1.00  0.00    -0.454 OA
BRANCH  26  27
ATOM     27  C   UNL     1       8.835 -29.901  41.465  1.00  0.00     0.214 A 
ATOM     28  C   UNL     1       9.293 -28.558  41.646  1.00  0.00     0.180 A 
ATOM     29  C   UNL     1       7.795 -30.019  40.388  1.00  0.00     0.239 A 
ATOM     30  O   UNL     1       9.270 -27.653  40.680  1.00  0.00    -0.452 OA
ATOM     31  C   UNL     1       8.020 -29.163  39.282  1.00  0.00     0.111 A 
ATOM     32  O   UNL     1       7.045 -31.030  40.311  1.00  0.00    -0.285 OA
ATOM     33  C   UNL     1       8.694 -27.899  39.534  1.00  0.00     0.146 A 
ATOM     34  C   UNL     1       8.459 -29.804  38.090  1.00  0.00     0.134 A 
ATOM     35  C   UNL     1       9.316 -27.268  38.472  1.00  0.00     0.094 A 
ATOM     36  C   UNL     1       9.726 -29.473  37.630  1.00  0.00     0.093 A 
ATOM     37  C   UNL     1      10.170 -28.181  37.880  1.00  0.00     0.123 A 
BRANCH  28  38
ATOM     38  C   UNL     1      10.059 -28.197  42.795  1.00  0.00     0.025 A 
ATOM     39  C   UNL     1       9.379 -27.597  43.869  1.00  0.00     0.062 A 
ATOM     40  C   UNL     1      11.441 -28.122  42.683  1.00  0.00     0.016 A 
ATOM     41  C   UNL     1      10.096 -27.384  45.078  1.00  0.00     0.158 A 
ATOM     42  C   UNL     1      12.177 -27.915  43.859  1.00  0.00     0.051 A 
ATOM     43  C   UNL     1      11.503 -27.693  45.081  1.00  0.00     0.157 A 
BRANCH  41  44
ATOM     44  O   UNL     1       9.456 -26.930  46.248  1.00  0.00    -0.504 OA
ATOM     45  H   UNL     1       9.417 -25.946  46.500  1.00  0.00     0.293 HD
ENDBRANCH  41  44
BRANCH  43  46
ATOM     46  O   UNL     1      12.166 -27.885  46.262  1.00  0.00    -0.504 OA
ATOM     47  H   UNL     1      12.146 -27.126  46.993  1.00  0.00     0.293 HD
ENDBRANCH  43  46
ENDBRANCH  28  38
BRANCH  34  48
ATOM     48  O   UNL     1       7.831 -30.978  37.604  1.00  0.00    -0.507 OA
ATOM     49  H   UNL     1       7.973 -31.177  36.581  1.00  0.00     0.293 HD
ENDBRANCH  34  48
BRANCH  37  50
ATOM     50  O   UNL     1      11.500 -27.898  37.699  1.00  0.00    -0.508 OA
ATOM     51  H   UNL     1      11.959 -28.059  36.803  1.00  0.00     0.293 HD
ENDBRANCH  37  50
ENDBRANCH  26  27
ENDBRANCH   5  26
BRANCH   4  52
ATOM     52  O   UNL     1       7.731 -30.464  44.787  1.00  0.00    -0.384 OA
ATOM     53  H   UNL     1       8.309 -30.016  45.505  1.00  0.00     0.211 HD
ENDBRANCH   4  52
TORSDOF 16
ENDMDL
MODEL 3
REMARK VINA RESULT:    -8.151      2.341      9.687
REMARK INTER + INTRA:         -15.835
REMARK INTER:                 -13.693
REMARK INTRA:                  -2.142
REMARK UNBOUND:                -2.442
REMARK SMILES C[C@@H]1O[C@@H](OC[C@H]2O[C@@H](Oc3c(-c4ccc(O)c(O)c4)oc4cc(O)cc(O)c4c3=O)[C@@H](O)[C@H](O)[C@H]2O)[C@@H](O)[C@@H](O)[C@H]1O
REMARK SMILES IDX 7 1 36 2 34 3 32 4 9 5 8 6 6 7 5 8 4 9 1 10 2 11 42 12 3 13
REMARK SMILES IDX 40 14 38 15 43 16 41 18 39 20 37 22 35 24 10 26 11 27 12 28
REMARK SMILES IDX 30 29 21 30 29 31 31 32 22 33 27 34 23 35 26 36 24 37 13 38
REMARK SMILES IDX 20 39 14 40 18 41 15 42 16 43 19 44 17 46 28 48 25 50 33 52
REMARK H PARENT 43 17 41 19 39 21 37 23 35 25 19 45 17 47 28 49 25 51 33 53
REMARK Flexibility Score: inf
ROOT
ATOM      1  C   UNL     1       7.740 -31.512  43.763  1.00  0.00     0.180 C 
ATOM      2  C   UNL     1       7.425 -31.678  45.262  1.00  0.00     0.177 C 
ATOM      3  C   UNL     1       8.106 -33.065  45.635  1.00  0.00     0.180 C 
ATOM      4  C   UNL     1       7.107 -34.136  45.170  1.00  0.00     0.214 C 
ATOM      5  C   UNL     1       6.458 -33.699  43.791  1.00  0.00     0.339 C 
ATOM      6  O   UNL     1       7.441 -32.797  43.131  1.00  0.00    -0.332 OA
ENDROOT
BRANCH   1   7
ATOM      7  C   UNL     1       9.260 -31.113  43.563  1.00  0.00     0.198 C 
BRANCH   7   8
ATOM      8  O   UNL     1       9.326 -30.118  42.437  1.00  0.00    -0.347 OA
BRANCH   8   9
ATOM      9  C   UNL     1      10.139 -28.972  42.628  1.00  0.00     0.281 C 
ATOM     10  C   UNL     1      12.528 -27.287  44.366  1.00  0.00     0.041 C 
ATOM     11  C   UNL     1      11.256 -28.032  44.754  1.00  0.00     0.150 C 
ATOM     12  C   UNL     1      10.077 -27.038  45.113  1.00  0.00     0.174 C 
ATOM     13  O   UNL     1      10.866 -29.154  43.887  1.00  0.00    -0.344 OA
ATOM     14  C   UNL     1       8.879 -27.286  44.190  1.00  0.00     0.179 C 
ATOM     15  C   UNL     1       9.136 -27.774  42.734  1.00  0.00     0.202 C 
BRANCH  12  16
ATOM     16  O   UNL     1       9.665 -27.162  46.491  1.00  0.00    -0.388 OA
ATOM     17  H   UNL     1       8.813 -27.777  46.450  1.00  0.00     0.211 HD
ENDBRANCH  12  16
BRANCH  14  18
ATOM     18  O   UNL     1       7.910 -28.130  44.810  1.00  0.00    -0.387 OA
ATOM     19  H   UNL     1       8.140 -29.082  44.594  1.00  0.00     0.211 HD
ENDBRANCH  14  18
BRANCH  15  20
ATOM     20  O   UNL     1       7.889 -27.968  42.085  1.00  0.00    -0.385 OA
ATOM     21  H   UNL     1       7.656 -27.086  41.632  1.00  0.00     0.211 HD
ENDBRANCH  15  20
ENDBRANCH   8   9
ENDBRANCH   7   8
ENDBRANCH   1   7
BRANCH   2  22
ATOM     22  O   UNL     1       7.871 -30.664  46.152  1.00  0.00    -0.387 OA
ATOM     23  H   UNL     1       7.090 -30.043  46.418  1.00  0.00     0.211 HD
ENDBRANCH   2  22
BRANCH   3  24
ATOM     24  O   UNL     1       8.384 -33.228  47.083  1.00  0.00    -0.387 OA
ATOM     25  H   UNL     1       8.548 -32.462  47.847  1.00  0.00     0.211 HD
ENDBRANCH   3  24
BRANCH   5  26
ATOM     26  O   UNL     1       5.881 -34.623  42.839  1.00  0.00    -0.454 OA
BRANCH  26  27
ATOM     27  C   UNL     1       4.617 -35.432  42.836  1.00  0.00     0.214 A 
ATOM     28  C   UNL     1       4.300 -36.093  41.608  1.00  0.00     0.180 A 
ATOM     29  C   UNL     1       3.701 -35.826  43.959  1.00  0.00     0.239 A 
ATOM     30  O   UNL     1       3.701 -37.273  41.559  1.00  0.00    -0.452 OA
ATOM     31  C   UNL     1       3.322 -37.190  43.935  1.00  0.00     0.111 A 
ATOM     32  O   UNL     1       3.605 -35.122  45.002  1.00  0.00    -0.285 OA
ATOM     33  C   UNL     1       3.236 -37.843  42.639  1.00  0.00     0.146 A 
ATOM     34  C   UNL     1       3.916 -38.010  44.936  1.00  0.00     0.134 A 
ATOM     35  C   UNL     1       3.315 -39.224  42.595  1.00  0.00     0.094 A 
ATOM     36  C   UNL     1       4.756 -39.024  44.499  1.00  0.00     0.093 A 
ATOM     37  C   UNL     1       4.461 -39.602  43.270  1.00  0.00     0.123 A 
BRANCH  28  38
ATOM     38  C   UNL     1       4.863 -35.649  40.374  1.00  0.00     0.025 A 
ATOM     39  C   UNL     1       4.189 -34.628  39.681  1.00  0.00     0.062 A 
ATOM     40  C   UNL     1       5.812 -36.443  39.746  1.00  0.00     0.016 A 
ATOM     41  C   UNL     1       4.823 -34.065  38.540  1.00  0.00     0.158 A 
ATOM     42  C   UNL     1       6.458 -35.914  38.618  1.00  0.00     0.051 A 
ATOM     43  C   UNL     1       6.062 -34.658  38.106  1.00  0.00     0.157 A 
BRANCH  41  44
ATOM     44  O   UNL     1       4.293 -32.940  37.878  1.00  0.00    -0.504 OA
ATOM     45  H   UNL     1       3.857 -32.170  38.379  1.00  0.00     0.293 HD
ENDBRANCH  41  44
BRANCH  43  46
ATOM     46  O   UNL     1       6.912 -33.965  37.288  1.00  0.00    -0.504 OA
ATOM     47  H   UNL     1       7.734 -34.465  36.858  1.00  0.00     0.293 HD
ENDBRANCH  43  46
ENDBRANCH  28  38
BRANCH  34  48
ATOM     48  O   UNL     1       3.969 -37.603  46.292  1.00  0.00    -0.507 OA
ATOM     49  H   UNL     1       3.039 -37.415  46.745  1.00  0.00     0.293 HD
ENDBRANCH  34  48
BRANCH  37  50
ATOM     50  O   UNL     1       5.408 -40.397  42.675  1.00  0.00    -0.508 OA
ATOM     51  H   UNL     1       5.202 -40.920  41.825  1.00  0.00     0.293 HD
ENDBRANCH  37  50
ENDBRANCH  26  27
ENDBRANCH   5  26
BRANCH   4  52
ATOM     52  O   UNL     1       7.557 -35.509  45.409  1.00  0.00    -0.384 OA
ATOM     53  H   UNL     1       6.690 -36.053  45.450  1.00  0.00     0.211 HD
ENDBRANCH   4  52
TORSDOF 16
ENDMDL
MODEL 4
REMARK VINA RESULT:    -8.091      2.518      9.654
REMARK INTER + INTRA:         -15.737
REMARK INTER:                 -13.839
REMARK INTRA:                  -1.897
REMARK UNBOUND:                -2.442
REMARK SMILES C[C@@H]1O[C@@H](OC[C@H]2O[C@@H](Oc3c(-c4ccc(O)c(O)c4)oc4cc(O)cc(O)c4c3=O)[C@@H](O)[C@H](O)[C@H]2O)[C@@H](O)[C@@H](O)[C@H]1O
REMARK SMILES IDX 7 1 36 2 34 3 32 4 9 5 8 6 6 7 5 8 4 9 1 10 2 11 42 12 3 13
REMARK SMILES IDX 40 14 38 15 43 16 41 18 39 20 37 22 35 24 10 26 11 27 12 28
REMARK SMILES IDX 30 29 21 30 29 31 31 32 22 33 27 34 23 35 26 36 24 37 13 38
REMARK SMILES IDX 20 39 14 40 18 41 15 42 16 43 19 44 17 46 28 48 25 50 33 52
REMARK H PARENT 43 17 41 19 39 21 37 23 35 25 19 45 17 47 28 49 25 51 33 53
REMARK Flexibility Score: inf
ROOT
ATOM      1  C   UNL     1       7.141 -32.156  45.386  1.00  0.00     0.180 C 
ATOM      2  C   UNL     1       7.768 -33.421  46.002  1.00  0.00     0.177 C 
ATOM      3  C   UNL     1       8.746 -33.945  44.865  1.00  0.00     0.180 C 
ATOM      4  C   UNL     1       7.843 -34.708  43.884  1.00  0.00     0.214 C 
ATOM      5  C   UNL     1       6.465 -33.941  43.719  1.00  0.00     0.339 C 
ATOM      6  O   UNL     1       6.741 -32.511  44.024  1.00  0.00    -0.332 OA
ENDROOT
BRANCH   1   7
ATOM      7  C   UNL     1       8.191 -30.968  45.384  1.00  0.00     0.198 C 
BRANCH   7   8
ATOM      8  O   UNL     1       8.058 -30.245  44.073  1.00  0.00    -0.347 OA
BRANCH   8   9
ATOM      9  C   UNL     1       9.090 -29.337  43.724  1.00  0.00     0.281 C 
ATOM     10  C   UNL     1      12.026 -27.769  44.429  1.00  0.00     0.041 C 
ATOM     11  C   UNL     1      10.730 -27.999  45.198  1.00  0.00     0.150 C 
ATOM     12  C   UNL     1       9.841 -26.691  45.260  1.00  0.00     0.174 C 
ATOM     13  O   UNL     1       9.989 -29.228  44.877  1.00  0.00    -0.344 OA
ATOM     14  C   UNL     1       8.469 -26.956  44.628  1.00  0.00     0.179 C 
ATOM     15  C   UNL     1       8.362 -27.976  43.457  1.00  0.00     0.202 C 
BRANCH  12  16
ATOM     16  O   UNL     1       9.671 -26.214  46.612  1.00  0.00    -0.388 OA
ATOM     17  H   UNL     1       9.916 -25.193  46.557  1.00  0.00     0.211 HD
ENDBRANCH  12  16
BRANCH  14  18
ATOM     18  O   UNL     1       7.491 -27.266  45.620  1.00  0.00    -0.387 OA
ATOM     19  H   UNL     1       6.583 -27.181  45.201  1.00  0.00     0.211 HD
ENDBRANCH  14  18
BRANCH  15  20
ATOM     20  O   UNL     1       7.004 -28.083  43.061  1.00  0.00    -0.385 OA
ATOM     21  H   UNL     1       6.751 -27.189  42.643  1.00  0.00     0.211 HD
ENDBRANCH  15  20
ENDBRANCH   8   9
ENDBRANCH   7   8
ENDBRANCH   1   7
BRANCH   2  22
ATOM     22  O   UNL     1       8.477 -33.284  47.226  1.00  0.00    -0.387 OA
ATOM     23  H   UNL     1       9.125 -34.078  47.362  1.00  0.00     0.211 HD
ENDBRANCH   2  22
BRANCH   3  24
ATOM     24  O   UNL     1       9.822 -34.838  45.361  1.00  0.00    -0.387 OA
ATOM     25  H   UNL     1      10.290 -34.875  46.350  1.00  0.00     0.211 HD
ENDBRANCH   3  24
BRANCH   5  26
ATOM     26  O   UNL     1       5.602 -34.069  42.565  1.00  0.00    -0.454 OA
BRANCH  26  27
ATOM     27  C   UNL     1       5.705 -34.857  41.292  1.00  0.00     0.214 A 
ATOM     28  C   UNL     1       5.038 -36.123  41.284  1.00  0.00     0.180 A 
ATOM     29  C   UNL     1       6.238 -34.476  39.941  1.00  0.00     0.239 A 
ATOM     30  O   UNL     1       4.460 -36.626  40.205  1.00  0.00    -0.452 OA
ATOM     31  C   UNL     1       5.399 -34.858  38.867  1.00  0.00     0.111 A 
ATOM     32  O   UNL     1       7.124 -33.585  39.816  1.00  0.00    -0.285 OA
ATOM     33  C   UNL     1       4.586 -36.052  39.038  1.00  0.00     0.146 A 
ATOM     34  C   UNL     1       4.703 -33.796  38.224  1.00  0.00     0.134 A 
ATOM     35  C   UNL     1       3.466 -36.201  38.240  1.00  0.00     0.094 A 
ATOM     36  C   UNL     1       3.318 -33.810  38.310  1.00  0.00     0.093 A 
ATOM     37  C   UNL     1       2.703 -35.054  38.368  1.00  0.00     0.123 A 
BRANCH  28  38
ATOM     38  C   UNL     1       4.715 -36.785  42.507  1.00  0.00     0.025 A 
ATOM     39  C   UNL     1       5.629 -37.736  42.993  1.00  0.00     0.062 A 
ATOM     40  C   UNL     1       3.407 -36.738  42.970  1.00  0.00     0.016 A 
ATOM     41  C   UNL     1       5.401 -38.280  44.287  1.00  0.00     0.158 A 
ATOM     42  C   UNL     1       3.151 -37.264  44.245  1.00  0.00     0.051 A 
ATOM     43  C   UNL     1       4.186 -37.904  44.964  1.00  0.00     0.157 A 
BRANCH  41  44
ATOM     44  O   UNL     1       6.342 -39.121  44.913  1.00  0.00    -0.504 OA
ATOM     45  H   UNL     1       6.082 -39.786  45.637  1.00  0.00     0.293 HD
ENDBRANCH  41  44
BRANCH  43  46
ATOM     46  O   UNL     1       4.072 -38.059  46.318  1.00  0.00    -0.504 OA
ATOM     47  H   UNL     1       4.935 -38.266  46.887  1.00  0.00     0.293 HD
ENDBRANCH  43  46
ENDBRANCH  28  38
BRANCH  34  48
ATOM     48  O   UNL     1       5.361 -32.598  37.850  1.00  0.00    -0.507 OA
ATOM     49  H   UNL     1       5.773 -32.591  36.883  1.00  0.00     0.293 HD
ENDBRANCH  34  48
BRANCH  37  50
ATOM     50  O   UNL     1       1.382 -35.116  38.734  1.00  0.00    -0.508 OA
ATOM     51  H   UNL     1       0.959 -35.990  39.046  1.00  0.00     0.293 HD
ENDBRANCH  37  50
ENDBRANCH  26  27
ENDBRANCH   5  26
BRANCH   4  52
ATOM     52  O   UNL     1       8.557 -35.266  42.733  1.00  0.00    -0.384 OA
ATOM     53  H   UNL     1       8.451 -36.279  42.841  1.00  0.00     0.211 HD
ENDBRANCH   4  52
TORSDOF 16
ENDMDL
MODEL 5
REMARK VINA RESULT:    -7.990      2.081      5.259
REMARK INTER + INTRA:         -15.570
REMARK INTER:                 -13.536
REMARK INTRA:                  -2.033
REMARK UNBOUND:                -2.442
REMARK SMILES C[C@@H]1O[C@@H](OC[C@H]2O[C@@H](Oc3c(-c4ccc(O)c(O)c4)oc4cc(O)cc(O)c4c3=O)[C@@H](O)[C@H](O)[C@H]2O)[C@@H](O)[C@@H](O)[C@H]1O
REMARK SMILES IDX 7 1 36 2 34 3 32 4 9 5 8 6 6 7 5 8 4 9 1 10 2 11 42 12 3 13
REMARK SMILES IDX 40 14 38 15 43 16 41 18 39 20 37 22 35 24 10 26 11 27 12 28
REMARK SMILES IDX 30 29 21 30 29 31 31 32 22 33 27 34 23 35 26 36 24 37 13 38
REMARK SMILES IDX 20 39 14 40 18 41 15 42 16 43 19 44 17 46 28 48 25 50 33 52
REMARK H PARENT 43 17 41 19 39 21 37 23 35 25 19 45 17 47 28 49 25 51 33 53
REMARK Flexibility Score: inf
ROOT
ATOM      1  C   UNL     1       7.662 -34.818  43.994  1.00  0.00     0.180 C 
ATOM      2  C   UNL     1       8.795 -34.403  44.952  1.00  0.00     0.177 C 
ATOM      3  C   UNL     1       8.079 -33.418  45.973  1.00  0.00     0.180 C 
ATOM      4  C   UNL     1       8.019 -32.066  45.244  1.00  0.00     0.214 C 
ATOM      5  C   UNL     1       7.693 -32.300  43.711  1.00  0.00     0.339 C 
ATOM      6  O   UNL     1       6.956 -33.590  43.629  1.00  0.00    -0.332 OA
ENDROOT
BRANCH   1   7
ATOM      7  C   UNL     1       6.691 -35.849  44.706  1.00  0.00     0.198 C 
BRANCH   7   8
ATOM      8  O   UNL     1       6.856 -37.177  44.022  1.00  0.00    -0.347 OA
BRANCH   8   9
ATOM      9  C   UNL     1       5.795 -37.616  43.190  1.00  0.00     0.281 C 
ATOM     10  C   UNL     1       3.055 -36.961  41.283  1.00  0.00     0.041 C 
ATOM     11  C   UNL     1       3.499 -36.556  42.684  1.00  0.00     0.150 C 
ATOM     12  C   UNL     1       2.716 -37.355  43.804  1.00  0.00     0.174 C 
ATOM     13  O   UNL     1       4.949 -36.453  42.906  1.00  0.00    -0.344 OA
ATOM     14  C   UNL     1       3.702 -38.134  44.682  1.00  0.00     0.179 C 
ATOM     15  C   UNL     1       5.017 -38.673  44.045  1.00  0.00     0.202 C 
BRANCH  12  16
ATOM     16  O   UNL     1       1.912 -36.485  44.629  1.00  0.00    -0.388 OA
ATOM     17  H   UNL     1       2.610 -35.839  45.078  1.00  0.00     0.211 HD
ENDBRANCH  12  16
BRANCH  14  18
ATOM     18  O   UNL     1       4.012 -37.419  45.878  1.00  0.00    -0.387 OA
ATOM     19  H   UNL     1       3.722 -37.976  46.659  1.00  0.00     0.211 HD
ENDBRANCH  14  18
BRANCH  15  20
ATOM     20  O   UNL     1       5.782 -39.324  45.047  1.00  0.00    -0.385 OA
ATOM     21  H   UNL     1       5.119 -39.704  45.720  1.00  0.00     0.211 HD
ENDBRANCH  15  20
ENDBRANCH   8   9
ENDBRANCH   7   8
ENDBRANCH   1   7
BRANCH   2  22
ATOM     22  O   UNL     1       9.474 -35.429  45.664  1.00  0.00    -0.387 OA
ATOM     23  H   UNL     1       8.903 -35.758  46.460  1.00  0.00     0.211 HD
ENDBRANCH   2  22
BRANCH   3  24
ATOM     24  O   UNL     1       8.794 -33.265  47.264  1.00  0.00    -0.387 OA
ATOM     25  H   UNL     1       8.679 -32.493  48.032  1.00  0.00     0.211 HD
ENDBRANCH   3  24
BRANCH   5  26
ATOM     26  O   UNL     1       7.092 -31.303  42.851  1.00  0.00    -0.454 OA
BRANCH  26  27
ATOM     27  C   UNL     1       7.504 -30.700  41.540  1.00  0.00     0.214 A 
ATOM     28  C   UNL     1       8.639 -29.830  41.580  1.00  0.00     0.180 A 
ATOM     29  C   UNL     1       7.045 -30.988  40.139  1.00  0.00     0.239 A 
ATOM     30  O   UNL     1       9.515 -29.742  40.591  1.00  0.00    -0.452 OA
ATOM     31  C   UNL     1       8.103 -31.115  39.206  1.00  0.00     0.111 A 
ATOM     32  O   UNL     1       5.891 -31.445  39.911  1.00  0.00    -0.285 OA
ATOM     33  C   UNL     1       9.314 -30.348  39.452  1.00  0.00     0.146 A 
ATOM     34  C   UNL     1       8.362 -32.438  38.749  1.00  0.00     0.134 A 
ATOM     35  C   UNL     1      10.487 -30.769  38.851  1.00  0.00     0.094 A 
ATOM     36  C   UNL     1       9.597 -32.983  39.070  1.00  0.00     0.093 A 
ATOM     37  C   UNL     1      10.668 -32.103  39.168  1.00  0.00     0.123 A 
BRANCH  28  38
ATOM     38  C   UNL     1       9.046 -29.218  42.804  1.00  0.00     0.025 A 
ATOM     39  C   UNL     1       8.201 -28.238  43.354  1.00  0.00     0.062 A 
ATOM     40  C   UNL     1      10.368 -29.340  43.209  1.00  0.00     0.016 A 
ATOM     41  C   UNL     1       8.510 -27.741  44.650  1.00  0.00     0.158 A 
ATOM     42  C   UNL     1      10.704 -28.861  44.484  1.00  0.00     0.051 A 
ATOM     43  C   UNL     1       9.733 -28.193  45.263  1.00  0.00     0.157 A 
BRANCH  41  44
ATOM     44  O   UNL     1       7.638 -26.874  45.337  1.00  0.00    -0.504 OA
ATOM     45  H   UNL     1       7.716 -26.704  46.337  1.00  0.00     0.293 HD
ENDBRANCH  41  44
BRANCH  43  46
ATOM     46  O   UNL     1       9.912 -28.080  46.614  1.00  0.00    -0.504 OA
ATOM     47  H   UNL     1       9.595 -28.865  47.242  1.00  0.00     0.293 HD
ENDBRANCH  43  46
ENDBRANCH  28  38
BRANCH  34  48
ATOM     48  O   UNL     1       7.315 -33.296  38.331  1.00  0.00    -0.507 OA
ATOM     49  H   UNL     1       7.482 -33.807  37.427  1.00  0.00     0.293 HD
ENDBRANCH  34  48
BRANCH  37  50
ATOM     50  O   UNL     1      11.828 -32.545  39.752  1.00  0.00    -0.508 OA
ATOM     51  H   UNL     1      12.230 -33.451  39.511  1.00  0.00     0.293 HD
ENDBRANCH  37  50
ENDBRANCH  26  27
ENDBRANCH   5  26
BRANCH   4  52
ATOM     52  O   UNL     1       7.369 -31.006  46.018  1.00  0.00    -0.384 OA
ATOM     53  H   UNL     1       6.681 -31.502  46.593  1.00  0.00     0.211 HD
ENDBRANCH   4  52
TORSDOF 16
ENDMDL
MODEL 6
REMARK VINA RESULT:    -7.958      3.396      9.152
REMARK INTER + INTRA:         -15.517
REMARK INTER:                 -12.178
REMARK INTRA:                  -3.339
REMARK UNBOUND:                -2.442
REMARK SMILES C[C@@H]1O[C@@H](OC[C@H]2O[C@@H](Oc3c(-c4ccc(O)c(O)c4)oc4cc(O)cc(O)c4c3=O)[C@@H](O)[C@H](O)[C@H]2O)[C@@H](O)[C@@H](O)[C@H]1O
REMARK SMILES IDX 7 1 36 2 34 3 32 4 9 5 8 6 6 7 5 8 4 9 1 10 2 11 42 12 3 13
REMARK SMILES IDX 40 14 38 15 43 16 41 18 39 20 37 22 35 24 10 26 11 27 12 28
REMARK SMILES IDX 30 29 21 30 29 31 31 32 22 33 27 34 23 35 26 36 24 37 13 38
REMARK SMILES IDX 20 39 14 40 18 41 15 42 16 43 19 44 17 46 28 48 25 50 33 52
REMARK H PARENT 43 17 41 19 39 21 37 23 35 25 19 45 17 47 28 49 25 51 33 53
REMARK Flexibility Score: inf
ROOT
ATOM      1  C   UNL     1       7.612 -31.742  44.032  1.00  0.00     0.180 C 
ATOM      2  C   UNL     1       7.571 -32.253  45.485  1.00  0.00     0.177 C 
ATOM      3  C   UNL     1       8.362 -33.630  45.418  1.00  0.00     0.180 C 
ATOM      4  C   UNL     1       7.340 -34.649  44.890  1.00  0.00     0.214 C 
ATOM      5  C   UNL     1       6.443 -33.975  43.770  1.00  0.00     0.339 C 
ATOM      6  O   UNL     1       7.258 -32.878  43.182  1.00  0.00    -0.332 OA
ENDROOT
BRANCH   1   7
ATOM      7  C   UNL     1       9.056 -31.191  43.684  1.00  0.00     0.198 C 
BRANCH   7   8
ATOM      8  O   UNL     1       9.811 -32.294  42.996  1.00  0.00    -0.347 OA
BRANCH   8   9
ATOM      9  C   UNL     1      10.362 -32.009  41.721  1.00  0.00     0.281 C 
ATOM     10  C   UNL     1      10.527 -30.075  38.927  1.00  0.00     0.041 C 
ATOM     11  C   UNL     1       9.388 -30.712  39.715  1.00  0.00     0.150 C 
ATOM     12  C   UNL     1       8.805 -31.988  38.982  1.00  0.00     0.174 C 
ATOM     13  O   UNL     1       9.609 -30.883  41.159  1.00  0.00    -0.344 OA
ATOM     14  C   UNL     1       8.932 -33.219  39.886  1.00  0.00     0.179 C 
ATOM     15  C   UNL     1      10.131 -33.308  40.877  1.00  0.00     0.202 C 
BRANCH  12  16
ATOM     16  O   UNL     1       7.426 -31.808  38.595  1.00  0.00    -0.388 OA
ATOM     17  H   UNL     1       7.033 -31.170  39.333  1.00  0.00     0.211 HD
ENDBRANCH  12  16
BRANCH  14  18
ATOM     18  O   UNL     1       7.716 -33.478  40.587  1.00  0.00    -0.387 OA
ATOM     19  H   UNL     1       6.958 -33.412  39.934  1.00  0.00     0.211 HD
ENDBRANCH  14  18
BRANCH  15  20
ATOM     20  O   UNL     1      10.021 -34.506  41.628  1.00  0.00    -0.385 OA
ATOM     21  H   UNL     1       9.552 -35.184  41.029  1.00  0.00     0.211 HD
ENDBRANCH  15  20
ENDBRANCH   8   9
ENDBRANCH   7   8
ENDBRANCH   1   7
BRANCH   2  22
ATOM     22  O   UNL     1       8.127 -31.425  46.498  1.00  0.00    -0.387 OA
ATOM     23  H   UNL     1       8.971 -30.941  46.150  1.00  0.00     0.211 HD
ENDBRANCH   2  22
BRANCH   3  24
ATOM     24  O   UNL     1       8.897 -34.082  46.726  1.00  0.00    -0.387 OA
ATOM     25  H   UNL     1       9.602 -33.580  47.396  1.00  0.00     0.211 HD
ENDBRANCH   3  24
BRANCH   5  26
ATOM     26  O   UNL     1       5.745 -34.714  42.740  1.00  0.00    -0.454 OA
BRANCH  26  27
ATOM     27  C   UNL     1       4.513 -35.571  42.752  1.00  0.00     0.214 A 
ATOM     28  C   UNL     1       4.239 -36.290  41.547  1.00  0.00     0.180 A 
ATOM     29  C   UNL     1       3.597 -35.957  43.878  1.00  0.00     0.239 A 
ATOM     30  O   UNL     1       3.688 -37.494  41.535  1.00  0.00    -0.452 OA
ATOM     31  C   UNL     1       3.271 -37.336  43.901  1.00  0.00     0.111 A 
ATOM     32  O   UNL     1       3.459 -35.219  44.891  1.00  0.00    -0.285 OA
ATOM     33  C   UNL     1       3.230 -38.040  42.630  1.00  0.00     0.146 A 
ATOM     34  C   UNL     1       3.882 -38.092  44.940  1.00  0.00     0.134 A 
ATOM     35  C   UNL     1       3.363 -39.417  42.641  1.00  0.00     0.094 A 
ATOM     36  C   UNL     1       4.767 -39.089  44.554  1.00  0.00     0.093 A 
ATOM     37  C   UNL     1       4.513 -39.724  43.345  1.00  0.00     0.123 A 
BRANCH  28  38
ATOM     38  C   UNL     1       4.802 -35.872  40.304  1.00  0.00     0.025 A 
ATOM     39  C   UNL     1       4.274 -34.713  39.707  1.00  0.00     0.062 A 
ATOM     40  C   UNL     1       5.569 -36.773  39.577  1.00  0.00     0.016 A 
ATOM     41  C   UNL     1       4.933 -34.195  38.558  1.00  0.00     0.158 A 
ATOM     42  C   UNL     1       6.233 -36.290  38.439  1.00  0.00     0.051 A 
ATOM     43  C   UNL     1       6.029 -34.958  38.017  1.00  0.00     0.157 A 
BRANCH  41  44
ATOM     44  O   UNL     1       4.566 -32.959  37.989  1.00  0.00    -0.504 OA
ATOM     45  H   UNL     1       3.985 -32.895  37.157  1.00  0.00     0.293 HD
ENDBRANCH  41  44
BRANCH  43  46
ATOM     46  O   UNL     1       6.938 -34.367  37.184  1.00  0.00    -0.504 OA
ATOM     47  H   UNL     1       7.140 -34.807  36.247  1.00  0.00     0.293 HD
ENDBRANCH  43  46
ENDBRANCH  28  38
BRANCH  34  48
ATOM     48  O   UNL     1       3.901 -37.632  46.280  1.00  0.00    -0.507 OA
ATOM     49  H   UNL     1       3.162 -36.926  46.526  1.00  0.00     0.293 HD
ENDBRANCH  34  48
BRANCH  37  50
ATOM     50  O   UNL     1       5.499 -40.503  42.793  1.00  0.00    -0.508 OA
ATOM     51  H   UNL     1       5.283 -41.216  42.097  1.00  0.00     0.293 HD
ENDBRANCH  37  50
ENDBRANCH  26  27
ENDBRANCH   5  26
BRANCH   4  52
ATOM     52  O   UNL     1       7.880 -36.002  44.734  1.00  0.00    -0.384 OA
ATOM     53  H   UNL     1       7.113 -36.529  44.305  1.00  0.00     0.211 HD
ENDBRANCH   4  52
TORSDOF 16
ENDMDL
MODEL 7
REMARK VINA RESULT:    -7.891      2.018      5.300
REMARK INTER + INTRA:         -15.407
REMARK INTER:                 -12.377
REMARK INTRA:                  -3.031
REMARK UNBOUND:                -2.442
REMARK SMILES C[C@@H]1O[C@@H](OC[C@H]2O[C@@H](Oc3c(-c4ccc(O)c(O)c4)oc4cc(O)cc(O)c4c3=O)[C@@H](O)[C@H](O)[C@H]2O)[C@@H](O)[C@@H](O)[C@H]1O
REMARK SMILES IDX 7 1 36 2 34 3 32 4 9 5 8 6 6 7 5 8 4 9 1 10 2 11 42 12 3 13
REMARK SMILES IDX 40 14 38 15 43 16 41 18 39 20 37 22 35 24 10 26 11 27 12 28
REMARK SMILES IDX 30 29 21 30 29 31 31 32 22 33 27 34 23 35 26 36 24 37 13 38
REMARK SMILES IDX 20 39 14 40 18 41 15 42 16 43 19 44 17 46 28 48 25 50 33 52
REMARK H PARENT 43 17 41 19 39 21 37 23 35 25 19 45 17 47 28 49 25 51 33 53
REMARK Flexibility Score: inf
ROOT
ATOM      1  C   UNL     1       8.160 -33.937  43.395  1.00  0.00     0.180 C 
ATOM      2  C   UNL     1       9.037 -33.849  44.659  1.00  0.00     0.177 C 
ATOM      3  C   UNL     1       8.084 -33.158  45.727  1.00  0.00     0.180 C 
ATOM      4  C   UNL     1       8.156 -31.656  45.410  1.00  0.00     0.214 C 
ATOM      5  C   UNL     1       8.191 -31.442  43.840  1.00  0.00     0.339 C 
ATOM      6  O   UNL     1       7.524 -32.629  43.239  1.00  0.00    -0.332 OA
ENDROOT
BRANCH   1   7
ATOM      7  C   UNL     1       7.080 -35.085  43.555  1.00  0.00     0.198 C 
BRANCH   7   8
ATOM      8  O   UNL     1       5.724 -34.464  43.371  1.00  0.00    -0.347 OA
BRANCH   8   9
ATOM      9  C   UNL     1       4.804 -35.145  42.535  1.00  0.00     0.281 C 
ATOM     10  C   UNL     1       3.719 -37.991  41.019  1.00  0.00     0.041 C 
ATOM     11  C   UNL     1       5.070 -37.295  41.134  1.00  0.00     0.150 C 
ATOM     12  C   UNL     1       5.467 -36.551  39.794  1.00  0.00     0.174 C 
ATOM     13  O   UNL     1       5.300 -36.514  42.359  1.00  0.00    -0.344 OA
ATOM     14  C   UNL     1       5.674 -35.056  40.063  1.00  0.00     0.179 C 
ATOM     15  C   UNL     1       4.833 -34.365  41.177  1.00  0.00     0.202 C 
BRANCH  12  16
ATOM     16  O   UNL     1       6.656 -37.108  39.197  1.00  0.00    -0.388 OA
ATOM     17  H   UNL     1       6.331 -37.464  38.261  1.00  0.00     0.211 HD
ENDBRANCH  12  16
BRANCH  14  18
ATOM     18  O   UNL     1       7.055 -34.748  40.251  1.00  0.00    -0.387 OA
ATOM     19  H   UNL     1       7.207 -34.576  41.227  1.00  0.00     0.211 HD
ENDBRANCH  14  18
BRANCH  15  20
ATOM     20  O   UNL     1       5.218 -33.003  41.269  1.00  0.00    -0.385 OA
ATOM     21  H   UNL     1       6.184 -32.951  40.948  1.00  0.00     0.211 HD
ENDBRANCH  15  20
ENDBRANCH   8   9
ENDBRANCH   7   8
ENDBRANCH   1   7
BRANCH   2  22
ATOM     22  O   UNL     1       9.563 -35.058  45.189  1.00  0.00    -0.387 OA
ATOM     23  H   UNL     1       9.927 -34.908  46.145  1.00  0.00     0.211 HD
ENDBRANCH   2  22
BRANCH   3  24
ATOM     24  O   UNL     1       8.485 -33.398  47.135  1.00  0.00    -0.387 OA
ATOM     25  H   UNL     1       9.467 -33.661  47.540  1.00  0.00     0.211 HD
ENDBRANCH   3  24
BRANCH   5  26
ATOM     26  O   UNL     1       7.774 -30.223  43.181  1.00  0.00    -0.454 OA
BRANCH  26  27
ATOM     27  C   UNL     1       7.990 -29.683  41.797  1.00  0.00     0.214 A 
ATOM     28  C   UNL     1       9.219 -28.984  41.582  1.00  0.00     0.180 A 
ATOM     29  C   UNL     1       7.217 -29.901  40.528  1.00  0.00     0.239 A 
ATOM     30  O   UNL     1       9.877 -29.020  40.434  1.00  0.00    -0.452 OA
ATOM     31  C   UNL     1       8.033 -30.177  39.403  1.00  0.00     0.111 A 
ATOM     32  O   UNL     1       5.989 -30.188  40.551  1.00  0.00    -0.285 OA
ATOM     33  C   UNL     1       9.364 -29.591  39.376  1.00  0.00     0.146 A 
ATOM     34  C   UNL     1       8.005 -31.522  38.940  1.00  0.00     0.134 A 
ATOM     35  C   UNL     1      10.319 -30.174  38.562  1.00  0.00     0.094 A 
ATOM     36  C   UNL     1       9.192 -32.238  39.019  1.00  0.00     0.093 A 
ATOM     37  C   UNL     1      10.372 -31.520  38.873  1.00  0.00     0.123 A 
BRANCH  28  38
ATOM     38  C   UNL     1       9.949 -28.438  42.680  1.00  0.00     0.025 A 
ATOM     39  C   UNL     1       9.224 -27.734  43.658  1.00  0.00     0.062 A 
ATOM     40  C   UNL     1      11.327 -28.311  42.573  1.00  0.00     0.016 A 
ATOM     41  C   UNL     1       9.911 -27.328  44.835  1.00  0.00     0.158 A 
ATOM     42  C   UNL     1      12.034 -27.915  43.718  1.00  0.00     0.051 A 
ATOM     43  C   UNL     1      11.331 -27.567  44.893  1.00  0.00     0.157 A 
BRANCH  41  44
ATOM     44  O   UNL     1       9.232 -26.755  45.928  1.00  0.00    -0.504 OA
ATOM     45  H   UNL     1       8.221 -26.806  46.027  1.00  0.00     0.293 HD
ENDBRANCH  41  44
BRANCH  43  46
ATOM     46  O   UNL     1      11.983 -27.568  46.096  1.00  0.00    -0.504 OA
ATOM     47  H   UNL     1      12.559 -28.408  46.368  1.00  0.00     0.293 HD
ENDBRANCH  43  46
ENDBRANCH  28  38
BRANCH  34  48
ATOM     48  O   UNL     1       6.785 -32.222  38.767  1.00  0.00    -0.507 OA
ATOM     49  H   UNL     1       6.856 -33.131  38.243  1.00  0.00     0.293 HD
ENDBRANCH  34  48
BRANCH  37  50
ATOM     50  O   UNL     1      11.554 -32.124  39.221  1.00  0.00    -0.508 OA
ATOM     51  H   UNL     1      12.382 -32.047  38.631  1.00  0.00     0.293 HD
ENDBRANCH  37  50
ENDBRANCH  26  27
ENDBRANCH   5  26
BRANCH   4  52
ATOM     52  O   UNL     1       7.321 -30.827  46.283  1.00  0.00    -0.384 OA
ATOM     53  H   UNL     1       7.980 -30.440  46.965  1.00  0.00     0.211 HD
ENDBRANCH   4  52
TORSDOF 16
ENDMDL
MODEL 8
REMARK VINA RESULT:    -7.851      2.296      9.261
REMARK INTER + INTRA:         -15.341
REMARK INTER:                 -13.424
REMARK INTRA:                  -1.918
REMARK UNBOUND:                -2.442
REMARK SMILES C[C@@H]1O[C@@H](OC[C@H]2O[C@@H](Oc3c(-c4ccc(O)c(O)c4)oc4cc(O)cc(O)c4c3=O)[C@@H](O)[C@H](O)[C@H]2O)[C@@H](O)[C@@H](O)[C@H]1O
REMARK SMILES IDX 7 1 36 2 34 3 32 4 9 5 8 6 6 7 5 8 4 9 1 10 2 11 42 12 3 13
REMARK SMILES IDX 40 14 38 15 43 16 41 18 39 20 37 22 35 24 10 26 11 27 12 28
REMARK SMILES IDX 30 29 21 30 29 31 31 32 22 33 27 34 23 35 26 36 24 37 13 38
REMARK SMILES IDX 20 39 14 40 18 41 15 42 16 43 19 44 17 46 28 48 25 50 33 52
REMARK H PARENT 43 17 41 19 39 21 37 23 35 25 19 45 17 47 28 49 25 51 33 53
REMARK Flexibility Score: inf
ROOT
ATOM      1  C   UNL     1       7.733 -31.830  43.847  1.00  0.00     0.180 C 
ATOM      2  C   UNL     1       7.287 -32.170  45.282  1.00  0.00     0.177 C 
ATOM      3  C   UNL     1       8.415 -33.165  45.798  1.00  0.00     0.180 C 
ATOM      4  C   UNL     1       8.035 -34.534  45.212  1.00  0.00     0.214 C 
ATOM      5  C   UNL     1       7.486 -34.350  43.737  1.00  0.00     0.339 C 
ATOM      6  O   UNL     1       8.096 -33.098  43.213  1.00  0.00    -0.332 OA
ENDROOT
BRANCH   1   7
ATOM      7  C   UNL     1       8.962 -30.830  43.877  1.00  0.00     0.198 C 
BRANCH   7   8
ATOM      8  O   UNL     1       8.497 -29.555  44.521  1.00  0.00    -0.347 OA
BRANCH   8   9
ATOM      9  C   UNL     1       8.557 -28.372  43.741  1.00  0.00     0.281 C 
ATOM     10  C   UNL     1      10.165 -26.370  41.510  1.00  0.00     0.041 C 
ATOM     11  C   UNL     1      10.578 -27.077  42.796  1.00  0.00     0.150 C 
ATOM     12  C   UNL     1      10.691 -26.070  44.013  1.00  0.00     0.174 C 
ATOM     13  O   UNL     1       9.877 -28.333  43.105  1.00  0.00    -0.344 OA
ATOM     14  C   UNL     1       9.739 -26.493  45.137  1.00  0.00     0.179 C 
ATOM     15  C   UNL     1       8.400 -27.199  44.768  1.00  0.00     0.202 C 
BRANCH  12  16
ATOM     16  O   UNL     1      12.039 -25.985  44.522  1.00  0.00    -0.388 OA
ATOM     17  H   UNL     1      12.481 -26.894  44.232  1.00  0.00     0.211 HD
ENDBRANCH  12  16
BRANCH  14  18
ATOM     18  O   UNL     1      10.417 -27.254  46.135  1.00  0.00    -0.387 OA
ATOM     19  H   UNL     1      11.206 -26.722  46.452  1.00  0.00     0.211 HD
ENDBRANCH  14  18
BRANCH  15  20
ATOM     20  O   UNL     1       7.706 -27.526  45.960  1.00  0.00    -0.385 OA
ATOM     21  H   UNL     1       7.755 -26.705  46.561  1.00  0.00     0.211 HD
ENDBRANCH  15  20
ENDBRANCH   8   9
ENDBRANCH   7   8
ENDBRANCH   1   7
BRANCH   2  22
ATOM     22  O   UNL     1       7.130 -31.098  46.202  1.00  0.00    -0.387 OA
ATOM     23  H   UNL     1       6.379 -31.308  46.881  1.00  0.00     0.211 HD
ENDBRANCH   2  22
BRANCH   3  24
ATOM     24  O   UNL     1       8.509 -33.256  47.276  1.00  0.00    -0.387 OA
ATOM     25  H   UNL     1       8.234 -34.084  47.937  1.00  0.00     0.211 HD
ENDBRANCH   3  24
BRANCH   5  26
ATOM     26  O   UNL     1       7.498 -35.393  42.733  1.00  0.00    -0.454 OA
BRANCH  26  27
ATOM     27  C   UNL     1       6.820 -35.540  41.403  1.00  0.00     0.214 A 
ATOM     28  C   UNL     1       5.407 -35.757  41.441  1.00  0.00     0.180 A 
ATOM     29  C   UNL     1       7.335 -35.320  40.009  1.00  0.00     0.239 A 
ATOM     30  O   UNL     1       4.580 -35.281  40.523  1.00  0.00    -0.452 OA
ATOM     31  C   UNL     1       6.454 -34.576  39.186  1.00  0.00     0.111 A 
ATOM     32  O   UNL     1       8.561 -35.444  39.737  1.00  0.00    -0.285 OA
ATOM     33  C   UNL     1       5.028 -34.696  39.445  1.00  0.00     0.146 A 
ATOM     34  C   UNL     1       6.861 -33.243  38.899  1.00  0.00     0.134 A 
ATOM     35  C   UNL     1       4.195 -33.688  38.993  1.00  0.00     0.094 A 
ATOM     36  C   UNL     1       6.051 -32.223  39.379  1.00  0.00     0.093 A 
ATOM     37  C   UNL     1       4.690 -32.487  39.468  1.00  0.00     0.123 A 
BRANCH  28  38
ATOM     38  C   UNL     1       4.778 -36.261  42.619  1.00  0.00     0.025 A 
ATOM     39  C   UNL     1       4.720 -37.656  42.781  1.00  0.00     0.062 A 
ATOM     40  C   UNL     1       3.964 -35.413  43.359  1.00  0.00     0.016 A 
ATOM     41  C   UNL     1       4.246 -38.165  44.022  1.00  0.00     0.158 A 
ATOM     42  C   UNL     1       3.482 -35.886  44.588  1.00  0.00     0.051 A 
ATOM     43  C   UNL     1       3.750 -37.216  44.985  1.00  0.00     0.157 A 
BRANCH  41  44
ATOM     44  O   UNL     1       4.297 -39.539  44.325  1.00  0.00    -0.504 OA
ATOM     45  H   UNL     1       3.966 -39.913  45.212  1.00  0.00     0.293 HD
ENDBRANCH  41  44
BRANCH  43  46
ATOM     46  O   UNL     1       3.644 -37.561  46.304  1.00  0.00    -0.504 OA
ATOM     47  H   UNL     1       2.925 -38.277  46.592  1.00  0.00     0.293 HD
ENDBRANCH  43  46
ENDBRANCH  28  38
BRANCH  34  48
ATOM     48  O   UNL     1       8.184 -32.943  38.493  1.00  0.00    -0.507 OA
ATOM     49  H   UNL     1       8.362 -31.938  38.239  1.00  0.00     0.293 HD
ENDBRANCH  34  48
BRANCH  37  50
ATOM     50  O   UNL     1       3.901 -31.627  40.190  1.00  0.00    -0.508 OA
ATOM     51  H   UNL     1       3.434 -30.838  39.746  1.00  0.00     0.293 HD
ENDBRANCH  37  50
ENDBRANCH  26  27
ENDBRANCH   5  26
BRANCH   4  52
ATOM     52  O   UNL     1       8.971 -35.606  45.558  1.00  0.00    -0.384 OA
ATOM     53  H   UNL     1       9.894 -35.193  45.397  1.00  0.00     0.211 HD
ENDBRANCH   4  52
TORSDOF 16
ENDMDL
MODEL 9
REMARK VINA RESULT:    -7.829      5.147     11.215
REMARK INTER + INTRA:         -15.306
REMARK INTER:                 -12.450
REMARK INTRA:                  -2.857
REMARK UNBOUND:                -2.442
REMARK SMILES C[C@@H]1O[C@@H](OC[C@H]2O[C@@H](Oc3c(-c4ccc(O)c(O)c4)oc4cc(O)cc(O)c4c3=O)[C@@H](O)[C@H](O)[C@H]2O)[C@@H](O)[C@@H](O)[C@H]1O
REMARK SMILES IDX 7 1 36 2 34 3 32 4 9 5 8 6 6 7 5 8 4 9 1 10 2 11 42 12 3 13
REMARK SMILES IDX 40 14 38 15 43 16 41 18 39 20 37 22 35 24 10 26 11 27 12 28
REMARK SMILES IDX 30 29 21 30 29 31 31 32 22 33 27 34 23 35 26 36 24 37 13 38
REMARK SMILES IDX 20 39 14 40 18 41 15 42 16 43 19 44 17 46 28 48 25 50 33 52
REMARK H PARENT 43 17 41 19 39 21 37 23 35 25 19 45 17 47 28 49 25 51 33 53
REMARK Flexibility Score: inf
ROOT
ATOM      1  C   UNL     1       5.060 -30.481  39.385  1.00  0.00     0.180 C 
ATOM      2  C   UNL     1       4.966 -30.828  37.887  1.00  0.00     0.177 C 
ATOM      3  C   UNL     1       3.511 -31.452  37.739  1.00  0.00     0.180 C 
ATOM      4  C   UNL     1       3.656 -32.909  38.204  1.00  0.00     0.214 C 
ATOM      5  C   UNL     1       4.634 -32.978  39.450  1.00  0.00     0.339 C 
ATOM      6  O   UNL     1       4.564 -31.648  40.114  1.00  0.00    -0.332 OA
ENDROOT
BRANCH   1   7
ATOM      7  C   UNL     1       4.195 -29.193  39.706  1.00  0.00     0.198 C 
BRANCH   7   8
ATOM      8  O   UNL     1       4.823 -28.031  38.987  1.00  0.00    -0.347 OA
BRANCH   8   9
ATOM      9  C   UNL     1       4.065 -26.836  38.895  1.00  0.00     0.281 C 
ATOM     10  C   UNL     1       1.261 -25.042  39.592  1.00  0.00     0.041 C 
ATOM     11  C   UNL     1       1.521 -26.437  39.037  1.00  0.00     0.150 C 
ATOM     12  C   UNL     1       1.272 -26.507  37.475  1.00  0.00     0.174 C 
ATOM     13  O   UNL     1       2.752 -27.101  39.491  1.00  0.00    -0.344 OA
ATOM     14  C   UNL     1       2.552 -26.951  36.758  1.00  0.00     0.179 C 
ATOM     15  C   UNL     1       3.932 -26.555  37.360  1.00  0.00     0.202 C 
BRANCH  12  16
ATOM     16  O   UNL     1       0.189 -27.399  37.138  1.00  0.00    -0.388 OA
ATOM     17  H   UNL     1       0.612 -28.359  37.218  1.00  0.00     0.211 HD
ENDBRANCH  12  16
BRANCH  14  18
ATOM     18  O   UNL     1       2.536 -28.352  36.486  1.00  0.00    -0.387 OA
ATOM     19  H   UNL     1       3.483 -28.656  36.354  1.00  0.00     0.211 HD
ENDBRANCH  14  18
BRANCH  15  20
ATOM     20  O   UNL     1       4.962 -27.102  36.552  1.00  0.00    -0.385 OA
ATOM     21  H   UNL     1       4.877 -26.666  35.636  1.00  0.00     0.211 HD
ENDBRANCH  15  20
ENDBRANCH   8   9
ENDBRANCH   7   8
ENDBRANCH   1   7
BRANCH   2  22
ATOM     22  O   UNL     1       5.138 -29.775  36.947  1.00  0.00    -0.387 OA
ATOM     23  H   UNL     1       4.690 -30.013  36.047  1.00  0.00     0.211 HD
ENDBRANCH   2  22
BRANCH   3  24
ATOM     24  O   UNL     1       2.977 -31.413  36.356  1.00  0.00    -0.387 OA
ATOM     25  H   UNL     1       3.384 -30.914  35.470  1.00  0.00     0.211 HD
ENDBRANCH   3  24
BRANCH   5  26
ATOM     26  O   UNL     1       4.626 -34.047  40.426  1.00  0.00    -0.454 OA
BRANCH  26  27
ATOM     27  C   UNL     1       4.506 -35.538  40.309  1.00  0.00     0.214 A 
ATOM     28  C   UNL     1       4.567 -36.269  41.537  1.00  0.00     0.180 A 
ATOM     29  C   UNL     1       4.148 -36.405  39.136  1.00  0.00     0.239 A 
ATOM     30  O   UNL     1       3.875 -37.377  41.751  1.00  0.00    -0.452 OA
ATOM     31  C   UNL     1       3.201 -37.414  39.440  1.00  0.00     0.111 A 
ATOM     32  O   UNL     1       4.369 -36.028  37.953  1.00  0.00    -0.285 OA
ATOM     33  C   UNL     1       3.196 -37.949  40.792  1.00  0.00     0.146 A 
ATOM     34  C   UNL     1       1.894 -37.207  38.915  1.00  0.00     0.134 A 
ATOM     35  C   UNL     1       2.047 -38.573  41.244  1.00  0.00     0.094 A 
ATOM     36  C   UNL     1       0.869 -37.035  39.835  1.00  0.00     0.093 A 
ATOM     37  C   UNL     1       0.989 -37.704  41.046  1.00  0.00     0.123 A 
BRANCH  28  38
ATOM     38  C   UNL     1       5.159 -35.692  42.700  1.00  0.00     0.025 A 
ATOM     39  C   UNL     1       6.560 -35.737  42.808  1.00  0.00     0.062 A 
ATOM     40  C   UNL     1       4.358 -35.439  43.806  1.00  0.00     0.016 A 
ATOM     41  C   UNL     1       7.171 -35.023  43.876  1.00  0.00     0.158 A 
ATOM     42  C   UNL     1       4.932 -34.734  44.875  1.00  0.00     0.051 A 
ATOM     43  C   UNL     1       6.303 -34.398  44.841  1.00  0.00     0.157 A 
BRANCH  41  44
ATOM     44  O   UNL     1       8.570 -34.888  43.971  1.00  0.00    -0.504 OA
ATOM     45  H   UNL     1       9.010 -34.218  44.597  1.00  0.00     0.293 HD
ENDBRANCH  41  44
BRANCH  43  46
ATOM     46  O   UNL     1       6.774 -33.401  45.650  1.00  0.00    -0.504 OA
ATOM     47  H   UNL     1       6.978 -32.454  45.234  1.00  0.00     0.293 HD
ENDBRANCH  43  46
ENDBRANCH  28  38
BRANCH  34  48
ATOM     48  O   UNL     1       1.689 -36.816  37.569  1.00  0.00    -0.507 OA
ATOM     49  H   UNL     1       1.060 -37.444  37.007  1.00  0.00     0.293 HD
ENDBRANCH  34  48
BRANCH  37  50
ATOM     50  O   UNL     1       0.159 -37.347  42.078  1.00  0.00    -0.508 OA
ATOM     51  H   UNL     1      -0.791 -37.020  41.905  1.00  0.00     0.293 HD
ENDBRANCH  37  50
ENDBRANCH  26  27
ENDBRANCH   5  26
BRANCH   4  52
ATOM     52  O   UNL     1       2.405 -33.670  38.163  1.00  0.00    -0.384 OA
ATOM     53  H   UNL     1       1.683 -32.957  38.018  1.00  0.00     0.211 HD
ENDBRANCH   4  52
TORSDOF 16
ENDMDL
