MODEL 1
REMARK VINA RESULT:    -5.319      0.000      0.000
REMARK INTER + INTRA:          -9.759
REMARK INTER:                  -8.118
REMARK INTRA:                  -1.641
REMARK UNBOUND:                -1.641
REMARK SMILES COc1cc(C=CC(=O)CC(=O)C=Cc2ccc(O)c(OC)c2)ccc1O
REMARK SMILES IDX 10 1 8 2 9 3 7 4 6 5 5 6 3 7 26 8 4 9 25 10 24 11 2 12 1 13
REMARK SMILES IDX 27 14 11 16 12 17 13 18 14 19 15 20 23 21 16 22 20 23 17 24
REMARK SMILES IDX 18 25 21 26 22 27 19 28
REMARK H PARENT 27 15 19 29
REMARK Flexibility Score: inf
ROOT
ATOM      1  C   UNL     1     111.533 104.416  76.661  1.00  0.00     0.160 C 
ENDROOT
BRANCH   1   2
ATOM      2  C   UNL     1     112.379 103.716  77.688  1.00  0.00     0.163 C 
ATOM      3  O   UNL     1     112.397 102.456  77.708  1.00  0.00    -0.294 OA
BRANCH   2   4
ATOM      4  C   UNL     1     113.098 104.449  78.750  1.00  0.00     0.048 C 
ATOM      5  C   UNL     1     112.621 104.709  79.977  1.00  0.00     0.012 C 
BRANCH   5   6
ATOM      6  C   UNL     1     111.232 104.466  80.425  1.00  0.00    -0.022 A 
ATOM      7  C   UNL     1     109.652 103.100  81.693  1.00  0.00     0.161 A 
ATOM      8  C   UNL     1     108.621 103.994  81.352  1.00  0.00     0.157 A 
ATOM      9  C   UNL     1     110.961 103.353  81.233  1.00  0.00     0.058 A 
ATOM     10  C   UNL     1     108.899 105.120  80.573  1.00  0.00     0.051 A 
ATOM     11  C   UNL     1     110.195 105.362  80.118  1.00  0.00     0.012 A 
BRANCH   7  12
ATOM     12  O   UNL     1     109.346 101.981  82.484  1.00  0.00    -0.493 OA
ATOM     13  C   UNL     1     109.562 101.901  83.889  1.00  0.00     0.278 C 
ENDBRANCH   7  12
BRANCH   8  14
ATOM     14  O   UNL     1     107.311 103.781  81.784  1.00  0.00    -0.504 OA
ATOM     15  H   UNL     1     106.780 102.961  81.513  1.00  0.00     0.293 HD
ENDBRANCH   8  14
ENDBRANCH   5   6
ENDBRANCH   2   4
ENDBRANCH   1   2
BRANCH   1  16
ATOM     16  C   UNL     1     110.760 103.412  75.859  1.00  0.00     0.163 C 
ATOM     17  O   UNL     1     111.364 102.699  75.012  1.00  0.00    -0.294 OA
BRANCH  16  18
ATOM     18  C   UNL     1     109.312 103.243  76.094  1.00  0.00     0.048 C 
ATOM     19  C   UNL     1     108.645 103.975  76.998  1.00  0.00     0.012 C 
BRANCH  19  20
ATOM     20  C   UNL     1     107.188 103.846  77.251  1.00  0.00    -0.022 A 
ATOM     21  C   UNL     1     106.292 104.385  76.313  1.00  0.00     0.058 A 
ATOM     22  C   UNL     1     106.675 103.236  78.411  1.00  0.00     0.012 A 
ATOM     23  C   UNL     1     104.899 104.297  76.509  1.00  0.00     0.161 A 
ATOM     24  C   UNL     1     105.296 103.145  78.609  1.00  0.00     0.051 A 
ATOM     25  C   UNL     1     104.407 103.668  77.666  1.00  0.00     0.157 A 
BRANCH  23  26
ATOM     26  O   UNL     1     103.983 104.817  75.580  1.00  0.00    -0.493 OA
ATOM     27  C   UNL     1     103.520 106.163  75.568  1.00  0.00     0.278 C 
ENDBRANCH  23  26
BRANCH  25  28
ATOM     28  O   UNL     1     103.037 103.558  77.900  1.00  0.00    -0.504 OA
ATOM     29  H   UNL     1     102.662 103.307  78.807  1.00  0.00     0.293 HD
ENDBRANCH  25  28
ENDBRANCH  19  20
ENDBRANCH  16  18
ENDBRANCH   1  16
TORSDOF 10
ENDMDL
MODEL 2
REMARK VINA RESULT:    -5.298      4.837      8.943
REMARK INTER + INTRA:          -9.727
REMARK INTER:                  -7.238
REMARK INTRA:                  -2.489
REMARK UNBOUND:                -1.641
REMARK SMILES COc1cc(C=CC(=O)CC(=O)C=Cc2ccc(O)c(OC)c2)ccc1O
REMARK SMILES IDX 10 1 8 2 9 3 7 4 6 5 5 6 3 7 26 8 4 9 25 10 24 11 2 12 1 13
REMARK SMILES IDX 27 14 11 16 12 17 13 18 14 19 15 20 23 21 16 22 20 23 17 24
REMARK SMILES IDX 18 25 21 26 22 27 19 28
REMARK H PARENT 27 15 19 29
REMARK Flexibility Score: inf
ROOT
ATOM      1  C   UNL     1     107.425 104.349  82.058  1.00  0.00     0.160 C 
ENDROOT
BRANCH   1   2
ATOM      2  C   UNL     1     108.917 104.536  82.044  1.00  0.00     0.163 C 
ATOM      3  O   UNL     1     109.404 105.595  82.525  1.00  0.00    -0.294 OA
BRANCH   2   4
ATOM      4  C   UNL     1     109.825 103.578  81.384  1.00  0.00     0.048 C 
ATOM      5  C   UNL     1     110.346 102.479  81.953  1.00  0.00     0.012 C 
BRANCH   5   6
ATOM      6  C   UNL     1     110.248 102.129  83.387  1.00  0.00    -0.022 A 
ATOM      7  C   UNL     1     111.061 102.423  85.673  1.00  0.00     0.161 A 
ATOM      8  C   UNL     1     110.065 101.542  86.130  1.00  0.00     0.157 A 
ATOM      9  C   UNL     1     111.137 102.720  84.296  1.00  0.00     0.058 A 
ATOM     10  C   UNL     1     109.160 100.977  85.227  1.00  0.00     0.051 A 
ATOM     11  C   UNL     1     109.243 101.272  83.865  1.00  0.00     0.012 A 
BRANCH   7  12
ATOM     12  O   UNL     1     111.951 102.982  86.604  1.00  0.00    -0.493 OA
ATOM     13  C   UNL     1     112.115 104.378  86.827  1.00  0.00     0.278 C 
ENDBRANCH   7  12
BRANCH   8  14
ATOM     14  O   UNL     1     109.955 101.218  87.483  1.00  0.00    -0.504 OA
ATOM     15  H   UNL     1     109.199 101.565  88.061  1.00  0.00     0.293 HD
ENDBRANCH   8  14
ENDBRANCH   5   6
ENDBRANCH   2   4
ENDBRANCH   1   2
BRANCH   1  16
ATOM     16  C   UNL     1     106.845 104.933  83.312  1.00  0.00     0.163 C 
ATOM     17  O   UNL     1     106.309 106.074  83.273  1.00  0.00    -0.294 OA
BRANCH  16  18
ATOM     18  C   UNL     1     106.876 104.154  84.567  1.00  0.00     0.048 C 
ATOM     19  C   UNL     1     107.300 104.682  85.724  1.00  0.00     0.012 C 
BRANCH  19  20
ATOM     20  C   UNL     1     107.332 103.937  87.008  1.00  0.00    -0.022 A 
ATOM     21  C   UNL     1     108.270 104.315  87.982  1.00  0.00     0.058 A 
ATOM     22  C   UNL     1     106.480 102.847  87.269  1.00  0.00     0.012 A 
ATOM     23  C   UNL     1     108.348 103.636  89.214  1.00  0.00     0.161 A 
ATOM     24  C   UNL     1     106.553 102.171  88.488  1.00  0.00     0.051 A 
ATOM     25  C   UNL     1     107.477 102.560  89.461  1.00  0.00     0.157 A 
BRANCH  23  26
ATOM     26  O   UNL     1     109.270 104.002  90.208  1.00  0.00    -0.493 OA
ATOM     27  C   UNL     1     110.673 103.775  90.133  1.00  0.00     0.278 C 
ENDBRANCH  23  26
BRANCH  25  28
ATOM     28  O   UNL     1     107.519 101.860  90.666  1.00  0.00    -0.504 OA
ATOM     29  H   UNL     1     108.188 102.079  91.395  1.00  0.00     0.293 HD
ENDBRANCH  25  28
ENDBRANCH  19  20
ENDBRANCH  16  18
ENDBRANCH   1  16
TORSDOF 10
ENDMDL
MODEL 3
REMARK VINA RESULT:    -5.221      6.840      9.009
REMARK INTER + INTRA:          -9.609
REMARK INTER:                  -7.743
REMARK INTRA:                  -1.866
REMARK UNBOUND:                -1.641
REMARK SMILES COc1cc(C=CC(=O)CC(=O)C=Cc2ccc(O)c(OC)c2)ccc1O
REMARK SMILES IDX 10 1 8 2 9 3 7 4 6 5 5 6 3 7 26 8 4 9 25 10 24 11 2 12 1 13
REMARK SMILES IDX 27 14 11 16 12 17 13 18 14 19 15 20 23 21 16 22 20 23 17 24
REMARK SMILES IDX 18 25 21 26 22 27 19 28
REMARK H PARENT 27 15 19 29
REMARK Flexibility Score: inf
ROOT
ATOM      1  C   UNL     1     110.700 102.431  83.586  1.00  0.00     0.160 C 
ENDROOT
BRANCH   1   2
ATOM      2  C   UNL     1     111.441 103.245  84.611  1.00  0.00     0.163 C 
ATOM      3  O   UNL     1     110.978 104.366  84.952  1.00  0.00    -0.294 OA
BRANCH   2   4
ATOM      4  C   UNL     1     112.754 102.831  85.147  1.00  0.00     0.048 C 
ATOM      5  C   UNL     1     112.954 102.196  86.312  1.00  0.00     0.012 C 
BRANCH   5   6
ATOM      6  C   UNL     1     111.923 101.956  87.345  1.00  0.00    -0.022 A 
ATOM      7  C   UNL     1     110.398 102.859  89.028  1.00  0.00     0.161 A 
ATOM      8  C   UNL     1     109.919 101.559  89.277  1.00  0.00     0.157 A 
ATOM      9  C   UNL     1     111.395 103.048  88.049  1.00  0.00     0.058 A 
ATOM     10  C   UNL     1     110.425 100.476  88.553  1.00  0.00     0.051 A 
ATOM     11  C   UNL     1     111.413 100.669  87.588  1.00  0.00     0.012 A 
BRANCH   7  12
ATOM     12  O   UNL     1     109.866 103.930  89.764  1.00  0.00    -0.493 OA
ATOM     13  C   UNL     1     109.274 105.089  89.189  1.00  0.00     0.278 C 
ENDBRANCH   7  12
BRANCH   8  14
ATOM     14  O   UNL     1     108.936 101.326  90.238  1.00  0.00    -0.504 OA
ATOM     15  H   UNL     1     107.955 101.244  89.998  1.00  0.00     0.293 HD
ENDBRANCH   8  14
ENDBRANCH   5   6
ENDBRANCH   2   4
ENDBRANCH   1   2
BRANCH   1  16
ATOM     16  C   UNL     1     109.625 101.623  84.251  1.00  0.00     0.163 C 
ATOM     17  O   UNL     1     109.352 100.473  83.810  1.00  0.00    -0.294 OA
BRANCH  16  18
ATOM     18  C   UNL     1     108.924 102.165  85.433  1.00  0.00     0.048 C 
ATOM     19  C   UNL     1     107.709 102.724  85.348  1.00  0.00     0.012 C 
BRANCH  19  20
ATOM     20  C   UNL     1     106.967 103.265  86.514  1.00  0.00    -0.022 A 
ATOM     21  C   UNL     1     106.553 104.607  86.485  1.00  0.00     0.058 A 
ATOM     22  C   UNL     1     106.694 102.493  87.659  1.00  0.00     0.012 A 
ATOM     23  C   UNL     1     105.853 105.173  87.569  1.00  0.00     0.161 A 
ATOM     24  C   UNL     1     106.000 103.048  88.735  1.00  0.00     0.051 A 
ATOM     25  C   UNL     1     105.576 104.379  88.696  1.00  0.00     0.157 A 
BRANCH  23  26
ATOM     26  O   UNL     1     105.419 106.508  87.558  1.00  0.00    -0.493 OA
ATOM     27  C   UNL     1     104.262 106.978  86.876  1.00  0.00     0.278 C 
ENDBRANCH  23  26
BRANCH  25  28
ATOM     28  O   UNL     1     104.885 104.898  89.791  1.00  0.00    -0.504 OA
ATOM     29  H   UNL     1     103.884 105.047  89.776  1.00  0.00     0.293 HD
ENDBRANCH  25  28
ENDBRANCH  19  20
ENDBRANCH  16  18
ENDBRANCH   1  16
TORSDOF 10
ENDMDL
MODEL 4
REMARK VINA RESULT:    -5.204      3.781      6.462
REMARK INTER + INTRA:          -9.584
REMARK INTER:                  -8.857
REMARK INTRA:                  -0.727
REMARK UNBOUND:                -1.641
REMARK SMILES COc1cc(C=CC(=O)CC(=O)C=Cc2ccc(O)c(OC)c2)ccc1O
REMARK SMILES IDX 10 1 8 2 9 3 7 4 6 5 5 6 3 7 26 8 4 9 25 10 24 11 2 12 1 13
REMARK SMILES IDX 27 14 11 16 12 17 13 18 14 19 15 20 23 21 16 22 20 23 17 24
REMARK SMILES IDX 18 25 21 26 22 27 19 28
REMARK H PARENT 27 15 19 29
REMARK Flexibility Score: inf
ROOT
ATOM      1  C   UNL     1     110.937 102.963  83.435  1.00  0.00     0.160 C 
ENDROOT
BRANCH   1   2
ATOM      2  C   UNL     1     109.764 102.592  84.299  1.00  0.00     0.163 C 
ATOM      3  O   UNL     1     109.180 103.494  84.958  1.00  0.00    -0.294 OA
BRANCH   2   4
ATOM      4  C   UNL     1     109.342 101.190  84.494  1.00  0.00     0.048 C 
ATOM      5  C   UNL     1     109.376 100.522  85.658  1.00  0.00     0.012 C 
BRANCH   5   6
ATOM      6  C   UNL     1     110.004 101.007  86.906  1.00  0.00    -0.022 A 
ATOM      7  C   UNL     1     109.769 102.108  89.075  1.00  0.00     0.161 A 
ATOM      8  C   UNL     1     111.137 101.894  89.321  1.00  0.00     0.157 A 
ATOM      9  C   UNL     1     109.208 101.648  87.866  1.00  0.00     0.058 A 
ATOM     10  C   UNL     1     111.923 101.227  88.377  1.00  0.00     0.051 A 
ATOM     11  C   UNL     1     111.362 100.778  87.181  1.00  0.00     0.012 A 
BRANCH   7  12
ATOM     12  O   UNL     1     109.002 102.774  90.045  1.00  0.00    -0.493 OA
ATOM     13  C   UNL     1     107.856 102.223  90.685  1.00  0.00     0.278 C 
ENDBRANCH   7  12
BRANCH   8  14
ATOM     14  O   UNL     1     111.735 102.335  90.502  1.00  0.00    -0.504 OA
ATOM     15  H   UNL     1     111.585 103.268  90.867  1.00  0.00     0.293 HD
ENDBRANCH   8  14
ENDBRANCH   5   6
ENDBRANCH   2   4
ENDBRANCH   1   2
BRANCH   1  16
ATOM     16  C   UNL     1     110.554 102.888  81.987  1.00  0.00     0.163 C 
ATOM     17  O   UNL     1     111.449 102.701  81.118  1.00  0.00    -0.294 OA
BRANCH  16  18
ATOM     18  C   UNL     1     109.134 103.000  81.597  1.00  0.00     0.048 C 
ATOM     19  C   UNL     1     108.739 103.712  80.532  1.00  0.00     0.012 C 
BRANCH  19  20
ATOM     20  C   UNL     1     107.325 103.835  80.100  1.00  0.00    -0.022 A 
ATOM     21  C   UNL     1     106.454 104.631  80.863  1.00  0.00     0.058 A 
ATOM     22  C   UNL     1     106.818 103.157  78.975  1.00  0.00     0.012 A 
ATOM     23  C   UNL     1     105.100 104.774  80.501  1.00  0.00     0.161 A 
ATOM     24  C   UNL     1     105.477 103.296  78.612  1.00  0.00     0.051 A 
ATOM     25  C   UNL     1     104.618 104.101  79.365  1.00  0.00     0.157 A 
BRANCH  23  26
ATOM     26  O   UNL     1     104.213 105.573  81.241  1.00  0.00    -0.493 OA
ATOM     27  C   UNL     1     104.594 106.415  82.324  1.00  0.00     0.278 C 
ENDBRANCH  23  26
BRANCH  25  28
ATOM     28  O   UNL     1     103.286 104.216  78.970  1.00  0.00    -0.504 OA
ATOM     29  H   UNL     1     102.771 103.440  78.572  1.00  0.00     0.293 HD
ENDBRANCH  25  28
ENDBRANCH  19  20
ENDBRANCH  16  18
ENDBRANCH   1  16
TORSDOF 10
ENDMDL
MODEL 5
REMARK VINA RESULT:    -5.194      7.468     10.452
REMARK INTER + INTRA:          -9.568
REMARK INTER:                  -7.481
REMARK INTRA:                  -2.086
REMARK UNBOUND:                -1.641
REMARK SMILES COc1cc(C=CC(=O)CC(=O)C=Cc2ccc(O)c(OC)c2)ccc1O
REMARK SMILES IDX 10 1 8 2 9 3 7 4 6 5 5 6 3 7 26 8 4 9 25 10 24 11 2 12 1 13
REMARK SMILES IDX 27 14 11 16 12 17 13 18 14 19 15 20 23 21 16 22 20 23 17 24
REMARK SMILES IDX 18 25 21 26 22 27 19 28
REMARK H PARENT 27 15 19 29
REMARK Flexibility Score: inf
ROOT
ATOM      1  C   UNL     1     109.752 101.859  84.458  1.00  0.00     0.160 C 
ENDROOT
BRANCH   1   2
ATOM      2  C   UNL     1     110.639 103.004  84.861  1.00  0.00     0.163 C 
ATOM      3  O   UNL     1     110.112 104.048  85.332  1.00  0.00    -0.294 OA
BRANCH   2   4
ATOM      4  C   UNL     1     112.096 102.997  84.618  1.00  0.00     0.048 C 
ATOM      5  C   UNL     1     113.027 102.564  85.483  1.00  0.00     0.012 C 
BRANCH   5   6
ATOM      6  C   UNL     1     112.779 102.185  86.891  1.00  0.00    -0.022 A 
ATOM      7  C   UNL     1     112.328 102.870  89.193  1.00  0.00     0.161 A 
ATOM      8  C   UNL     1     112.245 101.517  89.569  1.00  0.00     0.157 A 
ATOM      9  C   UNL     1     112.584 103.194  87.845  1.00  0.00     0.058 A 
ATOM     10  C   UNL     1     112.408 100.512  88.611  1.00  0.00     0.051 A 
ATOM     11  C   UNL     1     112.665 100.840  87.280  1.00  0.00     0.012 A 
BRANCH   7  12
ATOM     12  O   UNL     1     112.151 103.858  90.175  1.00  0.00    -0.493 OA
ATOM     13  C   UNL     1     110.976 104.647  90.324  1.00  0.00     0.278 C 
ENDBRANCH   7  12
BRANCH   8  14
ATOM     14  O   UNL     1     111.995 101.151  90.892  1.00  0.00    -0.504 OA
ATOM     15  H   UNL     1     111.960 101.831  91.642  1.00  0.00     0.293 HD
ENDBRANCH   8  14
ENDBRANCH   5   6
ENDBRANCH   2   4
ENDBRANCH   1   2
BRANCH   1  16
ATOM     16  C   UNL     1     109.340 101.076  85.669  1.00  0.00     0.163 C 
ATOM     17  O   UNL     1     109.720  99.880  85.792  1.00  0.00    -0.294 OA
BRANCH  16  18
ATOM     18  C   UNL     1     108.525 101.723  86.717  1.00  0.00     0.048 C 
ATOM     19  C   UNL     1     108.970 101.880  87.972  1.00  0.00     0.012 C 
BRANCH  19  20
ATOM     20  C   UNL     1     108.188 102.538  89.048  1.00  0.00    -0.022 A 
ATOM     21  C   UNL     1     107.429 103.676  88.730  1.00  0.00     0.058 A 
ATOM     22  C   UNL     1     108.206 102.083  90.380  1.00  0.00     0.012 A 
ATOM     23  C   UNL     1     106.674 104.343  89.716  1.00  0.00     0.161 A 
ATOM     24  C   UNL     1     107.460 102.739  91.361  1.00  0.00     0.051 A 
ATOM     25  C   UNL     1     106.694 103.862  91.037  1.00  0.00     0.157 A 
BRANCH  23  26
ATOM     26  O   UNL     1     105.900 105.476  89.419  1.00  0.00    -0.493 OA
ATOM     27  C   UNL     1     104.562 105.437  88.934  1.00  0.00     0.278 C 
ENDBRANCH  23  26
BRANCH  25  28
ATOM     28  O   UNL     1     105.962 104.490  92.044  1.00  0.00    -0.504 OA
ATOM     29  H   UNL     1     105.239 104.011  92.565  1.00  0.00     0.293 HD
ENDBRANCH  25  28
ENDBRANCH  19  20
ENDBRANCH  16  18
ENDBRANCH   1  16
TORSDOF 10
ENDMDL
MODEL 6
REMARK VINA RESULT:    -5.146      3.624      5.316
REMARK INTER + INTRA:          -9.494
REMARK INTER:                  -7.922
REMARK INTRA:                  -1.573
REMARK UNBOUND:                -1.641
REMARK SMILES COc1cc(C=CC(=O)CC(=O)C=Cc2ccc(O)c(OC)c2)ccc1O
REMARK SMILES IDX 10 1 8 2 9 3 7 4 6 5 5 6 3 7 26 8 4 9 25 10 24 11 2 12 1 13
REMARK SMILES IDX 27 14 11 16 12 17 13 18 14 19 15 20 23 21 16 22 20 23 17 24
REMARK SMILES IDX 18 25 21 26 22 27 19 28
REMARK H PARENT 27 15 19 29
REMARK Flexibility Score: inf
ROOT
ATOM      1  C   UNL     1     110.174 105.242  82.512  1.00  0.00     0.160 C 
ENDROOT
BRANCH   1   2
ATOM      2  C   UNL     1     110.724 103.957  83.068  1.00  0.00     0.163 C 
ATOM      3  O   UNL     1     111.613 104.009  83.960  1.00  0.00    -0.294 OA
BRANCH   2   4
ATOM      4  C   UNL     1     110.345 102.637  82.524  1.00  0.00     0.048 C 
ATOM      5  C   UNL     1     109.525 101.756  83.119  1.00  0.00     0.012 C 
BRANCH   5   6
ATOM      6  C   UNL     1     108.998 101.871  84.496  1.00  0.00    -0.022 A 
ATOM      7  C   UNL     1     109.297 101.482  86.890  1.00  0.00     0.161 A 
ATOM      8  C   UNL     1     108.067 102.119  87.137  1.00  0.00     0.157 A 
ATOM      9  C   UNL     1     109.760 101.374  85.562  1.00  0.00     0.058 A 
ATOM     10  C   UNL     1     107.323 102.642  86.076  1.00  0.00     0.051 A 
ATOM     11  C   UNL     1     107.786 102.528  84.765  1.00  0.00     0.012 A 
BRANCH   7  12
ATOM     12  O   UNL     1     110.027 100.973  87.976  1.00  0.00    -0.493 OA
ATOM     13  C   UNL     1     111.426 101.154  88.164  1.00  0.00     0.278 C 
ENDBRANCH   7  12
BRANCH   8  14
ATOM     14  O   UNL     1     107.570 102.245  88.434  1.00  0.00    -0.504 OA
ATOM     15  H   UNL     1     107.700 101.525  89.135  1.00  0.00     0.293 HD
ENDBRANCH   8  14
ENDBRANCH   5   6
ENDBRANCH   2   4
ENDBRANCH   1   2
BRANCH   1  16
ATOM     16  C   UNL     1     108.801 105.494  83.061  1.00  0.00     0.163 C 
ATOM     17  O   UNL     1     108.677 106.035  84.193  1.00  0.00    -0.294 OA
BRANCH  16  18
ATOM     18  C   UNL     1     107.613 105.138  82.260  1.00  0.00     0.048 C 
ATOM     19  C   UNL     1     107.693 104.850  80.953  1.00  0.00     0.012 C 
BRANCH  19  20
ATOM     20  C   UNL     1     106.526 104.473  80.118  1.00  0.00    -0.022 A 
ATOM     21  C   UNL     1     105.322 105.177  80.287  1.00  0.00     0.058 A 
ATOM     22  C   UNL     1     106.571 103.416  79.190  1.00  0.00     0.012 A 
ATOM     23  C   UNL     1     104.181 104.854  79.526  1.00  0.00     0.161 A 
ATOM     24  C   UNL     1     105.444 103.092  78.432  1.00  0.00     0.051 A 
ATOM     25  C   UNL     1     104.253 103.805  78.592  1.00  0.00     0.157 A 
BRANCH  23  26
ATOM     26  O   UNL     1     102.970 105.551  79.669  1.00  0.00    -0.493 OA
ATOM     27  C   UNL     1     102.818 106.769  80.389  1.00  0.00     0.278 C 
ENDBRANCH  23  26
BRANCH  25  28
ATOM     28  O   UNL     1     103.149 103.453  77.817  1.00  0.00    -0.504 OA
ATOM     29  H   UNL     1     102.751 104.078  77.127  1.00  0.00     0.293 HD
ENDBRANCH  25  28
ENDBRANCH  19  20
ENDBRANCH  16  18
ENDBRANCH   1  16
TORSDOF 10
ENDMDL
MODEL 7
REMARK VINA RESULT:    -5.110      5.990      9.525
REMARK INTER + INTRA:          -9.440
REMARK INTER:                  -6.782
REMARK INTRA:                  -2.658
REMARK UNBOUND:                -1.641
REMARK SMILES COc1cc(C=CC(=O)CC(=O)C=Cc2ccc(O)c(OC)c2)ccc1O
REMARK SMILES IDX 10 1 8 2 9 3 7 4 6 5 5 6 3 7 26 8 4 9 25 10 24 11 2 12 1 13
REMARK SMILES IDX 27 14 11 16 12 17 13 18 14 19 15 20 23 21 16 22 20 23 17 24
REMARK SMILES IDX 18 25 21 26 22 27 19 28
REMARK H PARENT 27 15 19 29
REMARK Flexibility Score: inf
ROOT
ATOM      1  C   UNL     1     106.895 104.318  88.968  1.00  0.00     0.160 C 
ENDROOT
BRANCH   1   2
ATOM      2  C   UNL     1     106.915 102.822  89.117  1.00  0.00     0.163 C 
ATOM      3  O   UNL     1     106.161 102.125  88.385  1.00  0.00    -0.294 OA
BRANCH   2   4
ATOM      4  C   UNL     1     107.698 102.144  90.169  1.00  0.00     0.048 C 
ATOM      5  C   UNL     1     109.010 101.866  90.106  1.00  0.00     0.012 C 
BRANCH   5   6
ATOM      6  C   UNL     1     109.863 102.026  88.908  1.00  0.00    -0.022 A 
ATOM      7  C   UNL     1     111.322 103.442  87.553  1.00  0.00     0.161 A 
ATOM      8  C   UNL     1     111.541 102.362  86.678  1.00  0.00     0.157 A 
ATOM      9  C   UNL     1     110.488 103.259  88.675  1.00  0.00     0.058 A 
ATOM     10  C   UNL     1     110.941 101.125  86.928  1.00  0.00     0.051 A 
ATOM     11  C   UNL     1     110.114 100.951  88.039  1.00  0.00     0.012 A 
BRANCH   7  12
ATOM     12  O   UNL     1     111.943 104.671  87.281  1.00  0.00    -0.493 OA
ATOM     13  C   UNL     1     111.249 105.877  86.982  1.00  0.00     0.278 C 
ENDBRANCH   7  12
BRANCH   8  14
ATOM     14  O   UNL     1     112.356 102.499  85.554  1.00  0.00    -0.504 OA
ATOM     15  H   UNL     1     112.530 101.730  84.917  1.00  0.00     0.293 HD
ENDBRANCH   8  14
ENDBRANCH   5   6
ENDBRANCH   2   4
ENDBRANCH   1   2
BRANCH   1  16
ATOM     16  C   UNL     1     106.689 104.690  87.530  1.00  0.00     0.163 C 
ATOM     17  O   UNL     1     105.608 105.239  87.182  1.00  0.00    -0.294 OA
BRANCH  16  18
ATOM     18  C   UNL     1     107.762 104.441  86.546  1.00  0.00     0.048 C 
ATOM     19  C   UNL     1     107.640 103.528  85.572  1.00  0.00     0.012 C 
BRANCH  19  20
ATOM     20  C   UNL     1     108.688 103.260  84.556  1.00  0.00    -0.022 A 
ATOM     21  C   UNL     1     109.486 104.329  84.114  1.00  0.00     0.058 A 
ATOM     22  C   UNL     1     108.889 101.985  83.996  1.00  0.00     0.012 A 
ATOM     23  C   UNL     1     110.490 104.131  83.146  1.00  0.00     0.161 A 
ATOM     24  C   UNL     1     109.882 101.783  83.037  1.00  0.00     0.051 A 
ATOM     25  C   UNL     1     110.684 102.845  82.612  1.00  0.00     0.157 A 
BRANCH  23  26
ATOM     26  O   UNL     1     111.307 105.181  82.697  1.00  0.00    -0.493 OA
ATOM     27  C   UNL     1     112.529 105.575  83.312  1.00  0.00     0.278 C 
ENDBRANCH  23  26
BRANCH  25  28
ATOM     28  O   UNL     1     111.667 102.604  81.652  1.00  0.00    -0.504 OA
ATOM     29  H   UNL     1     112.353 103.302  81.394  1.00  0.00     0.293 HD
ENDBRANCH  25  28
ENDBRANCH  19  20
ENDBRANCH  16  18
ENDBRANCH   1  16
TORSDOF 10
ENDMDL
MODEL 8
REMARK VINA RESULT:    -5.055      7.140      9.902
REMARK INTER + INTRA:          -9.356
REMARK INTER:                  -6.994
REMARK INTRA:                  -2.363
REMARK UNBOUND:                -1.641
REMARK SMILES COc1cc(C=CC(=O)CC(=O)C=Cc2ccc(O)c(OC)c2)ccc1O
REMARK SMILES IDX 10 1 8 2 9 3 7 4 6 5 5 6 3 7 26 8 4 9 25 10 24 11 2 12 1 13
REMARK SMILES IDX 27 14 11 16 12 17 13 18 14 19 15 20 23 21 16 22 20 23 17 24
REMARK SMILES IDX 18 25 21 26 22 27 19 28
REMARK H PARENT 27 15 19 29
REMARK Flexibility Score: inf
ROOT
ATOM      1  C   UNL     1     111.712 100.480  87.522  1.00  0.00     0.160 C 
ENDROOT
BRANCH   1   2
ATOM      2  C   UNL     1     112.489 101.767  87.563  1.00  0.00     0.163 C 
ATOM      3  O   UNL     1     112.549 102.410  88.645  1.00  0.00    -0.294 OA
BRANCH   2   4
ATOM      4  C   UNL     1     113.088 102.365  86.353  1.00  0.00     0.048 C 
ATOM      5  C   UNL     1     112.405 102.898  85.328  1.00  0.00     0.012 C 
BRANCH   5   6
ATOM      6  C   UNL     1     110.939 102.823  85.144  1.00  0.00    -0.022 A 
ATOM      7  C   UNL     1     108.742 103.858  85.414  1.00  0.00     0.161 A 
ATOM      8  C   UNL     1     108.154 102.755  84.766  1.00  0.00     0.157 A 
ATOM      9  C   UNL     1     110.140 103.886  85.588  1.00  0.00     0.058 A 
ATOM     10  C   UNL     1     108.954 101.710  84.297  1.00  0.00     0.051 A 
ATOM     11  C   UNL     1     110.338 101.744  84.475  1.00  0.00     0.012 A 
BRANCH   7  12
ATOM     12  O   UNL     1     107.914 104.897  85.868  1.00  0.00    -0.493 OA
ATOM     13  C   UNL     1     108.197 106.283  85.708  1.00  0.00     0.278 C 
ENDBRANCH   7  12
BRANCH   8  14
ATOM     14  O   UNL     1     106.774 102.684  84.575  1.00  0.00    -0.504 OA
ATOM     15  H   UNL     1     106.225 103.490  84.300  1.00  0.00     0.293 HD
ENDBRANCH   8  14
ENDBRANCH   5   6
ENDBRANCH   2   4
ENDBRANCH   1   2
BRANCH   1  16
ATOM     16  C   UNL     1     110.588 100.526  88.513  1.00  0.00     0.163 C 
ATOM     17  O   UNL     1     110.704  99.913  89.610  1.00  0.00    -0.294 OA
BRANCH  16  18
ATOM     18  C   UNL     1     109.375 101.313  88.212  1.00  0.00     0.048 C 
ATOM     19  C   UNL     1     108.832 102.156  89.101  1.00  0.00     0.012 C 
BRANCH  19  20
ATOM     20  C   UNL     1     107.624 102.975  88.830  1.00  0.00    -0.022 A 
ATOM     21  C   UNL     1     107.577 104.289  89.323  1.00  0.00     0.058 A 
ATOM     22  C   UNL     1     106.513 102.471  88.128  1.00  0.00     0.012 A 
ATOM     23  C   UNL     1     106.451 105.107  89.101  1.00  0.00     0.161 A 
ATOM     24  C   UNL     1     105.395 103.276  87.904  1.00  0.00     0.051 A 
ATOM     25  C   UNL     1     105.358 104.589  88.383  1.00  0.00     0.157 A 
BRANCH  23  26
ATOM     26  O   UNL     1     106.385 106.427  89.574  1.00  0.00    -0.493 OA
ATOM     27  C   UNL     1     107.097 106.918  90.704  1.00  0.00     0.278 C 
ENDBRANCH  23  26
BRANCH  25  28
ATOM     28  O   UNL     1     104.224 105.362  88.139  1.00  0.00    -0.504 OA
ATOM     29  H   UNL     1     103.983 106.163  88.710  1.00  0.00     0.293 HD
ENDBRANCH  25  28
ENDBRANCH  19  20
ENDBRANCH  16  18
ENDBRANCH   1  16
TORSDOF 10
ENDMDL
MODEL 9
REMARK VINA RESULT:    -5.024      5.089      9.304
REMARK INTER + INTRA:          -9.308
REMARK INTER:                  -6.983
REMARK INTRA:                  -2.325
REMARK UNBOUND:                -1.641
REMARK SMILES COc1cc(C=CC(=O)CC(=O)C=Cc2ccc(O)c(OC)c2)ccc1O
REMARK SMILES IDX 10 1 8 2 9 3 7 4 6 5 5 6 3 7 26 8 4 9 25 10 24 11 2 12 1 13
REMARK SMILES IDX 27 14 11 16 12 17 13 18 14 19 15 20 23 21 16 22 20 23 17 24
REMARK SMILES IDX 18 25 21 26 22 27 19 28
REMARK H PARENT 27 15 19 29
REMARK Flexibility Score: inf
ROOT
ATOM      1  C   UNL     1     110.127 100.615  89.351  1.00  0.00     0.160 C 
ENDROOT
BRANCH   1   2
ATOM      2  C   UNL     1     109.599 101.954  89.787  1.00  0.00     0.163 C 
ATOM      3  O   UNL     1     110.373 102.948  89.779  1.00  0.00    -0.294 OA
BRANCH   2   4
ATOM      4  C   UNL     1     108.238 102.124  90.335  1.00  0.00     0.048 C 
ATOM      5  C   UNL     1     107.164 102.530  89.640  1.00  0.00     0.012 C 
BRANCH   5   6
ATOM      6  C   UNL     1     107.185 103.047  88.255  1.00  0.00    -0.022 A 
ATOM      7  C   UNL     1     107.504 104.928  86.728  1.00  0.00     0.161 A 
ATOM      8  C   UNL     1     107.295 104.065  85.637  1.00  0.00     0.157 A 
ATOM      9  C   UNL     1     107.458 104.404  88.036  1.00  0.00     0.058 A 
ATOM     10  C   UNL     1     107.053 102.706  85.854  1.00  0.00     0.051 A 
ATOM     11  C   UNL     1     107.006 102.195  87.151  1.00  0.00     0.012 A 
BRANCH   7  12
ATOM     12  O   UNL     1     107.753 106.288  86.480  1.00  0.00    -0.493 OA
ATOM     13  C   UNL     1     107.653 107.318  87.457  1.00  0.00     0.278 C 
ENDBRANCH   7  12
BRANCH   8  14
ATOM     14  O   UNL     1     107.329 104.541  84.326  1.00  0.00    -0.504 OA
ATOM     15  H   UNL     1     107.182 105.518  84.102  1.00  0.00     0.293 HD
ENDBRANCH   8  14
ENDBRANCH   5   6
ENDBRANCH   2   4
ENDBRANCH   1   2
BRANCH   1  16
ATOM     16  C   UNL     1     111.091 100.788  88.215  1.00  0.00     0.163 C 
ATOM     17  O   UNL     1     112.325 100.627  88.421  1.00  0.00    -0.294 OA
BRANCH  16  18
ATOM     18  C   UNL     1     110.585 101.108  86.865  1.00  0.00     0.048 C 
ATOM     19  C   UNL     1     111.081 102.119  86.138  1.00  0.00     0.012 C 
BRANCH  19  20
ATOM     20  C   UNL     1     110.610 102.462  84.773  1.00  0.00    -0.022 A 
ATOM     21  C   UNL     1     110.998 103.692  84.216  1.00  0.00     0.058 A 
ATOM     22  C   UNL     1     109.762 101.617  84.033  1.00  0.00     0.012 A 
ATOM     23  C   UNL     1     110.572 104.070  82.927  1.00  0.00     0.161 A 
ATOM     24  C   UNL     1     109.338 101.986  82.755  1.00  0.00     0.051 A 
ATOM     25  C   UNL     1     109.739 103.204  82.198  1.00  0.00     0.157 A 
BRANCH  23  26
ATOM     26  O   UNL     1     110.956 105.289  82.345  1.00  0.00    -0.493 OA
ATOM     27  C   UNL     1     112.190 105.510  81.670  1.00  0.00     0.278 C 
ENDBRANCH  23  26
BRANCH  25  28
ATOM     28  O   UNL     1     109.295 103.537  80.919  1.00  0.00    -0.504 OA
ATOM     29  H   UNL     1     109.673 103.104  80.086  1.00  0.00     0.293 HD
ENDBRANCH  25  28
ENDBRANCH  19  20
ENDBRANCH  16  18
ENDBRANCH   1  16
TORSDOF 10
ENDMDL
