MODEL 1
REMARK VINA RESULT:    -4.971      0.000      0.000
REMARK INTER + INTRA:          -5.655
REMARK INTER:                  -5.407
REMARK INTRA:                  -0.247
REMARK UNBOUND:                -0.247
REMARK SMILES O=C([O-])c1ccccc1O
REMARK SMILES IDX 4 1 9 2 5 3 8 4 6 5 7 6 2 7 1 8 3 9 10 10
REMARK H PARENT 10 11
REMARK Flexibility Score: inf
ROOT
ATOM      1  C   UNL     1      -5.669 -30.494 -23.389  1.00  0.00     0.039 A 
ATOM      2  C   UNL     1      -4.647 -30.545 -22.411  1.00  0.00     0.124 A 
ATOM      3  C   UNL     1      -5.346 -30.048 -24.686  1.00  0.00     0.014 A 
ATOM      4  C   UNL     1      -3.340 -30.153 -22.744  1.00  0.00     0.047 A 
ATOM      5  C   UNL     1      -4.042 -29.661 -25.003  1.00  0.00     0.001 A 
ATOM      6  C   UNL     1      -3.041 -29.714 -24.034  1.00  0.00     0.004 A 
ENDROOT
BRANCH   1   7
ATOM      7  C   UNL     1      -7.066 -30.898 -23.088  1.00  0.00     0.075 C 
ATOM      8  O   UNL     1      -7.323 -32.028 -22.593  1.00  0.00    -0.545 OA
ATOM      9  O   UNL     1      -8.119 -30.029 -23.350  1.00  0.00    -0.545 OA
ENDBRANCH   1   7
BRANCH   2  10
ATOM     10  O   UNL     1      -4.920 -30.980 -21.115  1.00  0.00    -0.507 OA
ATOM     11  H   UNL     1      -4.191 -31.332 -20.505  1.00  0.00     0.293 HD
ENDBRANCH   2  10
TORSDOF 2
ENDMDL
MODEL 2
REMARK VINA RESULT:    -4.768     13.758     15.128
REMARK INTER + INTRA:          -5.433
REMARK INTER:                  -5.219
REMARK INTRA:                  -0.214
REMARK UNBOUND:                -0.247
REMARK SMILES O=C([O-])c1ccccc1O
REMARK SMILES IDX 4 1 9 2 5 3 8 4 6 5 7 6 2 7 1 8 3 9 10 10
REMARK H PARENT 10 11
REMARK Flexibility Score: inf
ROOT
ATOM      1  C   UNL     1     -15.342 -27.731 -34.527  1.00  0.00     0.039 A 
ATOM      2  C   UNL     1     -15.418 -28.047 -33.149  1.00  0.00     0.124 A 
ATOM      3  C   UNL     1     -14.106 -27.866 -35.188  1.00  0.00     0.014 A 
ATOM      4  C   UNL     1     -14.270 -28.485 -32.469  1.00  0.00     0.047 A 
ATOM      5  C   UNL     1     -12.973 -28.303 -34.498  1.00  0.00     0.001 A 
ATOM      6  C   UNL     1     -13.055 -28.612 -33.141  1.00  0.00     0.004 A 
ENDROOT
BRANCH   1   7
ATOM      7  C   UNL     1     -16.526 -27.264 -35.292  1.00  0.00     0.075 C 
ATOM      8  O   UNL     1     -17.490 -26.692 -34.715  1.00  0.00    -0.545 OA
ATOM      9  O   UNL     1     -16.590 -27.451 -36.668  1.00  0.00    -0.545 OA
ENDBRANCH   1   7
BRANCH   2  10
ATOM     10  O   UNL     1     -16.621 -27.928 -32.454  1.00  0.00    -0.507 OA
ATOM     11  H   UNL     1     -17.005 -28.698 -31.917  1.00  0.00     0.293 HD
ENDBRANCH   2  10
TORSDOF 2
ENDMDL
MODEL 3
REMARK VINA RESULT:    -4.738     13.563     15.118
REMARK INTER + INTRA:          -5.401
REMARK INTER:                  -5.185
REMARK INTRA:                  -0.216
REMARK UNBOUND:                -0.247
REMARK SMILES O=C([O-])c1ccccc1O
REMARK SMILES IDX 4 1 9 2 5 3 8 4 6 5 7 6 2 7 1 8 3 9 10 10
REMARK H PARENT 10 11
REMARK Flexibility Score: inf
ROOT
ATOM      1  C   UNL     1     -13.926 -28.023 -34.582  1.00  0.00     0.039 A 
ATOM      2  C   UNL     1     -15.239 -27.596 -34.892  1.00  0.00     0.124 A 
ATOM      3  C   UNL     1     -13.615 -28.349 -33.247  1.00  0.00     0.014 A 
ATOM      4  C   UNL     1     -16.203 -27.504 -33.874  1.00  0.00     0.047 A 
ATOM      5  C   UNL     1     -14.584 -28.252 -32.245  1.00  0.00     0.001 A 
ATOM      6  C   UNL     1     -15.875 -27.830 -32.559  1.00  0.00     0.004 A 
ENDROOT
BRANCH   1   7
ATOM      7  C   UNL     1     -12.871 -28.139 -35.620  1.00  0.00     0.075 C 
ATOM      8  O   UNL     1     -13.168 -28.335 -36.830  1.00  0.00    -0.545 OA
ATOM      9  O   UNL     1     -11.529 -28.031 -35.272  1.00  0.00    -0.545 OA
ENDBRANCH   1   7
BRANCH   2  10
ATOM     10  O   UNL     1     -15.592 -27.264 -36.199  1.00  0.00    -0.507 OA
ATOM     11  H   UNL     1     -15.307 -27.831 -36.989  1.00  0.00     0.293 HD
ENDBRANCH   2  10
TORSDOF 2
ENDMDL
MODEL 4
REMARK VINA RESULT:    -4.720      2.559      3.666
REMARK INTER + INTRA:          -5.381
REMARK INTER:                  -5.127
REMARK INTRA:                  -0.254
REMARK UNBOUND:                -0.247
REMARK SMILES O=C([O-])c1ccccc1O
REMARK SMILES IDX 4 1 9 2 5 3 8 4 6 5 7 6 2 7 1 8 3 9 10 10
REMARK H PARENT 10 11
REMARK Flexibility Score: inf
ROOT
ATOM      1  C   UNL     1      -5.696 -28.920 -22.437  1.00  0.00     0.039 A 
ATOM      2  C   UNL     1      -5.265 -30.251 -22.222  1.00  0.00     0.124 A 
ATOM      3  C   UNL     1      -6.950 -28.701 -23.038  1.00  0.00     0.014 A 
ATOM      4  C   UNL     1      -6.087 -31.323 -22.610  1.00  0.00     0.047 A 
ATOM      5  C   UNL     1      -7.757 -29.776 -23.419  1.00  0.00     0.001 A 
ATOM      6  C   UNL     1      -7.325 -31.084 -23.205  1.00  0.00     0.004 A 
ENDROOT
BRANCH   1   7
ATOM      7  C   UNL     1      -4.866 -27.753 -22.045  1.00  0.00     0.075 C 
ATOM      8  O   UNL     1      -5.358 -26.795 -21.390  1.00  0.00    -0.545 OA
ATOM      9  O   UNL     1      -3.522 -27.699 -22.396  1.00  0.00    -0.545 OA
ENDBRANCH   1   7
BRANCH   2  10
ATOM     10  O   UNL     1      -4.032 -30.516 -21.630  1.00  0.00    -0.507 OA
ATOM     11  H   UNL     1      -3.958 -31.013 -20.749  1.00  0.00     0.293 HD
ENDBRANCH   2  10
TORSDOF 2
ENDMDL
MODEL 5
REMARK VINA RESULT:    -4.653     13.894     15.119
REMARK INTER + INTRA:          -5.308
REMARK INTER:                  -5.053
REMARK INTRA:                  -0.255
REMARK UNBOUND:                -0.247
REMARK SMILES O=C([O-])c1ccccc1O
REMARK SMILES IDX 4 1 9 2 5 3 8 4 6 5 7 6 2 7 1 8 3 9 10 10
REMARK H PARENT 10 11
REMARK Flexibility Score: inf
ROOT
ATOM      1  C   UNL     1     -15.243 -27.745 -34.174  1.00  0.00     0.039 A 
ATOM      2  C   UNL     1     -14.275 -27.858 -35.201  1.00  0.00     0.124 A 
ATOM      3  C   UNL     1     -14.885 -28.108 -32.861  1.00  0.00     0.014 A 
ATOM      4  C   UNL     1     -12.986 -28.327 -34.899  1.00  0.00     0.047 A 
ATOM      5  C   UNL     1     -13.599 -28.573 -32.575  1.00  0.00     0.001 A 
ATOM      6  C   UNL     1     -12.652 -28.682 -33.592  1.00  0.00     0.004 A 
ENDROOT
BRANCH   1   7
ATOM      7  C   UNL     1     -16.619 -27.255 -34.441  1.00  0.00     0.075 C 
ATOM      8  O   UNL     1     -17.151 -26.379 -33.708  1.00  0.00    -0.545 OA
ATOM      9  O   UNL     1     -17.347 -27.758 -35.513  1.00  0.00    -0.545 OA
ENDBRANCH   1   7
BRANCH   2  10
ATOM     10  O   UNL     1     -14.585 -27.510 -36.515  1.00  0.00    -0.507 OA
ATOM     11  H   UNL     1     -14.422 -28.146 -37.288  1.00  0.00     0.293 HD
ENDBRANCH   2  10
TORSDOF 2
ENDMDL
MODEL 6
REMARK VINA RESULT:    -4.564      1.619      2.079
REMARK INTER + INTRA:          -5.212
REMARK INTER:                  -4.992
REMARK INTRA:                  -0.219
REMARK UNBOUND:                -0.247
REMARK SMILES O=C([O-])c1ccccc1O
REMARK SMILES IDX 4 1 9 2 5 3 8 4 6 5 7 6 2 7 1 8 3 9 10 10
REMARK H PARENT 10 11
REMARK Flexibility Score: inf
ROOT
ATOM      1  C   UNL     1      -5.824 -29.664 -23.377  1.00  0.00     0.039 A 
ATOM      2  C   UNL     1      -4.857 -30.143 -24.294  1.00  0.00     0.124 A 
ATOM      3  C   UNL     1      -5.453 -28.660 -22.463  1.00  0.00     0.014 A 
ATOM      4  C   UNL     1      -3.556 -29.614 -24.278  1.00  0.00     0.047 A 
ATOM      5  C   UNL     1      -4.155 -28.143 -22.458  1.00  0.00     0.001 A 
ATOM      6  C   UNL     1      -3.209 -28.620 -23.364  1.00  0.00     0.004 A 
ENDROOT
BRANCH   1   7
ATOM      7  C   UNL     1      -7.212 -30.189 -23.354  1.00  0.00     0.075 C 
ATOM      8  O   UNL     1      -7.448 -31.391 -23.056  1.00  0.00    -0.545 OA
ATOM      9  O   UNL     1      -8.282 -29.357 -23.663  1.00  0.00    -0.545 OA
ENDBRANCH   1   7
BRANCH   2  10
ATOM     10  O   UNL     1      -5.179 -31.136 -25.218  1.00  0.00    -0.507 OA
ATOM     11  H   UNL     1      -5.126 -30.973 -26.217  1.00  0.00     0.293 HD
ENDBRANCH   2  10
TORSDOF 2
ENDMDL
MODEL 7
REMARK VINA RESULT:    -4.562     13.229     14.765
REMARK INTER + INTRA:          -5.209
REMARK INTER:                  -4.966
REMARK INTRA:                  -0.243
REMARK UNBOUND:                -0.247
REMARK SMILES O=C([O-])c1ccccc1O
REMARK SMILES IDX 4 1 9 2 5 3 8 4 6 5 7 6 2 7 1 8 3 9 10 10
REMARK H PARENT 10 11
REMARK Flexibility Score: inf
ROOT
ATOM      1  C   UNL     1     -14.761 -27.922 -33.210  1.00  0.00     0.039 A 
ATOM      2  C   UNL     1     -15.129 -27.549 -34.525  1.00  0.00     0.124 A 
ATOM      3  C   UNL     1     -15.570 -27.505 -32.135  1.00  0.00     0.014 A 
ATOM      4  C   UNL     1     -16.282 -26.776 -34.735  1.00  0.00     0.047 A 
ATOM      5  C   UNL     1     -16.714 -26.736 -32.359  1.00  0.00     0.001 A 
ATOM      6  C   UNL     1     -17.070 -26.373 -33.657  1.00  0.00     0.004 A 
ENDROOT
BRANCH   1   7
ATOM      7  C   UNL     1     -13.552 -28.738 -32.934  1.00  0.00     0.075 C 
ATOM      8  O   UNL     1     -12.487 -28.563 -33.584  1.00  0.00    -0.545 OA
ATOM      9  O   UNL     1     -13.577 -29.716 -31.946  1.00  0.00    -0.545 OA
ENDBRANCH   1   7
BRANCH   2  10
ATOM     10  O   UNL     1     -14.359 -27.939 -35.620  1.00  0.00    -0.507 OA
ATOM     11  H   UNL     1     -14.612 -28.736 -36.193  1.00  0.00     0.293 HD
ENDBRANCH   2  10
TORSDOF 2
ENDMDL
MODEL 8
REMARK VINA RESULT:    -4.543     13.634     14.932
REMARK INTER + INTRA:          -5.189
REMARK INTER:                  -5.059
REMARK INTRA:                  -0.130
REMARK UNBOUND:                -0.247
REMARK SMILES O=C([O-])c1ccccc1O
REMARK SMILES IDX 4 1 9 2 5 3 8 4 6 5 7 6 2 7 1 8 3 9 10 10
REMARK H PARENT 10 11
REMARK Flexibility Score: inf
ROOT
ATOM      1  C   UNL     1     -14.526 -27.759 -34.338  1.00  0.00     0.039 A 
ATOM      2  C   UNL     1     -14.827 -27.533 -32.973  1.00  0.00     0.124 A 
ATOM      3  C   UNL     1     -15.511 -27.483 -35.306  1.00  0.00     0.014 A 
ATOM      4  C   UNL     1     -16.091 -27.043 -32.609  1.00  0.00     0.047 A 
ATOM      5  C   UNL     1     -16.765 -26.996 -34.928  1.00  0.00     0.001 A 
ATOM      6  C   UNL     1     -17.054 -26.776 -33.583  1.00  0.00     0.004 A 
ENDROOT
BRANCH   1   7
ATOM      7  C   UNL     1     -13.204 -28.276 -34.775  1.00  0.00     0.075 C 
ATOM      8  O   UNL     1     -12.358 -28.691 -33.938  1.00  0.00    -0.545 OA
ATOM      9  O   UNL     1     -12.877 -28.309 -36.126  1.00  0.00    -0.545 OA
ENDBRANCH   1   7
BRANCH   2  10
ATOM     10  O   UNL     1     -13.883 -27.792 -31.981  1.00  0.00    -0.507 OA
ATOM     11  H   UNL     1     -13.786 -28.710 -31.563  1.00  0.00     0.293 HD
ENDBRANCH   2  10
TORSDOF 2
ENDMDL
MODEL 9
REMARK VINA RESULT:    -4.522      2.114      3.842
REMARK INTER + INTRA:          -5.166
REMARK INTER:                  -4.912
REMARK INTRA:                  -0.254
REMARK UNBOUND:                -0.247
REMARK SMILES O=C([O-])c1ccccc1O
REMARK SMILES IDX 4 1 9 2 5 3 8 4 6 5 7 6 2 7 1 8 3 9 10 10
REMARK H PARENT 10 11
REMARK Flexibility Score: inf
ROOT
ATOM      1  C   UNL     1      -3.476 -30.132 -23.560  1.00  0.00     0.039 A 
ATOM      2  C   UNL     1      -4.307 -30.602 -22.515  1.00  0.00     0.124 A 
ATOM      3  C   UNL     1      -4.050 -29.879 -24.821  1.00  0.00     0.014 A 
ATOM      4  C   UNL     1      -5.676 -30.807 -22.749  1.00  0.00     0.047 A 
ATOM      5  C   UNL     1      -5.414 -30.088 -25.040  1.00  0.00     0.001 A 
ATOM      6  C   UNL     1      -6.225 -30.551 -24.005  1.00  0.00     0.004 A 
ENDROOT
BRANCH   1   7
ATOM      7  C   UNL     1      -2.023 -29.899 -23.364  1.00  0.00     0.075 C 
ATOM      8  O   UNL     1      -1.482 -28.822 -23.734  1.00  0.00    -0.545 OA
ATOM      9  O   UNL     1      -1.231 -30.872 -22.765  1.00  0.00    -0.545 OA
ENDBRANCH   1   7
BRANCH   2  10
ATOM     10  O   UNL     1      -3.783 -30.866 -21.250  1.00  0.00    -0.507 OA
ATOM     11  H   UNL     1      -4.114 -31.641 -20.687  1.00  0.00     0.293 HD
ENDBRANCH   2  10
TORSDOF 2
ENDMDL
