MODEL 1
REMARK VINA RESULT:    -3.438      0.000      0.000
REMARK INTER + INTRA:          -4.748
REMARK INTER:                  -4.644
REMARK INTRA:                  -0.104
REMARK UNBOUND:                -0.104
REMARK SMILES CCCCCCCC(=O)[O-]
REMARK SMILES IDX 5 1 6 2 7 3 8 4 9 5 10 6 4 7 3 8 2 9 1 10
REMARK H PARENT
REMARK Flexibility Score: inf
ROOT
ATOM      1  C   UNL     1      14.391   3.494  -1.340  1.00  0.00     0.000 C 
ENDROOT
BRANCH   1   2
ATOM      2  C   UNL     1      15.189   2.507  -2.205  1.00  0.00     0.006 C 
BRANCH   2   3
ATOM      3  C   UNL     1      16.567   2.194  -1.609  1.00  0.00     0.053 C 
BRANCH   3   4
ATOM      4  C   UNL     1      17.381   1.327  -2.519  1.00  0.00     0.041 C 
ATOM      5  O   UNL     1      18.567   1.642  -2.803  1.00  0.00    -0.550 OA
ATOM      6  O   UNL     1      16.841   0.153  -3.029  1.00  0.00    -0.550 OA
ENDBRANCH   3   4
ENDBRANCH   2   3
ENDBRANCH   1   2
BRANCH   1   7
ATOM      7  C   UNL     1      13.159   4.013  -2.091  1.00  0.00     0.000 C 
BRANCH   7   8
ATOM      8  C   UNL     1      12.707   5.371  -1.532  1.00  0.00    -0.000 C 
BRANCH   8   9
ATOM      9  C   UNL     1      11.596   5.235  -0.479  1.00  0.00    -0.003 C 
ATOM     10  C   UNL     1      10.601   6.395  -0.516  1.00  0.00     0.004 C 
ENDBRANCH   8   9
ENDBRANCH   7   8
ENDBRANCH   1   7
TORSDOF 6
ENDMDL
MODEL 2
REMARK VINA RESULT:    -3.321      0.982      1.347
REMARK INTER + INTRA:          -4.590
REMARK INTER:                  -4.337
REMARK INTRA:                  -0.253
REMARK UNBOUND:                -0.104
REMARK SMILES CCCCCCCC(=O)[O-]
REMARK SMILES IDX 5 1 6 2 7 3 8 4 9 5 10 6 4 7 3 8 2 9 1 10
REMARK H PARENT
REMARK Flexibility Score: inf
ROOT
ATOM      1  C   UNL     1      12.853   3.779  -2.490  1.00  0.00     0.000 C 
ENDROOT
BRANCH   1   2
ATOM      2  C   UNL     1      13.904   2.706  -2.810  1.00  0.00     0.006 C 
BRANCH   2   3
ATOM      3  C   UNL     1      15.102   2.762  -1.854  1.00  0.00     0.053 C 
BRANCH   3   4
ATOM      4  C   UNL     1      16.169   1.786  -2.243  1.00  0.00     0.041 C 
ATOM      5  O   UNL     1      17.379   2.036  -1.998  1.00  0.00    -0.550 OA
ATOM      6  O   UNL     1      15.825   0.585  -2.850  1.00  0.00    -0.550 OA
ENDBRANCH   3   4
ENDBRANCH   2   3
ENDBRANCH   1   2
BRANCH   1   7
ATOM      7  C   UNL     1      13.262   4.602  -1.263  1.00  0.00     0.000 C 
BRANCH   7   8
ATOM      8  C   UNL     1      12.038   4.954  -0.404  1.00  0.00    -0.000 C 
BRANCH   8   9
ATOM      9  C   UNL     1      10.803   5.300  -1.251  1.00  0.00    -0.003 C 
ATOM     10  C   UNL     1      10.258   6.697  -0.959  1.00  0.00     0.004 C 
ENDBRANCH   8   9
ENDBRANCH   7   8
ENDBRANCH   1   7
TORSDOF 6
ENDMDL
MODEL 3
REMARK VINA RESULT:    -3.268      4.225      6.379
REMARK INTER + INTRA:          -4.519
REMARK INTER:                  -4.242
REMARK INTRA:                  -0.276
REMARK UNBOUND:                -0.104
REMARK SMILES CCCCCCCC(=O)[O-]
REMARK SMILES IDX 5 1 6 2 7 3 8 4 9 5 10 6 4 7 3 8 2 9 1 10
REMARK H PARENT
REMARK Flexibility Score: inf
ROOT
ATOM      1  C   UNL     1      12.857   3.798  -2.326  1.00  0.00     0.000 C 
ENDROOT
BRANCH   1   2
ATOM      2  C   UNL     1      13.031   4.906  -1.277  1.00  0.00     0.006 C 
BRANCH   2   3
ATOM      3  C   UNL     1      11.750   5.147  -0.468  1.00  0.00     0.053 C 
BRANCH   3   4
ATOM      4  C   UNL     1      10.788   6.028  -1.202  1.00  0.00     0.041 C 
ATOM      5  O   UNL     1       9.771   5.534  -1.758  1.00  0.00    -0.550 OA
ATOM      6  O   UNL     1      10.996   7.401  -1.247  1.00  0.00    -0.550 OA
ENDBRANCH   3   4
ENDBRANCH   2   3
ENDBRANCH   1   2
BRANCH   1   7
ATOM      7  C   UNL     1      14.197   3.124  -2.644  1.00  0.00     0.000 C 
BRANCH   7   8
ATOM      8  C   UNL     1      15.116   3.122  -1.414  1.00  0.00    -0.000 C 
BRANCH   8   9
ATOM      9  C   UNL     1      16.308   2.164  -1.570  1.00  0.00    -0.003 C 
ATOM     10  C   UNL     1      15.990   0.963  -2.460  1.00  0.00     0.004 C 
ENDBRANCH   8   9
ENDBRANCH   7   8
ENDBRANCH   1   7
TORSDOF 6
ENDMDL
MODEL 4
REMARK VINA RESULT:    -3.246      1.586      2.518
REMARK INTER + INTRA:          -4.489
REMARK INTER:                  -4.376
REMARK INTRA:                  -0.113
REMARK UNBOUND:                -0.104
REMARK SMILES CCCCCCCC(=O)[O-]
REMARK SMILES IDX 5 1 6 2 7 3 8 4 9 5 10 6 4 7 3 8 2 9 1 10
REMARK H PARENT
REMARK Flexibility Score: inf
ROOT
ATOM      1  C   UNL     1      15.769   1.267  -2.016  1.00  0.00     0.000 C 
ENDROOT
BRANCH   1   2
ATOM      2  C   UNL     1      17.228   1.716  -2.183  1.00  0.00     0.006 C 
BRANCH   2   3
ATOM      3  C   UNL     1      18.085   0.658  -2.888  1.00  0.00     0.053 C 
BRANCH   3   4
ATOM      4  C   UNL     1      19.543   0.849  -2.607  1.00  0.00     0.041 C 
ATOM      5  O   UNL     1      20.020   2.008  -2.480  1.00  0.00    -0.550 OA
ATOM      6  O   UNL     1      20.373  -0.255  -2.452  1.00  0.00    -0.550 OA
ENDBRANCH   3   4
ENDBRANCH   2   3
ENDBRANCH   1   2
BRANCH   1   7
ATOM      7  C   UNL     1      14.802   2.307  -2.594  1.00  0.00     0.000 C 
BRANCH   7   8
ATOM      8  C   UNL     1      14.423   3.353  -1.536  1.00  0.00    -0.000 C 
BRANCH   8   9
ATOM      9  C   UNL     1      13.203   4.193  -1.946  1.00  0.00    -0.003 C 
ATOM     10  C   UNL     1      12.480   4.810  -0.749  1.00  0.00     0.004 C 
ENDBRANCH   8   9
ENDBRANCH   7   8
ENDBRANCH   1   7
TORSDOF 6
ENDMDL
MODEL 5
REMARK VINA RESULT:    -3.209      4.347      6.526
REMARK INTER + INTRA:          -4.438
REMARK INTER:                  -4.145
REMARK INTRA:                  -0.294
REMARK UNBOUND:                -0.104
REMARK SMILES CCCCCCCC(=O)[O-]
REMARK SMILES IDX 5 1 6 2 7 3 8 4 9 5 10 6 4 7 3 8 2 9 1 10
REMARK H PARENT
REMARK Flexibility Score: inf
ROOT
ATOM      1  C   UNL     1      12.903   4.947  -1.244  1.00  0.00     0.000 C 
ENDROOT
BRANCH   1   2
ATOM      2  C   UNL     1      11.638   5.077  -0.383  1.00  0.00     0.006 C 
BRANCH   2   3
ATOM      3  C   UNL     1      10.910   6.407  -0.616  1.00  0.00     0.053 C 
BRANCH   3   4
ATOM      4  C   UNL     1       9.961   6.324  -1.771  1.00  0.00     0.041 C 
ATOM      5  O   UNL     1       9.711   7.347  -2.463  1.00  0.00    -0.550 OA
ATOM      6  O   UNL     1       9.375   5.109  -2.105  1.00  0.00    -0.550 OA
ENDBRANCH   3   4
ENDBRANCH   2   3
ENDBRANCH   1   2
BRANCH   1   7
ATOM      7  C   UNL     1      12.761   3.809  -2.262  1.00  0.00     0.000 C 
BRANCH   7   8
ATOM      8  C   UNL     1      14.121   3.156  -2.550  1.00  0.00    -0.000 C 
BRANCH   8   9
ATOM      9  C   UNL     1      15.030   3.117  -1.311  1.00  0.00    -0.003 C 
ATOM     10  C   UNL     1      16.323   2.339  -1.551  1.00  0.00     0.004 C 
ENDBRANCH   8   9
ENDBRANCH   7   8
ENDBRANCH   1   7
TORSDOF 6
ENDMDL
MODEL 6
REMARK VINA RESULT:    -2.951     16.351     16.978
REMARK INTER + INTRA:          -4.091
REMARK INTER:                  -3.822
REMARK INTRA:                  -0.268
REMARK UNBOUND:                -0.104
REMARK SMILES CCCCCCCC(=O)[O-]
REMARK SMILES IDX 5 1 6 2 7 3 8 4 9 5 10 6 4 7 3 8 2 9 1 10
REMARK H PARENT
REMARK Flexibility Score: inf
ROOT
ATOM      1  C   UNL     1      23.285  16.602  -1.025  1.00  0.00     0.000 C 
ENDROOT
BRANCH   1   2
ATOM      2  C   UNL     1      24.511  16.297  -0.152  1.00  0.00     0.006 C 
BRANCH   2   3
ATOM      3  C   UNL     1      25.018  17.538   0.593  1.00  0.00     0.053 C 
BRANCH   3   4
ATOM      4  C   UNL     1      24.754  17.447   2.064  1.00  0.00     0.041 C 
ATOM      5  O   UNL     1      25.699  17.574   2.888  1.00  0.00    -0.550 OA
ATOM      6  O   UNL     1      23.459  17.255   2.529  1.00  0.00    -0.550 OA
ENDBRANCH   3   4
ENDBRANCH   2   3
ENDBRANCH   1   2
BRANCH   1   7
ATOM      7  C   UNL     1      23.661  17.497  -2.212  1.00  0.00     0.000 C 
BRANCH   7   8
ATOM      8  C   UNL     1      22.413  17.922  -2.998  1.00  0.00    -0.000 C 
BRANCH   8   9
ATOM      9  C   UNL     1      21.241  16.943  -2.819  1.00  0.00    -0.003 C 
ATOM     10  C   UNL     1      19.905  17.653  -2.603  1.00  0.00     0.004 C 
ENDBRANCH   8   9
ENDBRANCH   7   8
ENDBRANCH   1   7
TORSDOF 6
ENDMDL
MODEL 7
REMARK VINA RESULT:    -2.913      4.694      6.883
REMARK INTER + INTRA:          -4.039
REMARK INTER:                  -3.726
REMARK INTRA:                  -0.313
REMARK UNBOUND:                -0.104
REMARK SMILES CCCCCCCC(=O)[O-]
REMARK SMILES IDX 5 1 6 2 7 3 8 4 9 5 10 6 4 7 3 8 2 9 1 10
REMARK H PARENT
REMARK Flexibility Score: inf
ROOT
ATOM      1  C   UNL     1      10.941   6.282  -0.471  1.00  0.00     0.000 C 
ENDROOT
BRANCH   1   2
ATOM      2  C   UNL     1      10.783   6.836  -1.894  1.00  0.00     0.006 C 
BRANCH   2   3
ATOM      3  C   UNL     1      10.594   8.358  -1.908  1.00  0.00     0.053 C 
BRANCH   3   4
ATOM      4  C   UNL     1      11.905   9.080  -1.875  1.00  0.00     0.041 C 
ATOM      5  O   UNL     1      12.900   8.618  -2.495  1.00  0.00    -0.550 OA
ATOM      6  O   UNL     1      12.021  10.280  -1.186  1.00  0.00    -0.550 OA
ENDBRANCH   3   4
ENDBRANCH   2   3
ENDBRANCH   1   2
BRANCH   1   7
ATOM      7  C   UNL     1      11.800   5.012  -0.465  1.00  0.00     0.000 C 
BRANCH   7   8
ATOM      8  C   UNL     1      12.954   5.125  -1.473  1.00  0.00    -0.000 C 
BRANCH   8   9
ATOM      9  C   UNL     1      13.444   3.754  -1.965  1.00  0.00    -0.003 C 
ATOM     10  C   UNL     1      14.751   3.320  -1.303  1.00  0.00     0.004 C 
ENDBRANCH   8   9
ENDBRANCH   7   8
ENDBRANCH   1   7
TORSDOF 6
ENDMDL
MODEL 8
REMARK VINA RESULT:    -2.891      5.141      7.368
REMARK INTER + INTRA:          -4.008
REMARK INTER:                  -3.907
REMARK INTRA:                  -0.102
REMARK UNBOUND:                -0.104
REMARK SMILES CCCCCCCC(=O)[O-]
REMARK SMILES IDX 5 1 6 2 7 3 8 4 9 5 10 6 4 7 3 8 2 9 1 10
REMARK H PARENT
REMARK Flexibility Score: inf
ROOT
ATOM      1  C   UNL     1      12.019   4.987  -0.600  1.00  0.00     0.000 C 
ENDROOT
BRANCH   1   2
ATOM      2  C   UNL     1      10.776   5.680  -1.177  1.00  0.00     0.006 C 
BRANCH   2   3
ATOM      3  C   UNL     1      10.914   7.207  -1.189  1.00  0.00     0.053 C 
BRANCH   3   4
ATOM      4  C   UNL     1       9.630   7.878  -1.567  1.00  0.00     0.041 C 
ATOM      5  O   UNL     1       8.552   7.226  -1.575  1.00  0.00    -0.550 OA
ATOM      6  O   UNL     1       9.617   9.231  -1.881  1.00  0.00    -0.550 OA
ENDBRANCH   3   4
ENDBRANCH   2   3
ENDBRANCH   1   2
BRANCH   1   7
ATOM      7  C   UNL     1      12.799   4.252  -1.697  1.00  0.00     0.000 C 
BRANCH   7   8
ATOM      8  C   UNL     1      14.147   3.743  -1.166  1.00  0.00    -0.000 C 
BRANCH   8   9
ATOM      9  C   UNL     1      14.812   2.733  -2.115  1.00  0.00    -0.003 C 
ATOM     10  C   UNL     1      16.181   2.269  -1.620  1.00  0.00     0.004 C 
ENDBRANCH   8   9
ENDBRANCH   7   8
ENDBRANCH   1   7
TORSDOF 6
ENDMDL
MODEL 9
REMARK VINA RESULT:    -2.763      2.910      4.681
REMARK INTER + INTRA:          -3.836
REMARK INTER:                  -3.624
REMARK INTRA:                  -0.212
REMARK UNBOUND:                -0.104
REMARK SMILES CCCCCCCC(=O)[O-]
REMARK SMILES IDX 5 1 6 2 7 3 8 4 9 5 10 6 4 7 3 8 2 9 1 10
REMARK H PARENT
REMARK Flexibility Score: inf
ROOT
ATOM      1  C   UNL     1      10.623   6.356  -0.717  1.00  0.00     0.000 C 
ENDROOT
BRANCH   1   2
ATOM      2  C   UNL     1      11.278   5.009  -1.053  1.00  0.00     0.006 C 
BRANCH   2   3
ATOM      3  C   UNL     1      12.787   5.141  -1.299  1.00  0.00     0.053 C 
BRANCH   3   4
ATOM      4  C   UNL     1      13.372   3.877  -1.848  1.00  0.00     0.041 C 
ATOM      5  O   UNL     1      14.471   3.444  -1.411  1.00  0.00    -0.550 OA
ATOM      6  O   UNL     1      12.689   3.158  -2.820  1.00  0.00    -0.550 OA
ENDBRANCH   3   4
ENDBRANCH   2   3
ENDBRANCH   1   2
BRANCH   1   7
ATOM      7  C   UNL     1       9.923   6.950  -1.945  1.00  0.00     0.000 C 
BRANCH   7   8
ATOM      8  C   UNL     1       9.052   8.153  -1.553  1.00  0.00    -0.000 C 
BRANCH   8   9
ATOM      9  C   UNL     1       7.557   7.805  -1.493  1.00  0.00    -0.003 C 
ATOM     10  C   UNL     1       7.199   6.582  -2.338  1.00  0.00     0.004 C 
ENDBRANCH   8   9
ENDBRANCH   7   8
ENDBRANCH   1   7
TORSDOF 6
ENDMDL
