MODEL 1
REMARK VINA RESULT:    -4.870      0.000      0.000
REMARK INTER + INTRA:          -7.665
REMARK INTER:                  -6.578
REMARK INTRA:                  -1.086
REMARK UNBOUND:                -1.086
REMARK SMILES CC(=O)CCC=C(C)CCC=C(C)C
REMARK SMILES IDX 7 1 6 2 8 3 9 4 10 5 11 6 13 7 12 8 14 9 5 10 4 11 2 12 3 13
REMARK SMILES IDX 1 14
REMARK H PARENT
REMARK Flexibility Score: inf
ROOT
ATOM      1  C   UNL     1       5.267 145.859  -8.082  1.00  0.00    -0.077 C 
ATOM      2  C   UNL     1       5.210 146.193  -6.772  1.00  0.00    -0.028 C 
ATOM      3  C   UNL     1       4.442 146.577  -9.125  1.00  0.00     0.039 C 
ENDROOT
BRANCH   1   4
ATOM      4  C   UNL     1       6.193 144.742  -8.516  1.00  0.00     0.034 C 
BRANCH   4   5
ATOM      5  C   UNL     1       5.787 143.414  -7.867  1.00  0.00     0.032 C 
BRANCH   5   6
ATOM      6  C   UNL     1       4.710 142.721  -8.668  1.00  0.00    -0.028 C 
ATOM      7  C   UNL     1       2.987 143.196  -6.924  1.00  0.00     0.039 C 
ATOM      8  C   UNL     1       3.432 142.617  -8.246  1.00  0.00    -0.080 C 
ATOM      9  C   UNL     1       2.436 141.905  -9.125  1.00  0.00     0.039 C 
ENDBRANCH   5   6
ENDBRANCH   4   5
ENDBRANCH   1   4
BRANCH   2  10
ATOM     10  C   UNL     1       4.307 147.257  -6.200  1.00  0.00     0.035 C 
BRANCH  10  11
ATOM     11  C   UNL     1       3.102 146.626  -5.496  1.00  0.00     0.079 C 
BRANCH  11  12
ATOM     12  C   UNL     1       1.844 146.846  -6.292  1.00  0.00     0.130 C 
ATOM     13  O   UNL     1       1.737 146.340  -7.399  1.00  0.00    -0.300 OA
ATOM     14  C   UNL     1       0.709 147.666  -5.753  1.00  0.00     0.087 C 
ENDBRANCH  11  12
ENDBRANCH  10  11
ENDBRANCH   2  10
TORSDOF 6
ENDMDL
MODEL 2
REMARK VINA RESULT:    -4.146      1.651      3.203
REMARK INTER + INTRA:          -6.687
REMARK INTER:                  -6.029
REMARK INTRA:                  -0.658
REMARK UNBOUND:                -1.086
REMARK SMILES CC(=O)CCC=C(C)CCC=C(C)C
REMARK SMILES IDX 7 1 6 2 8 3 9 4 10 5 11 6 13 7 12 8 14 9 5 10 4 11 2 12 3 13
REMARK SMILES IDX 1 14
REMARK H PARENT
REMARK Flexibility Score: inf
ROOT
ATOM      1  C   UNL     1       2.635 145.010  -8.367  1.00  0.00    -0.077 C 
ATOM      2  C   UNL     1       2.017 145.310  -7.202  1.00  0.00    -0.028 C 
ATOM      3  C   UNL     1       3.449 146.034  -9.125  1.00  0.00     0.039 C 
ENDROOT
BRANCH   1   4
ATOM      4  C   UNL     1       2.518 143.606  -8.922  1.00  0.00     0.034 C 
BRANCH   4   5
ATOM      5  C   UNL     1       3.879 142.902  -8.918  1.00  0.00     0.032 C 
BRANCH   5   6
ATOM      6  C   UNL     1       4.569 143.052  -7.583  1.00  0.00    -0.028 C 
ATOM      7  C   UNL     1       6.416 144.399  -8.589  1.00  0.00     0.039 C 
ATOM      8  C   UNL     1       5.724 143.732  -7.423  1.00  0.00    -0.080 C 
ATOM      9  C   UNL     1       6.327 143.820  -6.045  1.00  0.00     0.039 C 
ENDBRANCH   5   6
ENDBRANCH   4   5
ENDBRANCH   1   4
BRANCH   2  10
ATOM     10  C   UNL     1       2.021 146.673  -6.559  1.00  0.00     0.035 C 
BRANCH  10  11
ATOM     11  C   UNL     1       2.911 146.684  -5.312  1.00  0.00     0.079 C 
BRANCH  11  12
ATOM     12  C   UNL     1       4.150 147.505  -5.549  1.00  0.00     0.130 C 
ATOM     13  O   UNL     1       4.367 148.482  -4.849  1.00  0.00    -0.300 OA
ATOM     14  C   UNL     1       5.135 147.143  -6.621  1.00  0.00     0.087 C 
ENDBRANCH  11  12
ENDBRANCH  10  11
ENDBRANCH   2  10
TORSDOF 6
ENDMDL
MODEL 3
REMARK VINA RESULT:    -3.964      1.243      4.482
REMARK INTER + INTRA:          -6.441
REMARK INTER:                  -5.926
REMARK INTRA:                  -0.515
REMARK UNBOUND:                -1.086
REMARK SMILES CC(=O)CCC=C(C)CCC=C(C)C
REMARK SMILES IDX 7 1 6 2 8 3 9 4 10 5 11 6 13 7 12 8 14 9 5 10 4 11 2 12 3 13
REMARK SMILES IDX 1 14
REMARK H PARENT
REMARK Flexibility Score: inf
ROOT
ATOM      1  C   UNL     1       5.173 146.067  -7.913  1.00  0.00    -0.077 C 
ATOM      2  C   UNL     1       4.959 144.732  -7.906  1.00  0.00    -0.028 C 
ATOM      3  C   UNL     1       5.878 146.756  -9.059  1.00  0.00     0.039 C 
ENDROOT
BRANCH   1   4
ATOM      4  C   UNL     1       4.681 146.897  -6.746  1.00  0.00     0.034 C 
BRANCH   4   5
ATOM      5  C   UNL     1       3.693 146.100  -5.887  1.00  0.00     0.032 C 
BRANCH   5   6
ATOM      6  C   UNL     1       2.582 146.982  -5.370  1.00  0.00    -0.028 C 
ATOM      7  C   UNL     1       1.018 146.206  -7.156  1.00  0.00     0.039 C 
ATOM      8  C   UNL     1       1.360 147.037  -5.941  1.00  0.00    -0.080 C 
ATOM      9  C   UNL     1       0.322 147.952  -5.343  1.00  0.00     0.039 C 
ENDBRANCH   5   6
ENDBRANCH   4   5
ENDBRANCH   1   4
BRANCH   2  10
ATOM     10  C   UNL     1       5.426 143.785  -8.982  1.00  0.00     0.035 C 
BRANCH  10  11
ATOM     11  C   UNL     1       4.461 142.604  -9.125  1.00  0.00     0.079 C 
BRANCH  11  12
ATOM     12  C   UNL     1       3.116 142.942  -8.541  1.00  0.00     0.130 C 
ATOM     13  O   UNL     1       2.389 143.732  -9.124  1.00  0.00    -0.300 OA
ATOM     14  C   UNL     1       2.640 142.320  -7.261  1.00  0.00     0.087 C 
ENDBRANCH  11  12
ENDBRANCH  10  11
ENDBRANCH   2  10
TORSDOF 6
ENDMDL
MODEL 4
REMARK VINA RESULT:    -3.786      1.342      3.427
REMARK INTER + INTRA:          -6.200
REMARK INTER:                  -5.965
REMARK INTRA:                  -0.235
REMARK UNBOUND:                -1.086
REMARK SMILES CC(=O)CCC=C(C)CCC=C(C)C
REMARK SMILES IDX 7 1 6 2 8 3 9 4 10 5 11 6 13 7 12 8 14 9 5 10 4 11 2 12 3 13
REMARK SMILES IDX 1 14
REMARK H PARENT
REMARK Flexibility Score: inf
ROOT
ATOM      1  C   UNL     1       3.401 143.497  -8.435  1.00  0.00    -0.077 C 
ATOM      2  C   UNL     1       2.800 144.607  -8.920  1.00  0.00    -0.028 C 
ATOM      3  C   UNL     1       2.862 142.760  -7.231  1.00  0.00     0.039 C 
ENDROOT
BRANCH   1   4
ATOM      4  C   UNL     1       4.642 142.971  -9.125  1.00  0.00     0.034 C 
BRANCH   4   5
ATOM      5  C   UNL     1       5.870 143.809  -8.753  1.00  0.00     0.032 C 
BRANCH   5   6
ATOM      6  C   UNL     1       5.564 144.755  -7.616  1.00  0.00    -0.028 C 
ATOM      7  C   UNL     1       5.870 146.754  -9.080  1.00  0.00     0.039 C 
ATOM      8  C   UNL     1       5.561 146.097  -7.755  1.00  0.00    -0.080 C 
ATOM      9  C   UNL     1       5.240 146.950  -6.554  1.00  0.00     0.039 C 
ENDBRANCH   5   6
ENDBRANCH   4   5
ENDBRANCH   1   4
BRANCH   2  10
ATOM     10  C   UNL     1       1.584 145.257  -8.310  1.00  0.00     0.035 C 
BRANCH  10  11
ATOM     11  C   UNL     1       1.992 146.300  -7.265  1.00  0.00     0.079 C 
BRANCH  11  12
ATOM     12  C   UNL     1       0.801 146.733  -6.451  1.00  0.00     0.130 C 
ATOM     13  O   UNL     1      -0.232 146.084  -6.507  1.00  0.00    -0.300 OA
ATOM     14  C   UNL     1       0.859 147.939  -5.561  1.00  0.00     0.087 C 
ENDBRANCH  11  12
ENDBRANCH  10  11
ENDBRANCH   2  10
TORSDOF 6
ENDMDL
MODEL 5
REMARK VINA RESULT:    -3.678      1.924      4.027
REMARK INTER + INTRA:          -6.054
REMARK INTER:                  -5.248
REMARK INTRA:                  -0.806
REMARK UNBOUND:                -1.086
REMARK SMILES CC(=O)CCC=C(C)CCC=C(C)C
REMARK SMILES IDX 7 1 6 2 8 3 9 4 10 5 11 6 13 7 12 8 14 9 5 10 4 11 2 12 3 13
REMARK SMILES IDX 1 14
REMARK H PARENT
REMARK Flexibility Score: inf
ROOT
ATOM      1  C   UNL     1       3.561 147.185  -6.516  1.00  0.00    -0.077 C 
ATOM      2  C   UNL     1       4.132 146.788  -7.676  1.00  0.00    -0.028 C 
ATOM      3  C   UNL     1       4.384 147.695  -5.355  1.00  0.00     0.039 C 
ENDROOT
BRANCH   1   4
ATOM      4  C   UNL     1       2.054 147.127  -6.381  1.00  0.00     0.034 C 
BRANCH   4   5
ATOM      5  C   UNL     1       1.473 145.989  -7.227  1.00  0.00     0.032 C 
BRANCH   5   6
ATOM      6  C   UNL     1       2.009 144.649  -6.783  1.00  0.00    -0.028 C 
ATOM      7  C   UNL     1       2.595 144.009  -9.125  1.00  0.00     0.039 C 
ATOM      8  C   UNL     1       2.521 143.740  -7.640  1.00  0.00    -0.080 C 
ATOM      9  C   UNL     1       3.030 142.433  -7.090  1.00  0.00     0.039 C 
ENDBRANCH   5   6
ENDBRANCH   4   5
ENDBRANCH   1   4
BRANCH   2  10
ATOM     10  C   UNL     1       5.618 146.759  -7.931  1.00  0.00     0.035 C 
BRANCH  10  11
ATOM     11  C   UNL     1       5.997 145.556  -8.801  1.00  0.00     0.079 C 
BRANCH  11  12
ATOM     12  C   UNL     1       6.010 144.291  -7.986  1.00  0.00     0.130 C 
ATOM     13  O   UNL     1       6.010 143.210  -8.554  1.00  0.00    -0.300 OA
ATOM     14  C   UNL     1       6.034 144.328  -6.486  1.00  0.00     0.087 C 
ENDBRANCH  11  12
ENDBRANCH  10  11
ENDBRANCH   2  10
TORSDOF 6
ENDMDL
MODEL 6
REMARK VINA RESULT:    -3.633      1.399      3.407
REMARK INTER + INTRA:          -5.994
REMARK INTER:                  -4.885
REMARK INTRA:                  -1.109
REMARK UNBOUND:                -1.086
REMARK SMILES CC(=O)CCC=C(C)CCC=C(C)C
REMARK SMILES IDX 7 1 6 2 8 3 9 4 10 5 11 6 13 7 12 8 14 9 5 10 4 11 2 12 3 13
REMARK SMILES IDX 1 14
REMARK H PARENT
REMARK Flexibility Score: inf
ROOT
ATOM      1  C   UNL     1       2.629 143.670  -7.845  1.00  0.00    -0.077 C 
ATOM      2  C   UNL     1       2.090 144.898  -8.022  1.00  0.00    -0.028 C 
ATOM      3  C   UNL     1       2.653 142.996  -6.493  1.00  0.00     0.039 C 
ENDROOT
BRANCH   1   4
ATOM      4  C   UNL     1       3.213 142.945  -9.039  1.00  0.00     0.034 C 
BRANCH   4   5
ATOM      5  C   UNL     1       4.733 143.133  -9.103  1.00  0.00     0.032 C 
BRANCH   5   6
ATOM      6  C   UNL     1       5.103 144.598  -9.125  1.00  0.00    -0.028 C 
ATOM      7  C   UNL     1       5.978 144.503  -6.788  1.00  0.00     0.039 C 
ATOM      8  C   UNL     1       5.670 145.230  -8.076  1.00  0.00    -0.080 C 
ATOM      9  C   UNL     1       5.999 146.695  -8.206  1.00  0.00     0.039 C 
ENDBRANCH   5   6
ENDBRANCH   4   5
ENDBRANCH   1   4
BRANCH   2  10
ATOM     10  C   UNL     1       1.510 145.743  -6.917  1.00  0.00     0.035 C 
BRANCH  10  11
ATOM     11  C   UNL     1       2.274 147.065  -6.784  1.00  0.00     0.079 C 
BRANCH  11  12
ATOM     12  C   UNL     1       3.287 146.985  -5.674  1.00  0.00     0.130 C 
ATOM     13  O   UNL     1       3.377 145.960  -5.015  1.00  0.00    -0.300 OA
ATOM     14  C   UNL     1       4.201 148.134  -5.364  1.00  0.00     0.087 C 
ENDBRANCH  11  12
ENDBRANCH  10  11
ENDBRANCH   2  10
TORSDOF 6
ENDMDL
MODEL 7
REMARK VINA RESULT:    -3.619      1.319      4.163
REMARK INTER + INTRA:          -5.975
REMARK INTER:                  -4.831
REMARK INTRA:                  -1.144
REMARK UNBOUND:                -1.086
REMARK SMILES CC(=O)CCC=C(C)CCC=C(C)C
REMARK SMILES IDX 7 1 6 2 8 3 9 4 10 5 11 6 13 7 12 8 14 9 5 10 4 11 2 12 3 13
REMARK SMILES IDX 1 14
REMARK H PARENT
REMARK Flexibility Score: inf
ROOT
ATOM      1  C   UNL     1       5.684 144.968  -8.062  1.00  0.00    -0.077 C 
ATOM      2  C   UNL     1       5.320 144.121  -9.053  1.00  0.00    -0.028 C 
ATOM      3  C   UNL     1       6.089 144.468  -6.695  1.00  0.00     0.039 C 
ENDROOT
BRANCH   1   4
ATOM      4  C   UNL     1       5.696 146.457  -8.335  1.00  0.00     0.034 C 
BRANCH   4   5
ATOM      5  C   UNL     1       4.803 147.203  -7.338  1.00  0.00     0.032 C 
BRANCH   5   6
ATOM      6  C   UNL     1       3.347 146.860  -7.545  1.00  0.00    -0.028 C 
ATOM      7  C   UNL     1       2.973 146.579  -5.092  1.00  0.00     0.039 C 
ATOM      8  C   UNL     1       2.506 146.574  -6.528  1.00  0.00    -0.080 C 
ATOM      9  C   UNL     1       1.070 146.246  -6.847  1.00  0.00     0.039 C 
ENDBRANCH   5   6
ENDBRANCH   4   5
ENDBRANCH   1   4
BRANCH   2  10
ATOM     10  C   UNL     1       5.228 142.623  -8.906  1.00  0.00     0.035 C 
BRANCH  10  11
ATOM     11  C   UNL     1       3.789 142.143  -9.118  1.00  0.00     0.079 C 
BRANCH  11  12
ATOM     12  C   UNL     1       2.819 143.024  -8.376  1.00  0.00     0.130 C 
ATOM     13  O   UNL     1       2.191 143.874  -8.989  1.00  0.00    -0.300 OA
ATOM     14  C   UNL     1       2.596 142.873  -6.901  1.00  0.00     0.087 C 
ENDBRANCH  11  12
ENDBRANCH  10  11
ENDBRANCH   2  10
TORSDOF 6
ENDMDL
MODEL 8
REMARK VINA RESULT:    -3.580      1.260      1.925
REMARK INTER + INTRA:          -5.923
REMARK INTER:                  -5.114
REMARK INTRA:                  -0.809
REMARK UNBOUND:                -1.086
REMARK SMILES CC(=O)CCC=C(C)CCC=C(C)C
REMARK SMILES IDX 7 1 6 2 8 3 9 4 10 5 11 6 13 7 12 8 14 9 5 10 4 11 2 12 3 13
REMARK SMILES IDX 1 14
REMARK H PARENT
REMARK Flexibility Score: inf
ROOT
ATOM      1  C   UNL     1       4.889 146.602  -7.604  1.00  0.00    -0.077 C 
ATOM      2  C   UNL     1       3.554 146.798  -7.700  1.00  0.00    -0.028 C 
ATOM      3  C   UNL     1       5.589 146.518  -6.267  1.00  0.00     0.039 C 
ENDROOT
BRANCH   1   4
ATOM      4  C   UNL     1       5.702 146.451  -8.872  1.00  0.00     0.034 C 
BRANCH   4   5
ATOM      5  C   UNL     1       6.113 144.990  -9.086  1.00  0.00     0.032 C 
BRANCH   5   6
ATOM      6  C   UNL     1       4.907 144.082  -9.125  1.00  0.00    -0.028 C 
ATOM      7  C   UNL     1       5.523 143.025  -6.948  1.00  0.00     0.039 C 
ATOM      8  C   UNL     1       4.630 143.184  -8.156  1.00  0.00    -0.080 C 
ATOM      9  C   UNL     1       3.397 142.328  -8.294  1.00  0.00     0.039 C 
ENDBRANCH   5   6
ENDBRANCH   4   5
ENDBRANCH   1   4
BRANCH   2  10
ATOM     10  C   UNL     1       2.633 147.001  -6.523  1.00  0.00     0.035 C 
BRANCH  10  11
ATOM     11  C   UNL     1       1.510 145.958  -6.525  1.00  0.00     0.079 C 
BRANCH  11  12
ATOM     12  C   UNL     1       0.198 146.588  -6.141  1.00  0.00     0.130 C 
ATOM     13  O   UNL     1      -0.847 146.028  -6.436  1.00  0.00    -0.300 OA
ATOM     14  C   UNL     1       0.143 147.886  -5.391  1.00  0.00     0.087 C 
ENDBRANCH  11  12
ENDBRANCH  10  11
ENDBRANCH   2  10
TORSDOF 6
ENDMDL
MODEL 9
REMARK VINA RESULT:    -3.569      1.736      3.006
REMARK INTER + INTRA:          -5.907
REMARK INTER:                  -5.230
REMARK INTRA:                  -0.677
REMARK UNBOUND:                -1.086
REMARK SMILES CC(=O)CCC=C(C)CCC=C(C)C
REMARK SMILES IDX 7 1 6 2 8 3 9 4 10 5 11 6 13 7 12 8 14 9 5 10 4 11 2 12 3 13
REMARK SMILES IDX 1 14
REMARK H PARENT
REMARK Flexibility Score: inf
ROOT
ATOM      1  C   UNL     1       3.077 145.929  -8.415  1.00  0.00    -0.077 C 
ATOM      2  C   UNL     1       2.680 146.349  -7.192  1.00  0.00    -0.028 C 
ATOM      3  C   UNL     1       2.397 144.781  -9.125  1.00  0.00     0.039 C 
ENDROOT
BRANCH   1   4
ATOM      4  C   UNL     1       4.228 146.638  -9.097  1.00  0.00     0.034 C 
BRANCH   4   5
ATOM      5  C   UNL     1       5.487 145.763  -9.094  1.00  0.00     0.032 C 
BRANCH   5   6
ATOM      6  C   UNL     1       5.936 145.455  -7.685  1.00  0.00    -0.028 C 
ATOM      7  C   UNL     1       5.367 143.037  -7.939  1.00  0.00     0.039 C 
ATOM      8  C   UNL     1       5.885 144.217  -7.151  1.00  0.00    -0.080 C 
ATOM      9  C   UNL     1       6.360 144.019  -5.734  1.00  0.00     0.039 C 
ENDBRANCH   5   6
ENDBRANCH   4   5
ENDBRANCH   1   4
BRANCH   2  10
ATOM     10  C   UNL     1       1.575 145.711  -6.387  1.00  0.00     0.035 C 
BRANCH  10  11
ATOM     11  C   UNL     1       0.288 146.536  -6.482  1.00  0.00     0.079 C 
BRANCH  11  12
ATOM     12  C   UNL     1       0.310 147.674  -5.497  1.00  0.00     0.130 C 
ATOM     13  O   UNL     1       1.031 148.637  -5.707  1.00  0.00    -0.300 OA
ATOM     14  C   UNL     1      -0.545 147.658  -4.264  1.00  0.00     0.087 C 
ENDBRANCH  11  12
ENDBRANCH  10  11
ENDBRANCH   2  10
TORSDOF 6
ENDMDL
