MODEL 1
REMARK VINA RESULT:    -3.495      0.000      0.000
REMARK INTER + INTRA:          -8.987
REMARK INTER:                  -6.355
REMARK INTRA:                  -2.632
REMARK UNBOUND:                -2.632
REMARK SMILES CCCCCCCCCCCCCCCC(=O)[O-]
REMARK SMILES IDX 9 1 10 2 11 3 12 4 13 5 14 6 15 7 16 8 17 9 18 10 8 11 7 12
REMARK SMILES IDX 6 13 5 14 4 15 3 16 2 17 1 18
REMARK H PARENT
REMARK Flexibility Score: inf
ROOT
ATOM      1  C   UNL     1      20.970  19.507   7.594  1.00  0.00     0.000 C 
ENDROOT
BRANCH   1   2
ATOM      2  C   UNL     1      22.097  18.637   7.019  1.00  0.00     0.000 C 
BRANCH   2   3
ATOM      3  C   UNL     1      23.037  18.151   8.129  1.00  0.00     0.000 C 
BRANCH   3   4
ATOM      4  C   UNL     1      23.182  16.624   8.096  1.00  0.00     0.000 C 
BRANCH   4   5
ATOM      5  C   UNL     1      22.178  15.957   9.047  1.00  0.00     0.000 C 
BRANCH   5   6
ATOM      6  C   UNL     1      22.724  15.812  10.476  1.00  0.00     0.006 C 
BRANCH   6   7
ATOM      7  C   UNL     1      22.060  16.780  11.465  1.00  0.00     0.053 C 
BRANCH   7   8
ATOM      8  C   UNL     1      23.008  17.875  11.839  1.00  0.00     0.041 C 
ATOM      9  O   UNL     1      24.210  17.828  11.467  1.00  0.00    -0.550 OA
ATOM     10  O   UNL     1      22.553  18.970  12.562  1.00  0.00    -0.550 OA
ENDBRANCH   7   8
ENDBRANCH   6   7
ENDBRANCH   5   6
ENDBRANCH   4   5
ENDBRANCH   3   4
ENDBRANCH   2   3
ENDBRANCH   1   2
BRANCH   1  11
ATOM     11  C   UNL     1      20.862  19.394   9.130  1.00  0.00     0.000 C 
BRANCH  11  12
ATOM     12  C   UNL     1      19.433  19.113   9.634  1.00  0.00    -0.000 C 
BRANCH  12  13
ATOM     13  C   UNL     1      18.911  17.691   9.357  1.00  0.00    -0.000 C 
BRANCH  13  14
ATOM     14  C   UNL     1      17.611  17.626   8.534  1.00  0.00    -0.000 C 
BRANCH  14  15
ATOM     15  C   UNL     1      17.680  16.605   7.389  1.00  0.00    -0.000 C 
BRANCH  15  16
ATOM     16  C   UNL     1      19.134  16.338   6.978  1.00  0.00    -0.000 C 
BRANCH  16  17
ATOM     17  C   UNL     1      19.314  16.500   5.464  1.00  0.00    -0.003 C 
ATOM     18  C   UNL     1      18.915  17.899   5.007  1.00  0.00     0.004 C 
ENDBRANCH  16  17
ENDBRANCH  15  16
ENDBRANCH  14  15
ENDBRANCH  13  14
ENDBRANCH  12  13
ENDBRANCH  11  12
ENDBRANCH   1  11
TORSDOF 14
ENDMDL
MODEL 2
REMARK VINA RESULT:    -3.422      2.776      4.829
REMARK INTER + INTRA:          -8.855
REMARK INTER:                  -6.616
REMARK INTRA:                  -2.239
REMARK UNBOUND:                -2.632
REMARK SMILES CCCCCCCCCCCCCCCC(=O)[O-]
REMARK SMILES IDX 9 1 10 2 11 3 12 4 13 5 14 6 15 7 16 8 17 9 18 10 8 11 7 12
REMARK SMILES IDX 6 13 5 14 4 15 3 16 2 17 1 18
REMARK H PARENT
REMARK Flexibility Score: inf
ROOT
ATOM      1  C   UNL     1      20.799  18.738   7.934  1.00  0.00     0.000 C 
ENDROOT
BRANCH   1   2
ATOM      2  C   UNL     1      21.794  19.788   7.420  1.00  0.00     0.000 C 
BRANCH   2   3
ATOM      3  C   UNL     1      22.740  19.184   6.374  1.00  0.00     0.000 C 
BRANCH   3   4
ATOM      4  C   UNL     1      23.445  17.938   6.926  1.00  0.00     0.000 C 
BRANCH   4   5
ATOM      5  C   UNL     1      24.045  17.098   5.788  1.00  0.00     0.000 C 
BRANCH   5   6
ATOM      6  C   UNL     1      23.650  15.616   5.876  1.00  0.00     0.006 C 
BRANCH   6   7
ATOM      7  C   UNL     1      22.703  15.324   7.047  1.00  0.00     0.053 C 
BRANCH   7   8
ATOM      8  C   UNL     1      23.044  14.012   7.680  1.00  0.00     0.041 C 
ATOM      9  O   UNL     1      22.699  13.772   8.867  1.00  0.00    -0.550 OA
ATOM     10  O   UNL     1      23.706  13.036   6.944  1.00  0.00    -0.550 OA
ENDBRANCH   7   8
ENDBRANCH   6   7
ENDBRANCH   5   6
ENDBRANCH   4   5
ENDBRANCH   3   4
ENDBRANCH   2   3
ENDBRANCH   1   2
BRANCH   1  11
ATOM     11  C   UNL     1      20.253  19.079   9.338  1.00  0.00     0.000 C 
BRANCH  11  12
ATOM     12  C   UNL     1      19.827  17.845  10.156  1.00  0.00    -0.000 C 
BRANCH  12  13
ATOM     13  C   UNL     1      20.692  16.589   9.941  1.00  0.00    -0.000 C 
BRANCH  13  14
ATOM     14  C   UNL     1      21.258  15.962  11.230  1.00  0.00    -0.000 C 
BRANCH  14  15
ATOM     15  C   UNL     1      22.747  16.269  11.439  1.00  0.00    -0.000 C 
BRANCH  15  16
ATOM     16  C   UNL     1      23.313  17.076  10.264  1.00  0.00    -0.000 C 
BRANCH  16  17
ATOM     17  C   UNL     1      23.844  18.434  10.735  1.00  0.00    -0.003 C 
ATOM     18  C   UNL     1      23.329  18.774  12.131  1.00  0.00     0.004 C 
ENDBRANCH  16  17
ENDBRANCH  15  16
ENDBRANCH  14  15
ENDBRANCH  13  14
ENDBRANCH  12  13
ENDBRANCH  11  12
ENDBRANCH   1  11
TORSDOF 14
ENDMDL
MODEL 3
REMARK VINA RESULT:    -3.416      3.313      5.865
REMARK INTER + INTRA:          -8.844
REMARK INTER:                  -6.603
REMARK INTRA:                  -2.241
REMARK UNBOUND:                -2.632
REMARK SMILES CCCCCCCCCCCCCCCC(=O)[O-]
REMARK SMILES IDX 9 1 10 2 11 3 12 4 13 5 14 6 15 7 16 8 17 9 18 10 8 11 7 12
REMARK SMILES IDX 6 13 5 14 4 15 3 16 2 17 1 18
REMARK H PARENT
REMARK Flexibility Score: inf
ROOT
ATOM      1  C   UNL     1      20.128  17.313  10.250  1.00  0.00     0.000 C 
ENDROOT
BRANCH   1   2
ATOM      2  C   UNL     1      20.062  18.845  10.334  1.00  0.00     0.000 C 
BRANCH   2   3
ATOM      3  C   UNL     1      19.728  19.456   8.967  1.00  0.00     0.000 C 
BRANCH   3   4
ATOM      4  C   UNL     1      19.404  18.363   7.941  1.00  0.00     0.000 C 
BRANCH   4   5
ATOM      5  C   UNL     1      19.251  18.959   6.534  1.00  0.00     0.000 C 
BRANCH   5   6
ATOM      6  C   UNL     1      17.872  18.671   5.917  1.00  0.00     0.006 C 
BRANCH   6   7
ATOM      7  C   UNL     1      16.742  18.700   6.954  1.00  0.00     0.053 C 
BRANCH   7   8
ATOM      8  C   UNL     1      16.188  20.083   7.084  1.00  0.00     0.041 C 
ATOM      9  O   UNL     1      16.430  20.769   8.112  1.00  0.00    -0.550 OA
ATOM     10  O   UNL     1      15.441  20.633   6.049  1.00  0.00    -0.550 OA
ENDBRANCH   7   8
ENDBRANCH   6   7
ENDBRANCH   5   6
ENDBRANCH   4   5
ENDBRANCH   3   4
ENDBRANCH   2   3
ENDBRANCH   1   2
BRANCH   1  11
ATOM     11  C   UNL     1      21.323  16.730  11.036  1.00  0.00     0.000 C 
BRANCH  11  12
ATOM     12  C   UNL     1      22.385  17.778  11.419  1.00  0.00    -0.000 C 
BRANCH  12  13
ATOM     13  C   UNL     1      23.644  17.786  10.532  1.00  0.00    -0.000 C 
BRANCH  13  14
ATOM     14  C   UNL     1      23.487  18.521   9.187  1.00  0.00    -0.000 C 
BRANCH  14  15
ATOM     15  C   UNL     1      23.261  17.565   8.007  1.00  0.00    -0.000 C 
BRANCH  15  16
ATOM     16  C   UNL     1      22.954  18.343   6.722  1.00  0.00    -0.000 C 
BRANCH  16  17
ATOM     17  C   UNL     1      22.772  19.837   7.013  1.00  0.00    -0.003 C 
ATOM     18  C   UNL     1      22.540  20.626   5.729  1.00  0.00     0.004 C 
ENDBRANCH  16  17
ENDBRANCH  15  16
ENDBRANCH  14  15
ENDBRANCH  13  14
ENDBRANCH  12  13
ENDBRANCH  11  12
ENDBRANCH   1  11
TORSDOF 14
ENDMDL
MODEL 4
REMARK VINA RESULT:    -3.412      1.605      3.133
REMARK INTER + INTRA:          -8.836
REMARK INTER:                  -6.356
REMARK INTRA:                  -2.481
REMARK UNBOUND:                -2.632
REMARK SMILES CCCCCCCCCCCCCCCC(=O)[O-]
REMARK SMILES IDX 9 1 10 2 11 3 12 4 13 5 14 6 15 7 16 8 17 9 18 10 8 11 7 12
REMARK SMILES IDX 6 13 5 14 4 15 3 16 2 17 1 18
REMARK H PARENT
REMARK Flexibility Score: inf
ROOT
ATOM      1  C   UNL     1      21.317  14.404   9.474  1.00  0.00     0.000 C 
ENDROOT
BRANCH   1   2
ATOM      2  C   UNL     1      22.577  14.753   8.668  1.00  0.00     0.000 C 
BRANCH   2   3
ATOM      3  C   UNL     1      22.247  15.716   7.521  1.00  0.00     0.000 C 
BRANCH   3   4
ATOM      4  C   UNL     1      23.216  16.905   7.507  1.00  0.00     0.000 C 
BRANCH   4   5
ATOM      5  C   UNL     1      23.589  17.327   8.936  1.00  0.00     0.000 C 
BRANCH   5   6
ATOM      6  C   UNL     1      22.537  18.248   9.574  1.00  0.00     0.006 C 
BRANCH   6   7
ATOM      7  C   UNL     1      22.083  17.761  10.956  1.00  0.00     0.053 C 
BRANCH   7   8
ATOM      8  C   UNL     1      23.262  17.572  11.856  1.00  0.00     0.041 C 
ATOM      9  O   UNL     1      23.743  18.551  12.485  1.00  0.00    -0.550 OA
ATOM     10  O   UNL     1      23.804  16.305  12.035  1.00  0.00    -0.550 OA
ENDBRANCH   7   8
ENDBRANCH   6   7
ENDBRANCH   5   6
ENDBRANCH   4   5
ENDBRANCH   3   4
ENDBRANCH   2   3
ENDBRANCH   1   2
BRANCH   1  11
ATOM     11  C   UNL     1      20.025  14.911   8.797  1.00  0.00     0.000 C 
BRANCH  11  12
ATOM     12  C   UNL     1      19.162  15.811   9.702  1.00  0.00    -0.000 C 
BRANCH  12  13
ATOM     13  C   UNL     1      18.769  17.169   9.089  1.00  0.00    -0.000 C 
BRANCH  13  14
ATOM     14  C   UNL     1      19.415  17.476   7.725  1.00  0.00    -0.000 C 
BRANCH  14  15
ATOM     15  C   UNL     1      19.456  18.978   7.409  1.00  0.00    -0.000 C 
BRANCH  15  16
ATOM     16  C   UNL     1      20.516  19.287   6.344  1.00  0.00    -0.000 C 
BRANCH  16  17
ATOM     17  C   UNL     1      21.594  20.224   6.899  1.00  0.00    -0.003 C 
ATOM     18  C   UNL     1      22.840  20.214   6.018  1.00  0.00     0.004 C 
ENDBRANCH  16  17
ENDBRANCH  15  16
ENDBRANCH  14  15
ENDBRANCH  13  14
ENDBRANCH  12  13
ENDBRANCH  11  12
ENDBRANCH   1  11
TORSDOF 14
ENDMDL
MODEL 5
REMARK VINA RESULT:    -3.388      1.636      3.779
REMARK INTER + INTRA:          -8.793
REMARK INTER:                  -6.367
REMARK INTRA:                  -2.426
REMARK UNBOUND:                -2.632
REMARK SMILES CCCCCCCCCCCCCCCC(=O)[O-]
REMARK SMILES IDX 9 1 10 2 11 3 12 4 13 5 14 6 15 7 16 8 17 9 18 10 8 11 7 12
REMARK SMILES IDX 6 13 5 14 4 15 3 16 2 17 1 18
REMARK H PARENT
REMARK Flexibility Score: inf
ROOT
ATOM      1  C   UNL     1      19.021  16.682   9.502  1.00  0.00     0.000 C 
ENDROOT
BRANCH   1   2
ATOM      2  C   UNL     1      19.663  17.011   8.146  1.00  0.00     0.000 C 
BRANCH   2   3
ATOM      3  C   UNL     1      19.627  18.519   7.872  1.00  0.00     0.000 C 
BRANCH   3   4
ATOM      4  C   UNL     1      20.726  19.246   8.659  1.00  0.00     0.000 C 
BRANCH   4   5
ATOM      5  C   UNL     1      22.118  18.736   8.256  1.00  0.00     0.000 C 
BRANCH   5   6
ATOM      6  C   UNL     1      22.931  18.228   9.457  1.00  0.00     0.006 C 
BRANCH   6   7
ATOM      7  C   UNL     1      22.145  18.288  10.773  1.00  0.00     0.053 C 
BRANCH   7   8
ATOM      8  C   UNL     1      23.079  18.269  11.941  1.00  0.00     0.041 C 
ATOM      9  O   UNL     1      23.911  17.334  12.072  1.00  0.00    -0.550 OA
ATOM     10  O   UNL     1      23.060  19.309  12.863  1.00  0.00    -0.550 OA
ENDBRANCH   7   8
ENDBRANCH   6   7
ENDBRANCH   5   6
ENDBRANCH   4   5
ENDBRANCH   3   4
ENDBRANCH   2   3
ENDBRANCH   1   2
BRANCH   1  11
ATOM     11  C   UNL     1      19.479  15.314  10.055  1.00  0.00     0.000 C 
BRANCH  11  12
ATOM     12  C   UNL     1      20.419  15.420  11.271  1.00  0.00    -0.000 C 
BRANCH  12  13
ATOM     13  C   UNL     1      21.556  14.382  11.309  1.00  0.00    -0.000 C 
BRANCH  13  14
ATOM     14  C   UNL     1      22.677  14.608  10.277  1.00  0.00    -0.000 C 
BRANCH  14  15
ATOM     15  C   UNL     1      22.696  13.544   9.172  1.00  0.00    -0.000 C 
BRANCH  15  16
ATOM     16  C   UNL     1      22.173  14.116   7.848  1.00  0.00    -0.000 C 
BRANCH  16  17
ATOM     17  C   UNL     1      23.172  15.111   7.248  1.00  0.00    -0.003 C 
ATOM     18  C   UNL     1      22.547  15.894   6.097  1.00  0.00     0.004 C 
ENDBRANCH  16  17
ENDBRANCH  15  16
ENDBRANCH  14  15
ENDBRANCH  13  14
ENDBRANCH  12  13
ENDBRANCH  11  12
ENDBRANCH   1  11
TORSDOF 14
ENDMDL
MODEL 6
REMARK VINA RESULT:    -3.375      1.444      3.297
REMARK INTER + INTRA:          -8.769
REMARK INTER:                  -6.615
REMARK INTRA:                  -2.154
REMARK UNBOUND:                -2.632
REMARK SMILES CCCCCCCCCCCCCCCC(=O)[O-]
REMARK SMILES IDX 9 1 10 2 11 3 12 4 13 5 14 6 15 7 16 8 17 9 18 10 8 11 7 12
REMARK SMILES IDX 6 13 5 14 4 15 3 16 2 17 1 18
REMARK H PARENT
REMARK Flexibility Score: inf
ROOT
ATOM      1  C   UNL     1      18.081  17.563   8.694  1.00  0.00     0.000 C 
ENDROOT
BRANCH   1   2
ATOM      2  C   UNL     1      18.995  16.533   9.374  1.00  0.00     0.000 C 
BRANCH   2   3
ATOM      3  C   UNL     1      19.662  15.621   8.337  1.00  0.00     0.000 C 
BRANCH   3   4
ATOM      4  C   UNL     1      21.094  15.268   8.757  1.00  0.00     0.000 C 
BRANCH   4   5
ATOM      5  C   UNL     1      21.430  15.873  10.128  1.00  0.00     0.000 C 
BRANCH   5   6
ATOM      6  C   UNL     1      22.939  16.090  10.325  1.00  0.00     0.006 C 
BRANCH   6   7
ATOM      7  C   UNL     1      23.276  16.694  11.694  1.00  0.00     0.053 C 
BRANCH   7   8
ATOM      8  C   UNL     1      23.381  18.182  11.597  1.00  0.00     0.041 C 
ATOM      9  O   UNL     1      23.997  18.713  10.636  1.00  0.00    -0.550 OA
ATOM     10  O   UNL     1      22.761  18.986  12.546  1.00  0.00    -0.550 OA
ENDBRANCH   7   8
ENDBRANCH   6   7
ENDBRANCH   5   6
ENDBRANCH   4   5
ENDBRANCH   3   4
ENDBRANCH   2   3
ENDBRANCH   1   2
BRANCH   1  11
ATOM     11  C   UNL     1      18.567  19.014   8.907  1.00  0.00     0.000 C 
BRANCH  11  12
ATOM     12  C   UNL     1      19.919  19.116   9.638  1.00  0.00    -0.000 C 
BRANCH  12  13
ATOM     13  C   UNL     1      21.137  19.358   8.727  1.00  0.00    -0.000 C 
BRANCH  13  14
ATOM     14  C   UNL     1      20.834  19.331   7.217  1.00  0.00    -0.000 C 
BRANCH  14  15
ATOM     15  C   UNL     1      22.102  19.375   6.353  1.00  0.00    -0.000 C 
BRANCH  15  16
ATOM     16  C   UNL     1      23.253  18.617   7.027  1.00  0.00    -0.000 C 
BRANCH  16  17
ATOM     17  C   UNL     1      23.840  17.560   6.085  1.00  0.00    -0.003 C 
ATOM     18  C   UNL     1      23.978  16.212   6.787  1.00  0.00     0.004 C 
ENDBRANCH  16  17
ENDBRANCH  15  16
ENDBRANCH  14  15
ENDBRANCH  13  14
ENDBRANCH  12  13
ENDBRANCH  11  12
ENDBRANCH   1  11
TORSDOF 14
ENDMDL
MODEL 7
REMARK VINA RESULT:    -3.362      1.647      3.704
REMARK INTER + INTRA:          -8.745
REMARK INTER:                  -6.090
REMARK INTRA:                  -2.655
REMARK UNBOUND:                -2.632
REMARK SMILES CCCCCCCCCCCCCCCC(=O)[O-]
REMARK SMILES IDX 9 1 10 2 11 3 12 4 13 5 14 6 15 7 16 8 17 9 18 10 8 11 7 12
REMARK SMILES IDX 6 13 5 14 4 15 3 16 2 17 1 18
REMARK H PARENT
REMARK Flexibility Score: inf
ROOT
ATOM      1  C   UNL     1      19.751  17.218   6.040  1.00  0.00     0.000 C 
ENDROOT
BRANCH   1   2
ATOM      2  C   UNL     1      19.588  18.681   6.475  1.00  0.00     0.000 C 
BRANCH   2   3
ATOM      3  C   UNL     1      20.945  19.394   6.527  1.00  0.00     0.000 C 
BRANCH   3   4
ATOM      4  C   UNL     1      21.510  19.394   7.953  1.00  0.00     0.000 C 
BRANCH   4   5
ATOM      5  C   UNL     1      20.380  19.378   8.992  1.00  0.00     0.000 C 
BRANCH   5   6
ATOM      6  C   UNL     1      20.747  18.579  10.253  1.00  0.00     0.006 C 
BRANCH   6   7
ATOM      7  C   UNL     1      22.254  18.317  10.370  1.00  0.00     0.053 C 
BRANCH   7   8
ATOM      8  C   UNL     1      22.526  17.297  11.429  1.00  0.00     0.041 C 
ATOM      9  O   UNL     1      23.609  17.323  12.071  1.00  0.00    -0.550 OA
ATOM     10  O   UNL     1      21.565  16.342  11.738  1.00  0.00    -0.550 OA
ENDBRANCH   7   8
ENDBRANCH   6   7
ENDBRANCH   5   6
ENDBRANCH   4   5
ENDBRANCH   3   4
ENDBRANCH   2   3
ENDBRANCH   1   2
BRANCH   1  11
ATOM     11  C   UNL     1      18.844  16.259   6.842  1.00  0.00     0.000 C 
BRANCH  11  12
ATOM     12  C   UNL     1      19.570  15.533   7.991  1.00  0.00    -0.000 C 
BRANCH  12  13
ATOM     13  C   UNL     1      21.098  15.722   8.020  1.00  0.00    -0.000 C 
BRANCH  13  14
ATOM     14  C   UNL     1      21.909  14.551   7.434  1.00  0.00    -0.000 C 
BRANCH  14  15
ATOM     15  C   UNL     1      23.285  14.981   6.908  1.00  0.00    -0.000 C 
BRANCH  15  16
ATOM     16  C   UNL     1      23.608  16.421   7.327  1.00  0.00    -0.000 C 
BRANCH  16  17
ATOM     17  C   UNL     1      24.043  17.259   6.120  1.00  0.00    -0.003 C 
ATOM     18  C   UNL     1      23.242  16.892   4.875  1.00  0.00     0.004 C 
ENDBRANCH  16  17
ENDBRANCH  15  16
ENDBRANCH  14  15
ENDBRANCH  13  14
ENDBRANCH  12  13
ENDBRANCH  11  12
ENDBRANCH   1  11
TORSDOF 14
ENDMDL
MODEL 8
REMARK VINA RESULT:    -3.352      3.247      5.764
REMARK INTER + INTRA:          -8.726
REMARK INTER:                  -6.390
REMARK INTRA:                  -2.337
REMARK UNBOUND:                -2.632
REMARK SMILES CCCCCCCCCCCCCCCC(=O)[O-]
REMARK SMILES IDX 9 1 10 2 11 3 12 4 13 5 14 6 15 7 16 8 17 9 18 10 8 11 7 12
REMARK SMILES IDX 6 13 5 14 4 15 3 16 2 17 1 18
REMARK H PARENT
REMARK Flexibility Score: inf
ROOT
ATOM      1  C   UNL     1      22.910  18.762   8.040  1.00  0.00     0.000 C 
ENDROOT
BRANCH   1   2
ATOM      2  C   UNL     1      21.648  19.366   7.409  1.00  0.00     0.000 C 
BRANCH   2   3
ATOM      3  C   UNL     1      20.427  19.161   8.315  1.00  0.00     0.000 C 
BRANCH   3   4
ATOM      4  C   UNL     1      19.150  18.984   7.484  1.00  0.00     0.000 C 
BRANCH   4   5
ATOM      5  C   UNL     1      19.120  17.603   6.811  1.00  0.00     0.000 C 
BRANCH   5   6
ATOM      6  C   UNL     1      18.124  16.642   7.479  1.00  0.00     0.006 C 
BRANCH   6   7
ATOM      7  C   UNL     1      17.337  17.302   8.618  1.00  0.00     0.053 C 
BRANCH   7   8
ATOM      8  C   UNL     1      15.885  17.387   8.268  1.00  0.00     0.041 C 
ATOM      9  O   UNL     1      15.067  16.560   8.750  1.00  0.00    -0.550 OA
ATOM     10  O   UNL     1      15.427  18.408   7.445  1.00  0.00    -0.550 OA
ENDBRANCH   7   8
ENDBRANCH   6   7
ENDBRANCH   5   6
ENDBRANCH   4   5
ENDBRANCH   3   4
ENDBRANCH   2   3
ENDBRANCH   1   2
BRANCH   1  11
ATOM     11  C   UNL     1      23.405  17.509   7.285  1.00  0.00     0.000 C 
BRANCH  11  12
ATOM     12  C   UNL     1      22.480  16.286   7.436  1.00  0.00    -0.000 C 
BRANCH  12  13
ATOM     13  C   UNL     1      22.418  15.685   8.852  1.00  0.00    -0.000 C 
BRANCH  13  14
ATOM     14  C   UNL     1      21.021  15.697   9.502  1.00  0.00    -0.000 C 
BRANCH  14  15
ATOM     15  C   UNL     1      20.973  16.518  10.799  1.00  0.00    -0.000 C 
BRANCH  15  16
ATOM     16  C   UNL     1      22.383  16.934  11.238  1.00  0.00    -0.000 C 
BRANCH  16  17
ATOM     17  C   UNL     1      22.414  18.407  11.659  1.00  0.00    -0.003 C 
ATOM     18  C   UNL     1      23.678  18.729  12.450  1.00  0.00     0.004 C 
ENDBRANCH  16  17
ENDBRANCH  15  16
ENDBRANCH  14  15
ENDBRANCH  13  14
ENDBRANCH  12  13
ENDBRANCH  11  12
ENDBRANCH   1  11
TORSDOF 14
ENDMDL
MODEL 9
REMARK VINA RESULT:    -3.292      1.305      2.669
REMARK INTER + INTRA:          -8.619
REMARK INTER:                  -5.998
REMARK INTRA:                  -2.621
REMARK UNBOUND:                -2.632
REMARK SMILES CCCCCCCCCCCCCCCC(=O)[O-]
REMARK SMILES IDX 9 1 10 2 11 3 12 4 13 5 14 6 15 7 16 8 17 9 18 10 8 11 7 12
REMARK SMILES IDX 6 13 5 14 4 15 3 16 2 17 1 18
REMARK H PARENT
REMARK Flexibility Score: inf
ROOT
ATOM      1  C   UNL     1      20.677  19.376   9.326  1.00  0.00     0.000 C 
ENDROOT
BRANCH   1   2
ATOM      2  C   UNL     1      19.877  18.439  10.242  1.00  0.00     0.000 C 
BRANCH   2   3
ATOM      3  C   UNL     1      19.894  17.001   9.709  1.00  0.00     0.000 C 
BRANCH   3   4
ATOM      4  C   UNL     1      20.292  16.011  10.812  1.00  0.00     0.000 C 
BRANCH   4   5
ATOM      5  C   UNL     1      21.508  15.175  10.387  1.00  0.00     0.000 C 
BRANCH   5   6
ATOM      6  C   UNL     1      22.796  16.008  10.295  1.00  0.00     0.006 C 
BRANCH   6   7
ATOM      7  C   UNL     1      23.223  16.589  11.649  1.00  0.00     0.053 C 
BRANCH   7   8
ATOM      8  C   UNL     1      23.379  18.074  11.555  1.00  0.00     0.041 C 
ATOM      9  O   UNL     1      22.987  18.813  12.496  1.00  0.00    -0.550 OA
ATOM     10  O   UNL     1      23.996  18.639  10.446  1.00  0.00    -0.550 OA
ENDBRANCH   7   8
ENDBRANCH   6   7
ENDBRANCH   5   6
ENDBRANCH   4   5
ENDBRANCH   3   4
ENDBRANCH   2   3
ENDBRANCH   1   2
BRANCH   1  11
ATOM     11  C   UNL     1      21.243  18.648   8.086  1.00  0.00     0.000 C 
BRANCH  11  12
ATOM     12  C   UNL     1      20.724  19.205   6.748  1.00  0.00    -0.000 C 
BRANCH  12  13
ATOM     13  C   UNL     1      19.226  18.968   6.479  1.00  0.00    -0.000 C 
BRANCH  13  14
ATOM     14  C   UNL     1      18.916  17.827   5.492  1.00  0.00    -0.000 C 
BRANCH  14  15
ATOM     15  C   UNL     1      18.885  16.447   6.165  1.00  0.00    -0.000 C 
BRANCH  15  16
ATOM     16  C   UNL     1      20.003  15.547   5.625  1.00  0.00    -0.000 C 
BRANCH  16  17
ATOM     17  C   UNL     1      20.937  15.095   6.754  1.00  0.00    -0.003 C 
ATOM     18  C   UNL     1      22.379  15.506   6.474  1.00  0.00     0.004 C 
ENDBRANCH  16  17
ENDBRANCH  15  16
ENDBRANCH  14  15
ENDBRANCH  13  14
ENDBRANCH  12  13
ENDBRANCH  11  12
ENDBRANCH   1  11
TORSDOF 14
ENDMDL
