MODEL 1
REMARK VINA RESULT:    10.858      0.000      0.000
REMARK INTER + INTRA:          12.020
REMARK INTER:                  11.810
REMARK INTRA:                   0.211
REMARK UNBOUND:                 0.211
REMARK SMILES CC1(C)CC[C@]2(C(=O)[O-])CC[C@@]3(C)C(=CC[C@H]4[C@@]5(C)CC[C@@H](O)C(C)(C)[C@@H]5CC[C@]43C)[C@H]2C1
REMARK SMILES IDX 6 1 5 2 10 3 32 4 4 5 11 6 14 7 33 8 2 9 12 10 15 11 1 12
REMARK SMILES IDX 3 13 13 14 30 15 16 16 17 17 29 18 31 19 18 20 28 21 27 22
REMARK SMILES IDX 20 23 19 24 24 25 21 26 22 27 25 28 26 29 7 30 8 31 9 32
REMARK SMILES IDX 23 33
REMARK H PARENT 23 34
REMARK Flexibility Score: inf
ROOT
ATOM      1  C   UNL     1     -44.604 -27.950   0.420  1.00  0.00     0.017 C 
ATOM      2  C   UNL     1     -43.910 -27.029   1.470  1.00  0.00     0.014 C 
ATOM      3  C   UNL     1     -43.519 -28.661  -0.472  1.00  0.00     0.014 C 
ATOM      4  C   UNL     1     -45.462 -27.014  -0.475  1.00  0.00     0.028 C 
ATOM      5  C   UNL     1     -44.939 -26.258   2.331  1.00  0.00     0.007 C 
ATOM      6  C   UNL     1     -43.868 -28.932  -1.983  1.00  0.00     0.013 C 
ATOM      7  C   UNL     1     -45.875 -27.555  -1.860  1.00  0.00    -0.064 C 
ATOM      8  C   UNL     1     -46.556 -26.243   0.310  1.00  0.00     0.015 C 
ATOM      9  C   UNL     1     -45.963 -25.422   1.503  1.00  0.00    -0.035 C 
ATOM     10  C   UNL     1     -45.392 -28.942  -2.368  1.00  0.00    -0.006 C 
ATOM     11  C   UNL     1     -46.031 -26.558  -2.756  1.00  0.00    -0.027 C 
ATOM     12  C   UNL     1     -47.122 -25.005   2.432  1.00  0.00     0.011 C 
ATOM     13  C   UNL     1     -45.288 -24.125   0.988  1.00  0.00     0.011 C 
ATOM     14  C   UNL     1     -46.017 -30.124  -1.559  1.00  0.00     0.017 C 
ATOM     15  C   UNL     1     -45.723 -29.193  -3.989  1.00  0.00    -0.020 C 
ATOM     16  C   UNL     1     -45.470 -26.646  -4.131  1.00  0.00     0.032 C 
ATOM     17  C   UNL     1     -46.051 -27.863  -4.832  1.00  0.00     0.006 C 
ATOM     18  C   UNL     1     -44.531 -29.977  -4.624  1.00  0.00     0.008 C 
ATOM     19  C   UNL     1     -47.006 -30.087  -4.163  1.00  0.00     0.012 C 
ATOM     20  C   UNL     1     -45.827 -27.900  -6.441  1.00  0.00    -0.025 C 
ATOM     21  C   UNL     1     -44.583 -30.123  -6.139  1.00  0.00     0.005 C 
ATOM     22  C   UNL     1     -44.534 -28.723  -6.786  1.00  0.00     0.003 C 
ATOM     23  C   UNL     1     -45.621 -26.462  -7.035  1.00  0.00     0.010 C 
ATOM     24  C   UNL     1     -47.123 -28.487  -7.116  1.00  0.00     0.012 C 
ATOM     25  C   UNL     1     -44.066 -28.714  -8.301  1.00  0.00    -0.006 C 
ATOM     26  C   UNL     1     -45.244 -26.430  -8.528  1.00  0.00     0.033 C 
ATOM     27  C   UNL     1     -43.970 -27.240  -8.812  1.00  0.00     0.120 C 
ATOM     28  C   UNL     1     -44.989 -29.542  -9.235  1.00  0.00     0.014 C 
ATOM     29  C   UNL     1     -42.646 -29.342  -8.425  1.00  0.00     0.014 C 
ENDROOT
BRANCH   1  30
ATOM     30  C   UNL     1     -45.389 -28.981   1.241  1.00  0.00     0.048 C 
ATOM     31  O   UNL     1     -44.778 -29.946   1.775  1.00  0.00    -0.550 OA
ATOM     32  O   UNL     1     -46.765 -28.900   1.413  1.00  0.00    -0.550 OA
ENDBRANCH   1  30
BRANCH  27  33
ATOM     33  O   UNL     1     -42.872 -26.591  -8.216  1.00  0.00    -0.393 OA
ATOM     34  H   UNL     1     -42.917 -25.635  -8.482  1.00  0.00     0.210 HD
ENDBRANCH  27  33
TORSDOF 2
ENDMDL
MODEL 2
REMARK VINA RESULT:    11.750      1.753      8.218
REMARK INTER + INTRA:          12.991
REMARK INTER:                  12.778
REMARK INTRA:                   0.213
REMARK UNBOUND:                 0.211
REMARK SMILES CC1(C)CC[C@]2(C(=O)[O-])CC[C@@]3(C)C(=CC[C@H]4[C@@]5(C)CC[C@@H](O)C(C)(C)[C@@H]5CC[C@]43C)[C@H]2C1
REMARK SMILES IDX 6 1 5 2 10 3 32 4 4 5 11 6 14 7 33 8 2 9 12 10 15 11 1 12
REMARK SMILES IDX 3 13 13 14 30 15 16 16 17 17 29 18 31 19 18 20 28 21 27 22
REMARK SMILES IDX 20 23 19 24 24 25 21 26 22 27 25 28 26 29 7 30 8 31 9 32
REMARK SMILES IDX 23 33
REMARK H PARENT 23 34
REMARK Flexibility Score: inf
ROOT
ATOM      1  C   UNL     1     -44.982 -27.715  -7.515  1.00  0.00     0.017 C 
ATOM      2  C   UNL     1     -44.109 -26.997  -8.590  1.00  0.00     0.014 C 
ATOM      3  C   UNL     1     -45.751 -26.649  -6.648  1.00  0.00     0.014 C 
ATOM      4  C   UNL     1     -43.992 -28.491  -6.603  1.00  0.00     0.028 C 
ATOM      5  C   UNL     1     -43.283 -28.003  -9.427  1.00  0.00     0.007 C 
ATOM      6  C   UNL     1     -45.993 -26.971  -5.127  1.00  0.00     0.013 C 
ATOM      7  C   UNL     1     -44.501 -28.896  -5.203  1.00  0.00    -0.064 C 
ATOM      8  C   UNL     1     -43.163 -29.559  -7.363  1.00  0.00     0.015 C 
ATOM      9  C   UNL     1     -42.384 -28.952  -8.577  1.00  0.00    -0.035 C 
ATOM     10  C   UNL     1     -45.911 -28.482  -4.700  1.00  0.00    -0.006 C 
ATOM     11  C   UNL     1     -43.492 -28.969  -4.310  1.00  0.00    -0.027 C 
ATOM     12  C   UNL     1     -41.905 -30.111  -9.477  1.00  0.00     0.011 C 
ATOM     13  C   UNL     1     -41.127 -28.189  -8.090  1.00  0.00     0.011 C 
ATOM     14  C   UNL     1     -47.059 -29.197  -5.482  1.00  0.00     0.017 C 
ATOM     15  C   UNL     1     -46.134 -28.782  -3.068  1.00  0.00    -0.020 C 
ATOM     16  C   UNL     1     -43.606 -28.375  -2.951  1.00  0.00     0.032 C 
ATOM     17  C   UNL     1     -44.783 -29.008  -2.226  1.00  0.00     0.006 C 
ATOM     18  C   UNL     1     -46.984 -27.620  -2.461  1.00  0.00     0.008 C 
ATOM     19  C   UNL     1     -46.951 -30.110  -2.853  1.00  0.00     0.012 C 
ATOM     20  C   UNL     1     -44.825 -28.741  -0.623  1.00  0.00    -0.025 C 
ATOM     21  C   UNL     1     -47.118 -27.639  -0.945  1.00  0.00     0.005 C 
ATOM     22  C   UNL     1     -45.721 -27.489  -0.308  1.00  0.00     0.003 C 
ATOM     23  C   UNL     1     -43.399 -28.435  -0.045  1.00  0.00     0.010 C 
ATOM     24  C   UNL     1     -45.331 -30.050   0.091  1.00  0.00     0.012 C 
ATOM     25  C   UNL     1     -45.732 -26.980   1.193  1.00  0.00    -0.006 C 
ATOM     26  C   UNL     1     -43.381 -28.015   1.437  1.00  0.00     0.033 C 
ATOM     27  C   UNL     1     -44.263 -26.783   1.691  1.00  0.00     0.120 C 
ATOM     28  C   UNL     1     -46.498 -27.923   2.158  1.00  0.00     0.014 C 
ATOM     29  C   UNL     1     -46.441 -25.596   1.282  1.00  0.00     0.014 C 
ENDROOT
BRANCH   1  30
ATOM     30  C   UNL     1     -45.970 -28.581  -8.307  1.00  0.00     0.048 C 
ATOM     31  O   UNL     1     -46.921 -28.032  -8.926  1.00  0.00    -0.550 OA
ATOM     32  O   UNL     1     -45.863 -29.965  -8.362  1.00  0.00    -0.550 OA
ENDBRANCH   1  30
BRANCH  27  33
ATOM     33  O   UNL     1     -43.682 -25.666   1.061  1.00  0.00    -0.393 OA
ATOM     34  H   UNL     1     -43.460 -25.011   1.773  1.00  0.00     0.210 HD
ENDBRANCH  27  33
TORSDOF 2
ENDMDL
