MODEL 1
REMARK VINA RESULT:    -7.031      0.000      0.000
REMARK INTER + INTRA:          -7.236
REMARK INTER:                  -7.236
REMARK INTRA:                   0.000
REMARK UNBOUND:                 0.000
REMARK SMILES C[C@@H]1CC[C@@]2(OC1)O[C@@H]1C[C@H]3[C@@H]4CC=C5C[C@@H](O)CC[C@@]5(C)[C@@H]4CC[C@]3(C)[C@@H]1[C@H]2C
REMARK SMILES IDX 1 1 2 2 3 3 4 4 5 5 29 6 28 7 9 8 8 9 10 10 11 11 26 12
REMARK SMILES IDX 25 13 24 14 23 15 12 16 13 17 14 18 15 19 21 20 20 21 19 22
REMARK SMILES IDX 17 23 16 24 22 25 27 26 30 27 6 28 7 29 18 30
REMARK H PARENT 18 31
REMARK Flexibility Score: inf
ROOT
ATOM      1  C   UNL     1      38.971  18.102  47.744  1.00  0.00     0.010 C 
ATOM      2  C   UNL     1      38.232  18.886  48.835  1.00  0.00     0.012 C 
ATOM      3  C   UNL     1      36.710  18.813  48.669  1.00  0.00     0.011 C 
ATOM      4  C   UNL     1      36.214  19.703  47.517  1.00  0.00     0.066 C 
ATOM      5  C   UNL     1      36.908  21.109  47.429  1.00  0.00     0.171 C 
ATOM      6  C   UNL     1      36.326  22.271  48.315  1.00  0.00     0.052 C 
ATOM      7  C   UNL     1      35.598  23.208  47.332  1.00  0.00     0.033 C 
ATOM      8  C   UNL     1      35.715  22.463  46.002  1.00  0.00     0.126 C 
ATOM      9  O   UNL     1      36.753  21.511  46.087  1.00  0.00    -0.346 OA
ATOM     10  C   UNL     1      36.095  23.485  44.937  1.00  0.00     0.037 C 
ATOM     11  C   UNL     1      36.885  24.507  45.726  1.00  0.00     0.002 C 
ATOM     12  C   UNL     1      36.111  24.683  47.051  1.00  0.00    -0.024 C 
ATOM     13  C   UNL     1      37.037  25.436  48.082  1.00  0.00     0.008 C 
ATOM     14  C   UNL     1      38.183  26.252  47.421  1.00  0.00     0.005 C 
ATOM     15  C   UNL     1      37.831  26.874  46.024  1.00  0.00     0.003 C 
ATOM     16  C   UNL     1      37.184  25.844  45.019  1.00  0.00     0.000 C 
ATOM     17  C   UNL     1      38.012  25.613  43.746  1.00  0.00     0.031 C 
ATOM     18  C   UNL     1      38.408  26.920  43.140  1.00  0.00    -0.027 C 
ATOM     19  C   UNL     1      38.855  27.935  43.909  1.00  0.00    -0.065 C 
ATOM     20  C   UNL     1      39.035  27.723  45.420  1.00  0.00    -0.008 C 
ATOM     21  C   UNL     1      39.062  29.108  46.139  1.00  0.00     0.014 C 
ATOM     22  C   UNL     1      39.994  30.118  45.472  1.00  0.00     0.033 C 
ATOM     23  C   UNL     1      39.544  30.402  44.032  1.00  0.00     0.118 C 
ATOM     24  C   UNL     1      39.490  29.115  43.202  1.00  0.00     0.063 C 
ATOM     25  C   UNL     1      40.396  27.002  45.623  1.00  0.00     0.016 C 
ATOM     26  C   UNL     1      34.829  25.566  46.866  1.00  0.00     0.012 C 
ATOM     27  C   UNL     1      35.384  21.847  49.466  1.00  0.00     0.014 C 
ATOM     28  O   UNL     1      38.320  21.002  47.627  1.00  0.00    -0.349 OA
ATOM     29  C   UNL     1      38.654  20.362  48.847  1.00  0.00     0.167 C 
ENDROOT
BRANCH  23  30
ATOM     30  O   UNL     1      38.295  31.037  44.005  1.00  0.00    -0.393 OA
ATOM     31  H   UNL     1      38.162  31.341  43.072  1.00  0.00     0.210 HD
ENDBRANCH  23  30
TORSDOF 1
ENDMDL
MODEL 2
REMARK VINA RESULT:    -7.006      2.096      8.163
REMARK INTER + INTRA:          -7.210
REMARK INTER:                  -7.210
REMARK INTRA:                   0.000
REMARK UNBOUND:                 0.000
REMARK SMILES C[C@@H]1CC[C@@]2(OC1)O[C@@H]1C[C@H]3[C@@H]4CC=C5C[C@@H](O)CC[C@@]5(C)[C@@H]4CC[C@]3(C)[C@@H]1[C@H]2C
REMARK SMILES IDX 1 1 2 2 3 3 4 4 5 5 29 6 28 7 9 8 8 9 10 10 11 11 26 12
REMARK SMILES IDX 25 13 24 14 23 15 12 16 13 17 14 18 15 19 21 20 20 21 19 22
REMARK SMILES IDX 17 23 16 24 22 25 27 26 30 27 6 28 7 29 18 30
REMARK H PARENT 18 31
REMARK Flexibility Score: inf
ROOT
ATOM      1  C   UNL     1      43.934  28.572  44.376  1.00  0.00     0.010 C 
ATOM      2  C   UNL     1      42.768  28.654  43.383  1.00  0.00     0.012 C 
ATOM      3  C   UNL     1      41.831  29.827  43.689  1.00  0.00     0.011 C 
ATOM      4  C   UNL     1      40.937  29.547  44.909  1.00  0.00     0.066 C 
ATOM      5  C   UNL     1      40.355  28.089  44.973  1.00  0.00     0.171 C 
ATOM      6  C   UNL     1      39.029  27.793  44.180  1.00  0.00     0.052 C 
ATOM      7  C   UNL     1      37.932  27.662  45.255  1.00  0.00     0.033 C 
ATOM      8  C   UNL     1      38.679  28.004  46.546  1.00  0.00     0.126 C 
ATOM      9  O   UNL     1      40.067  27.870  46.335  1.00  0.00    -0.346 OA
ATOM     10  C   UNL     1      38.258  26.988  47.600  1.00  0.00     0.037 C 
ATOM     11  C   UNL     1      37.951  25.758  46.771  1.00  0.00     0.002 C 
ATOM     12  C   UNL     1      37.196  26.284  45.531  1.00  0.00    -0.024 C 
ATOM     13  C   UNL     1      37.160  25.145  44.440  1.00  0.00     0.008 C 
ATOM     14  C   UNL     1      37.365  23.716  45.015  1.00  0.00     0.005 C 
ATOM     15  C   UNL     1      36.787  23.493  46.456  1.00  0.00     0.003 C 
ATOM     16  C   UNL     1      37.212  24.610  47.487  1.00  0.00     0.000 C 
ATOM     17  C   UNL     1      38.039  24.083  48.669  1.00  0.00     0.031 C 
ATOM     18  C   UNL     1      37.378  22.888  49.274  1.00  0.00    -0.027 C 
ATOM     19  C   UNL     1      36.852  21.918  48.497  1.00  0.00    -0.065 C 
ATOM     20  C   UNL     1      37.001  22.001  46.970  1.00  0.00    -0.008 C 
ATOM     21  C   UNL     1      35.925  21.095  46.294  1.00  0.00     0.014 C 
ATOM     22  C   UNL     1      35.845  19.695  46.900  1.00  0.00     0.033 C 
ATOM     23  C   UNL     1      35.458  19.769  48.384  1.00  0.00     0.118 C 
ATOM     24  C   UNL     1      36.452  20.624  49.176  1.00  0.00     0.063 C 
ATOM     25  C   UNL     1      38.421  21.479  46.619  1.00  0.00     0.016 C 
ATOM     26  C   UNL     1      35.706  26.641  45.862  1.00  0.00     0.012 C 
ATOM     27  C   UNL     1      38.625  28.834  43.111  1.00  0.00     0.014 C 
ATOM     28  O   UNL     1      41.352  27.119  44.640  1.00  0.00    -0.349 OA
ATOM     29  C   UNL     1      41.947  27.358  43.376  1.00  0.00     0.167 C 
ENDROOT
BRANCH  23  30
ATOM     30  O   UNL     1      34.161  20.274  48.546  1.00  0.00    -0.393 OA
ATOM     31  H   UNL     1      33.784  20.361  47.634  1.00  0.00     0.210 HD
ENDBRANCH  23  30
TORSDOF 1
ENDMDL
MODEL 3
REMARK VINA RESULT:    -6.981      3.049      7.959
REMARK INTER + INTRA:          -7.185
REMARK INTER:                  -7.185
REMARK INTRA:                   0.000
REMARK UNBOUND:                 0.000
REMARK SMILES C[C@@H]1CC[C@@]2(OC1)O[C@@H]1C[C@H]3[C@@H]4CC=C5C[C@@H](O)CC[C@@]5(C)[C@@H]4CC[C@]3(C)[C@@H]1[C@H]2C
REMARK SMILES IDX 1 1 2 2 3 3 4 4 5 5 29 6 28 7 9 8 8 9 10 10 11 11 26 12
REMARK SMILES IDX 25 13 24 14 23 15 12 16 13 17 14 18 15 19 21 20 20 21 19 22
REMARK SMILES IDX 17 23 16 24 22 25 27 26 30 27 6 28 7 29 18 30
REMARK H PARENT 18 31
REMARK Flexibility Score: inf
ROOT
ATOM      1  C   UNL     1      41.158  30.059  43.043  1.00  0.00     0.010 C 
ATOM      2  C   UNL     1      40.181  30.265  44.206  1.00  0.00     0.012 C 
ATOM      3  C   UNL     1      40.744  29.744  45.533  1.00  0.00     0.011 C 
ATOM      4  C   UNL     1      40.710  28.208  45.609  1.00  0.00     0.066 C 
ATOM      5  C   UNL     1      39.398  27.554  45.047  1.00  0.00     0.171 C 
ATOM      6  C   UNL     1      38.165  27.432  46.016  1.00  0.00     0.052 C 
ATOM      7  C   UNL     1      38.073  25.936  46.374  1.00  0.00     0.033 C 
ATOM      8  C   UNL     1      39.308  25.347  45.691  1.00  0.00     0.126 C 
ATOM      9  O   UNL     1      39.766  26.238  44.698  1.00  0.00    -0.346 OA
ATOM     10  C   UNL     1      38.878  24.054  45.008  1.00  0.00     0.037 C 
ATOM     11  C   UNL     1      37.428  24.325  44.668  1.00  0.00     0.002 C 
ATOM     12  C   UNL     1      36.849  25.041  45.908  1.00  0.00    -0.024 C 
ATOM     13  C   UNL     1      35.465  25.689  45.518  1.00  0.00     0.008 C 
ATOM     14  C   UNL     1      34.796  25.044  44.272  1.00  0.00     0.005 C 
ATOM     15  C   UNL     1      35.062  23.508  44.100  1.00  0.00     0.003 C 
ATOM     16  C   UNL     1      36.586  23.113  44.223  1.00  0.00     0.000 C 
ATOM     17  C   UNL     1      37.170  22.483  42.949  1.00  0.00     0.031 C 
ATOM     18  C   UNL     1      36.276  21.395  42.452  1.00  0.00    -0.027 C 
ATOM     19  C   UNL     1      34.936  21.556  42.419  1.00  0.00    -0.065 C 
ATOM     20  C   UNL     1      34.323  22.904  42.826  1.00  0.00    -0.008 C 
ATOM     21  C   UNL     1      32.818  22.701  43.188  1.00  0.00     0.014 C 
ATOM     22  C   UNL     1      32.051  21.883  42.151  1.00  0.00     0.033 C 
ATOM     23  C   UNL     1      32.646  20.473  42.026  1.00  0.00     0.118 C 
ATOM     24  C   UNL     1      34.131  20.527  41.652  1.00  0.00     0.063 C 
ATOM     25  C   UNL     1      34.442  23.851  41.599  1.00  0.00     0.016 C 
ATOM     26  C   UNL     1      36.565  24.041  47.081  1.00  0.00     0.012 C 
ATOM     27  C   UNL     1      38.213  28.299  47.295  1.00  0.00     0.014 C 
ATOM     28  O   UNL     1      38.998  28.169  43.819  1.00  0.00    -0.349 OA
ATOM     29  C   UNL     1      38.838  29.572  43.937  1.00  0.00     0.167 C 
ENDROOT
BRANCH  23  30
ATOM     30  O   UNL     1      32.479  19.744  43.211  1.00  0.00    -0.393 OA
ATOM     31  H   UNL     1      31.883  18.986  42.985  1.00  0.00     0.210 HD
ENDBRANCH  23  30
TORSDOF 1
ENDMDL
MODEL 4
REMARK VINA RESULT:    -6.902      2.655      4.479
REMARK INTER + INTRA:          -7.104
REMARK INTER:                  -7.104
REMARK INTRA:                   0.000
REMARK UNBOUND:                 0.000
REMARK SMILES C[C@@H]1CC[C@@]2(OC1)O[C@@H]1C[C@H]3[C@@H]4CC=C5C[C@@H](O)CC[C@@]5(C)[C@@H]4CC[C@]3(C)[C@@H]1[C@H]2C
REMARK SMILES IDX 1 1 2 2 3 3 4 4 5 5 29 6 28 7 9 8 8 9 10 10 11 11 26 12
REMARK SMILES IDX 25 13 24 14 23 15 12 16 13 17 14 18 15 19 21 20 20 21 19 22
REMARK SMILES IDX 17 23 16 24 22 25 27 26 30 27 6 28 7 29 18 30
REMARK H PARENT 18 31
REMARK Flexibility Score: inf
ROOT
ATOM      1  C   UNL     1      34.880  16.634  45.509  1.00  0.00     0.010 C 
ATOM      2  C   UNL     1      36.069  16.733  44.545  1.00  0.00     0.012 C 
ATOM      3  C   UNL     1      37.361  16.191  45.164  1.00  0.00     0.011 C 
ATOM      4  C   UNL     1      37.956  17.163  46.198  1.00  0.00     0.066 C 
ATOM      5  C   UNL     1      37.906  18.676  45.778  1.00  0.00     0.171 C 
ATOM      6  C   UNL     1      39.073  19.227  44.880  1.00  0.00     0.052 C 
ATOM      7  C   UNL     1      39.925  20.108  45.814  1.00  0.00     0.033 C 
ATOM      8  C   UNL     1      39.261  19.902  47.175  1.00  0.00     0.126 C 
ATOM      9  O   UNL     1      37.958  19.394  46.991  1.00  0.00    -0.346 OA
ATOM     10  C   UNL     1      39.148  21.269  47.841  1.00  0.00     0.037 C 
ATOM     11  C   UNL     1      39.017  22.203  46.656  1.00  0.00     0.002 C 
ATOM     12  C   UNL     1      40.028  21.679  45.614  1.00  0.00    -0.024 C 
ATOM     13  C   UNL     1      39.711  22.347  44.220  1.00  0.00     0.008 C 
ATOM     14  C   UNL     1      38.906  23.672  44.327  1.00  0.00     0.005 C 
ATOM     15  C   UNL     1      39.215  24.534  45.600  1.00  0.00     0.003 C 
ATOM     16  C   UNL     1      39.174  23.709  46.945  1.00  0.00     0.000 C 
ATOM     17  C   UNL     1      38.101  24.188  47.936  1.00  0.00     0.031 C 
ATOM     18  C   UNL     1      38.178  25.670  48.108  1.00  0.00    -0.027 C 
ATOM     19  C   UNL     1      38.346  26.485  47.046  1.00  0.00    -0.065 C 
ATOM     20  C   UNL     1      38.382  25.891  45.630  1.00  0.00    -0.008 C 
ATOM     21  C   UNL     1      39.069  26.903  44.660  1.00  0.00     0.014 C 
ATOM     22  C   UNL     1      38.534  28.327  44.793  1.00  0.00     0.033 C 
ATOM     23  C   UNL     1      38.781  28.869  46.209  1.00  0.00     0.118 C 
ATOM     24  C   UNL     1      38.138  27.968  47.269  1.00  0.00     0.063 C 
ATOM     25  C   UNL     1      36.910  25.662  45.190  1.00  0.00     0.016 C 
ATOM     26  C   UNL     1      41.501  22.072  45.978  1.00  0.00     0.012 C 
ATOM     27  C   UNL     1      39.952  18.168  44.175  1.00  0.00     0.014 C 
ATOM     28  O   UNL     1      36.641  19.010  45.199  1.00  0.00    -0.349 OA
ATOM     29  C   UNL     1      36.308  18.182  44.099  1.00  0.00     0.167 C 
ENDROOT
BRANCH  23  30
ATOM     30  O   UNL     1      40.151  29.005  46.468  1.00  0.00    -0.393 OA
ATOM     31  H   UNL     1      40.230  29.710  47.161  1.00  0.00     0.210 HD
ENDBRANCH  23  30
TORSDOF 1
ENDMDL
MODEL 5
REMARK VINA RESULT:    -6.784      1.827      2.803
REMARK INTER + INTRA:          -6.982
REMARK INTER:                  -6.982
REMARK INTRA:                   0.000
REMARK UNBOUND:                 0.000
REMARK SMILES C[C@@H]1CC[C@@]2(OC1)O[C@@H]1C[C@H]3[C@@H]4CC=C5C[C@@H](O)CC[C@@]5(C)[C@@H]4CC[C@]3(C)[C@@H]1[C@H]2C
REMARK SMILES IDX 1 1 2 2 3 3 4 4 5 5 29 6 28 7 9 8 8 9 10 10 11 11 26 12
REMARK SMILES IDX 25 13 24 14 23 15 12 16 13 17 14 18 15 19 21 20 20 21 19 22
REMARK SMILES IDX 17 23 16 24 22 25 27 26 30 27 6 28 7 29 18 30
REMARK H PARENT 18 31
REMARK Flexibility Score: inf
ROOT
ATOM      1  C   UNL     1      35.095  17.086  44.883  1.00  0.00     0.010 C 
ATOM      2  C   UNL     1      36.320  17.107  45.806  1.00  0.00     0.012 C 
ATOM      3  C   UNL     1      35.927  17.168  47.286  1.00  0.00     0.011 C 
ATOM      4  C   UNL     1      35.437  18.568  47.694  1.00  0.00     0.066 C 
ATOM      5  C   UNL     1      36.273  19.754  47.093  1.00  0.00     0.171 C 
ATOM      6  C   UNL     1      37.572  20.200  47.862  1.00  0.00     0.052 C 
ATOM      7  C   UNL     1      37.213  21.544  48.524  1.00  0.00     0.033 C 
ATOM      8  C   UNL     1      35.729  21.703  48.188  1.00  0.00     0.126 C 
ATOM      9  O   UNL     1      35.399  20.861  47.106  1.00  0.00    -0.346 OA
ATOM     10  C   UNL     1      35.512  23.147  47.750  1.00  0.00     0.037 C 
ATOM     11  C   UNL     1      36.848  23.511  47.138  1.00  0.00     0.002 C 
ATOM     12  C   UNL     1      37.906  22.902  48.083  1.00  0.00    -0.024 C 
ATOM     13  C   UNL     1      39.302  22.905  47.349  1.00  0.00     0.008 C 
ATOM     14  C   UNL     1      39.401  23.934  46.188  1.00  0.00     0.005 C 
ATOM     15  C   UNL     1      38.583  25.255  46.404  1.00  0.00     0.003 C 
ATOM     16  C   UNL     1      37.088  25.006  46.846  1.00  0.00     0.000 C 
ATOM     17  C   UNL     1      36.048  25.540  45.850  1.00  0.00     0.031 C 
ATOM     18  C   UNL     1      36.366  26.950  45.473  1.00  0.00    -0.027 C 
ATOM     19  C   UNL     1      37.633  27.326  45.198  1.00  0.00    -0.065 C 
ATOM     20  C   UNL     1      38.754  26.277  45.195  1.00  0.00    -0.008 C 
ATOM     21  C   UNL     1      40.133  26.991  45.355  1.00  0.00     0.014 C 
ATOM     22  C   UNL     1      40.309  28.185  44.419  1.00  0.00     0.033 C 
ATOM     23  C   UNL     1      39.246  29.256  44.703  1.00  0.00     0.118 C 
ATOM     24  C   UNL     1      37.831  28.687  44.562  1.00  0.00     0.063 C 
ATOM     25  C   UNL     1      38.699  25.549  43.824  1.00  0.00     0.016 C 
ATOM     26  C   UNL     1      38.081  23.750  49.389  1.00  0.00     0.012 C 
ATOM     27  C   UNL     1      38.121  19.204  48.909  1.00  0.00     0.014 C 
ATOM     28  O   UNL     1      36.573  19.529  45.713  1.00  0.00    -0.349 OA
ATOM     29  C   UNL     1      37.236  18.297  45.492  1.00  0.00     0.167 C 
ENDROOT
BRANCH  23  30
ATOM     30  O   UNL     1      39.412  29.811  45.979  1.00  0.00    -0.393 OA
ATOM     31  H   UNL     1      38.873  29.250  46.594  1.00  0.00     0.210 HD
ENDBRANCH  23  30
TORSDOF 1
ENDMDL
MODEL 6
REMARK VINA RESULT:    -6.687      2.082      8.189
REMARK INTER + INTRA:          -6.882
REMARK INTER:                  -6.882
REMARK INTRA:                   0.000
REMARK UNBOUND:                 0.000
REMARK SMILES C[C@@H]1CC[C@@]2(OC1)O[C@@H]1C[C@H]3[C@@H]4CC=C5C[C@@H](O)CC[C@@]5(C)[C@@H]4CC[C@]3(C)[C@@H]1[C@H]2C
REMARK SMILES IDX 1 1 2 2 3 3 4 4 5 5 29 6 28 7 9 8 8 9 10 10 11 11 26 12
REMARK SMILES IDX 25 13 24 14 23 15 12 16 13 17 14 18 15 19 21 20 20 21 19 22
REMARK SMILES IDX 17 23 16 24 22 25 27 26 30 27 6 28 7 29 18 30
REMARK H PARENT 18 31
REMARK Flexibility Score: inf
ROOT
ATOM      1  C   UNL     1      43.331  28.927  44.372  1.00  0.00     0.010 C 
ATOM      2  C   UNL     1      42.016  29.147  43.614  1.00  0.00     0.012 C 
ATOM      3  C   UNL     1      41.075  30.103  44.355  1.00  0.00     0.011 C 
ATOM      4  C   UNL     1      40.411  29.432  45.569  1.00  0.00     0.066 C 
ATOM      5  C   UNL     1      39.932  27.956  45.320  1.00  0.00     0.171 C 
ATOM      6  C   UNL     1      38.513  27.745  44.675  1.00  0.00     0.052 C 
ATOM      7  C   UNL     1      37.616  27.234  45.820  1.00  0.00     0.033 C 
ATOM      8  C   UNL     1      38.543  27.305  47.035  1.00  0.00     0.126 C 
ATOM      9  O   UNL     1      39.883  27.367  46.600  1.00  0.00    -0.346 OA
ATOM     10  C   UNL     1      38.359  26.015  47.826  1.00  0.00     0.037 C 
ATOM     11  C   UNL     1      37.992  25.016  46.749  1.00  0.00     0.002 C 
ATOM     12  C   UNL     1      37.016  25.766  45.817  1.00  0.00    -0.024 C 
ATOM     13  C   UNL     1      36.866  24.948  44.477  1.00  0.00     0.008 C 
ATOM     14  C   UNL     1      37.244  23.447  44.610  1.00  0.00     0.005 C 
ATOM     15  C   UNL     1      36.923  22.805  46.005  1.00  0.00     0.003 C 
ATOM     16  C   UNL     1      37.447  23.656  47.226  1.00  0.00     0.000 C 
ATOM     17  C   UNL     1      38.486  22.927  48.093  1.00  0.00     0.031 C 
ATOM     18  C   UNL     1      38.002  21.557  48.441  1.00  0.00    -0.027 C 
ATOM     19  C   UNL     1      37.412  20.772  47.515  1.00  0.00    -0.065 C 
ATOM     20  C   UNL     1      37.304  21.260  46.063  1.00  0.00    -0.008 C 
ATOM     21  C   UNL     1      36.186  20.456  45.328  1.00  0.00     0.014 C 
ATOM     22  C   UNL     1      36.286  18.947  45.539  1.00  0.00     0.033 C 
ATOM     23  C   UNL     1      36.144  18.598  47.028  1.00  0.00     0.118 C 
ATOM     24  C   UNL     1      37.204  19.315  47.871  1.00  0.00     0.063 C 
ATOM     25  C   UNL     1      38.675  20.988  45.384  1.00  0.00     0.016 C 
ATOM     26  C   UNL     1      35.582  25.877  46.441  1.00  0.00     0.012 C 
ATOM     27  C   UNL     1      37.880  28.981  43.995  1.00  0.00     0.014 C 
ATOM     28  O   UNL     1      40.915  27.208  44.600  1.00  0.00    -0.349 OA
ATOM     29  C   UNL     1      41.279  27.821  43.376  1.00  0.00     0.167 C 
ENDROOT
BRANCH  23  30
ATOM     30  O   UNL     1      34.864  18.914  47.504  1.00  0.00    -0.393 OA
ATOM     31  H   UNL     1      34.609  19.763  47.061  1.00  0.00     0.210 HD
ENDBRANCH  23  30
TORSDOF 1
ENDMDL
MODEL 7
REMARK VINA RESULT:    -6.677      4.355      8.133
REMARK INTER + INTRA:          -6.873
REMARK INTER:                  -6.873
REMARK INTRA:                   0.000
REMARK UNBOUND:                 0.000
REMARK SMILES C[C@@H]1CC[C@@]2(OC1)O[C@@H]1C[C@H]3[C@@H]4CC=C5C[C@@H](O)CC[C@@]5(C)[C@@H]4CC[C@]3(C)[C@@H]1[C@H]2C
REMARK SMILES IDX 1 1 2 2 3 3 4 4 5 5 29 6 28 7 9 8 8 9 10 10 11 11 26 12
REMARK SMILES IDX 25 13 24 14 23 15 12 16 13 17 14 18 15 19 21 20 20 21 19 22
REMARK SMILES IDX 17 23 16 24 22 25 27 26 30 27 6 28 7 29 18 30
REMARK H PARENT 18 31
REMARK Flexibility Score: inf
ROOT
ATOM      1  C   UNL     1      31.502  20.754  40.958  1.00  0.00     0.010 C 
ATOM      2  C   UNL     1      32.326  22.044  41.047  1.00  0.00     0.012 C 
ATOM      3  C   UNL     1      33.649  21.939  40.282  1.00  0.00     0.011 C 
ATOM      4  C   UNL     1      34.680  21.079  41.031  1.00  0.00     0.066 C 
ATOM      5  C   UNL     1      34.732  21.322  42.583  1.00  0.00     0.171 C 
ATOM      6  C   UNL     1      35.625  22.504  43.111  1.00  0.00     0.052 C 
ATOM      7  C   UNL     1      36.853  21.830  43.755  1.00  0.00     0.033 C 
ATOM      8  C   UNL     1      36.630  20.349  43.446  1.00  0.00     0.126 C 
ATOM      9  O   UNL     1      35.274  20.137  43.121  1.00  0.00    -0.346 OA
ATOM     10  C   UNL     1      36.942  19.566  44.715  1.00  0.00     0.037 C 
ATOM     11  C   UNL     1      36.589  20.552  45.809  1.00  0.00     0.002 C 
ATOM     12  C   UNL     1      37.126  21.913  45.315  1.00  0.00    -0.024 C 
ATOM     13  C   UNL     1      36.491  23.057  46.196  1.00  0.00     0.008 C 
ATOM     14  C   UNL     1      35.973  22.573  47.579  1.00  0.00     0.005 C 
ATOM     15  C   UNL     1      36.796  21.402  48.221  1.00  0.00     0.003 C 
ATOM     16  C   UNL     1      37.057  20.198  47.234  1.00  0.00     0.000 C 
ATOM     17  C   UNL     1      36.438  18.870  47.696  1.00  0.00     0.031 C 
ATOM     18  C   UNL     1      36.790  18.602  49.123  1.00  0.00    -0.027 C 
ATOM     19  C   UNL     1      36.737  19.583  50.048  1.00  0.00    -0.065 C 
ATOM     20  C   UNL     1      36.233  20.978  49.649  1.00  0.00    -0.008 C 
ATOM     21  C   UNL     1      36.724  22.026  50.696  1.00  0.00     0.014 C 
ATOM     22  C   UNL     1      36.483  21.597  52.142  1.00  0.00     0.033 C 
ATOM     23  C   UNL     1      37.244  20.301  52.456  1.00  0.00     0.118 C 
ATOM     24  C   UNL     1      36.839  19.172  51.503  1.00  0.00     0.063 C 
ATOM     25  C   UNL     1      34.680  20.923  49.653  1.00  0.00     0.016 C 
ATOM     26  C   UNL     1      38.681  22.023  45.484  1.00  0.00     0.012 C 
ATOM     27  C   UNL     1      36.064  23.551  42.061  1.00  0.00     0.014 C 
ATOM     28  O   UNL     1      33.416  21.417  43.135  1.00  0.00    -0.349 OA
ATOM     29  C   UNL     1      32.630  22.414  42.506  1.00  0.00     0.167 C 
ENDROOT
BRANCH  23  30
ATOM     30  O   UNL     1      38.630  20.499  52.398  1.00  0.00    -0.393 OA
ATOM     31  H   UNL     1      38.940  20.032  51.581  1.00  0.00     0.210 HD
ENDBRANCH  23  30
TORSDOF 1
ENDMDL
MODEL 8
REMARK VINA RESULT:    -6.628      2.434      3.724
REMARK INTER + INTRA:          -6.822
REMARK INTER:                  -6.822
REMARK INTRA:                   0.000
REMARK UNBOUND:                 0.000
REMARK SMILES C[C@@H]1CC[C@@]2(OC1)O[C@@H]1C[C@H]3[C@@H]4CC=C5C[C@@H](O)CC[C@@]5(C)[C@@H]4CC[C@]3(C)[C@@H]1[C@H]2C
REMARK SMILES IDX 1 1 2 2 3 3 4 4 5 5 29 6 28 7 9 8 8 9 10 10 11 11 26 12
REMARK SMILES IDX 25 13 24 14 23 15 12 16 13 17 14 18 15 19 21 20 20 21 19 22
REMARK SMILES IDX 17 23 16 24 22 25 27 26 30 27 6 28 7 29 18 30
REMARK H PARENT 18 31
REMARK Flexibility Score: inf
ROOT
ATOM      1  C   UNL     1      36.127  21.131  42.573  1.00  0.00     0.010 C 
ATOM      2  C   UNL     1      36.913  20.993  43.883  1.00  0.00     0.012 C 
ATOM      3  C   UNL     1      36.013  21.144  45.115  1.00  0.00     0.011 C 
ATOM      4  C   UNL     1      35.615  22.609  45.360  1.00  0.00     0.066 C 
ATOM      5  C   UNL     1      36.776  23.647  45.151  1.00  0.00     0.171 C 
ATOM      6  C   UNL     1      37.748  23.915  46.358  1.00  0.00     0.052 C 
ATOM      7  C   UNL     1      37.367  25.312  46.886  1.00  0.00     0.033 C 
ATOM      8  C   UNL     1      36.153  25.679  46.032  1.00  0.00     0.126 C 
ATOM      9  O   UNL     1      36.129  24.870  44.877  1.00  0.00    -0.346 OA
ATOM     10  C   UNL     1      36.324  27.128  45.593  1.00  0.00     0.037 C 
ATOM     11  C   UNL     1      37.829  27.280  45.530  1.00  0.00     0.002 C 
ATOM     12  C   UNL     1      38.363  26.543  46.778  1.00  0.00    -0.024 C 
ATOM     13  C   UNL     1      39.916  26.325  46.612  1.00  0.00     0.008 C 
ATOM     14  C   UNL     1      40.584  27.302  45.605  1.00  0.00     0.005 C 
ATOM     15  C   UNL     1      39.944  28.733  45.547  1.00  0.00     0.003 C 
ATOM     16  C   UNL     1      38.373  28.716  45.398  1.00  0.00     0.000 C 
ATOM     17  C   UNL     1      37.864  29.374  44.107  1.00  0.00     0.031 C 
ATOM     18  C   UNL     1      38.499  30.714  43.922  1.00  0.00    -0.027 C 
ATOM     19  C   UNL     1      39.817  30.894  44.146  1.00  0.00    -0.065 C 
ATOM     20  C   UNL     1      40.696  29.692  44.523  1.00  0.00    -0.008 C 
ATOM     21  C   UNL     1      42.006  30.200  45.204  1.00  0.00     0.014 C 
ATOM     22  C   UNL     1      42.685  31.334  44.439  1.00  0.00     0.033 C 
ATOM     23  C   UNL     1      41.760  32.555  44.347  1.00  0.00     0.118 C 
ATOM     24  C   UNL     1      40.430  32.197  43.675  1.00  0.00     0.063 C 
ATOM     25  C   UNL     1      41.047  28.949  43.204  1.00  0.00     0.016 C 
ATOM     26  C   UNL     1      38.162  27.385  48.084  1.00  0.00     0.012 C 
ATOM     27  C   UNL     1      37.721  22.873  47.501  1.00  0.00     0.014 C 
ATOM     28  O   UNL     1      37.529  23.350  43.972  1.00  0.00    -0.349 OA
ATOM     29  C   UNL     1      38.042  22.029  43.970  1.00  0.00     0.167 C 
ENDROOT
BRANCH  23  30
ATOM     30  O   UNL     1      41.519  33.108  45.612  1.00  0.00    -0.393 OA
ATOM     31  H   UNL     1      41.945  34.003  45.606  1.00  0.00     0.210 HD
ENDBRANCH  23  30
TORSDOF 1
ENDMDL
MODEL 9
REMARK VINA RESULT:    -6.613      2.884      5.131
REMARK INTER + INTRA:          -6.806
REMARK INTER:                  -6.806
REMARK INTRA:                   0.000
REMARK UNBOUND:                 0.000
REMARK SMILES C[C@@H]1CC[C@@]2(OC1)O[C@@H]1C[C@H]3[C@@H]4CC=C5C[C@@H](O)CC[C@@]5(C)[C@@H]4CC[C@]3(C)[C@@H]1[C@H]2C
REMARK SMILES IDX 1 1 2 2 3 3 4 4 5 5 29 6 28 7 9 8 8 9 10 10 11 11 26 12
REMARK SMILES IDX 25 13 24 14 23 15 12 16 13 17 14 18 15 19 21 20 20 21 19 22
REMARK SMILES IDX 17 23 16 24 22 25 27 26 30 27 6 28 7 29 18 30
REMARK H PARENT 18 31
REMARK Flexibility Score: inf
ROOT
ATOM      1  C   UNL     1      33.064  16.017  44.195  1.00  0.00     0.010 C 
ATOM      2  C   UNL     1      34.566  15.807  43.969  1.00  0.00     0.012 C 
ATOM      3  C   UNL     1      35.240  15.123  45.162  1.00  0.00     0.011 C 
ATOM      4  C   UNL     1      35.425  16.086  46.348  1.00  0.00     0.066 C 
ATOM      5  C   UNL     1      35.896  17.531  45.951  1.00  0.00     0.171 C 
ATOM      6  C   UNL     1      37.439  17.775  45.767  1.00  0.00     0.052 C 
ATOM      7  C   UNL     1      37.872  18.594  46.999  1.00  0.00     0.033 C 
ATOM      8  C   UNL     1      36.593  18.652  47.835  1.00  0.00     0.126 C 
ATOM      9  O   UNL     1      35.482  18.356  47.017  1.00  0.00    -0.346 OA
ATOM     10  C   UNL     1      36.442  20.082  48.341  1.00  0.00     0.037 C 
ATOM     11  C   UNL     1      37.109  20.891  47.249  1.00  0.00     0.002 C 
ATOM     12  C   UNL     1      38.375  20.093  46.869  1.00  0.00    -0.024 C 
ATOM     13  C   UNL     1      38.934  20.651  45.503  1.00  0.00     0.008 C 
ATOM     14  C   UNL     1      38.469  22.097  45.176  1.00  0.00     0.005 C 
ATOM     15  C   UNL     1      38.270  23.026  46.425  1.00  0.00     0.003 C 
ATOM     16  C   UNL     1      37.401  22.371  47.567  1.00  0.00     0.000 C 
ATOM     17  C   UNL     1      36.100  23.129  47.872  1.00  0.00     0.031 C 
ATOM     18  C   UNL     1      36.378  24.586  48.049  1.00  0.00    -0.027 C 
ATOM     19  C   UNL     1      37.212  25.241  47.215  1.00  0.00    -0.065 C 
ATOM     20  C   UNL     1      37.826  24.500  46.018  1.00  0.00    -0.008 C 
ATOM     21  C   UNL     1      39.092  25.270  45.525  1.00  0.00     0.014 C 
ATOM     22  C   UNL     1      38.861  26.771  45.358  1.00  0.00     0.033 C 
ATOM     23  C   UNL     1      38.476  27.411  46.699  1.00  0.00     0.118 C 
ATOM     24  C   UNL     1      37.225  26.754  47.291  1.00  0.00     0.063 C 
ATOM     25  C   UNL     1      36.755  24.480  44.892  1.00  0.00     0.016 C 
ATOM     26  C   UNL     1      39.516  20.267  47.929  1.00  0.00     0.012 C 
ATOM     27  C   UNL     1      38.317  16.512  45.614  1.00  0.00     0.014 C 
ATOM     28  O   UNL     1      35.184  18.011  44.808  1.00  0.00    -0.349 OA
ATOM     29  C   UNL     1      35.282  17.138  43.696  1.00  0.00     0.167 C 
ENDROOT
BRANCH  23  30
ATOM     30  O   UNL     1      39.531  27.340  47.618  1.00  0.00    -0.393 OA
ATOM     31  H   UNL     1      39.999  28.212  47.566  1.00  0.00     0.210 HD
ENDBRANCH  23  30
TORSDOF 1
ENDMDL
