MODEL 1
REMARK VINA RESULT:    -0.698      0.000      0.000
REMARK INTER + INTRA:          -0.910
REMARK INTER:                  -0.780
REMARK INTRA:                  -0.130
REMARK UNBOUND:                -0.130
REMARK SMILES O=C([O-])C=Cc1ccccc1
REMARK SMILES IDX 4 1 5 2 2 3 1 4 3 5 6 6 7 7 11 8 8 9 10 10 9 11
REMARK H PARENT
REMARK Flexibility Score: inf
ROOT
ATOM      1  C   UNL     1      -2.183  -0.508   2.585  1.00  0.00     0.025 C 
ATOM      2  C   UNL     1      -3.467  -0.325   2.247  1.00  0.00     0.010 C 
ENDROOT
BRANCH   1   3
ATOM      3  C   UNL     1      -1.478   0.417   3.488  1.00  0.00     0.064 C 
ATOM      4  O   UNL     1      -2.122   1.022   4.384  1.00  0.00    -0.545 OA
ATOM      5  O   UNL     1      -0.109   0.632   3.370  1.00  0.00    -0.545 OA
ENDBRANCH   1   3
BRANCH   2   6
ATOM      6  C   UNL     1      -4.243  -1.217   1.343  1.00  0.00    -0.026 A 
ATOM      7  C   UNL     1      -4.262  -1.071  -0.063  1.00  0.00     0.008 A 
ATOM      8  C   UNL     1      -4.996  -2.256   1.920  1.00  0.00     0.008 A 
ATOM      9  C   UNL     1      -5.014  -1.944  -0.855  1.00  0.00     0.001 A 
ATOM     10  C   UNL     1      -5.746  -3.125   1.122  1.00  0.00     0.001 A 
ATOM     11  C   UNL     1      -5.755  -2.969  -0.264  1.00  0.00     0.000 A 
ENDBRANCH   2   6
TORSDOF 2
ENDMDL
MODEL 2
REMARK VINA RESULT:    -0.618      0.218      1.467
REMARK INTER + INTRA:          -0.820
REMARK INTER:                  -0.686
REMARK INTRA:                  -0.134
REMARK UNBOUND:                -0.130
REMARK SMILES O=C([O-])C=Cc1ccccc1
REMARK SMILES IDX 4 1 5 2 2 3 1 4 3 5 6 6 7 7 11 8 8 9 10 10 9 11
REMARK H PARENT
REMARK Flexibility Score: inf
ROOT
ATOM      1  C   UNL     1      -2.115  -0.499   2.435  1.00  0.00     0.025 C 
ATOM      2  C   UNL     1      -3.453  -0.476   2.353  1.00  0.00     0.010 C 
ENDROOT
BRANCH   1   3
ATOM      3  C   UNL     1      -1.382   0.335   3.402  1.00  0.00     0.064 C 
ATOM      4  O   UNL     1      -2.020   1.001   4.258  1.00  0.00    -0.545 OA
ATOM      5  O   UNL     1       0.008   0.396   3.387  1.00  0.00    -0.545 OA
ENDBRANCH   1   3
BRANCH   2   6
ATOM      6  C   UNL     1      -4.261  -1.289   1.404  1.00  0.00    -0.026 A 
ATOM      7  C   UNL     1      -5.034  -2.404   1.799  1.00  0.00     0.008 A 
ATOM      8  C   UNL     1      -4.252  -0.926   0.044  1.00  0.00     0.008 A 
ATOM      9  C   UNL     1      -5.771  -3.125   0.854  1.00  0.00     0.001 A 
ATOM     10  C   UNL     1      -4.991  -1.651  -0.895  1.00  0.00     0.001 A 
ATOM     11  C   UNL     1      -5.749  -2.750  -0.490  1.00  0.00     0.000 A 
ENDBRANCH   2   6
TORSDOF 2
ENDMDL
MODEL 3
REMARK VINA RESULT:     0.509      0.586      1.807
REMARK INTER + INTRA:           0.439
REMARK INTER:                   0.573
REMARK INTRA:                  -0.134
REMARK UNBOUND:                -0.130
REMARK SMILES O=C([O-])C=Cc1ccccc1
REMARK SMILES IDX 4 1 5 2 2 3 1 4 3 5 6 6 7 7 11 8 8 9 10 10 9 11
REMARK H PARENT
REMARK Flexibility Score: inf
ROOT
ATOM      1  C   UNL     1      -2.982  -0.216   2.948  1.00  0.00     0.025 C 
ATOM      2  C   UNL     1      -2.962  -0.537   1.647  1.00  0.00     0.010 C 
ENDROOT
BRANCH   1   3
ATOM      3  C   UNL     1      -1.954   0.648   3.552  1.00  0.00     0.064 C 
ATOM      4  O   UNL     1      -0.933   0.957   2.884  1.00  0.00    -0.545 OA
ATOM      5  O   UNL     1      -2.093   1.130   4.849  1.00  0.00    -0.545 OA
ENDBRANCH   1   3
BRANCH   2   6
ATOM      6  C   UNL     1      -3.965  -1.401   0.968  1.00  0.00    -0.026 A 
ATOM      7  C   UNL     1      -4.787  -2.324   1.655  1.00  0.00     0.008 A 
ATOM      8  C   UNL     1      -4.099  -1.292  -0.428  1.00  0.00     0.008 A 
ATOM      9  C   UNL     1      -5.711  -3.106   0.954  1.00  0.00     0.001 A 
ATOM     10  C   UNL     1      -5.025  -2.078  -1.122  1.00  0.00     0.001 A 
ATOM     11  C   UNL     1      -5.830  -2.984  -0.430  1.00  0.00     0.000 A 
ENDBRANCH   2   6
TORSDOF 2
ENDMDL
MODEL 4
REMARK VINA RESULT:     1.279      3.266      5.382
REMARK INTER + INTRA:           1.299
REMARK INTER:                   1.425
REMARK INTRA:                  -0.126
REMARK UNBOUND:                -0.130
REMARK SMILES O=C([O-])C=Cc1ccccc1
REMARK SMILES IDX 4 1 5 2 2 3 1 4 3 5 6 6 7 7 11 8 8 9 10 10 9 11
REMARK H PARENT
REMARK Flexibility Score: inf
ROOT
ATOM      1  C   UNL     1      -4.537  -2.334   1.218  1.00  0.00     0.025 C 
ATOM      2  C   UNL     1      -4.076  -1.075   1.188  1.00  0.00     0.010 C 
ENDROOT
BRANCH   1   3
ATOM      3  C   UNL     1      -5.386  -2.877   0.145  1.00  0.00     0.064 C 
ATOM      4  O   UNL     1      -6.598  -3.120   0.375  1.00  0.00    -0.545 OA
ATOM      5  O   UNL     1      -4.869  -3.124  -1.123  1.00  0.00    -0.545 OA
ENDBRANCH   1   3
BRANCH   2   6
ATOM      6  C   UNL     1      -3.215  -0.459   2.234  1.00  0.00    -0.026 A 
ATOM      7  C   UNL     1      -3.672  -0.153   3.535  1.00  0.00     0.008 A 
ATOM      8  C   UNL     1      -1.878  -0.168   1.906  1.00  0.00     0.008 A 
ATOM      9  C   UNL     1      -2.809   0.426   4.471  1.00  0.00     0.001 A 
ATOM     10  C   UNL     1      -1.020   0.411   2.846  1.00  0.00     0.001 A 
ATOM     11  C   UNL     1      -1.486   0.708   4.127  1.00  0.00     0.000 A 
ENDBRANCH   2   6
TORSDOF 2
ENDMDL
