MODEL 1
REMARK VINA RESULT:     1.964      0.000      0.000
REMARK INTER + INTRA:           7.792
REMARK INTER:                   2.882
REMARK INTRA:                   4.909
REMARK UNBOUND:                 4.909
REMARK SMILES Cc1cc2c(C(C)C)c(O)c(O)c(C=O)c2c(O)c1-c1c(C)cc2c(C(C)C)c(O)c(O)c(C=O)c2c1O
REMARK SMILES IDX 1 1 2 2 3 3 4 4 16 5 13 6 11 7 9 8 5 9 17 10 19 11 20 12
REMARK SMILES IDX 37 13 21 14 36 15 23 16 22 17 24 18 33 19 25 20 31 21 29 22
REMARK SMILES IDX 38 23 34 25 35 26 26 27 27 28 28 29 32 30 30 32 18 34 6 36
REMARK SMILES IDX 7 37 8 38 14 39 15 40 10 41 12 43
REMARK H PARENT 38 24 32 31 30 33 18 35 10 42 12 44
REMARK Flexibility Score: inf
ROOT
ATOM      1  C   UNL     1      15.586  17.541  48.802  1.00  0.00     0.045 C 
ATOM      2  C   UNL     1      14.173  17.756  48.314  1.00  0.00    -0.039 A 
ATOM      3  C   UNL     1      13.338  16.652  48.136  1.00  0.00     0.013 A 
ATOM      4  C   UNL     1      11.996  16.784  47.720  1.00  0.00    -0.006 A 
ATOM      5  C   UNL     1      11.483  18.096  47.489  1.00  0.00     0.039 A 
ATOM      6  C   UNL     1      10.095  18.262  47.214  1.00  0.00     0.072 A 
ATOM      7  C   UNL     1       9.265  17.130  47.083  1.00  0.00     0.169 A 
ATOM      8  C   UNL     1       9.798  15.842  47.195  1.00  0.00     0.162 A 
ATOM      9  C   UNL     1      11.155  15.640  47.535  1.00  0.00     0.008 A 
ATOM     10  C   UNL     1      12.382  19.205  47.519  1.00  0.00     0.132 A 
ATOM     11  C   UNL     1      13.709  19.034  47.965  1.00  0.00     0.031 A 
ENDROOT
BRANCH  11  12
ATOM     12  C   UNL     1      14.618  20.206  48.071  1.00  0.00     0.031 A 
ATOM     13  C   UNL     1      14.161  21.412  48.645  1.00  0.00     0.132 A 
ATOM     14  C   UNL     1      15.920  20.127  47.549  1.00  0.00    -0.039 A 
ATOM     15  C   UNL     1      15.030  22.538  48.747  1.00  0.00     0.039 A 
ATOM     16  C   UNL     1      16.744  21.254  47.575  1.00  0.00     0.013 A 
ATOM     17  C   UNL     1      16.414  18.870  46.875  1.00  0.00     0.045 C 
ATOM     18  C   UNL     1      16.335  22.463  48.177  1.00  0.00    -0.006 A 
ATOM     19  C   UNL     1      14.615  23.756  49.359  1.00  0.00     0.072 A 
ATOM     20  C   UNL     1      17.180  23.614  48.175  1.00  0.00     0.008 A 
ATOM     21  C   UNL     1      15.380  24.923  49.181  1.00  0.00     0.169 A 
ATOM     22  C   UNL     1      16.618  24.863  48.512  1.00  0.00     0.162 A 
BRANCH  13  23
ATOM     23  O   UNL     1      12.831  21.510  49.070  1.00  0.00    -0.507 OA
ATOM     24  H   UNL     1      12.515  21.297  50.008  1.00  0.00     0.293 HD
ENDBRANCH  13  23
BRANCH  19  25
ATOM     25  C   UNL     1      13.449  23.815  50.273  1.00  0.00     0.264 C 
ATOM     26  O   UNL     1      12.341  24.279  49.895  1.00  0.00    -0.298 OA
ENDBRANCH  19  25
BRANCH  20  27
ATOM     27  C   UNL     1      18.661  23.532  47.768  1.00  0.00     0.017 C 
ATOM     28  C   UNL     1      19.057  24.714  46.875  1.00  0.00     0.012 C 
ATOM     29  C   UNL     1      19.628  23.391  48.960  1.00  0.00     0.012 C 
ENDBRANCH  20  27
BRANCH  21  30
ATOM     30  O   UNL     1      14.912  26.125  49.722  1.00  0.00    -0.504 OA
ATOM     31  H   UNL     1      15.418  27.000  49.699  1.00  0.00     0.293 HD
ENDBRANCH  21  30
BRANCH  22  32
ATOM     32  O   UNL     1      17.301  26.030  48.164  1.00  0.00    -0.504 OA
ATOM     33  H   UNL     1      17.153  26.537  47.301  1.00  0.00     0.293 HD
ENDBRANCH  22  32
ENDBRANCH  11  12
BRANCH  10  34
ATOM     34  O   UNL     1      11.966  20.465  47.071  1.00  0.00    -0.507 OA
ATOM     35  H   UNL     1      11.090  20.633  46.594  1.00  0.00     0.293 HD
ENDBRANCH  10  34
BRANCH   9  36
ATOM     36  C   UNL     1      11.656  14.183  47.652  1.00  0.00     0.017 C 
ATOM     37  C   UNL     1      10.732  13.197  46.920  1.00  0.00     0.012 C 
ATOM     38  C   UNL     1      13.144  14.006  47.289  1.00  0.00     0.012 C 
ENDBRANCH   9  36
BRANCH   6  39
ATOM     39  C   UNL     1       9.475  19.602  47.176  1.00  0.00     0.264 C 
ATOM     40  O   UNL     1       8.224  19.738  47.236  1.00  0.00    -0.298 OA
ENDBRANCH   6  39
BRANCH   8  41
ATOM     41  O   UNL     1       8.959  14.743  46.984  1.00  0.00    -0.504 OA
ATOM     42  H   UNL     1       8.176  14.759  46.339  1.00  0.00     0.293 HD
ENDBRANCH   8  41
BRANCH   7  43
ATOM     43  O   UNL     1       7.886  17.248  46.875  1.00  0.00    -0.504 OA
ATOM     44  H   UNL     1       7.463  17.733  46.095  1.00  0.00     0.293 HD
ENDBRANCH   7  43
TORSDOF 11
ENDMDL
MODEL 2
REMARK VINA RESULT:     4.164      2.201      9.264
REMARK INTER + INTRA:          11.021
REMARK INTER:                   8.674
REMARK INTRA:                   2.347
REMARK UNBOUND:                 4.909
REMARK SMILES Cc1cc2c(C(C)C)c(O)c(O)c(C=O)c2c(O)c1-c1c(C)cc2c(C(C)C)c(O)c(O)c(C=O)c2c1O
REMARK SMILES IDX 1 1 2 2 3 3 4 4 16 5 13 6 11 7 9 8 5 9 17 10 19 11 20 12
REMARK SMILES IDX 37 13 21 14 36 15 23 16 22 17 24 18 33 19 25 20 31 21 29 22
REMARK SMILES IDX 38 23 34 25 35 26 26 27 27 28 28 29 32 30 30 32 18 34 6 36
REMARK SMILES IDX 7 37 8 38 14 39 15 40 10 41 12 43
REMARK H PARENT 38 24 32 31 30 33 18 35 10 42 12 44
REMARK Flexibility Score: inf
ROOT
ATOM      1  C   UNL     1      12.245  22.536  49.921  1.00  0.00     0.045 C 
ATOM      2  C   UNL     1      13.568  22.420  49.203  1.00  0.00    -0.039 A 
ATOM      3  C   UNL     1      14.477  23.477  49.274  1.00  0.00     0.013 A 
ATOM      4  C   UNL     1      15.745  23.420  48.659  1.00  0.00    -0.006 A 
ATOM      5  C   UNL     1      16.106  22.232  47.955  1.00  0.00     0.039 A 
ATOM      6  C   UNL     1      17.433  22.095  47.456  1.00  0.00     0.072 A 
ATOM      7  C   UNL     1      18.344  23.163  47.579  1.00  0.00     0.169 A 
ATOM      8  C   UNL     1      17.949  24.368  48.167  1.00  0.00     0.162 A 
ATOM      9  C   UNL     1      16.663  24.518  48.735  1.00  0.00     0.008 A 
ATOM     10  C   UNL     1      15.117  21.222  47.753  1.00  0.00     0.132 A 
ATOM     11  C   UNL     1      13.870  21.304  48.406  1.00  0.00     0.031 A 
ENDROOT
BRANCH  11  12
ATOM     12  C   UNL     1      12.874  20.211  48.257  1.00  0.00     0.031 A 
ATOM     13  C   UNL     1      13.131  18.935  48.803  1.00  0.00     0.132 A 
ATOM     14  C   UNL     1      11.698  20.435  47.522  1.00  0.00    -0.039 A 
ATOM     15  C   UNL     1      12.179  17.883  48.659  1.00  0.00     0.039 A 
ATOM     16  C   UNL     1      10.803  19.384  47.313  1.00  0.00     0.013 A 
ATOM     17  C   UNL     1      11.427  21.772  46.875  1.00  0.00     0.045 C 
ATOM     18  C   UNL     1      11.007  18.107  47.878  1.00  0.00    -0.006 A 
ATOM     19  C   UNL     1      12.386  16.596  49.235  1.00  0.00     0.072 A 
ATOM     20  C   UNL     1      10.095  17.035  47.635  1.00  0.00     0.008 A 
ATOM     21  C   UNL     1      11.584  15.513  48.832  1.00  0.00     0.169 A 
ATOM     22  C   UNL     1      10.495  15.723  47.964  1.00  0.00     0.162 A 
BRANCH  13  23
ATOM     23  O   UNL     1      14.351  18.695  49.444  1.00  0.00    -0.507 OA
ATOM     24  H   UNL     1      14.830  19.369  50.031  1.00  0.00     0.293 HD
ENDBRANCH  13  23
BRANCH  19  25
ATOM     25  C   UNL     1      13.360  16.377  50.331  1.00  0.00     0.264 C 
ATOM     26  O   UNL     1      13.221  16.930  51.454  1.00  0.00    -0.298 OA
ENDBRANCH  19  25
BRANCH  20  27
ATOM     27  C   UNL     1       8.723  17.271  46.982  1.00  0.00     0.017 C 
ATOM     28  C   UNL     1       7.875  15.994  46.998  1.00  0.00     0.012 C 
ATOM     29  C   UNL     1       7.945  18.460  47.580  1.00  0.00     0.012 C 
ENDBRANCH  20  27
BRANCH  21  30
ATOM     30  O   UNL     1      11.857  14.243  49.349  1.00  0.00    -0.504 OA
ATOM     31  H   UNL     1      12.170  14.063  50.293  1.00  0.00     0.293 HD
ENDBRANCH  21  30
BRANCH  22  32
ATOM     32  O   UNL     1       9.804  14.645  47.408  1.00  0.00    -0.504 OA
ATOM     33  H   UNL     1       8.798  14.603  47.315  1.00  0.00     0.293 HD
ENDBRANCH  22  32
ENDBRANCH  11  12
BRANCH  10  34
ATOM     34  O   UNL     1      15.362  20.157  46.875  1.00  0.00    -0.507 OA
ATOM     35  H   UNL     1      14.882  19.268  46.921  1.00  0.00     0.293 HD
ENDBRANCH  10  34
BRANCH   9  36
ATOM     36  C   UNL     1      16.315  25.880  49.376  1.00  0.00     0.017 C 
ATOM     37  C   UNL     1      14.798  26.125  49.418  1.00  0.00     0.012 C 
ATOM     38  C   UNL     1      17.010  26.125  50.730  1.00  0.00     0.012 C 
ENDBRANCH   9  36
BRANCH   6  39
ATOM     39  C   UNL     1      17.919  20.811  46.909  1.00  0.00     0.264 C 
ATOM     40  O   UNL     1      17.622  19.718  47.462  1.00  0.00    -0.298 OA
ENDBRANCH   6  39
BRANCH   8  41
ATOM     41  O   UNL     1      18.857  25.432  48.204  1.00  0.00    -0.504 OA
ATOM     42  H   UNL     1      18.652  26.321  48.646  1.00  0.00     0.293 HD
ENDBRANCH   8  41
BRANCH   7  43
ATOM     43  O   UNL     1      19.675  23.049  47.160  1.00  0.00    -0.504 OA
ATOM     44  H   UNL     1      20.097  23.611  46.433  1.00  0.00     0.293 HD
ENDBRANCH   7  43
TORSDOF 11
ENDMDL
