MODEL 1
REMARK VINA RESULT:    -4.040      0.000      0.000
REMARK INTER + INTRA:          -8.784
REMARK INTER:                  -7.347
REMARK INTRA:                  -1.437
REMARK UNBOUND:                -1.437
REMARK SMILES CCCCCCCCCCCCCCCC(=O)[O-]
REMARK SMILES IDX 9 1 10 2 11 3 12 4 13 5 14 6 15 7 16 8 17 9 18 10 8 11 7 12
REMARK SMILES IDX 6 13 5 14 4 15 3 16 2 17 1 18
REMARK H PARENT
REMARK Flexibility Score: inf
ROOT
ATOM      1  C   UNL     1      -7.509  -9.153   0.286  1.00  0.00     0.000 C 
ENDROOT
BRANCH   1   2
ATOM      2  C   UNL     1      -7.375  -7.721  -0.255  1.00  0.00     0.000 C 
BRANCH   2   3
ATOM      3  C   UNL     1      -6.763  -6.790   0.799  1.00  0.00     0.000 C 
BRANCH   3   4
ATOM      4  C   UNL     1      -7.207  -7.196   2.213  1.00  0.00     0.000 C 
BRANCH   4   5
ATOM      5  C   UNL     1      -7.831  -6.029   2.996  1.00  0.00     0.000 C 
BRANCH   5   6
ATOM      6  C   UNL     1      -8.850  -5.233   2.163  1.00  0.00     0.006 C 
BRANCH   6   7
ATOM      7  C   UNL     1     -10.233  -5.191   2.827  1.00  0.00     0.053 C 
BRANCH   7   8
ATOM      8  C   UNL     1     -11.220  -4.419   2.007  1.00  0.00     0.041 C 
ATOM      9  O   UNL     1     -11.350  -4.661   0.778  1.00  0.00    -0.550 OA
ATOM     10  O   UNL     1     -11.977  -3.414   2.594  1.00  0.00    -0.550 OA
ENDBRANCH   7   8
ENDBRANCH   6   7
ENDBRANCH   5   6
ENDBRANCH   4   5
ENDBRANCH   3   4
ENDBRANCH   2   3
ENDBRANCH   1   2
BRANCH   1  11
ATOM     11  C   UNL     1      -6.766 -10.190  -0.575  1.00  0.00     0.000 C 
BRANCH  11  12
ATOM     12  C   UNL     1      -5.531 -10.826   0.091  1.00  0.00    -0.000 C 
BRANCH  12  13
ATOM     13  C   UNL     1      -5.034 -10.110   1.363  1.00  0.00    -0.000 C 
BRANCH  13  14
ATOM     14  C   UNL     1      -5.140 -10.968   2.641  1.00  0.00    -0.000 C 
BRANCH  14  15
ATOM     15  C   UNL     1      -6.347 -11.919   2.613  1.00  0.00    -0.000 C 
BRANCH  15  16
ATOM     16  C   UNL     1      -5.923 -13.356   2.938  1.00  0.00    -0.000 C 
BRANCH  16  17
ATOM     17  C   UNL     1      -6.694 -14.365   2.079  1.00  0.00    -0.003 C 
ATOM     18  C   UNL     1      -6.208 -14.343   0.634  1.00  0.00     0.004 C 
ENDBRANCH  16  17
ENDBRANCH  15  16
ENDBRANCH  14  15
ENDBRANCH  13  14
ENDBRANCH  12  13
ENDBRANCH  11  12
ENDBRANCH   1  11
TORSDOF 14
ENDMDL
MODEL 2
REMARK VINA RESULT:    -3.905      3.514      5.869
REMARK INTER + INTRA:          -8.538
REMARK INTER:                  -7.745
REMARK INTRA:                  -0.793
REMARK UNBOUND:                -1.437
REMARK SMILES CCCCCCCCCCCCCCCC(=O)[O-]
REMARK SMILES IDX 9 1 10 2 11 3 12 4 13 5 14 6 15 7 16 8 17 9 18 10 8 11 7 12
REMARK SMILES IDX 6 13 5 14 4 15 3 16 2 17 1 18
REMARK H PARENT
REMARK Flexibility Score: inf
ROOT
ATOM      1  C   UNL     1      -6.325 -13.737   0.308  1.00  0.00     0.000 C 
ENDROOT
BRANCH   1   2
ATOM      2  C   UNL     1      -5.517 -12.921   1.328  1.00  0.00     0.000 C 
BRANCH   2   3
ATOM      3  C   UNL     1      -6.249 -11.625   1.698  1.00  0.00     0.000 C 
BRANCH   3   4
ATOM      4  C   UNL     1      -5.761 -10.453   0.832  1.00  0.00     0.000 C 
BRANCH   4   5
ATOM      5  C   UNL     1      -6.655 -10.212  -0.396  1.00  0.00     0.000 C 
BRANCH   5   6
ATOM      6  C   UNL     1      -7.679  -9.087  -0.172  1.00  0.00     0.006 C 
BRANCH   6   7
ATOM      7  C   UNL     1      -7.056  -7.694  -0.339  1.00  0.00     0.053 C 
BRANCH   7   8
ATOM      8  C   UNL     1      -7.098  -6.909   0.936  1.00  0.00     0.041 C 
ATOM      9  O   UNL     1      -7.653  -7.390   1.958  1.00  0.00    -0.550 OA
ATOM     10  O   UNL     1      -6.550  -5.634   0.986  1.00  0.00    -0.550 OA
ENDBRANCH   7   8
ENDBRANCH   6   7
ENDBRANCH   5   6
ENDBRANCH   4   5
ENDBRANCH   3   4
ENDBRANCH   2   3
ENDBRANCH   1   2
BRANCH   1  11
ATOM     11  C   UNL     1      -6.700 -15.138   0.823  1.00  0.00     0.000 C 
BRANCH  11  12
ATOM     12  C   UNL     1      -5.672 -15.779   1.776  1.00  0.00    -0.000 C 
BRANCH  12  13
ATOM     13  C   UNL     1      -5.561 -17.313   1.682  1.00  0.00    -0.000 C 
BRANCH  13  14
ATOM     14  C   UNL     1      -5.125 -17.821   0.292  1.00  0.00    -0.000 C 
BRANCH  14  15
ATOM     15  C   UNL     1      -5.511 -19.290   0.055  1.00  0.00    -0.000 C 
BRANCH  15  16
ATOM     16  C   UNL     1      -7.033 -19.453  -0.023  1.00  0.00    -0.000 C 
BRANCH  16  17
ATOM     17  C   UNL     1      -7.424 -20.459  -1.111  1.00  0.00    -0.003 C 
ATOM     18  C   UNL     1      -6.257 -20.733  -2.053  1.00  0.00     0.004 C 
ENDBRANCH  16  17
ENDBRANCH  15  16
ENDBRANCH  14  15
ENDBRANCH  13  14
ENDBRANCH  12  13
ENDBRANCH  11  12
ENDBRANCH   1  11
TORSDOF 14
ENDMDL
MODEL 3
REMARK VINA RESULT:    -3.859      6.387     10.687
REMARK INTER + INTRA:          -8.454
REMARK INTER:                  -7.752
REMARK INTRA:                  -0.702
REMARK UNBOUND:                -1.437
REMARK SMILES CCCCCCCCCCCCCCCC(=O)[O-]
REMARK SMILES IDX 9 1 10 2 11 3 12 4 13 5 14 6 15 7 16 8 17 9 18 10 8 11 7 12
REMARK SMILES IDX 6 13 5 14 4 15 3 16 2 17 1 18
REMARK H PARENT
REMARK Flexibility Score: inf
ROOT
ATOM      1  C   UNL     1      -6.310 -13.736   1.449  1.00  0.00     0.000 C 
ENDROOT
BRANCH   1   2
ATOM      2  C   UNL     1      -6.397 -15.165   0.891  1.00  0.00     0.000 C 
BRANCH   2   3
ATOM      3  C   UNL     1      -5.014 -15.827   0.857  1.00  0.00     0.000 C 
BRANCH   3   4
ATOM      4  C   UNL     1      -5.138 -17.349   0.689  1.00  0.00     0.000 C 
BRANCH   4   5
ATOM      5  C   UNL     1      -6.588 -17.843   0.818  1.00  0.00     0.000 C 
BRANCH   5   6
ATOM      6  C   UNL     1      -6.780 -19.266   0.267  1.00  0.00     0.006 C 
BRANCH   6   7
ATOM      7  C   UNL     1      -5.699 -19.641  -0.757  1.00  0.00     0.053 C 
BRANCH   7   8
ATOM      8  C   UNL     1      -6.232 -20.553  -1.819  1.00  0.00     0.041 C 
ATOM      9  O   UNL     1      -5.502 -20.893  -2.787  1.00  0.00    -0.550 OA
ATOM     10  O   UNL     1      -7.544 -21.004  -1.755  1.00  0.00    -0.550 OA
ENDBRANCH   7   8
ENDBRANCH   6   7
ENDBRANCH   5   6
ENDBRANCH   4   5
ENDBRANCH   3   4
ENDBRANCH   2   3
ENDBRANCH   1   2
BRANCH   1  11
ATOM     11  C   UNL     1      -5.850 -12.709   0.397  1.00  0.00     0.000 C 
BRANCH  11  12
ATOM     12  C   UNL     1      -5.112 -11.481   0.965  1.00  0.00    -0.000 C 
BRANCH  12  13
ATOM     13  C   UNL     1      -5.874 -10.147   0.841  1.00  0.00    -0.000 C 
BRANCH  13  14
ATOM     14  C   UNL     1      -6.731 -10.037  -0.438  1.00  0.00    -0.000 C 
BRANCH  14  15
ATOM     15  C   UNL     1      -7.694  -8.840  -0.399  1.00  0.00    -0.000 C 
BRANCH  15  16
ATOM     16  C   UNL     1      -6.925  -7.514  -0.386  1.00  0.00    -0.000 C 
BRANCH  16  17
ATOM     17  C   UNL     1      -7.319  -6.661   0.825  1.00  0.00    -0.003 C 
ATOM     18  C   UNL     1      -6.318  -5.533   1.054  1.00  0.00     0.004 C 
ENDBRANCH  16  17
ENDBRANCH  15  16
ENDBRANCH  14  15
ENDBRANCH  13  14
ENDBRANCH  12  13
ENDBRANCH  11  12
ENDBRANCH   1  11
TORSDOF 14
ENDMDL
MODEL 4
REMARK VINA RESULT:    -3.811     19.871     22.027
REMARK INTER + INTRA:          -8.367
REMARK INTER:                  -5.829
REMARK INTRA:                  -2.538
REMARK UNBOUND:                -1.437
REMARK SMILES CCCCCCCCCCCCCCCC(=O)[O-]
REMARK SMILES IDX 9 1 10 2 11 3 12 4 13 5 14 6 15 7 16 8 17 9 18 10 8 11 7 12
REMARK SMILES IDX 6 13 5 14 4 15 3 16 2 17 1 18
REMARK H PARENT
REMARK Flexibility Score: inf
ROOT
ATOM      1  C   UNL     1     -20.777  -5.910 -16.915  1.00  0.00     0.000 C 
ENDROOT
BRANCH   1   2
ATOM      2  C   UNL     1     -22.068  -6.727 -17.081  1.00  0.00     0.000 C 
BRANCH   2   3
ATOM      3  C   UNL     1     -22.986  -6.559 -15.865  1.00  0.00     0.000 C 
BRANCH   3   4
ATOM      4  C   UNL     1     -24.367  -6.036 -16.288  1.00  0.00     0.000 C 
BRANCH   4   5
ATOM      5  C   UNL     1     -24.932  -4.994 -15.309  1.00  0.00     0.000 C 
BRANCH   5   6
ATOM      6  C   UNL     1     -23.865  -4.444 -14.347  1.00  0.00     0.006 C 
BRANCH   6   7
ATOM      7  C   UNL     1     -23.658  -2.933 -14.515  1.00  0.00     0.053 C 
BRANCH   7   8
ATOM      8  C   UNL     1     -23.080  -2.310 -13.281  1.00  0.00     0.041 C 
ATOM      9  O   UNL     1     -23.665  -2.437 -12.174  1.00  0.00    -0.550 OA
ATOM     10  O   UNL     1     -21.910  -1.567 -13.360  1.00  0.00    -0.550 OA
ENDBRANCH   7   8
ENDBRANCH   6   7
ENDBRANCH   5   6
ENDBRANCH   4   5
ENDBRANCH   3   4
ENDBRANCH   2   3
ENDBRANCH   1   2
BRANCH   1  11
ATOM     11  C   UNL     1     -21.042  -4.403 -16.740  1.00  0.00     0.000 C 
BRANCH  11  12
ATOM     12  C   UNL     1     -20.201  -3.716 -15.647  1.00  0.00    -0.000 C 
BRANCH  12  13
ATOM     13  C   UNL     1     -19.531  -4.672 -14.641  1.00  0.00    -0.000 C 
BRANCH  13  14
ATOM     14  C   UNL     1     -20.241  -4.730 -13.272  1.00  0.00    -0.000 C 
BRANCH  14  15
ATOM     15  C   UNL     1     -20.779  -6.132 -12.947  1.00  0.00    -0.000 C 
BRANCH  15  16
ATOM     16  C   UNL     1     -19.987  -7.212 -13.693  1.00  0.00    -0.000 C 
BRANCH  16  17
ATOM     17  C   UNL     1     -20.744  -8.545 -13.696  1.00  0.00    -0.003 C 
ATOM     18  C   UNL     1     -20.086  -9.554 -12.761  1.00  0.00     0.004 C 
ENDBRANCH  16  17
ENDBRANCH  15  16
ENDBRANCH  14  15
ENDBRANCH  13  14
ENDBRANCH  12  13
ENDBRANCH  11  12
ENDBRANCH   1  11
TORSDOF 14
ENDMDL
MODEL 5
REMARK VINA RESULT:    -3.804     19.358     21.662
REMARK INTER + INTRA:          -8.354
REMARK INTER:                  -5.863
REMARK INTRA:                  -2.491
REMARK UNBOUND:                -1.437
REMARK SMILES CCCCCCCCCCCCCCCC(=O)[O-]
REMARK SMILES IDX 9 1 10 2 11 3 12 4 13 5 14 6 15 7 16 8 17 9 18 10 8 11 7 12
REMARK SMILES IDX 6 13 5 14 4 15 3 16 2 17 1 18
REMARK H PARENT
REMARK Flexibility Score: inf
ROOT
ATOM      1  C   UNL     1     -21.855  -2.428 -16.160  1.00  0.00     0.000 C 
ENDROOT
BRANCH   1   2
ATOM      2  C   UNL     1     -23.336  -2.836 -16.205  1.00  0.00     0.000 C 
BRANCH   2   3
ATOM      3  C   UNL     1     -23.486  -4.362 -16.182  1.00  0.00     0.000 C 
BRANCH   3   4
ATOM      4  C   UNL     1     -24.176  -4.826 -14.890  1.00  0.00     0.000 C 
BRANCH   4   5
ATOM      5  C   UNL     1     -24.104  -3.778 -13.769  1.00  0.00     0.000 C 
BRANCH   5   6
ATOM      6  C   UNL     1     -23.209  -4.221 -12.599  1.00  0.00     0.006 C 
BRANCH   6   7
ATOM      7  C   UNL     1     -21.937  -3.370 -12.489  1.00  0.00     0.053 C 
BRANCH   7   8
ATOM      8  C   UNL     1     -22.243  -1.961 -12.084  1.00  0.00     0.041 C 
ATOM      9  O   UNL     1     -22.265  -1.044 -12.946  1.00  0.00    -0.550 OA
ATOM     10  O   UNL     1     -22.477  -1.656 -10.749  1.00  0.00    -0.550 OA
ENDBRANCH   7   8
ENDBRANCH   6   7
ENDBRANCH   5   6
ENDBRANCH   4   5
ENDBRANCH   3   4
ENDBRANCH   2   3
ENDBRANCH   1   2
BRANCH   1  11
ATOM     11  C   UNL     1     -20.901  -3.609 -16.411  1.00  0.00     0.000 C 
BRANCH  11  12
ATOM     12  C   UNL     1     -19.722  -3.715 -15.425  1.00  0.00    -0.000 C 
BRANCH  12  13
ATOM     13  C   UNL     1     -19.627  -5.051 -14.661  1.00  0.00    -0.000 C 
BRANCH  13  14
ATOM     14  C   UNL     1     -20.458  -6.188 -15.292  1.00  0.00    -0.000 C 
BRANCH  14  15
ATOM     15  C   UNL     1     -21.270  -6.971 -14.249  1.00  0.00    -0.000 C 
BRANCH  15  16
ATOM     16  C   UNL     1     -20.596  -6.918 -12.873  1.00  0.00    -0.000 C 
BRANCH  16  17
ATOM     17  C   UNL     1     -20.657  -8.283 -12.177  1.00  0.00    -0.003 C 
ATOM     18  C   UNL     1     -20.184  -9.397 -13.105  1.00  0.00     0.004 C 
ENDBRANCH  16  17
ENDBRANCH  15  16
ENDBRANCH  14  15
ENDBRANCH  13  14
ENDBRANCH  12  13
ENDBRANCH  11  12
ENDBRANCH   1  11
TORSDOF 14
ENDMDL
MODEL 6
REMARK VINA RESULT:    -3.692      5.605      9.467
REMARK INTER + INTRA:          -8.150
REMARK INTER:                  -7.290
REMARK INTRA:                  -0.860
REMARK UNBOUND:                -1.437
REMARK SMILES CCCCCCCCCCCCCCCC(=O)[O-]
REMARK SMILES IDX 9 1 10 2 11 3 12 4 13 5 14 6 15 7 16 8 17 9 18 10 8 11 7 12
REMARK SMILES IDX 6 13 5 14 4 15 3 16 2 17 1 18
REMARK H PARENT
REMARK Flexibility Score: inf
ROOT
ATOM      1  C   UNL     1      -5.190 -11.494   0.208  1.00  0.00     0.000 C 
ENDROOT
BRANCH   1   2
ATOM      2  C   UNL     1      -5.002 -12.977  -0.146  1.00  0.00     0.000 C 
BRANCH   2   3
ATOM      3  C   UNL     1      -6.187 -13.815   0.348  1.00  0.00     0.000 C 
BRANCH   3   4
ATOM      4  C   UNL     1      -6.077 -14.084   1.857  1.00  0.00     0.000 C 
BRANCH   4   5
ATOM      5  C   UNL     1      -5.979 -15.582   2.187  1.00  0.00     0.000 C 
BRANCH   5   6
ATOM      6  C   UNL     1      -6.012 -16.469   0.931  1.00  0.00     0.006 C 
BRANCH   6   7
ATOM      7  C   UNL     1      -6.451 -17.905   1.248  1.00  0.00     0.053 C 
BRANCH   7   8
ATOM      8  C   UNL     1      -6.290 -18.810   0.065  1.00  0.00     0.041 C 
ATOM      9  O   UNL     1      -5.214 -18.815  -0.587  1.00  0.00    -0.550 OA
ATOM     10  O   UNL     1      -7.340 -19.628  -0.333  1.00  0.00    -0.550 OA
ENDBRANCH   7   8
ENDBRANCH   6   7
ENDBRANCH   5   6
ENDBRANCH   4   5
ENDBRANCH   3   4
ENDBRANCH   2   3
ENDBRANCH   1   2
BRANCH   1  11
ATOM     11  C   UNL     1      -6.523 -10.920  -0.305  1.00  0.00     0.000 C 
BRANCH  11  12
ATOM     12  C   UNL     1      -7.050  -9.699   0.474  1.00  0.00    -0.000 C 
BRANCH  12  13
ATOM     13  C   UNL     1      -7.587  -8.549  -0.401  1.00  0.00    -0.000 C 
BRANCH  13  14
ATOM     14  C   UNL     1      -6.968  -7.175  -0.070  1.00  0.00    -0.000 C 
BRANCH  14  15
ATOM     15  C   UNL     1      -6.150  -7.195   1.230  1.00  0.00    -0.000 C 
BRANCH  15  16
ATOM     16  C   UNL     1      -6.707  -6.190   2.246  1.00  0.00    -0.000 C 
BRANCH  16  17
ATOM     17  C   UNL     1      -8.230  -6.072   2.124  1.00  0.00    -0.003 C 
ATOM     18  C   UNL     1      -8.682  -4.621   2.252  1.00  0.00     0.004 C 
ENDBRANCH  16  17
ENDBRANCH  15  16
ENDBRANCH  14  15
ENDBRANCH  13  14
ENDBRANCH  12  13
ENDBRANCH  11  12
ENDBRANCH   1  11
TORSDOF 14
ENDMDL
MODEL 7
REMARK VINA RESULT:    -3.685      1.381      1.924
REMARK INTER + INTRA:          -8.137
REMARK INTER:                  -7.704
REMARK INTRA:                  -0.433
REMARK UNBOUND:                -1.437
REMARK SMILES CCCCCCCCCCCCCCCC(=O)[O-]
REMARK SMILES IDX 9 1 10 2 11 3 12 4 13 5 14 6 15 7 16 8 17 9 18 10 8 11 7 12
REMARK SMILES IDX 6 13 5 14 4 15 3 16 2 17 1 18
REMARK H PARENT
REMARK Flexibility Score: inf
ROOT
ATOM      1  C   UNL     1      -7.394  -9.003   0.418  1.00  0.00     0.000 C 
ENDROOT
BRANCH   1   2
ATOM      2  C   UNL     1      -7.335  -7.599  -0.203  1.00  0.00     0.000 C 
BRANCH   2   3
ATOM      3  C   UNL     1      -6.274  -6.736   0.491  1.00  0.00     0.000 C 
BRANCH   3   4
ATOM      4  C   UNL     1      -6.931  -5.624   1.323  1.00  0.00     0.000 C 
BRANCH   4   5
ATOM      5  C   UNL     1      -8.254  -6.068   1.967  1.00  0.00     0.000 C 
BRANCH   5   6
ATOM      6  C   UNL     1      -8.752  -5.083   3.038  1.00  0.00     0.006 C 
BRANCH   6   7
ATOM      7  C   UNL     1      -9.563  -3.929   2.431  1.00  0.00     0.053 C 
BRANCH   7   8
ATOM      8  C   UNL     1     -10.958  -4.352   2.085  1.00  0.00     0.041 C 
ATOM      9  O   UNL     1     -11.243  -4.697   0.909  1.00  0.00    -0.550 OA
ATOM     10  O   UNL     1     -11.950  -4.338   3.057  1.00  0.00    -0.550 OA
ENDBRANCH   7   8
ENDBRANCH   6   7
ENDBRANCH   5   6
ENDBRANCH   4   5
ENDBRANCH   3   4
ENDBRANCH   2   3
ENDBRANCH   1   2
BRANCH   1  11
ATOM     11  C   UNL     1      -6.652 -10.061  -0.419  1.00  0.00     0.000 C 
BRANCH  11  12
ATOM     12  C   UNL     1      -5.797 -11.052   0.393  1.00  0.00    -0.000 C 
BRANCH  12  13
ATOM     13  C   UNL     1      -5.219 -12.230  -0.415  1.00  0.00    -0.000 C 
BRANCH  13  14
ATOM     14  C   UNL     1      -4.997 -13.508   0.420  1.00  0.00    -0.000 C 
BRANCH  14  15
ATOM     15  C   UNL     1      -6.297 -14.295   0.650  1.00  0.00    -0.000 C 
BRANCH  15  16
ATOM     16  C   UNL     1      -6.056 -15.501   1.564  1.00  0.00    -0.000 C 
BRANCH  16  17
ATOM     17  C   UNL     1      -6.459 -16.807   0.870  1.00  0.00    -0.003 C 
ATOM     18  C   UNL     1      -6.006 -18.021   1.673  1.00  0.00     0.004 C 
ENDBRANCH  16  17
ENDBRANCH  15  16
ENDBRANCH  14  15
ENDBRANCH  13  14
ENDBRANCH  12  13
ENDBRANCH  11  12
ENDBRANCH   1  11
TORSDOF 14
ENDMDL
MODEL 8
REMARK VINA RESULT:    -3.615     19.563     22.350
REMARK INTER + INTRA:          -8.011
REMARK INTER:                  -5.747
REMARK INTRA:                  -2.264
REMARK UNBOUND:                -1.437
REMARK SMILES CCCCCCCCCCCCCCCC(=O)[O-]
REMARK SMILES IDX 9 1 10 2 11 3 12 4 13 5 14 6 15 7 16 8 17 9 18 10 8 11 7 12
REMARK SMILES IDX 6 13 5 14 4 15 3 16 2 17 1 18
REMARK H PARENT
REMARK Flexibility Score: inf
ROOT
ATOM      1  C   UNL     1     -21.586  -1.601 -14.193  1.00  0.00     0.000 C 
ENDROOT
BRANCH   1   2
ATOM      2  C   UNL     1     -21.288  -2.523 -15.385  1.00  0.00     0.000 C 
BRANCH   2   3
ATOM      3  C   UNL     1     -19.891  -3.144 -15.263  1.00  0.00     0.000 C 
BRANCH   3   4
ATOM      4  C   UNL     1     -19.983  -4.664 -15.058  1.00  0.00     0.000 C 
BRANCH   4   5
ATOM      5  C   UNL     1     -19.821  -5.074 -13.585  1.00  0.00     0.000 C 
BRANCH   5   6
ATOM      6  C   UNL     1     -20.650  -6.317 -13.222  1.00  0.00     0.006 C 
BRANCH   6   7
ATOM      7  C   UNL     1     -20.018  -7.610 -13.755  1.00  0.00     0.053 C 
BRANCH   7   8
ATOM      8  C   UNL     1     -20.328  -8.784 -12.877  1.00  0.00     0.041 C 
ATOM      9  O   UNL     1     -20.257  -9.954 -13.335  1.00  0.00    -0.550 OA
ATOM     10  O   UNL     1     -20.721  -8.582 -11.560  1.00  0.00    -0.550 OA
ENDBRANCH   7   8
ENDBRANCH   6   7
ENDBRANCH   5   6
ENDBRANCH   4   5
ENDBRANCH   3   4
ENDBRANCH   2   3
ENDBRANCH   1   2
BRANCH   1  11
ATOM     11  C   UNL     1     -22.901  -1.957 -13.475  1.00  0.00     0.000 C 
BRANCH  11  12
ATOM     12  C   UNL     1     -22.861  -3.255 -12.646  1.00  0.00    -0.000 C 
BRANCH  12  13
ATOM     13  C   UNL     1     -23.646  -4.437 -13.245  1.00  0.00    -0.000 C 
BRANCH  13  14
ATOM     14  C   UNL     1     -24.875  -4.011 -14.077  1.00  0.00    -0.000 C 
BRANCH  14  15
ATOM     15  C   UNL     1     -24.824  -4.543 -15.517  1.00  0.00    -0.000 C 
BRANCH  15  16
ATOM     16  C   UNL     1     -23.534  -5.334 -15.766  1.00  0.00    -0.000 C 
BRANCH  16  17
ATOM     17  C   UNL     1     -23.845  -6.762 -16.229  1.00  0.00    -0.003 C 
ATOM     18  C   UNL     1     -22.583  -7.617 -16.264  1.00  0.00     0.004 C 
ENDBRANCH  16  17
ENDBRANCH  15  16
ENDBRANCH  14  15
ENDBRANCH  13  14
ENDBRANCH  12  13
ENDBRANCH  11  12
ENDBRANCH   1  11
TORSDOF 14
ENDMDL
MODEL 9
REMARK VINA RESULT:    -3.607     19.693     22.497
REMARK INTER + INTRA:          -7.996
REMARK INTER:                  -5.561
REMARK INTRA:                  -2.435
REMARK UNBOUND:                -1.437
REMARK SMILES CCCCCCCCCCCCCCCC(=O)[O-]
REMARK SMILES IDX 9 1 10 2 11 3 12 4 13 5 14 6 15 7 16 8 17 9 18 10 8 11 7 12
REMARK SMILES IDX 6 13 5 14 4 15 3 16 2 17 1 18
REMARK H PARENT
REMARK Flexibility Score: inf
ROOT
ATOM      1  C   UNL     1     -20.965  -6.040 -16.982  1.00  0.00     0.000 C 
ENDROOT
BRANCH   1   2
ATOM      2  C   UNL     1     -20.988  -4.505 -17.049  1.00  0.00     0.000 C 
BRANCH   2   3
ATOM      3  C   UNL     1     -20.204  -3.893 -15.882  1.00  0.00     0.000 C 
BRANCH   3   4
ATOM      4  C   UNL     1     -19.645  -4.988 -14.962  1.00  0.00     0.000 C 
BRANCH   4   5
ATOM      5  C   UNL     1     -20.147  -4.861 -13.515  1.00  0.00     0.000 C 
BRANCH   5   6
ATOM      6  C   UNL     1     -20.836  -6.141 -13.011  1.00  0.00     0.006 C 
BRANCH   6   7
ATOM      7  C   UNL     1     -20.272  -7.402 -13.680  1.00  0.00     0.053 C 
BRANCH   7   8
ATOM      8  C   UNL     1     -20.417  -8.609 -12.804  1.00  0.00     0.041 C 
ATOM      9  O   UNL     1     -20.840  -8.488 -11.625  1.00  0.00    -0.550 OA
ATOM     10  O   UNL     1     -20.058  -9.863 -13.282  1.00  0.00    -0.550 OA
ENDBRANCH   7   8
ENDBRANCH   6   7
ENDBRANCH   5   6
ENDBRANCH   4   5
ENDBRANCH   3   4
ENDBRANCH   2   3
ENDBRANCH   1   2
BRANCH   1  11
ATOM     11  C   UNL     1     -22.364  -6.652 -16.783  1.00  0.00     0.000 C 
BRANCH  11  12
ATOM     12  C   UNL     1     -23.538  -5.682 -17.017  1.00  0.00    -0.000 C 
BRANCH  12  13
ATOM     13  C   UNL     1     -24.435  -5.433 -15.789  1.00  0.00    -0.000 C 
BRANCH  13  14
ATOM     14  C   UNL     1     -23.735  -4.655 -14.655  1.00  0.00    -0.000 C 
BRANCH  14  15
ATOM     15  C   UNL     1     -23.703  -3.141 -14.913  1.00  0.00    -0.000 C 
BRANCH  15  16
ATOM     16  C   UNL     1     -23.859  -2.356 -13.605  1.00  0.00    -0.000 C 
BRANCH  16  17
ATOM     17  C   UNL     1     -23.319  -3.158 -12.416  1.00  0.00    -0.003 C 
ATOM     18  C   UNL     1     -22.204  -2.401 -11.701  1.00  0.00     0.004 C 
ENDBRANCH  16  17
ENDBRANCH  15  16
ENDBRANCH  14  15
ENDBRANCH  13  14
ENDBRANCH  12  13
ENDBRANCH  11  12
ENDBRANCH   1  11
TORSDOF 14
ENDMDL
