MODEL 1
REMARK VINA RESULT:    -5.486      0.000      0.000
REMARK INTER + INTRA:          -6.832
REMARK INTER:                  -6.609
REMARK INTRA:                  -0.223
REMARK UNBOUND:                -0.223
REMARK SMILES O=c1c(O)c(-c2ccc(O)c(O)c2)oc2cc(O)cc(O)c12
REMARK SMILES IDX 5 1 3 2 2 3 1 4 22 5 20 6 19 7 17 8 16 9 15 10 14 11 6 12
REMARK SMILES IDX 7 13 8 14 9 15 13 16 11 17 10 18 12 20 4 22 21 24 18 26
REMARK H PARENT 10 19 12 21 4 23 21 25 18 27
REMARK Flexibility Score: inf
ROOT
ATOM      1  C   UNL     1      -5.667   0.520   2.377  1.00  0.00     0.180 A 
ATOM      2  C   UNL     1      -4.972  -0.095   3.434  1.00  0.00     0.208 A 
ATOM      3  C   UNL     1      -4.595  -1.441   3.309  1.00  0.00     0.238 A 
ATOM      4  O   UNL     1      -4.022  -2.000   4.281  1.00  0.00    -0.285 OA
ATOM      5  C   UNL     1      -4.902  -2.153   2.125  1.00  0.00     0.111 A 
ATOM      6  C   UNL     1      -4.532  -3.508   1.874  1.00  0.00     0.134 A 
ATOM      7  C   UNL     1      -5.002  -4.151   0.722  1.00  0.00     0.093 A 
ATOM      8  C   UNL     1      -5.773  -3.467  -0.221  1.00  0.00     0.123 A 
ATOM      9  C   UNL     1      -6.089  -2.126  -0.014  1.00  0.00     0.094 A 
ATOM     10  C   UNL     1      -5.665  -1.468   1.143  1.00  0.00     0.146 A 
ATOM     11  O   UNL     1      -5.998  -0.193   1.307  1.00  0.00    -0.452 OA
ENDROOT
BRANCH   1  12
ATOM     12  C   UNL     1      -6.076   1.941   2.424  1.00  0.00     0.025 A 
ATOM     13  C   UNL     1      -7.442   2.267   2.439  1.00  0.00     0.016 A 
ATOM     14  C   UNL     1      -7.851   3.603   2.462  1.00  0.00     0.051 A 
ATOM     15  C   UNL     1      -6.902   4.633   2.455  1.00  0.00     0.157 A 
ATOM     16  C   UNL     1      -5.127   2.978   2.397  1.00  0.00     0.062 A 
ATOM     17  C   UNL     1      -5.533   4.318   2.418  1.00  0.00     0.158 A 
BRANCH  15  18
ATOM     18  O   UNL     1      -7.312   5.965   2.481  1.00  0.00    -0.504 OA
ATOM     19  H   UNL     1      -8.077   6.273   3.070  1.00  0.00     0.293 HD
ENDBRANCH  15  18
BRANCH  17  20
ATOM     20  O   UNL     1      -4.563   5.320   2.396  1.00  0.00    -0.504 OA
ATOM     21  H   UNL     1      -4.333   5.865   3.218  1.00  0.00     0.293 HD
ENDBRANCH  17  20
ENDBRANCH   1  12
BRANCH   2  22
ATOM     22  O   UNL     1      -4.699   0.620   4.604  1.00  0.00    -0.502 OA
ATOM     23  H   UNL     1      -3.976   0.341   5.256  1.00  0.00     0.293 HD
ENDBRANCH   2  22
BRANCH   6  24
ATOM     24  O   UNL     1      -3.690  -4.254   2.706  1.00  0.00    -0.507 OA
ATOM     25  H   UNL     1      -3.973  -4.680   3.575  1.00  0.00     0.293 HD
ENDBRANCH   6  24
BRANCH   8  26
ATOM     26  O   UNL     1      -6.224  -4.109  -1.371  1.00  0.00    -0.508 OA
ATOM     27  H   UNL     1      -7.085  -3.835  -1.828  1.00  0.00     0.293 HD
ENDBRANCH   8  26
TORSDOF 6
ENDMDL
MODEL 2
REMARK VINA RESULT:    -5.469     10.301     12.943
REMARK INTER + INTRA:          -6.810
REMARK INTER:                  -6.600
REMARK INTRA:                  -0.210
REMARK UNBOUND:                -0.223
REMARK SMILES O=c1c(O)c(-c2ccc(O)c(O)c2)oc2cc(O)cc(O)c12
REMARK SMILES IDX 5 1 3 2 2 3 1 4 22 5 20 6 19 7 17 8 16 9 15 10 14 11 6 12
REMARK SMILES IDX 7 13 8 14 9 15 13 16 11 17 10 18 12 20 4 22 21 24 18 26
REMARK H PARENT 10 19 12 21 4 23 21 25 18 27
REMARK Flexibility Score: inf
ROOT
ATOM      1  C   UNL     1       5.532  -0.268   2.408  1.00  0.00     0.180 A 
ATOM      2  C   UNL     1       4.856   0.370   3.464  1.00  0.00     0.208 A 
ATOM      3  C   UNL     1       4.494   1.719   3.323  1.00  0.00     0.238 A 
ATOM      4  O   UNL     1       3.938   2.300   4.292  1.00  0.00    -0.285 OA
ATOM      5  C   UNL     1       4.798   2.410   2.125  1.00  0.00     0.111 A 
ATOM      6  C   UNL     1       4.443   3.766   1.859  1.00  0.00     0.134 A 
ATOM      7  C   UNL     1       4.909   4.386   0.693  1.00  0.00     0.093 A 
ATOM      8  C   UNL     1       5.662   3.679  -0.248  1.00  0.00     0.123 A 
ATOM      9  C   UNL     1       5.963   2.337  -0.025  1.00  0.00     0.094 A 
ATOM     10  C   UNL     1       5.543   1.702   1.146  1.00  0.00     0.146 A 
ATOM     11  O   UNL     1       5.861   0.425   1.325  1.00  0.00    -0.452 OA
ENDROOT
BRANCH   1  12
ATOM     12  C   UNL     1       5.924  -1.694   2.472  1.00  0.00     0.025 A 
ATOM     13  C   UNL     1       7.285  -2.039   2.447  1.00  0.00     0.016 A 
ATOM     14  C   UNL     1       7.676  -3.379   2.484  1.00  0.00     0.051 A 
ATOM     15  C   UNL     1       6.714  -4.396   2.533  1.00  0.00     0.157 A 
ATOM     16  C   UNL     1       4.960  -2.718   2.500  1.00  0.00     0.062 A 
ATOM     17  C   UNL     1       5.349  -4.062   2.537  1.00  0.00     0.158 A 
BRANCH  15  18
ATOM     18  O   UNL     1       7.107  -5.732   2.573  1.00  0.00    -0.504 OA
ATOM     19  H   UNL     1       7.438  -6.213   1.744  1.00  0.00     0.293 HD
ENDBRANCH  15  18
BRANCH  17  20
ATOM     20  O   UNL     1       4.366  -5.051   2.570  1.00  0.00    -0.504 OA
ATOM     21  H   UNL     1       4.025  -5.442   3.440  1.00  0.00     0.293 HD
ENDBRANCH  17  20
ENDBRANCH   1  12
BRANCH   2  22
ATOM     22  O   UNL     1       4.585  -0.324   4.647  1.00  0.00    -0.502 OA
ATOM     23  H   UNL     1       4.900   0.002   5.552  1.00  0.00     0.293 HD
ENDBRANCH   2  22
BRANCH   6  24
ATOM     24  O   UNL     1       3.619   4.534   2.688  1.00  0.00    -0.507 OA
ATOM     25  H   UNL     1       2.919   4.158   3.310  1.00  0.00     0.293 HD
ENDBRANCH   6  24
BRANCH   8  26
ATOM     26  O   UNL     1       6.109   4.299  -1.411  1.00  0.00    -0.508 OA
ATOM     27  H   UNL     1       5.911   5.274  -1.602  1.00  0.00     0.293 HD
ENDBRANCH   8  26
TORSDOF 6
ENDMDL
MODEL 3
REMARK VINA RESULT:    -5.413      1.496      6.761
REMARK INTER + INTRA:          -6.743
REMARK INTER:                  -6.588
REMARK INTRA:                  -0.155
REMARK UNBOUND:                -0.223
REMARK SMILES O=c1c(O)c(-c2ccc(O)c(O)c2)oc2cc(O)cc(O)c12
REMARK SMILES IDX 5 1 3 2 2 3 1 4 22 5 20 6 19 7 17 8 16 9 15 10 14 11 6 12
REMARK SMILES IDX 7 13 8 14 9 15 13 16 11 17 10 18 12 20 4 22 21 24 18 26
REMARK H PARENT 10 19 12 21 4 23 21 25 18 27
REMARK Flexibility Score: inf
ROOT
ATOM      1  C   UNL     1      -5.740  -0.134   2.303  1.00  0.00     0.180 A 
ATOM      2  C   UNL     1      -5.647  -0.060   3.704  1.00  0.00     0.208 A 
ATOM      3  C   UNL     1      -5.985   1.142   4.346  1.00  0.00     0.238 A 
ATOM      4  O   UNL     1      -5.847   1.219   5.595  1.00  0.00    -0.285 OA
ATOM      5  C   UNL     1      -6.426   2.249   3.583  1.00  0.00     0.111 A 
ATOM      6  C   UNL     1      -6.834   3.502   4.132  1.00  0.00     0.134 A 
ATOM      7  C   UNL     1      -7.127   4.569   3.274  1.00  0.00     0.093 A 
ATOM      8  C   UNL     1      -7.093   4.409   1.887  1.00  0.00     0.123 A 
ATOM      9  C   UNL     1      -6.756   3.173   1.341  1.00  0.00     0.094 A 
ATOM     10  C   UNL     1      -6.422   2.100   2.171  1.00  0.00     0.146 A 
ATOM     11  O   UNL     1      -6.095   0.941   1.610  1.00  0.00    -0.452 OA
ENDROOT
BRANCH   1  12
ATOM     12  C   UNL     1      -5.425  -1.373   1.557  1.00  0.00     0.025 A 
ATOM     13  C   UNL     1      -4.106  -1.853   1.540  1.00  0.00     0.016 A 
ATOM     14  C   UNL     1      -3.782  -3.009   0.825  1.00  0.00     0.051 A 
ATOM     15  C   UNL     1      -4.769  -3.695   0.104  1.00  0.00     0.157 A 
ATOM     16  C   UNL     1      -6.409  -2.053   0.817  1.00  0.00     0.062 A 
ATOM     17  C   UNL     1      -6.088  -3.211   0.098  1.00  0.00     0.158 A 
BRANCH  15  18
ATOM     18  O   UNL     1      -4.444  -4.849  -0.606  1.00  0.00    -0.504 OA
ATOM     19  H   UNL     1      -3.833  -4.820  -1.414  1.00  0.00     0.293 HD
ENDBRANCH  15  18
BRANCH  17  20
ATOM     20  O   UNL     1      -7.090  -3.862  -0.621  1.00  0.00    -0.504 OA
ATOM     21  H   UNL     1      -7.504  -3.459  -1.453  1.00  0.00     0.293 HD
ENDBRANCH  17  20
ENDBRANCH   1  12
BRANCH   2  22
ATOM     22  O   UNL     1      -5.187  -1.158   4.437  1.00  0.00    -0.502 OA
ATOM     23  H   UNL     1      -5.380  -1.273   5.424  1.00  0.00     0.293 HD
ENDBRANCH   2  22
BRANCH   6  24
ATOM     24  O   UNL     1      -6.989   3.740   5.501  1.00  0.00    -0.507 OA
ATOM     25  H   UNL     1      -7.141   4.649   5.912  1.00  0.00     0.293 HD
ENDBRANCH   6  24
BRANCH   8  26
ATOM     26  O   UNL     1      -7.402   5.471   1.041  1.00  0.00    -0.508 OA
ATOM     27  H   UNL     1      -8.291   5.524   0.558  1.00  0.00     0.293 HD
ENDBRANCH   8  26
TORSDOF 6
ENDMDL
MODEL 4
REMARK VINA RESULT:    -5.352      3.159      6.656
REMARK INTER + INTRA:          -6.670
REMARK INTER:                  -6.346
REMARK INTRA:                  -0.324
REMARK UNBOUND:                -0.223
REMARK SMILES O=c1c(O)c(-c2ccc(O)c(O)c2)oc2cc(O)cc(O)c12
REMARK SMILES IDX 5 1 3 2 2 3 1 4 22 5 20 6 19 7 17 8 16 9 15 10 14 11 6 12
REMARK SMILES IDX 7 13 8 14 9 15 13 16 11 17 10 18 12 20 4 22 21 24 18 26
REMARK H PARENT 10 19 12 21 4 23 21 25 18 27
REMARK Flexibility Score: inf
ROOT
ATOM      1  C   UNL     1      -5.499  -0.554   3.738  1.00  0.00     0.180 A 
ATOM      2  C   UNL     1      -5.433   0.846   3.853  1.00  0.00     0.208 A 
ATOM      3  C   UNL     1      -5.974   1.462   4.993  1.00  0.00     0.238 A 
ATOM      4  O   UNL     1      -5.960   2.719   5.064  1.00  0.00    -0.285 OA
ATOM      5  C   UNL     1      -6.559   0.671   6.011  1.00  0.00     0.111 A 
ATOM      6  C   UNL     1      -7.100   1.186   7.227  1.00  0.00     0.134 A 
ATOM      7  C   UNL     1      -7.771   0.324   8.104  1.00  0.00     0.093 A 
ATOM      8  C   UNL     1      -7.862  -1.045   7.840  1.00  0.00     0.123 A 
ATOM      9  C   UNL     1      -7.284  -1.566   6.685  1.00  0.00     0.094 A 
ATOM     10  C   UNL     1      -6.640  -0.726   5.773  1.00  0.00     0.146 A 
ATOM     11  O   UNL     1      -6.112  -1.262   4.679  1.00  0.00    -0.452 OA
ENDROOT
BRANCH   1  12
ATOM     12  C   UNL     1      -4.929  -1.277   2.579  1.00  0.00     0.025 A 
ATOM     13  C   UNL     1      -5.726  -1.500   1.444  1.00  0.00     0.016 A 
ATOM     14  C   UNL     1      -5.215  -2.198   0.348  1.00  0.00     0.051 A 
ATOM     15  C   UNL     1      -3.906  -2.698   0.374  1.00  0.00     0.157 A 
ATOM     16  C   UNL     1      -3.623  -1.797   2.610  1.00  0.00     0.062 A 
ATOM     17  C   UNL     1      -3.108  -2.499   1.513  1.00  0.00     0.158 A 
BRANCH  15  18
ATOM     18  O   UNL     1      -3.399  -3.392  -0.723  1.00  0.00    -0.504 OA
ATOM     19  H   UNL     1      -2.620  -4.035  -0.630  1.00  0.00     0.293 HD
ENDBRANCH  15  18
BRANCH  17  20
ATOM     20  O   UNL     1      -1.807  -2.995   1.576  1.00  0.00    -0.504 OA
ATOM     21  H   UNL     1      -1.023  -2.417   1.852  1.00  0.00     0.293 HD
ENDBRANCH  17  20
ENDBRANCH   1  12
BRANCH   2  22
ATOM     22  O   UNL     1      -4.871   1.610   2.826  1.00  0.00    -0.502 OA
ATOM     23  H   UNL     1      -5.228   2.521   2.568  1.00  0.00     0.293 HD
ENDBRANCH   2  22
BRANCH   6  24
ATOM     24  O   UNL     1      -6.984   2.520   7.630  1.00  0.00    -0.507 OA
ATOM     25  H   UNL     1      -7.250   2.871   8.538  1.00  0.00     0.293 HD
ENDBRANCH   6  24
BRANCH   8  26
ATOM     26  O   UNL     1      -8.518  -1.897   8.724  1.00  0.00    -0.508 OA
ATOM     27  H   UNL     1      -9.050  -1.539   9.509  1.00  0.00     0.293 HD
ENDBRANCH   8  26
TORSDOF 6
ENDMDL
MODEL 5
REMARK VINA RESULT:    -5.326     15.054     17.759
REMARK INTER + INTRA:          -6.638
REMARK INTER:                  -6.336
REMARK INTRA:                  -0.303
REMARK UNBOUND:                -0.223
REMARK SMILES O=c1c(O)c(-c2ccc(O)c(O)c2)oc2cc(O)cc(O)c12
REMARK SMILES IDX 5 1 3 2 2 3 1 4 22 5 20 6 19 7 17 8 16 9 15 10 14 11 6 12
REMARK SMILES IDX 7 13 8 14 9 15 13 16 11 17 10 18 12 20 4 22 21 24 18 26
REMARK H PARENT 10 19 12 21 4 23 21 25 18 27
REMARK Flexibility Score: inf
ROOT
ATOM      1  C   UNL     1       8.892  -3.373   9.466  1.00  0.00     0.180 A 
ATOM      2  C   UNL     1       9.549  -2.136   9.590  1.00  0.00     0.208 A 
ATOM      3  C   UNL     1       9.583  -1.506  10.845  1.00  0.00     0.238 A 
ATOM      4  O   UNL     1      10.125  -0.373  10.937  1.00  0.00    -0.285 OA
ATOM      5  C   UNL     1       8.973  -2.125  11.962  1.00  0.00     0.111 A 
ATOM      6  C   UNL     1       8.982  -1.597  13.287  1.00  0.00     0.134 A 
ATOM      7  C   UNL     1       8.235  -2.230  14.288  1.00  0.00     0.093 A 
ATOM      8  C   UNL     1       7.535  -3.410  14.027  1.00  0.00     0.123 A 
ATOM      9  C   UNL     1       7.570  -3.967  12.752  1.00  0.00     0.094 A 
ATOM     10  C   UNL     1       8.276  -3.338  11.723  1.00  0.00     0.146 A 
ATOM     11  O   UNL     1       8.274  -3.897  10.518  1.00  0.00    -0.452 OA
ENDROOT
BRANCH   1  12
ATOM     12  C   UNL     1       8.836  -4.110   8.184  1.00  0.00     0.025 A 
ATOM     13  C   UNL     1       9.784  -5.112   7.921  1.00  0.00     0.016 A 
ATOM     14  C   UNL     1       9.762  -5.805   6.708  1.00  0.00     0.051 A 
ATOM     15  C   UNL     1       8.804  -5.498   5.734  1.00  0.00     0.157 A 
ATOM     16  C   UNL     1       7.888  -3.790   7.196  1.00  0.00     0.062 A 
ATOM     17  C   UNL     1       7.864  -4.481   5.979  1.00  0.00     0.158 A 
BRANCH  15  18
ATOM     18  O   UNL     1       8.783  -6.192   4.526  1.00  0.00    -0.504 OA
ATOM     19  H   UNL     1       8.046  -6.050   3.845  1.00  0.00     0.293 HD
ENDBRANCH  15  18
BRANCH  17  20
ATOM     20  O   UNL     1       6.906  -4.142   5.024  1.00  0.00    -0.504 OA
ATOM     21  H   UNL     1       6.606  -3.185   4.880  1.00  0.00     0.293 HD
ENDBRANCH  17  20
ENDBRANCH   1  12
BRANCH   2  22
ATOM     22  O   UNL     1      10.125  -1.531   8.469  1.00  0.00    -0.502 OA
ATOM     23  H   UNL     1       9.603  -0.919   7.854  1.00  0.00     0.293 HD
ENDBRANCH   2  22
BRANCH   6  24
ATOM     24  O   UNL     1       9.722  -0.475  13.675  1.00  0.00    -0.507 OA
ATOM     25  H   UNL     1       9.999   0.272  13.057  1.00  0.00     0.293 HD
ENDBRANCH   6  24
BRANCH   8  26
ATOM     26  O   UNL     1       6.808  -4.042  15.033  1.00  0.00    -0.508 OA
ATOM     27  H   UNL     1       5.870  -3.743  15.276  1.00  0.00     0.293 HD
ENDBRANCH   8  26
TORSDOF 6
ENDMDL
MODEL 6
REMARK VINA RESULT:    -5.326      1.966      2.105
REMARK INTER + INTRA:          -6.638
REMARK INTER:                  -6.372
REMARK INTRA:                  -0.266
REMARK UNBOUND:                -0.223
REMARK SMILES O=c1c(O)c(-c2ccc(O)c(O)c2)oc2cc(O)cc(O)c12
REMARK SMILES IDX 5 1 3 2 2 3 1 4 22 5 20 6 19 7 17 8 16 9 15 10 14 11 6 12
REMARK SMILES IDX 7 13 8 14 9 15 13 16 11 17 10 18 12 20 4 22 21 24 18 26
REMARK H PARENT 10 19 12 21 4 23 21 25 18 27
REMARK Flexibility Score: inf
ROOT
ATOM      1  C   UNL     1      -4.971   0.435   3.120  1.00  0.00     0.180 A 
ATOM      2  C   UNL     1      -3.609   0.106   3.241  1.00  0.00     0.208 A 
ATOM      3  C   UNL     1      -3.096  -0.960   2.484  1.00  0.00     0.238 A 
ATOM      4  O   UNL     1      -1.889  -1.284   2.638  1.00  0.00    -0.285 OA
ATOM      5  C   UNL     1      -3.946  -1.673   1.605  1.00  0.00     0.111 A 
ATOM      6  C   UNL     1      -3.524  -2.743   0.760  1.00  0.00     0.134 A 
ATOM      7  C   UNL     1      -4.477  -3.462   0.028  1.00  0.00     0.093 A 
ATOM      8  C   UNL     1      -5.828  -3.106   0.058  1.00  0.00     0.123 A 
ATOM      9  C   UNL     1      -6.240  -2.024   0.833  1.00  0.00     0.094 A 
ATOM     10  C   UNL     1      -5.318  -1.311   1.603  1.00  0.00     0.146 A 
ATOM     11  O   UNL     1      -5.755  -0.294   2.336  1.00  0.00    -0.452 OA
ENDROOT
BRANCH   1  12
ATOM     12  C   UNL     1      -5.578   1.560   3.865  1.00  0.00     0.025 A 
ATOM     13  C   UNL     1      -5.888   1.401   5.226  1.00  0.00     0.016 A 
ATOM     14  C   UNL     1      -6.481   2.442   5.943  1.00  0.00     0.051 A 
ATOM     15  C   UNL     1      -6.787   3.653   5.309  1.00  0.00     0.157 A 
ATOM     16  C   UNL     1      -5.905   2.770   3.228  1.00  0.00     0.062 A 
ATOM     17  C   UNL     1      -6.501   3.816   3.943  1.00  0.00     0.158 A 
BRANCH  15  18
ATOM     18  O   UNL     1      -7.377   4.692   6.028  1.00  0.00    -0.504 OA
ATOM     19  H   UNL     1      -8.186   4.536   6.619  1.00  0.00     0.293 HD
ENDBRANCH  15  18
BRANCH  17  20
ATOM     20  O   UNL     1      -6.806   5.004   3.279  1.00  0.00    -0.504 OA
ATOM     21  H   UNL     1      -7.685   5.139   2.795  1.00  0.00     0.293 HD
ENDBRANCH  17  20
ENDBRANCH   1  12
BRANCH   2  22
ATOM     22  O   UNL     1      -2.792   0.809   4.132  1.00  0.00    -0.502 OA
ATOM     23  H   UNL     1      -1.837   1.063   3.910  1.00  0.00     0.293 HD
ENDBRANCH   2  22
BRANCH   6  24
ATOM     24  O   UNL     1      -2.188  -3.121   0.587  1.00  0.00    -0.507 OA
ATOM     25  H   UNL     1      -1.407  -2.482   0.584  1.00  0.00     0.293 HD
ENDBRANCH   6  24
BRANCH   8  26
ATOM     26  O   UNL     1      -6.766  -3.816  -0.685  1.00  0.00    -0.508 OA
ATOM     27  H   UNL     1      -7.364  -4.514  -0.257  1.00  0.00     0.293 HD
ENDBRANCH   8  26
TORSDOF 6
ENDMDL
MODEL 7
REMARK VINA RESULT:    -5.309     10.759     12.334
REMARK INTER + INTRA:          -6.618
REMARK INTER:                  -6.284
REMARK INTRA:                  -0.335
REMARK UNBOUND:                -0.223
REMARK SMILES O=c1c(O)c(-c2ccc(O)c(O)c2)oc2cc(O)cc(O)c12
REMARK SMILES IDX 5 1 3 2 2 3 1 4 22 5 20 6 19 7 17 8 16 9 15 10 14 11 6 12
REMARK SMILES IDX 7 13 8 14 9 15 13 16 11 17 10 18 12 20 4 22 21 24 18 26
REMARK H PARENT 10 19 12 21 4 23 21 25 18 27
REMARK Flexibility Score: inf
ROOT
ATOM      1  C   UNL     1       5.482   0.645   3.629  1.00  0.00     0.180 A 
ATOM      2  C   UNL     1       5.370  -0.754   3.708  1.00  0.00     0.208 A 
ATOM      3  C   UNL     1       5.860  -1.413   4.846  1.00  0.00     0.238 A 
ATOM      4  O   UNL     1       5.807  -2.671   4.886  1.00  0.00    -0.285 OA
ATOM      5  C   UNL     1       6.442  -0.666   5.898  1.00  0.00     0.111 A 
ATOM      6  C   UNL     1       6.934  -1.226   7.115  1.00  0.00     0.134 A 
ATOM      7  C   UNL     1       7.608  -0.407   8.029  1.00  0.00     0.093 A 
ATOM      8  C   UNL     1       7.747   0.964   7.802  1.00  0.00     0.123 A 
ATOM      9  C   UNL     1       7.217   1.531   6.645  1.00  0.00     0.094 A 
ATOM     10  C   UNL     1       6.572   0.733   5.697  1.00  0.00     0.146 A 
ATOM     11  O   UNL     1       6.091   1.311   4.603  1.00  0.00    -0.452 OA
ENDROOT
BRANCH   1  12
ATOM     12  C   UNL     1       4.966   1.413   2.473  1.00  0.00     0.025 A 
ATOM     13  C   UNL     1       5.826   1.716   1.405  1.00  0.00     0.016 A 
ATOM     14  C   UNL     1       5.366   2.457   0.315  1.00  0.00     0.051 A 
ATOM     15  C   UNL     1       4.044   2.920   0.281  1.00  0.00     0.157 A 
ATOM     16  C   UNL     1       3.646   1.896   2.445  1.00  0.00     0.062 A 
ATOM     17  C   UNL     1       3.182   2.641   1.354  1.00  0.00     0.158 A 
BRANCH  15  18
ATOM     18  O   UNL     1       3.588   3.658  -0.810  1.00  0.00    -0.504 OA
ATOM     19  H   UNL     1       2.689   3.468  -1.239  1.00  0.00     0.293 HD
ENDBRANCH  15  18
BRANCH  17  20
ATOM     20  O   UNL     1       1.864   3.099   1.358  1.00  0.00    -0.504 OA
ATOM     21  H   UNL     1       1.088   2.503   1.615  1.00  0.00     0.293 HD
ENDBRANCH  17  20
ENDBRANCH   1  12
BRANCH   2  22
ATOM     22  O   UNL     1       4.813  -1.475   2.647  1.00  0.00    -0.502 OA
ATOM     23  H   UNL     1       4.854  -2.486   2.596  1.00  0.00     0.293 HD
ENDBRANCH   2  22
BRANCH   6  24
ATOM     24  O   UNL     1       6.767  -2.565   7.482  1.00  0.00    -0.507 OA
ATOM     25  H   UNL     1       5.977  -2.925   7.997  1.00  0.00     0.293 HD
ENDBRANCH   6  24
BRANCH   8  26
ATOM     26  O   UNL     1       8.405   1.774   8.724  1.00  0.00    -0.508 OA
ATOM     27  H   UNL     1       9.381   1.630   8.955  1.00  0.00     0.293 HD
ENDBRANCH   8  26
TORSDOF 6
ENDMDL
MODEL 8
REMARK VINA RESULT:    -5.294     10.235     11.280
REMARK INTER + INTRA:          -6.600
REMARK INTER:                  -6.286
REMARK INTRA:                  -0.314
REMARK UNBOUND:                -0.223
REMARK SMILES O=c1c(O)c(-c2ccc(O)c(O)c2)oc2cc(O)cc(O)c12
REMARK SMILES IDX 5 1 3 2 2 3 1 4 22 5 20 6 19 7 17 8 16 9 15 10 14 11 6 12
REMARK SMILES IDX 7 13 8 14 9 15 13 16 11 17 10 18 12 20 4 22 21 24 18 26
REMARK H PARENT 10 19 12 21 4 23 21 25 18 27
REMARK Flexibility Score: inf
ROOT
ATOM      1  C   UNL     1       5.344   0.263   2.954  1.00  0.00     0.180 A 
ATOM      2  C   UNL     1       6.028   0.428   4.172  1.00  0.00     0.208 A 
ATOM      3  C   UNL     1       6.278  -0.698   4.971  1.00  0.00     0.238 A 
ATOM      4  O   UNL     1       6.842  -0.536   6.085  1.00  0.00    -0.285 OA
ATOM      5  C   UNL     1       5.855  -1.978   4.538  1.00  0.00     0.111 A 
ATOM      6  C   UNL     1       6.091  -3.193   5.248  1.00  0.00     0.134 A 
ATOM      7  C   UNL     1       5.513  -4.384   4.791  1.00  0.00     0.093 A 
ATOM      8  C   UNL     1       4.765  -4.415   3.611  1.00  0.00     0.123 A 
ATOM      9  C   UNL     1       4.580  -3.245   2.879  1.00  0.00     0.094 A 
ATOM     10  C   UNL     1       5.113  -2.035   3.330  1.00  0.00     0.146 A 
ATOM     11  O   UNL     1       4.903  -0.940   2.607  1.00  0.00    -0.452 OA
ENDROOT
BRANCH   1  12
ATOM     12  C   UNL     1       5.067   1.398   2.046  1.00  0.00     0.025 A 
ATOM     13  C   UNL     1       3.781   1.961   2.017  1.00  0.00     0.016 A 
ATOM     14  C   UNL     1       3.491   3.019   1.152  1.00  0.00     0.051 A 
ATOM     15  C   UNL     1       4.477   3.521   0.292  1.00  0.00     0.157 A 
ATOM     16  C   UNL     1       6.048   1.891   1.168  1.00  0.00     0.062 A 
ATOM     17  C   UNL     1       5.761   2.950   0.298  1.00  0.00     0.158 A 
BRANCH  15  18
ATOM     18  O   UNL     1       4.186   4.578  -0.568  1.00  0.00    -0.504 OA
ATOM     19  H   UNL     1       4.717   5.441  -0.546  1.00  0.00     0.293 HD
ENDBRANCH  15  18
BRANCH  17  20
ATOM     20  O   UNL     1       6.761   3.417  -0.555  1.00  0.00    -0.504 OA
ATOM     21  H   UNL     1       6.566   4.064  -1.309  1.00  0.00     0.293 HD
ENDBRANCH  17  20
ENDBRANCH   1  12
BRANCH   2  22
ATOM     22  O   UNL     1       6.417   1.704   4.591  1.00  0.00    -0.502 OA
ATOM     23  H   UNL     1       6.127   2.096   5.479  1.00  0.00     0.293 HD
ENDBRANCH   2  22
BRANCH   6  24
ATOM     24  O   UNL     1       6.899  -3.288   6.386  1.00  0.00    -0.507 OA
ATOM     25  H   UNL     1       6.991  -2.568   7.087  1.00  0.00     0.293 HD
ENDBRANCH   6  24
BRANCH   8  26
ATOM     26  O   UNL     1       4.207  -5.606   3.155  1.00  0.00    -0.508 OA
ATOM     27  H   UNL     1       4.744  -6.465   3.122  1.00  0.00     0.293 HD
ENDBRANCH   8  26
TORSDOF 6
ENDMDL
MODEL 9
REMARK VINA RESULT:    -5.262      9.980     12.504
REMARK INTER + INTRA:          -6.561
REMARK INTER:                  -6.339
REMARK INTRA:                  -0.222
REMARK UNBOUND:                -0.223
REMARK SMILES O=c1c(O)c(-c2ccc(O)c(O)c2)oc2cc(O)cc(O)c12
REMARK SMILES IDX 5 1 3 2 2 3 1 4 22 5 20 6 19 7 17 8 16 9 15 10 14 11 6 12
REMARK SMILES IDX 7 13 8 14 9 15 13 16 11 17 10 18 12 20 4 22 21 24 18 26
REMARK H PARENT 10 19 12 21 4 23 21 25 18 27
REMARK Flexibility Score: inf
ROOT
ATOM      1  C   UNL     1       4.914  -0.303   3.069  1.00  0.00     0.180 A 
ATOM      2  C   UNL     1       3.560   0.042   3.229  1.00  0.00     0.208 A 
ATOM      3  C   UNL     1       3.045   1.128   2.504  1.00  0.00     0.238 A 
ATOM      4  O   UNL     1       1.846   1.465   2.692  1.00  0.00    -0.285 OA
ATOM      5  C   UNL     1       3.883   1.846   1.618  1.00  0.00     0.111 A 
ATOM      6  C   UNL     1       3.456   2.937   0.803  1.00  0.00     0.134 A 
ATOM      7  C   UNL     1       4.400   3.657   0.061  1.00  0.00     0.093 A 
ATOM      8  C   UNL     1       5.747   3.283   0.053  1.00  0.00     0.123 A 
ATOM      9  C   UNL     1       6.163   2.182   0.798  1.00  0.00     0.094 A 
ATOM     10  C   UNL     1       5.249   1.467   1.577  1.00  0.00     0.146 A 
ATOM     11  O   UNL     1       5.690   0.430   2.281  1.00  0.00    -0.452 OA
ENDROOT
BRANCH   1  12
ATOM     12  C   UNL     1       5.524  -1.449   3.780  1.00  0.00     0.025 A 
ATOM     13  C   UNL     1       5.773  -1.355   5.159  1.00  0.00     0.016 A 
ATOM     14  C   UNL     1       6.367  -2.417   5.845  1.00  0.00     0.051 A 
ATOM     15  C   UNL     1       6.735  -3.583   5.161  1.00  0.00     0.157 A 
ATOM     16  C   UNL     1       5.913  -2.613   3.094  1.00  0.00     0.062 A 
ATOM     17  C   UNL     1       6.510  -3.679   3.777  1.00  0.00     0.158 A 
BRANCH  15  18
ATOM     18  O   UNL     1       7.325  -4.642   5.849  1.00  0.00    -0.504 OA
ATOM     19  H   UNL     1       8.202  -4.529   6.346  1.00  0.00     0.293 HD
ENDBRANCH  15  18
BRANCH  17  20
ATOM     20  O   UNL     1       6.878  -4.821   3.066  1.00  0.00    -0.504 OA
ATOM     21  H   UNL     1       6.699  -4.917   2.073  1.00  0.00     0.293 HD
ENDBRANCH  17  20
ENDBRANCH   1  12
BRANCH   2  22
ATOM     22  O   UNL     1       2.756  -0.667   4.126  1.00  0.00    -0.502 OA
ATOM     23  H   UNL     1       2.114  -1.390   3.827  1.00  0.00     0.293 HD
ENDBRANCH   2  22
BRANCH   6  24
ATOM     24  O   UNL     1       2.121   3.335   0.668  1.00  0.00    -0.507 OA
ATOM     25  H   UNL     1       1.465   2.931   0.017  1.00  0.00     0.293 HD
ENDBRANCH   6  24
BRANCH   8  26
ATOM     26  O   UNL     1       6.677   3.994  -0.699  1.00  0.00    -0.508 OA
ATOM     27  H   UNL     1       7.322   3.527  -1.326  1.00  0.00     0.293 HD
ENDBRANCH   8  26
TORSDOF 6
ENDMDL
