MODEL 1
REMARK VINA RESULT:    -6.997      0.000      0.000
REMARK INTER + INTRA:          -9.732
REMARK INTER:                  -9.452
REMARK INTRA:                  -0.280
REMARK UNBOUND:                -0.280
REMARK SMILES O=c1c(-c2ccc(O)cc2)coc2c([C@@H]3O[C@H](CO)[C@H](O)[C@@H](O)[C@H]3O)c(O)ccc12
REMARK SMILES IDX 3 1 11 2 12 3 13 4 30 5 2 6 1 7 29 8 28 9 26 10 14 11 4 12
REMARK SMILES IDX 5 13 6 14 7 15 10 16 9 17 8 18 15 20 24 21 16 22 22 23 17 24
REMARK SMILES IDX 20 25 25 26 23 28 18 30 19 31 21 33 27 35
REMARK H PARENT 8 19 25 27 23 29 19 32 21 34 27 36
REMARK Flexibility Score: inf
ROOT
ATOM      1  C   UNL     1       8.426  -6.838  42.024  1.00  0.00     0.065 A 
ATOM      2  C   UNL     1       9.317  -6.797  40.941  1.00  0.00     0.208 A 
ATOM      3  O   UNL     1       9.804  -5.643  40.502  1.00  0.00    -0.463 OA
ATOM      4  C   UNL     1       9.489  -4.467  41.040  1.00  0.00     0.147 A 
ATOM      5  C   UNL     1       8.588  -4.415  42.129  1.00  0.00     0.066 A 
ATOM      6  C   UNL     1       8.051  -5.620  42.619  1.00  0.00     0.200 A 
ATOM      7  O   UNL     1       7.223  -5.606  43.572  1.00  0.00    -0.288 OA
ATOM      8  C   UNL     1       8.243  -3.172  42.685  1.00  0.00     0.020 A 
ATOM      9  C   UNL     1       8.778  -1.997  42.162  1.00  0.00     0.047 A 
ATOM     10  C   UNL     1       9.669  -2.037  41.083  1.00  0.00     0.125 A 
ATOM     11  C   UNL     1      10.050  -3.277  40.521  1.00  0.00     0.069 A 
ENDROOT
BRANCH   1  12
ATOM     12  C   UNL     1       7.901  -8.141  42.503  1.00  0.00    -0.011 A 
ATOM     13  C   UNL     1       8.069  -8.532  43.843  1.00  0.00     0.013 A 
ATOM     14  C   UNL     1       7.582  -9.766  44.286  1.00  0.00     0.047 A 
ATOM     15  C   UNL     1       6.926 -10.624  43.399  1.00  0.00     0.115 A 
ATOM     16  C   UNL     1       7.248  -9.012  41.614  1.00  0.00     0.013 A 
ATOM     17  C   UNL     1       6.760 -10.245  42.060  1.00  0.00     0.047 A 
BRANCH  15  18
ATOM     18  O   UNL     1       6.445 -11.849  43.855  1.00  0.00    -0.508 OA
ATOM     19  H   UNL     1       7.021 -12.682  43.843  1.00  0.00     0.293 HD
ENDBRANCH  15  18
ENDBRANCH   1  12
BRANCH  11  20
ATOM     20  C   UNL     1      11.002  -3.329  39.332  1.00  0.00     0.188 C 
ATOM     21  C   UNL     1      12.257  -4.159  39.693  1.00  0.00     0.179 C 
ATOM     22  O   UNL     1      10.327  -3.889  38.217  1.00  0.00    -0.362 OA
ATOM     23  C   UNL     1      13.190  -4.276  38.470  1.00  0.00     0.177 C 
ATOM     24  C   UNL     1      11.130  -3.823  37.052  1.00  0.00     0.176 C 
ATOM     25  C   UNL     1      12.401  -4.700  37.213  1.00  0.00     0.177 C 
BRANCH  21  26
ATOM     26  O   UNL     1      12.937  -3.550  40.760  1.00  0.00    -0.387 OA
ATOM     27  H   UNL     1      13.281  -4.282  41.336  1.00  0.00     0.211 HD
ENDBRANCH  21  26
BRANCH  23  28
ATOM     28  O   UNL     1      13.820  -3.039  38.243  1.00  0.00    -0.387 OA
ATOM     29  H   UNL     1      14.515  -3.193  37.551  1.00  0.00     0.211 HD
ENDBRANCH  23  28
BRANCH  24  30
ATOM     30  C   UNL     1      10.282  -4.260  35.849  1.00  0.00     0.191 C 
BRANCH  30  31
ATOM     31  O   UNL     1       8.990  -4.627  36.255  1.00  0.00    -0.394 OA
ATOM     32  H   UNL     1       8.583  -5.129  35.502  1.00  0.00     0.210 HD
ENDBRANCH  30  31
ENDBRANCH  24  30
BRANCH  25  33
ATOM     33  O   UNL     1      12.091  -6.074  37.258  1.00  0.00    -0.388 OA
ATOM     34  H   UNL     1      12.505  -6.460  38.071  1.00  0.00     0.211 HD
ENDBRANCH  25  33
ENDBRANCH  11  20
BRANCH  10  35
ATOM     35  O   UNL     1      10.171  -0.842  40.567  1.00  0.00    -0.507 OA
ATOM     36  H   UNL     1      10.504  -0.099  41.169  1.00  0.00     0.293 HD
ENDBRANCH  10  35
TORSDOF 9
ENDMDL
MODEL 2
REMARK VINA RESULT:    -6.706      1.796      3.063
REMARK INTER + INTRA:          -9.339
REMARK INTER:                  -8.314
REMARK INTRA:                  -1.025
REMARK UNBOUND:                -0.280
REMARK SMILES O=c1c(-c2ccc(O)cc2)coc2c([C@@H]3O[C@H](CO)[C@H](O)[C@@H](O)[C@H]3O)c(O)ccc12
REMARK SMILES IDX 3 1 11 2 12 3 13 4 30 5 2 6 1 7 29 8 28 9 26 10 14 11 4 12
REMARK SMILES IDX 5 13 6 14 7 15 10 16 9 17 8 18 15 20 24 21 16 22 22 23 17 24
REMARK SMILES IDX 20 25 25 26 23 28 18 30 19 31 21 33 27 35
REMARK H PARENT 8 19 25 27 23 29 19 32 21 34 27 36
REMARK Flexibility Score: inf
ROOT
ATOM      1  C   UNL     1       8.850  -6.238  42.281  1.00  0.00     0.065 A 
ATOM      2  C   UNL     1      10.053  -6.141  41.566  1.00  0.00     0.208 A 
ATOM      3  O   UNL     1      10.597  -4.958  41.306  1.00  0.00    -0.463 OA
ATOM      4  C   UNL     1      10.056  -3.806  41.695  1.00  0.00     0.147 A 
ATOM      5  C   UNL     1       8.837  -3.811  42.412  1.00  0.00     0.066 A 
ATOM      6  C   UNL     1       8.231  -5.047  42.701  1.00  0.00     0.200 A 
ATOM      7  O   UNL     1       7.129  -5.087  43.316  1.00  0.00    -0.288 OA
ATOM      8  C   UNL     1       8.259  -2.594  42.805  1.00  0.00     0.020 A 
ATOM      9  C   UNL     1       8.876  -1.387  42.483  1.00  0.00     0.047 A 
ATOM     10  C   UNL     1      10.081  -1.370  41.772  1.00  0.00     0.125 A 
ATOM     11  C   UNL     1      10.696  -2.582  41.385  1.00  0.00     0.069 A 
ENDROOT
BRANCH   1  12
ATOM     12  C   UNL     1       8.264  -7.572  42.566  1.00  0.00    -0.011 A 
ATOM     13  C   UNL     1       8.368  -8.142  43.848  1.00  0.00     0.013 A 
ATOM     14  C   UNL     1       7.822  -9.403  44.107  1.00  0.00     0.047 A 
ATOM     15  C   UNL     1       7.172 -10.111  43.093  1.00  0.00     0.115 A 
ATOM     16  C   UNL     1       7.615  -8.293  41.549  1.00  0.00     0.013 A 
ATOM     17  C   UNL     1       7.069  -9.554  41.812  1.00  0.00     0.047 A 
BRANCH  15  18
ATOM     18  O   UNL     1       6.633 -11.366  43.367  1.00  0.00    -0.508 OA
ATOM     19  H   UNL     1       6.679 -12.121  42.693  1.00  0.00     0.293 HD
ENDBRANCH  15  18
ENDBRANCH   1  12
BRANCH  11  20
ATOM     20  C   UNL     1      11.997  -2.573  40.591  1.00  0.00     0.188 C 
ATOM     21  C   UNL     1      11.692  -2.519  39.075  1.00  0.00     0.179 C 
ATOM     22  O   UNL     1      12.780  -1.459  40.991  1.00  0.00    -0.362 OA
ATOM     23  C   UNL     1      13.005  -2.435  38.269  1.00  0.00     0.177 C 
ATOM     24  C   UNL     1      14.059  -1.492  40.381  1.00  0.00     0.176 C 
ATOM     25  C   UNL     1      13.934  -1.343  38.841  1.00  0.00     0.177 C 
BRANCH  21  26
ATOM     26  O   UNL     1      10.968  -3.661  38.697  1.00  0.00    -0.387 OA
ATOM     27  H   UNL     1      10.064  -3.573  39.097  1.00  0.00     0.211 HD
ENDBRANCH  21  26
BRANCH  23  28
ATOM     28  O   UNL     1      13.655  -3.682  38.305  1.00  0.00    -0.387 OA
ATOM     29  H   UNL     1      13.108  -4.275  38.884  1.00  0.00     0.211 HD
ENDBRANCH  23  28
BRANCH  24  30
ATOM     30  C   UNL     1      14.922  -0.381  40.995  1.00  0.00     0.191 C 
BRANCH  30  31
ATOM     31  O   UNL     1      15.982  -0.043  40.140  1.00  0.00    -0.394 OA
ATOM     32  H   UNL     1      15.940   0.940  40.004  1.00  0.00     0.210 HD
ENDBRANCH  30  31
ENDBRANCH  24  30
BRANCH  25  33
ATOM     33  O   UNL     1      13.486  -0.061  38.470  1.00  0.00    -0.388 OA
ATOM     34  H   UNL     1      14.057   0.267  37.730  1.00  0.00     0.211 HD
ENDBRANCH  25  33
ENDBRANCH  11  20
BRANCH  10  35
ATOM     35  O   UNL     1      10.665  -0.145  41.446  1.00  0.00    -0.507 OA
ATOM     36  H   UNL     1      10.539   0.677  42.024  1.00  0.00     0.293 HD
ENDBRANCH  10  35
TORSDOF 9
ENDMDL
MODEL 3
REMARK VINA RESULT:    -6.513      3.359      7.826
REMARK INTER + INTRA:          -9.077
REMARK INTER:                  -8.396
REMARK INTRA:                  -0.682
REMARK UNBOUND:                -0.280
REMARK SMILES O=c1c(-c2ccc(O)cc2)coc2c([C@@H]3O[C@H](CO)[C@H](O)[C@@H](O)[C@H]3O)c(O)ccc12
REMARK SMILES IDX 3 1 11 2 12 3 13 4 30 5 2 6 1 7 29 8 28 9 26 10 14 11 4 12
REMARK SMILES IDX 5 13 6 14 7 15 10 16 9 17 8 18 15 20 24 21 16 22 22 23 17 24
REMARK SMILES IDX 20 25 25 26 23 28 18 30 19 31 21 33 27 35
REMARK H PARENT 8 19 25 27 23 29 19 32 21 34 27 36
REMARK Flexibility Score: inf
ROOT
ATOM      1  C   UNL     1      11.424  -4.727  35.374  1.00  0.00     0.065 A 
ATOM      2  C   UNL     1      11.718  -4.491  36.725  1.00  0.00     0.208 A 
ATOM      3  O   UNL     1      10.777  -4.079  37.566  1.00  0.00    -0.463 OA
ATOM      4  C   UNL     1       9.516  -3.863  37.199  1.00  0.00     0.147 A 
ATOM      5  C   UNL     1       9.134  -4.066  35.852  1.00  0.00     0.066 A 
ATOM      6  C   UNL     1      10.108  -4.500  34.934  1.00  0.00     0.200 A 
ATOM      7  O   UNL     1       9.807  -4.665  33.719  1.00  0.00    -0.288 OA
ATOM      8  C   UNL     1       7.808  -3.821  35.463  1.00  0.00     0.020 A 
ATOM      9  C   UNL     1       6.875  -3.373  36.395  1.00  0.00     0.047 A 
ATOM     10  C   UNL     1       7.241  -3.166  37.729  1.00  0.00     0.125 A 
ATOM     11  C   UNL     1       8.565  -3.428  38.152  1.00  0.00     0.069 A 
ENDROOT
BRANCH   1  12
ATOM     12  C   UNL     1      12.491  -5.195  34.455  1.00  0.00    -0.011 A 
ATOM     13  C   UNL     1      12.692  -6.569  34.230  1.00  0.00     0.013 A 
ATOM     14  C   UNL     1      13.706  -7.004  33.370  1.00  0.00     0.047 A 
ATOM     15  C   UNL     1      14.532  -6.076  32.730  1.00  0.00     0.115 A 
ATOM     16  C   UNL     1      13.331  -4.268  33.813  1.00  0.00     0.013 A 
ATOM     17  C   UNL     1      14.343  -4.706  32.953  1.00  0.00     0.047 A 
BRANCH  15  18
ATOM     18  O   UNL     1      15.536  -6.525  31.875  1.00  0.00    -0.508 OA
ATOM     19  H   UNL     1      15.472  -7.420  31.405  1.00  0.00     0.293 HD
ENDBRANCH  15  18
ENDBRANCH   1  12
BRANCH  11  20
ATOM     20  C   UNL     1       8.979  -3.185  39.598  1.00  0.00     0.188 C 
ATOM     21  C   UNL     1       8.877  -4.499  40.407  1.00  0.00     0.179 C 
ATOM     22  O   UNL     1      10.303  -2.674  39.625  1.00  0.00    -0.362 OA
ATOM     23  C   UNL     1       9.364  -4.276  41.854  1.00  0.00     0.177 C 
ATOM     24  C   UNL     1      10.675  -2.299  40.940  1.00  0.00     0.176 C 
ATOM     25  C   UNL     1      10.722  -3.541  41.871  1.00  0.00     0.177 C 
BRANCH  21  26
ATOM     26  O   UNL     1       7.546  -4.950  40.412  1.00  0.00    -0.387 OA
ATOM     27  H   UNL     1       6.971  -4.143  40.465  1.00  0.00     0.211 HD
ENDBRANCH  21  26
BRANCH  23  28
ATOM     28  O   UNL     1       8.406  -3.524  42.558  1.00  0.00    -0.387 OA
ATOM     29  H   UNL     1       7.519  -3.916  42.343  1.00  0.00     0.211 HD
ENDBRANCH  23  28
BRANCH  24  30
ATOM     30  C   UNL     1      12.030  -1.580  40.878  1.00  0.00     0.191 C 
BRANCH  30  31
ATOM     31  O   UNL     1      12.875  -2.187  39.936  1.00  0.00    -0.394 OA
ATOM     32  H   UNL     1      13.684  -1.617  39.864  1.00  0.00     0.210 HD
ENDBRANCH  30  31
ENDBRANCH  24  30
BRANCH  25  33
ATOM     33  O   UNL     1      11.769  -4.418  41.527  1.00  0.00    -0.388 OA
ATOM     34  H   UNL     1      12.549  -4.212  42.102  1.00  0.00     0.211 HD
ENDBRANCH  25  33
ENDBRANCH  11  20
BRANCH  10  35
ATOM     35  O   UNL     1       6.289  -2.696  38.635  1.00  0.00    -0.507 OA
ATOM     36  H   UNL     1       5.740  -1.866  38.449  1.00  0.00     0.293 HD
ENDBRANCH  10  35
TORSDOF 9
ENDMDL
MODEL 4
REMARK VINA RESULT:    -6.476      3.949      6.143
REMARK INTER + INTRA:          -9.028
REMARK INTER:                  -8.076
REMARK INTRA:                  -0.952
REMARK UNBOUND:                -0.280
REMARK SMILES O=c1c(-c2ccc(O)cc2)coc2c([C@@H]3O[C@H](CO)[C@H](O)[C@@H](O)[C@H]3O)c(O)ccc12
REMARK SMILES IDX 3 1 11 2 12 3 13 4 30 5 2 6 1 7 29 8 28 9 26 10 14 11 4 12
REMARK SMILES IDX 5 13 6 14 7 15 10 16 9 17 8 18 15 20 24 21 16 22 22 23 17 24
REMARK SMILES IDX 20 25 25 26 23 28 18 30 19 31 21 33 27 35
REMARK H PARENT 8 19 25 27 23 29 19 32 21 34 27 36
REMARK Flexibility Score: inf
ROOT
ATOM      1  C   UNL     1       9.401  -3.099  39.394  1.00  0.00     0.065 A 
ATOM      2  C   UNL     1      10.712  -3.374  38.979  1.00  0.00     0.208 A 
ATOM      3  O   UNL     1      10.967  -3.751  37.732  1.00  0.00    -0.463 OA
ATOM      4  C   UNL     1      10.021  -3.895  36.806  1.00  0.00     0.147 A 
ATOM      5  C   UNL     1       8.670  -3.648  37.143  1.00  0.00     0.066 A 
ATOM      6  C   UNL     1       8.364  -3.250  38.457  1.00  0.00     0.200 A 
ATOM      7  O   UNL     1       7.165  -3.048  38.798  1.00  0.00    -0.288 OA
ATOM      8  C   UNL     1       7.671  -3.817  36.170  1.00  0.00     0.020 A 
ATOM      9  C   UNL     1       8.008  -4.234  34.884  1.00  0.00     0.047 A 
ATOM     10  C   UNL     1       9.341  -4.483  34.540  1.00  0.00     0.125 A 
ATOM     11  C   UNL     1      10.368  -4.297  35.495  1.00  0.00     0.069 A 
ENDROOT
BRANCH   1  12
ATOM     12  C   UNL     1       9.142  -2.671  40.792  1.00  0.00    -0.011 A 
ATOM     13  C   UNL     1       8.670  -3.589  41.747  1.00  0.00     0.013 A 
ATOM     14  C   UNL     1       8.418  -3.176  43.059  1.00  0.00     0.047 A 
ATOM     15  C   UNL     1       8.630  -1.846  43.432  1.00  0.00     0.115 A 
ATOM     16  C   UNL     1       9.345  -1.333  41.172  1.00  0.00     0.013 A 
ATOM     17  C   UNL     1       9.094  -0.924  42.486  1.00  0.00     0.047 A 
BRANCH  15  18
ATOM     18  O   UNL     1       8.376  -1.451  44.744  1.00  0.00    -0.508 OA
ATOM     19  H   UNL     1       9.128  -1.227  45.385  1.00  0.00     0.293 HD
ENDBRANCH  15  18
ENDBRANCH   1  12
BRANCH  11  20
ATOM     20  C   UNL     1      11.820  -4.587  35.136  1.00  0.00     0.188 C 
ATOM     21  C   UNL     1      11.973  -6.061  34.694  1.00  0.00     0.179 C 
ATOM     22  O   UNL     1      12.232  -3.703  34.105  1.00  0.00    -0.362 OA
ATOM     23  C   UNL     1      13.427  -6.341  34.260  1.00  0.00     0.177 C 
ATOM     24  C   UNL     1      13.618  -3.842  33.842  1.00  0.00     0.176 C 
ATOM     25  C   UNL     1      13.930  -5.256  33.284  1.00  0.00     0.177 C 
BRANCH  21  26
ATOM     26  O   UNL     1      11.615  -6.913  35.752  1.00  0.00    -0.387 OA
ATOM     27  H   UNL     1      10.852  -7.463  35.432  1.00  0.00     0.211 HD
ENDBRANCH  21  26
BRANCH  23  28
ATOM     28  O   UNL     1      14.254  -6.380  35.397  1.00  0.00    -0.387 OA
ATOM     29  H   UNL     1      15.087  -6.850  35.131  1.00  0.00     0.211 HD
ENDBRANCH  23  28
BRANCH  24  30
ATOM     30  C   UNL     1      14.042  -2.735  32.866  1.00  0.00     0.191 C 
BRANCH  30  31
ATOM     31  O   UNL     1      13.068  -2.542  31.875  1.00  0.00    -0.394 OA
ATOM     32  H   UNL     1      12.907  -3.425  31.452  1.00  0.00     0.210 HD
ENDBRANCH  30  31
ENDBRANCH  24  30
BRANCH  25  33
ATOM     33  O   UNL     1      13.384  -5.448  32.000  1.00  0.00    -0.388 OA
ATOM     34  H   UNL     1      13.076  -6.388  31.929  1.00  0.00     0.211 HD
ENDBRANCH  25  33
ENDBRANCH  11  20
BRANCH  10  35
ATOM     35  O   UNL     1       9.645  -4.919  33.250  1.00  0.00    -0.507 OA
ATOM     36  H   UNL     1       8.922  -5.113  32.568  1.00  0.00     0.293 HD
ENDBRANCH  10  35
TORSDOF 9
ENDMDL
MODEL 5
REMARK VINA RESULT:    -6.383     12.561     14.894
REMARK INTER + INTRA:          -8.901
REMARK INTER:                  -7.954
REMARK INTRA:                  -0.948
REMARK UNBOUND:                -0.280
REMARK SMILES O=c1c(-c2ccc(O)cc2)coc2c([C@@H]3O[C@H](CO)[C@H](O)[C@@H](O)[C@H]3O)c(O)ccc12
REMARK SMILES IDX 3 1 11 2 12 3 13 4 30 5 2 6 1 7 29 8 28 9 26 10 14 11 4 12
REMARK SMILES IDX 5 13 6 14 7 15 10 16 9 17 8 18 15 20 24 21 16 22 22 23 17 24
REMARK SMILES IDX 20 25 25 26 23 28 18 30 19 31 21 33 27 35
REMARK H PARENT 8 19 25 27 23 29 19 32 21 34 27 36
REMARK Flexibility Score: inf
ROOT
ATOM      1  C   UNL     1      19.051 -10.382  42.242  1.00  0.00     0.065 A 
ATOM      2  C   UNL     1      19.145 -11.093  43.448  1.00  0.00     0.208 A 
ATOM      3  O   UNL     1      20.311 -11.567  43.870  1.00  0.00    -0.463 OA
ATOM      4  C   UNL     1      21.449 -11.408  43.198  1.00  0.00     0.147 A 
ATOM      5  C   UNL     1      21.443 -10.713  41.967  1.00  0.00     0.066 A 
ATOM      6  C   UNL     1      20.224 -10.199  41.488  1.00  0.00     0.200 A 
ATOM      7  O   UNL     1      20.179  -9.597  40.379  1.00  0.00    -0.288 OA
ATOM      8  C   UNL     1      22.641 -10.562  41.250  1.00  0.00     0.020 A 
ATOM      9  C   UNL     1      23.827 -11.101  41.744  1.00  0.00     0.047 A 
ATOM     10  C   UNL     1      23.844 -11.794  42.960  1.00  0.00     0.125 A 
ATOM     11  C   UNL     1      22.656 -11.938  43.712  1.00  0.00     0.069 A 
ENDROOT
BRANCH   1  12
ATOM     12  C   UNL     1      17.738  -9.854  41.795  1.00  0.00    -0.011 A 
ATOM     13  C   UNL     1      17.383  -8.515  42.039  1.00  0.00     0.013 A 
ATOM     14  C   UNL     1      16.140  -8.026  41.623  1.00  0.00     0.047 A 
ATOM     15  C   UNL     1      15.238  -8.866  40.965  1.00  0.00     0.115 A 
ATOM     16  C   UNL     1      16.822 -10.695  41.139  1.00  0.00     0.013 A 
ATOM     17  C   UNL     1      15.581 -10.203  40.723  1.00  0.00     0.047 A 
BRANCH  15  18
ATOM     18  O   UNL     1      14.004  -8.365  40.555  1.00  0.00    -0.508 OA
ATOM     19  H   UNL     1      13.185  -8.424  41.149  1.00  0.00     0.293 HD
ENDBRANCH  15  18
ENDBRANCH   1  12
BRANCH  11  20
ATOM     20  C   UNL     1      22.660 -12.710  45.026  1.00  0.00     0.188 C 
ATOM     21  C   UNL     1      22.497 -14.224  44.753  1.00  0.00     0.179 C 
ATOM     22  O   UNL     1      23.871 -12.447  45.718  1.00  0.00    -0.362 OA
ATOM     23  C   UNL     1      22.573 -15.017  46.075  1.00  0.00     0.177 C 
ATOM     24  C   UNL     1      23.855 -13.030  47.009  1.00  0.00     0.176 C 
ATOM     25  C   UNL     1      23.796 -14.578  46.910  1.00  0.00     0.177 C 
BRANCH  21  26
ATOM     26  O   UNL     1      21.265 -14.461  44.122  1.00  0.00    -0.387 OA
ATOM     27  H   UNL     1      21.352 -14.131  43.190  1.00  0.00     0.211 HD
ENDBRANCH  21  26
BRANCH  23  28
ATOM     28  O   UNL     1      21.393 -14.811  46.812  1.00  0.00    -0.387 OA
ATOM     29  H   UNL     1      20.639 -15.092  46.231  1.00  0.00     0.211 HD
ENDBRANCH  23  28
BRANCH  24  30
ATOM     30  C   UNL     1      25.096 -12.554  47.776  1.00  0.00     0.191 C 
BRANCH  30  31
ATOM     31  O   UNL     1      24.931 -11.233  48.223  1.00  0.00    -0.394 OA
ATOM     32  H   UNL     1      24.012 -10.956  47.971  1.00  0.00     0.210 HD
ENDBRANCH  30  31
ENDBRANCH  24  30
BRANCH  25  33
ATOM     33  O   UNL     1      24.983 -15.119  46.379  1.00  0.00    -0.388 OA
ATOM     34  H   UNL     1      25.722 -14.483  46.557  1.00  0.00     0.211 HD
ENDBRANCH  25  33
ENDBRANCH  11  20
BRANCH  10  35
ATOM     35  O   UNL     1      25.043 -12.341  43.418  1.00  0.00    -0.507 OA
ATOM     36  H   UNL     1      25.593 -12.973  42.850  1.00  0.00     0.293 HD
ENDBRANCH  10  35
TORSDOF 9
ENDMDL
MODEL 6
REMARK VINA RESULT:    -6.249      2.915      8.493
REMARK INTER + INTRA:          -8.721
REMARK INTER:                  -7.792
REMARK INTRA:                  -0.929
REMARK UNBOUND:                -0.280
REMARK SMILES O=c1c(-c2ccc(O)cc2)coc2c([C@@H]3O[C@H](CO)[C@H](O)[C@@H](O)[C@H]3O)c(O)ccc12
REMARK SMILES IDX 3 1 11 2 12 3 13 4 30 5 2 6 1 7 29 8 28 9 26 10 14 11 4 12
REMARK SMILES IDX 5 13 6 14 7 15 10 16 9 17 8 18 15 20 24 21 16 22 22 23 17 24
REMARK SMILES IDX 20 25 25 26 23 28 18 30 19 31 21 33 27 35
REMARK H PARENT 8 19 25 27 23 29 19 32 21 34 27 36
REMARK Flexibility Score: inf
ROOT
ATOM      1  C   UNL     1      12.535  -3.796  35.560  1.00  0.00     0.065 A 
ATOM      2  C   UNL     1      12.796  -3.781  36.937  1.00  0.00     0.208 A 
ATOM      3  O   UNL     1      11.805  -3.787  37.820  1.00  0.00    -0.463 OA
ATOM      4  C   UNL     1      10.520  -3.807  37.471  1.00  0.00     0.147 A 
ATOM      5  C   UNL     1      10.166  -3.813  36.102  1.00  0.00     0.066 A 
ATOM      6  C   UNL     1      11.192  -3.803  35.140  1.00  0.00     0.200 A 
ATOM      7  O   UNL     1      10.911  -3.781  33.910  1.00  0.00    -0.288 OA
ATOM      8  C   UNL     1       8.810  -3.816  35.737  1.00  0.00     0.020 A 
ATOM      9  C   UNL     1       7.819  -3.804  36.716  1.00  0.00     0.047 A 
ATOM     10  C   UNL     1       8.158  -3.796  38.074  1.00  0.00     0.125 A 
ATOM     11  C   UNL     1       9.515  -3.817  38.468  1.00  0.00     0.069 A 
ENDROOT
BRANCH   1  12
ATOM     12  C   UNL     1      13.661  -3.797  34.592  1.00  0.00    -0.011 A 
ATOM     13  C   UNL     1      14.192  -5.007  34.111  1.00  0.00     0.013 A 
ATOM     14  C   UNL     1      15.259  -5.001  33.207  1.00  0.00     0.047 A 
ATOM     15  C   UNL     1      15.811  -3.791  32.777  1.00  0.00     0.115 A 
ATOM     16  C   UNL     1      14.225  -2.584  34.161  1.00  0.00     0.013 A 
ATOM     17  C   UNL     1      15.292  -2.581  33.256  1.00  0.00     0.047 A 
BRANCH  15  18
ATOM     18  O   UNL     1      16.873  -3.801  31.875  1.00  0.00    -0.508 OA
ATOM     19  H   UNL     1      16.787  -4.229  30.961  1.00  0.00     0.293 HD
ENDBRANCH  15  18
ENDBRANCH   1  12
BRANCH  11  20
ATOM     20  C   UNL     1       9.894  -3.786  39.943  1.00  0.00     0.188 C 
ATOM     21  C   UNL     1       9.625  -2.380  40.531  1.00  0.00     0.179 C 
ATOM     22  O   UNL     1       9.150  -4.776  40.638  1.00  0.00    -0.362 OA
ATOM     23  C   UNL     1       9.938  -2.362  42.041  1.00  0.00     0.177 C 
ATOM     24  C   UNL     1       9.575  -4.878  41.985  1.00  0.00     0.176 C 
ATOM     25  C   UNL     1       9.278  -3.562  42.754  1.00  0.00     0.177 C 
BRANCH  21  26
ATOM     26  O   UNL     1      10.418  -1.430  39.865  1.00  0.00    -0.387 OA
ATOM     27  H   UNL     1      10.674  -1.831  38.994  1.00  0.00     0.211 HD
ENDBRANCH  21  26
BRANCH  23  28
ATOM     28  O   UNL     1      11.332  -2.403  42.230  1.00  0.00    -0.387 OA
ATOM     29  H   UNL     1      11.526  -3.220  42.760  1.00  0.00     0.211 HD
ENDBRANCH  23  28
BRANCH  24  30
ATOM     30  C   UNL     1       8.878  -6.086  42.628  1.00  0.00     0.191 C 
BRANCH  30  31
ATOM     31  O   UNL     1       9.801  -6.884  43.321  1.00  0.00    -0.394 OA
ATOM     32  H   UNL     1      10.632  -6.901  42.780  1.00  0.00     0.210 HD
ENDBRANCH  30  31
ENDBRANCH  24  30
BRANCH  25  33
ATOM     33  O   UNL     1       7.896  -3.347  42.917  1.00  0.00    -0.388 OA
ATOM     34  H   UNL     1       7.628  -3.700  43.804  1.00  0.00     0.211 HD
ENDBRANCH  25  33
ENDBRANCH  11  20
BRANCH  10  35
ATOM     35  O   UNL     1       7.143  -3.763  39.031  1.00  0.00    -0.507 OA
ATOM     36  H   UNL     1       6.406  -4.457  39.051  1.00  0.00     0.293 HD
ENDBRANCH  10  35
TORSDOF 9
ENDMDL
MODEL 7
REMARK VINA RESULT:    -5.999     12.074     14.265
REMARK INTER + INTRA:          -8.384
REMARK INTER:                  -8.129
REMARK INTRA:                  -0.255
REMARK UNBOUND:                -0.280
REMARK SMILES O=c1c(-c2ccc(O)cc2)coc2c([C@@H]3O[C@H](CO)[C@H](O)[C@@H](O)[C@H]3O)c(O)ccc12
REMARK SMILES IDX 3 1 11 2 12 3 13 4 30 5 2 6 1 7 29 8 28 9 26 10 14 11 4 12
REMARK SMILES IDX 5 13 6 14 7 15 10 16 9 17 8 18 15 20 24 21 16 22 22 23 17 24
REMARK SMILES IDX 20 25 25 26 23 28 18 30 19 31 21 33 27 35
REMARK H PARENT 8 19 25 27 23 29 19 32 21 34 27 36
REMARK Flexibility Score: inf
ROOT
ATOM      1  C   UNL     1      18.897 -10.447  42.292  1.00  0.00     0.065 A 
ATOM      2  C   UNL     1      19.119 -11.221  43.441  1.00  0.00     0.208 A 
ATOM      3  O   UNL     1      20.348 -11.565  43.803  1.00  0.00    -0.463 OA
ATOM      4  C   UNL     1      21.435 -11.212  43.120  1.00  0.00     0.147 A 
ATOM      5  C   UNL     1      21.302 -10.440  41.943  1.00  0.00     0.066 A 
ATOM      6  C   UNL     1      20.013 -10.060  41.528  1.00  0.00     0.200 A 
ATOM      7  O   UNL     1      19.856  -9.394  40.467  1.00  0.00    -0.288 OA
ATOM      8  C   UNL     1      22.448 -10.084  41.214  1.00  0.00     0.020 A 
ATOM      9  C   UNL     1      23.708 -10.496  41.642  1.00  0.00     0.047 A 
ATOM     10  C   UNL     1      23.852 -11.262  42.804  1.00  0.00     0.125 A 
ATOM     11  C   UNL     1      22.716 -11.613  43.569  1.00  0.00     0.069 A 
ENDROOT
BRANCH   1  12
ATOM     12  C   UNL     1      17.513 -10.066  41.911  1.00  0.00    -0.011 A 
ATOM     13  C   UNL     1      17.140  -8.713  41.824  1.00  0.00     0.013 A 
ATOM     14  C   UNL     1      15.832  -8.362  41.475  1.00  0.00     0.047 A 
ATOM     15  C   UNL     1      14.883  -9.353  41.213  1.00  0.00     0.115 A 
ATOM     16  C   UNL     1      16.551 -11.058  41.654  1.00  0.00     0.013 A 
ATOM     17  C   UNL     1      15.244 -10.703  41.304  1.00  0.00     0.047 A 
BRANCH  15  18
ATOM     18  O   UNL     1      13.584  -8.987  40.865  1.00  0.00    -0.508 OA
ATOM     19  H   UNL     1      12.828  -9.662  40.855  1.00  0.00     0.293 HD
ENDBRANCH  15  18
ENDBRANCH   1  12
BRANCH  11  20
ATOM     20  C   UNL     1      22.860 -12.466  44.823  1.00  0.00     0.188 C 
ATOM     21  C   UNL     1      21.902 -11.955  45.926  1.00  0.00     0.179 C 
ATOM     22  O   UNL     1      22.585 -13.821  44.502  1.00  0.00    -0.362 OA
ATOM     23  C   UNL     1      21.991 -12.858  47.173  1.00  0.00     0.177 C 
ATOM     24  C   UNL     1      22.848 -14.668  45.607  1.00  0.00     0.176 C 
ATOM     25  C   UNL     1      21.885 -14.348  46.782  1.00  0.00     0.177 C 
BRANCH  21  26
ATOM     26  O   UNL     1      22.234 -10.633  46.265  1.00  0.00    -0.387 OA
ATOM     27  H   UNL     1      21.930 -10.059  45.515  1.00  0.00     0.211 HD
ENDBRANCH  21  26
BRANCH  23  28
ATOM     28  O   UNL     1      23.210 -12.624  47.834  1.00  0.00    -0.387 OA
ATOM     29  H   UNL     1      23.851 -12.298  47.148  1.00  0.00     0.211 HD
ENDBRANCH  23  28
BRANCH  24  30
ATOM     30  C   UNL     1      22.722 -16.127  45.145  1.00  0.00     0.191 C 
BRANCH  30  31
ATOM     31  O   UNL     1      21.468 -16.359  44.560  1.00  0.00    -0.394 OA
ATOM     32  H   UNL     1      20.876 -16.710  45.274  1.00  0.00     0.210 HD
ENDBRANCH  30  31
ENDBRANCH  24  30
BRANCH  25  33
ATOM     33  O   UNL     1      20.553 -14.693  46.481  1.00  0.00    -0.388 OA
ATOM     34  H   UNL     1      20.216 -14.061  45.796  1.00  0.00     0.211 HD
ENDBRANCH  25  33
ENDBRANCH  11  20
BRANCH  10  35
ATOM     35  O   UNL     1      25.125 -11.677  43.196  1.00  0.00    -0.507 OA
ATOM     36  H   UNL     1      25.520 -12.556  42.885  1.00  0.00     0.293 HD
ENDBRANCH  10  35
TORSDOF 9
ENDMDL
MODEL 8
REMARK VINA RESULT:    -5.899     12.584     14.646
REMARK INTER + INTRA:          -8.249
REMARK INTER:                  -7.150
REMARK INTRA:                  -1.098
REMARK UNBOUND:                -0.280
REMARK SMILES O=c1c(-c2ccc(O)cc2)coc2c([C@@H]3O[C@H](CO)[C@H](O)[C@@H](O)[C@H]3O)c(O)ccc12
REMARK SMILES IDX 3 1 11 2 12 3 13 4 30 5 2 6 1 7 29 8 28 9 26 10 14 11 4 12
REMARK SMILES IDX 5 13 6 14 7 15 10 16 9 17 8 18 15 20 24 21 16 22 22 23 17 24
REMARK SMILES IDX 20 25 25 26 23 28 18 30 19 31 21 33 27 35
REMARK H PARENT 8 19 25 27 23 29 19 32 21 34 27 36
REMARK Flexibility Score: inf
ROOT
ATOM      1  C   UNL     1      17.777 -11.702  41.877  1.00  0.00     0.065 A 
ATOM      2  C   UNL     1      18.769 -11.406  42.824  1.00  0.00     0.208 A 
ATOM      3  O   UNL     1      19.609 -12.342  43.247  1.00  0.00    -0.463 OA
ATOM      4  C   UNL     1      19.574 -13.601  42.817  1.00  0.00     0.147 A 
ATOM      5  C   UNL     1      18.598 -13.990  41.870  1.00  0.00     0.066 A 
ATOM      6  C   UNL     1      17.689 -13.023  41.402  1.00  0.00     0.200 A 
ATOM      7  O   UNL     1      16.788 -13.343  40.577  1.00  0.00    -0.288 OA
ATOM      8  C   UNL     1      18.550 -15.323  41.431  1.00  0.00     0.020 A 
ATOM      9  C   UNL     1      19.452 -16.259  41.931  1.00  0.00     0.047 A 
ATOM     10  C   UNL     1      20.421 -15.886  42.870  1.00  0.00     0.125 A 
ATOM     11  C   UNL     1      20.505 -14.545  43.310  1.00  0.00     0.069 A 
ENDROOT
BRANCH   1  12
ATOM     12  C   UNL     1      16.854 -10.637  41.413  1.00  0.00    -0.011 A 
ATOM     13  C   UNL     1      17.327  -9.572  40.624  1.00  0.00     0.013 A 
ATOM     14  C   UNL     1      16.454  -8.566  40.198  1.00  0.00     0.047 A 
ATOM     15  C   UNL     1      15.103  -8.607  40.557  1.00  0.00     0.115 A 
ATOM     16  C   UNL     1      15.496 -10.667  41.776  1.00  0.00     0.013 A 
ATOM     17  C   UNL     1      14.625  -9.660  41.347  1.00  0.00     0.047 A 
BRANCH  15  18
ATOM     18  O   UNL     1      14.246  -7.598  40.123  1.00  0.00    -0.508 OA
ATOM     19  H   UNL     1      13.333  -7.809  39.737  1.00  0.00     0.293 HD
ENDBRANCH  15  18
ENDBRANCH   1  12
BRANCH  11  20
ATOM     20  C   UNL     1      21.541 -14.135  44.349  1.00  0.00     0.188 C 
ATOM     21  C   UNL     1      21.030 -14.470  45.770  1.00  0.00     0.179 C 
ATOM     22  O   UNL     1      22.764 -14.804  44.079  1.00  0.00    -0.362 OA
ATOM     23  C   UNL     1      22.105 -14.123  46.821  1.00  0.00     0.177 C 
ATOM     24  C   UNL     1      23.794 -14.341  44.935  1.00  0.00     0.176 C 
ATOM     25  C   UNL     1      23.479 -14.696  46.413  1.00  0.00     0.177 C 
BRANCH  21  26
ATOM     26  O   UNL     1      19.852 -13.750  46.032  1.00  0.00    -0.387 OA
ATOM     27  H   UNL     1      19.912 -13.434  46.971  1.00  0.00     0.211 HD
ENDBRANCH  21  26
BRANCH  23  28
ATOM     28  O   UNL     1      22.192 -12.726  46.957  1.00  0.00    -0.387 OA
ATOM     29  H   UNL     1      21.746 -12.332  46.162  1.00  0.00     0.211 HD
ENDBRANCH  23  28
BRANCH  24  30
ATOM     30  C   UNL     1      25.124 -14.952  44.471  1.00  0.00     0.191 C 
BRANCH  30  31
ATOM     31  O   UNL     1      24.965 -16.309  44.148  1.00  0.00    -0.394 OA
ATOM     32  H   UNL     1      25.129 -16.825  44.980  1.00  0.00     0.210 HD
ENDBRANCH  30  31
ENDBRANCH  24  30
BRANCH  25  33
ATOM     33  O   UNL     1      23.530 -16.084  46.644  1.00  0.00    -0.388 OA
ATOM     34  H   UNL     1      22.774 -16.508  46.165  1.00  0.00     0.211 HD
ENDBRANCH  25  33
ENDBRANCH  11  20
BRANCH  10  35
ATOM     35  O   UNL     1      21.297 -16.851  43.368  1.00  0.00    -0.507 OA
ATOM     36  H   UNL     1      20.963 -17.690  43.826  1.00  0.00     0.293 HD
ENDBRANCH  10  35
TORSDOF 9
ENDMDL
