MODEL 1
REMARK VINA RESULT:    -3.222      0.000      0.000
REMARK INTER + INTRA:          -5.139
REMARK INTER:                  -4.917
REMARK INTRA:                  -0.222
REMARK UNBOUND:                -0.222
REMARK SMILES CC1=CCC[C@H](C)C(=O)C[C@@H](C(C)C)C(=O)C1
REMARK SMILES IDX 8 1 9 2 6 3 7 4 5 5 4 6 3 7 2 8 1 9 10 11 11 12 15 13 16 14
REMARK SMILES IDX 17 15 12 17 13 18 14 19
REMARK H PARENT
REMARK Flexibility Score: 70.00
ROOT
ATOM      1  C   UNL     1      -5.626  -4.039   6.009  1.00  0.00     0.136 C 
ATOM      2  O   UNL     1      -4.815  -3.132   6.133  1.00  0.00    -0.299 OA
ENDROOT
BRANCH   1   3
ATOM      3  C   UNL     1      -7.027  -3.880   6.572  1.00  0.00     0.053 C 
ATOM      4  C   UNL     1      -7.047  -2.858   7.720  1.00  0.00     0.016 C 
BRANCH   3   5
ATOM      5  C   UNL     1      -8.013  -3.472   5.450  1.00  0.00     0.015 C 
BRANCH   5   6
ATOM      6  C   UNL     1      -8.843  -4.664   4.940  1.00  0.00     0.028 C 
BRANCH   6   7
ATOM      7  C   UNL     1      -8.936  -4.659   3.437  1.00  0.00    -0.028 C 
ATOM      8  C   UNL     1      -8.222  -5.464   2.618  1.00  0.00    -0.070 CG0
ATOM      9  C   UNL     1      -8.390  -5.285   1.129  1.00  0.00     0.039 C 
ATOM     10  G   UNL     1      -7.269  -6.535   3.125  1.00  0.00     0.000 G0
ENDBRANCH   6   7
ENDBRANCH   5   6
ENDBRANCH   3   5
ENDBRANCH   1   3
BRANCH   1  11
ATOM     11  C   UNL     1      -5.218  -5.290   5.267  1.00  0.00     0.087 C 
BRANCH  11  12
ATOM     12  C   UNL     1      -5.150  -5.063   3.736  1.00  0.00     0.066 C 
BRANCH  12  13
ATOM     13  C   UNL     1      -5.824  -6.180   2.945  1.00  0.00     0.140 C 
ATOM     14  O   UNL     1      -5.137  -6.855   2.190  1.00  0.00    -0.299 OA
BRANCH  13  15
ATOM     15  C   UNL     1      -7.279  -6.546   3.120  1.00  0.00     0.106 CG0
ATOM     16  G   UNL     1      -8.217  -5.460   2.615  1.00  0.00     0.000 G0
ENDBRANCH  13  15
ENDBRANCH  12  13
BRANCH  12  17
ATOM     17  C   UNL     1      -3.714  -4.701   3.242  1.00  0.00    -0.006 C 
ATOM     18  C   UNL     1      -2.638  -5.188   4.224  1.00  0.00     0.008 C 
ATOM     19  C   UNL     1      -3.494  -3.216   2.905  1.00  0.00     0.008 C 
ENDBRANCH  12  17
ENDBRANCH  11  12
ENDBRANCH   1  11
TORSDOF 1
ENDMDL
MODEL 2
REMARK VINA RESULT:    -2.719      2.173      5.049
REMARK INTER + INTRA:          -4.372
REMARK INTER:                  -4.438
REMARK INTRA:                   0.066
REMARK UNBOUND:                -0.222
REMARK SMILES CC1=CCC[C@H](C)C(=O)C[C@@H](C(C)C)C(=O)C1
REMARK SMILES IDX 8 1 9 2 6 3 7 4 5 5 4 6 3 7 2 8 1 9 10 11 11 12 15 13 16 14
REMARK SMILES IDX 17 15 12 17 13 18 14 19
REMARK H PARENT
REMARK Flexibility Score: 70.00
ROOT
ATOM      1  C   UNL     1      -8.433  -4.440   4.548  1.00  0.00     0.136 C 
ATOM      2  O   UNL     1      -9.125  -3.532   4.110  1.00  0.00    -0.299 OA
ENDROOT
BRANCH   1   3
ATOM      3  C   UNL     1      -7.962  -5.545   3.619  1.00  0.00     0.053 C 
ATOM      4  C   UNL     1      -9.123  -6.078   2.763  1.00  0.00     0.016 C 
BRANCH   3   5
ATOM      5  C   UNL     1      -6.804  -5.037   2.725  1.00  0.00     0.015 C 
BRANCH   5   6
ATOM      6  C   UNL     1      -5.480  -5.768   3.014  1.00  0.00     0.028 C 
BRANCH   6   7
ATOM      7  C   UNL     1      -4.394  -4.797   3.396  1.00  0.00    -0.028 C 
ATOM      8  C   UNL     1      -4.213  -4.292   4.637  1.00  0.00    -0.070 CG0
ATOM      9  C   UNL     1      -3.112  -3.280   4.834  1.00  0.00     0.039 C 
ATOM     10  G   UNL     1      -5.058  -4.700   5.834  1.00  0.00     0.000 G0
ENDBRANCH   6   7
ENDBRANCH   5   6
ENDBRANCH   3   5
ENDBRANCH   1   3
BRANCH   1  11
ATOM     11  C   UNL     1      -8.039  -4.423   6.006  1.00  0.00     0.087 C 
BRANCH  11  12
ATOM     12  C   UNL     1      -7.164  -3.194   6.358  1.00  0.00     0.066 C 
BRANCH  12  13
ATOM     13  C   UNL     1      -5.695  -3.554   6.556  1.00  0.00     0.140 C 
ATOM     14  O   UNL     1      -5.046  -2.919   7.377  1.00  0.00    -0.299 OA
BRANCH  13  15
ATOM     15  C   UNL     1      -5.033  -4.715   5.852  1.00  0.00     0.106 CG0
ATOM     16  G   UNL     1      -4.228  -4.275   4.638  1.00  0.00     0.000 G0
ENDBRANCH  13  15
ENDBRANCH  12  13
BRANCH  12  17
ATOM     17  C   UNL     1      -7.774  -2.326   7.504  1.00  0.00    -0.006 C 
ATOM     18  C   UNL     1      -8.000  -3.152   8.780  1.00  0.00     0.008 C 
ATOM     19  C   UNL     1      -9.055  -1.560   7.133  1.00  0.00     0.008 C 
ENDBRANCH  12  17
ENDBRANCH  11  12
ENDBRANCH   1  11
TORSDOF 1
ENDMDL
MODEL 3
REMARK VINA RESULT:    -2.648      2.150      5.165
REMARK INTER + INTRA:          -4.262
REMARK INTER:                  -4.543
REMARK INTRA:                   0.281
REMARK UNBOUND:                -0.222
REMARK SMILES CC1=CCC[C@H](C)C(=O)C[C@@H](C(C)C)C(=O)C1
REMARK SMILES IDX 8 1 9 2 6 3 7 4 5 5 4 6 3 7 2 8 1 9 10 11 11 12 15 13 16 14
REMARK SMILES IDX 17 15 12 17 13 18 14 19
REMARK H PARENT
REMARK Flexibility Score: 70.00
ROOT
ATOM      1  C   UNL     1      -4.520  -4.738   2.483  1.00  0.00     0.136 C 
ATOM      2  O   UNL     1      -4.978  -3.995   1.627  1.00  0.00    -0.299 OA
ENDROOT
BRANCH   1   3
ATOM      3  C   UNL     1      -3.030  -4.724   2.776  1.00  0.00     0.053 C 
ATOM      4  C   UNL     1      -2.255  -4.007   1.659  1.00  0.00     0.016 C 
BRANCH   3   5
ATOM      5  C   UNL     1      -2.760  -4.062   4.150  1.00  0.00     0.015 C 
BRANCH   5   6
ATOM      6  C   UNL     1      -3.720  -2.892   4.432  1.00  0.00     0.028 C 
BRANCH   6   7
ATOM      7  C   UNL     1      -3.981  -2.747   5.908  1.00  0.00    -0.028 C 
ATOM      8  C   UNL     1      -4.740  -3.592   6.644  1.00  0.00    -0.070 CG0
ATOM      9  C   UNL     1      -4.950  -3.265   8.101  1.00  0.00     0.039 C 
ATOM     10  G   UNL     1      -5.380  -4.848   6.073  1.00  0.00     0.000 G0
ENDBRANCH   6   7
ENDBRANCH   5   6
ENDBRANCH   3   5
ENDBRANCH   1   3
BRANCH   1  11
ATOM     11  C   UNL     1      -5.460  -5.637   3.252  1.00  0.00     0.087 C 
BRANCH  11  12
ATOM     12  C   UNL     1      -6.694  -4.867   3.786  1.00  0.00     0.066 C 
BRANCH  12  13
ATOM     13  C   UNL     1      -6.621  -4.609   5.288  1.00  0.00     0.140 C 
ATOM     14  O   UNL     1      -7.638  -4.247   5.865  1.00  0.00    -0.299 OA
BRANCH  13  15
ATOM     15  C   UNL     1      -5.378  -4.867   6.106  1.00  0.00     0.106 CG0
ATOM     16  G   UNL     1      -4.760  -3.585   6.645  1.00  0.00     0.000 G0
ENDBRANCH  13  15
ENDBRANCH  12  13
BRANCH  12  17
ATOM     17  C   UNL     1      -8.045  -5.481   3.303  1.00  0.00    -0.006 C 
ATOM     18  C   UNL     1      -7.833  -6.492   2.166  1.00  0.00     0.008 C 
ATOM     19  C   UNL     1      -9.125  -4.459   2.910  1.00  0.00     0.008 C 
ENDBRANCH  12  17
ENDBRANCH  11  12
ENDBRANCH   1  11
TORSDOF 1
ENDMDL
MODEL 4
REMARK VINA RESULT:    -2.575      1.920      4.195
REMARK INTER + INTRA:          -4.151
REMARK INTER:                  -4.844
REMARK INTRA:                   0.693
REMARK UNBOUND:                -0.222
REMARK SMILES CC1=CCC[C@H](C)C(=O)C[C@@H](C(C)C)C(=O)C1
REMARK SMILES IDX 8 1 9 2 6 3 7 4 5 5 4 6 3 7 2 8 1 9 10 11 11 12 15 13 16 14
REMARK SMILES IDX 17 15 12 17 13 18 14 19
REMARK H PARENT
REMARK Flexibility Score: 70.00
ROOT
ATOM      1  C   UNL     1      -3.334  -3.995   4.356  1.00  0.00     0.136 C 
ATOM      2  O   UNL     1      -3.096  -5.117   4.781  1.00  0.00    -0.299 OA
ENDROOT
BRANCH   1   3
ATOM      3  C   UNL     1      -3.076  -3.671   2.895  1.00  0.00     0.053 C 
ATOM      4  C   UNL     1      -2.035  -4.629   2.294  1.00  0.00     0.016 C 
BRANCH   3   5
ATOM      5  C   UNL     1      -4.400  -3.719   2.094  1.00  0.00     0.015 C 
BRANCH   5   6
ATOM      6  C   UNL     1      -5.128  -5.068   2.248  1.00  0.00     0.028 C 
BRANCH   6   7
ATOM      7  C   UNL     1      -6.584  -4.865   2.571  1.00  0.00    -0.028 C 
ATOM      8  C   UNL     1      -7.125  -4.983   3.805  1.00  0.00    -0.070 CG0
ATOM      9  C   UNL     1      -8.616  -4.808   3.944  1.00  0.00     0.039 C 
ATOM     10  G   UNL     1      -6.301  -5.276   5.051  1.00  0.00     0.000 G0
ENDBRANCH   6   7
ENDBRANCH   5   6
ENDBRANCH   3   5
ENDBRANCH   1   3
BRANCH   1  11
ATOM     11  C   UNL     1      -3.910  -2.963   5.297  1.00  0.00     0.087 C 
BRANCH  11  12
ATOM     12  C   UNL     1      -4.744  -3.610   6.431  1.00  0.00     0.066 C 
BRANCH  12  13
ATOM     13  C   UNL     1      -6.113  -4.086   5.957  1.00  0.00     0.140 C 
ATOM     14  O   UNL     1      -7.095  -3.418   6.252  1.00  0.00    -0.299 OA
BRANCH  13  15
ATOM     15  C   UNL     1      -6.300  -5.292   5.066  1.00  0.00     0.106 CG0
ATOM     16  G   UNL     1      -7.137  -4.981   3.835  1.00  0.00     0.000 G0
ENDBRANCH  13  15
ENDBRANCH  12  13
BRANCH  12  17
ATOM     17  C   UNL     1      -4.778  -2.741   7.728  1.00  0.00    -0.006 C 
ATOM     18  C   UNL     1      -3.536  -1.843   7.840  1.00  0.00     0.008 C 
ATOM     19  C   UNL     1      -4.986  -3.525   9.035  1.00  0.00     0.008 C 
ENDBRANCH  12  17
ENDBRANCH  11  12
ENDBRANCH   1  11
TORSDOF 1
ENDMDL
MODEL 5
REMARK VINA RESULT:    -2.333      2.199      4.525
REMARK INTER + INTRA:          -3.783
REMARK INTER:                  -3.711
REMARK INTRA:                  -0.072
REMARK UNBOUND:                -0.222
REMARK SMILES CC1=CCC[C@H](C)C(=O)C[C@@H](C(C)C)C(=O)C1
REMARK SMILES IDX 8 1 9 2 6 3 7 4 5 5 4 6 3 7 2 8 1 9 10 11 11 12 15 13 16 14
REMARK SMILES IDX 17 15 12 17 13 18 14 19
REMARK H PARENT
REMARK Flexibility Score: 70.00
ROOT
ATOM      1  C   UNL     1      -4.604  -4.863   4.112  1.00  0.00     0.136 C 
ATOM      2  O   UNL     1      -4.289  -4.926   2.932  1.00  0.00    -0.299 OA
ENDROOT
BRANCH   1   3
ATOM      3  C   UNL     1      -3.697  -4.147   5.098  1.00  0.00     0.053 C 
ATOM      4  C   UNL     1      -2.445  -3.598   4.396  1.00  0.00     0.016 C 
BRANCH   3   5
ATOM      5  C   UNL     1      -4.472  -3.014   5.814  1.00  0.00     0.015 C 
BRANCH   5   6
ATOM      6  C   UNL     1      -4.980  -3.442   7.203  1.00  0.00     0.028 C 
BRANCH   6   7
ATOM      7  C   UNL     1      -6.228  -2.689   7.581  1.00  0.00    -0.028 C 
ATOM      8  C   UNL     1      -7.486  -3.072   7.265  1.00  0.00    -0.070 CG0
ATOM      9  C   UNL     1      -8.623  -2.167   7.668  1.00  0.00     0.039 C 
ATOM     10  G   UNL     1      -7.803  -4.367   6.533  1.00  0.00     0.000 G0
ENDBRANCH   6   7
ENDBRANCH   5   6
ENDBRANCH   3   5
ENDBRANCH   1   3
BRANCH   1  11
ATOM     11  C   UNL     1      -5.911  -5.478   4.555  1.00  0.00     0.087 C 
BRANCH  11  12
ATOM     12  C   UNL     1      -7.134  -4.727   3.972  1.00  0.00     0.066 C 
BRANCH  12  13
ATOM     13  C   UNL     1      -8.068  -4.193   5.054  1.00  0.00     0.140 C 
ATOM     14  O   UNL     1      -9.107  -3.647   4.708  1.00  0.00    -0.299 OA
BRANCH  13  15
ATOM     15  C   UNL     1      -7.810  -4.388   6.530  1.00  0.00     0.106 CG0
ATOM     16  G   UNL     1      -7.471  -3.085   7.237  1.00  0.00     0.000 G0
ENDBRANCH  13  15
ENDBRANCH  12  13
BRANCH  12  17
ATOM     17  C   UNL     1      -7.853  -5.528   2.841  1.00  0.00    -0.006 C 
ATOM     18  C   UNL     1      -7.407  -6.999   2.819  1.00  0.00     0.008 C 
ATOM     19  C   UNL     1      -7.739  -4.918   1.434  1.00  0.00     0.008 C 
ENDBRANCH  12  17
ENDBRANCH  11  12
ENDBRANCH   1  11
TORSDOF 1
ENDMDL
MODEL 6
REMARK VINA RESULT:    -1.997     13.399     15.512
REMARK INTER + INTRA:          -3.270
REMARK INTER:                  -3.439
REMARK INTRA:                   0.170
REMARK UNBOUND:                -0.222
REMARK SMILES CC1=CCC[C@H](C)C(=O)C[C@@H](C(C)C)C(=O)C1
REMARK SMILES IDX 8 1 9 2 6 3 7 4 5 5 4 6 3 7 2 8 1 9 10 11 11 12 15 13 16 14
REMARK SMILES IDX 17 15 12 17 13 18 14 19
REMARK H PARENT
REMARK Flexibility Score: 70.00
ROOT
ATOM      1  C   UNL     1       7.762  -4.262   5.965  1.00  0.00     0.136 C 
ATOM      2  O   UNL     1       7.395  -3.417   5.162  1.00  0.00    -0.299 OA
ENDROOT
BRANCH   1   3
ATOM      3  C   UNL     1       8.952  -3.981   6.865  1.00  0.00     0.053 C 
ATOM      4  C   UNL     1       9.174  -5.131   7.861  1.00  0.00     0.016 C 
BRANCH   3   5
ATOM      5  C   UNL     1      10.222  -3.735   6.014  1.00  0.00     0.015 C 
BRANCH   5   6
ATOM      6  C   UNL     1      10.669  -4.997   5.253  1.00  0.00     0.028 C 
BRANCH   6   7
ATOM      7  C   UNL     1      10.634  -4.775   3.764  1.00  0.00    -0.028 C 
ATOM      8  C   UNL     1      10.058  -5.613   2.873  1.00  0.00    -0.070 CG0
ATOM      9  C   UNL     1      10.168  -5.271   1.408  1.00  0.00     0.039 C 
ATOM     10  G   UNL     1       9.305  -6.872   3.278  1.00  0.00     0.000 G0
ENDBRANCH   6   7
ENDBRANCH   5   6
ENDBRANCH   3   5
ENDBRANCH   1   3
BRANCH   1  11
ATOM     11  C   UNL     1       6.998  -5.562   6.061  1.00  0.00     0.087 C 
BRANCH  11  12
ATOM     12  C   UNL     1       7.791  -6.748   5.456  1.00  0.00     0.066 C 
BRANCH  12  13
ATOM     13  C   UNL     1       7.984  -6.619   3.948  1.00  0.00     0.140 C 
ATOM     14  O   UNL     1       7.044  -6.219   3.274  1.00  0.00    -0.299 OA
BRANCH  13  15
ATOM     15  C   UNL     1       9.307  -6.876   3.265  1.00  0.00     0.106 CG0
ATOM     16  G   UNL     1      10.029  -5.590   2.895  1.00  0.00     0.000 G0
ENDBRANCH  13  15
ENDBRANCH  12  13
BRANCH  12  17
ATOM     17  C   UNL     1       7.249  -8.137   5.919  1.00  0.00    -0.006 C 
ATOM     18  C   UNL     1       5.716  -8.199   5.843  1.00  0.00     0.008 C 
ATOM     19  C   UNL     1       7.732  -8.599   7.304  1.00  0.00     0.008 C 
ENDBRANCH  12  17
ENDBRANCH  11  12
ENDBRANCH   1  11
TORSDOF 1
ENDMDL
MODEL 7
REMARK VINA RESULT:    -1.954     13.664     15.220
REMARK INTER + INTRA:          -3.204
REMARK INTER:                  -3.082
REMARK INTRA:                  -0.123
REMARK UNBOUND:                -0.222
REMARK SMILES CC1=CCC[C@H](C)C(=O)C[C@@H](C(C)C)C(=O)C1
REMARK SMILES IDX 8 1 9 2 6 3 7 4 5 5 4 6 3 7 2 8 1 9 10 11 11 12 15 13 16 14
REMARK SMILES IDX 17 15 12 17 13 18 14 19
REMARK H PARENT
REMARK Flexibility Score: 70.00
ROOT
ATOM      1  C   UNL     1       7.755  -4.992   5.925  1.00  0.00     0.136 C 
ATOM      2  O   UNL     1       7.949  -4.200   6.835  1.00  0.00    -0.299 OA
ENDROOT
BRANCH   1   3
ATOM      3  C   UNL     1       8.465  -4.804   4.596  1.00  0.00     0.053 C 
ATOM      4  C   UNL     1       8.098  -3.453   3.961  1.00  0.00     0.016 C 
BRANCH   3   5
ATOM      5  C   UNL     1       9.997  -4.929   4.785  1.00  0.00     0.015 C 
BRANCH   5   6
ATOM      6  C   UNL     1      10.546  -6.260   4.237  1.00  0.00     0.028 C 
BRANCH   6   7
ATOM      7  C   UNL     1       9.667  -6.800   3.140  1.00  0.00    -0.028 C 
ATOM      8  C   UNL     1       8.926  -7.927   3.230  1.00  0.00    -0.070 CG0
ATOM      9  C   UNL     1       8.148  -8.361   2.012  1.00  0.00     0.039 C 
ATOM     10  G   UNL     1       8.836  -8.767   4.495  1.00  0.00     0.000 G0
ENDBRANCH   6   7
ENDBRANCH   5   6
ENDBRANCH   3   5
ENDBRANCH   1   3
BRANCH   1  11
ATOM     11  C   UNL     1       6.827  -6.162   6.157  1.00  0.00     0.087 C 
BRANCH  11  12
ATOM     12  C   UNL     1       7.603  -7.463   6.485  1.00  0.00     0.066 C 
BRANCH  12  13
ATOM     13  C   UNL     1       7.599  -8.457   5.327  1.00  0.00     0.140 C 
ATOM     14  O   UNL     1       6.536  -8.971   5.005  1.00  0.00    -0.299 OA
BRANCH  13  15
ATOM     15  C   UNL     1       8.829  -8.765   4.507  1.00  0.00     0.106 CG0
ATOM     16  G   UNL     1       8.914  -7.917   3.247  1.00  0.00     0.000 G0
ENDBRANCH  13  15
ENDBRANCH  12  13
BRANCH  12  17
ATOM     17  C   UNL     1       7.199  -8.077   7.862  1.00  0.00    -0.006 C 
ATOM     18  C   UNL     1       5.688  -7.955   8.115  1.00  0.00     0.008 C 
ATOM     19  C   UNL     1       7.985  -7.544   9.072  1.00  0.00     0.008 C 
ENDBRANCH  12  17
ENDBRANCH  11  12
ENDBRANCH   1  11
TORSDOF 1
ENDMDL
MODEL 8
REMARK VINA RESULT:    -1.925     13.093     14.984
REMARK INTER + INTRA:          -3.160
REMARK INTER:                  -3.462
REMARK INTRA:                   0.302
REMARK UNBOUND:                -0.222
REMARK SMILES CC1=CCC[C@H](C)C(=O)C[C@@H](C(C)C)C(=O)C1
REMARK SMILES IDX 8 1 9 2 6 3 7 4 5 5 4 6 3 7 2 8 1 9 10 11 11 12 15 13 16 14
REMARK SMILES IDX 17 15 12 17 13 18 14 19
REMARK H PARENT
REMARK Flexibility Score: 70.00
ROOT
ATOM      1  C   UNL     1       7.535  -5.779   6.459  1.00  0.00     0.136 C 
ATOM      2  O   UNL     1       8.144  -5.242   7.373  1.00  0.00    -0.299 OA
ENDROOT
BRANCH   1   3
ATOM      3  C   UNL     1       7.021  -7.198   6.626  1.00  0.00     0.053 C 
ATOM      4  C   UNL     1       5.551  -7.306   6.189  1.00  0.00     0.016 C 
BRANCH   3   5
ATOM      5  C   UNL     1       7.908  -8.187   5.832  1.00  0.00     0.015 C 
BRANCH   5   6
ATOM      6  C   UNL     1       7.181  -8.768   4.605  1.00  0.00     0.028 C 
BRANCH   6   7
ATOM      7  C   UNL     1       8.101  -8.847   3.415  1.00  0.00    -0.028 C 
ATOM      8  C   UNL     1       8.279  -7.856   2.511  1.00  0.00    -0.070 CG0
ATOM      9  C   UNL     1       9.192  -8.124   1.341  1.00  0.00     0.039 C 
ATOM     10  G   UNL     1       7.610  -6.495   2.624  1.00  0.00     0.000 G0
ENDBRANCH   6   7
ENDBRANCH   5   6
ENDBRANCH   3   5
ENDBRANCH   1   3
BRANCH   1  11
ATOM     11  C   UNL     1       7.285  -5.001   5.188  1.00  0.00     0.087 C 
BRANCH  11  12
ATOM     12  C   UNL     1       8.590  -4.757   4.389  1.00  0.00     0.066 C 
BRANCH  12  13
ATOM     13  C   UNL     1       8.549  -5.370   2.993  1.00  0.00     0.140 C 
ATOM     14  O   UNL     1       9.372  -4.996   2.169  1.00  0.00    -0.299 OA
BRANCH  13  15
ATOM     15  C   UNL     1       7.598  -6.481   2.613  1.00  0.00     0.106 CG0
ATOM     16  G   UNL     1       8.291  -7.831   2.515  1.00  0.00     0.000 G0
ENDBRANCH  13  15
ENDBRANCH  12  13
BRANCH  12  17
ATOM     17  C   UNL     1       9.874  -5.104   5.207  1.00  0.00    -0.006 C 
ATOM     18  C   UNL     1      10.788  -3.880   5.371  1.00  0.00     0.008 C 
ATOM     19  C   UNL     1      10.680  -6.303   4.681  1.00  0.00     0.008 C 
ENDBRANCH  12  17
ENDBRANCH  11  12
ENDBRANCH   1  11
TORSDOF 1
ENDMDL
MODEL 9
REMARK VINA RESULT:    -1.916     14.272     15.331
REMARK INTER + INTRA:          -3.145
REMARK INTER:                  -3.303
REMARK INTRA:                   0.158
REMARK UNBOUND:                -0.222
REMARK SMILES CC1=CCC[C@H](C)C(=O)C[C@@H](C(C)C)C(=O)C1
REMARK SMILES IDX 8 1 9 2 6 3 7 4 5 5 4 6 3 7 2 8 1 9 10 11 11 12 15 13 16 14
REMARK SMILES IDX 17 15 12 17 13 18 14 19
REMARK H PARENT
REMARK Flexibility Score: 70.00
ROOT
ATOM      1  C   UNL     1       7.312  -7.233   5.822  1.00  0.00     0.136 C 
ATOM      2  O   UNL     1       6.323  -6.541   6.019  1.00  0.00    -0.299 OA
ENDROOT
BRANCH   1   3
ATOM      3  C   UNL     1       8.199  -7.632   6.988  1.00  0.00     0.053 C 
ATOM      4  C   UNL     1       9.386  -8.485   6.511  1.00  0.00     0.016 C 
BRANCH   3   5
ATOM      5  C   UNL     1       8.690  -6.373   7.744  1.00  0.00     0.015 C 
BRANCH   5   6
ATOM      6  C   UNL     1       9.450  -5.400   6.824  1.00  0.00     0.028 C 
BRANCH   6   7
ATOM      7  C   UNL     1       8.652  -4.147   6.580  1.00  0.00    -0.028 C 
ATOM      8  C   UNL     1       8.468  -3.573   5.369  1.00  0.00    -0.070 CG0
ATOM      9  C   UNL     1       7.690  -2.282   5.309  1.00  0.00     0.039 C 
ATOM     10  G   UNL     1       9.000  -4.170   4.075  1.00  0.00     0.000 G0
ENDBRANCH   6   7
ENDBRANCH   5   6
ENDBRANCH   3   5
ENDBRANCH   1   3
BRANCH   1  11
ATOM     11  C   UNL     1       7.612  -7.697   4.416  1.00  0.00     0.087 C 
BRANCH  11  12
ATOM     12  C   UNL     1       8.655  -6.792   3.714  1.00  0.00     0.066 C 
BRANCH  12  13
ATOM     13  C   UNL     1       8.184  -5.347   3.579  1.00  0.00     0.140 C 
ATOM     14  O   UNL     1       7.066  -5.140   3.126  1.00  0.00    -0.299 OA
BRANCH  13  15
ATOM     15  C   UNL     1       8.999  -4.170   4.061  1.00  0.00     0.106 CG0
ATOM     16  G   UNL     1       8.459  -3.581   5.356  1.00  0.00     0.000 G0
ENDBRANCH  13  15
ENDBRANCH  12  13
BRANCH  12  17
ATOM     17  C   UNL     1       9.207  -7.415   2.394  1.00  0.00    -0.006 C 
ATOM     18  C   UNL     1       8.196  -8.385   1.761  1.00  0.00     0.008 C 
ATOM     19  C   UNL     1      10.585  -8.088   2.513  1.00  0.00     0.008 C 
ENDBRANCH  12  17
ENDBRANCH  11  12
ENDBRANCH   1  11
TORSDOF 1
ENDMDL
