MODEL 1
REMARK VINA RESULT:    -4.645      0.000      0.000
REMARK INTER + INTRA:          -4.940
REMARK INTER:                  -4.917
REMARK INTRA:                  -0.023
REMARK UNBOUND:                -0.023
REMARK SMILES O=C([O-])c1cccnc1
REMARK SMILES IDX 4 1 5 2 9 3 6 4 8 5 7 6 2 7 1 8 3 9
REMARK H PARENT
REMARK Flexibility Score: inf
ROOT
ATOM      1  C   UNL     1      14.286 -25.966 -31.656  1.00  0.00     0.016 A 
ATOM      2  C   UNL     1      13.202 -25.923 -30.763  1.00  0.00     0.013 A 
ATOM      3  C   UNL     1      14.407 -24.940 -32.609  1.00  0.00     0.120 A 
ATOM      4  C   UNL     1      12.276 -24.881 -30.834  1.00  0.00     0.021 A 
ATOM      5  N   UNL     1      13.491 -23.936 -32.657  1.00  0.00    -0.264 NA
ATOM      6  C   UNL     1      12.439 -23.885 -31.797  1.00  0.00     0.111 A 
ENDROOT
BRANCH   1   7
ATOM      7  C   UNL     1      15.277 -27.061 -31.598  1.00  0.00     0.073 C 
ATOM      8  O   UNL     1      16.104 -27.229 -32.535  1.00  0.00    -0.545 OA
ATOM      9  O   UNL     1      15.313 -27.921 -30.507  1.00  0.00    -0.545 OA
ENDBRANCH   1   7
TORSDOF 1
ENDMDL
MODEL 2
REMARK VINA RESULT:    -4.604      2.700      3.701
REMARK INTER + INTRA:          -4.896
REMARK INTER:                  -4.877
REMARK INTRA:                  -0.019
REMARK UNBOUND:                -0.023
REMARK SMILES O=C([O-])c1cccnc1
REMARK SMILES IDX 4 1 5 2 9 3 6 4 8 5 7 6 2 7 1 8 3 9
REMARK H PARENT
REMARK Flexibility Score: inf
ROOT
ATOM      1  C   UNL     1      14.179 -25.694 -31.594  1.00  0.00     0.016 A 
ATOM      2  C   UNL     1      13.752 -26.796 -30.834  1.00  0.00     0.013 A 
ATOM      3  C   UNL     1      15.366 -25.814 -32.337  1.00  0.00     0.120 A 
ATOM      4  C   UNL     1      14.500 -27.974 -30.828  1.00  0.00     0.021 A 
ATOM      5  N   UNL     1      16.075 -26.974 -32.313  1.00  0.00    -0.264 NA
ATOM      6  C   UNL     1      15.671 -28.046 -31.581  1.00  0.00     0.111 A 
ENDROOT
BRANCH   1   7
ATOM      7  C   UNL     1      13.401 -24.437 -31.616  1.00  0.00     0.073 C 
ATOM      8  O   UNL     1      13.061 -23.874 -30.540  1.00  0.00    -0.545 OA
ATOM      9  O   UNL     1      13.033 -23.856 -32.824  1.00  0.00    -0.545 OA
ENDBRANCH   1   7
TORSDOF 1
ENDMDL
MODEL 3
REMARK VINA RESULT:    -4.481      1.172      2.013
REMARK INTER + INTRA:          -4.766
REMARK INTER:                  -4.744
REMARK INTRA:                  -0.022
REMARK UNBOUND:                -0.023
REMARK SMILES O=C([O-])c1cccnc1
REMARK SMILES IDX 4 1 5 2 9 3 6 4 8 5 7 6 2 7 1 8 3 9
REMARK H PARENT
REMARK Flexibility Score: inf
ROOT
ATOM      1  C   UNL     1      14.156 -26.263 -31.303  1.00  0.00     0.016 A 
ATOM      2  C   UNL     1      14.218 -25.017 -31.950  1.00  0.00     0.013 A 
ATOM      3  C   UNL     1      13.030 -26.550 -30.513  1.00  0.00     0.120 A 
ATOM      4  C   UNL     1      13.180 -24.097 -31.800  1.00  0.00     0.021 A 
ATOM      5  N   UNL     1      12.031 -25.636 -30.384  1.00  0.00    -0.264 NA
ATOM      6  C   UNL     1      12.082 -24.427 -31.004  1.00  0.00     0.111 A 
ENDROOT
BRANCH   1   7
ATOM      7  C   UNL     1      15.245 -27.252 -31.449  1.00  0.00     0.073 C 
ATOM      8  O   UNL     1      15.457 -28.110 -30.551  1.00  0.00    -0.545 OA
ATOM      9  O   UNL     1      16.051 -27.250 -32.582  1.00  0.00    -0.545 OA
ENDBRANCH   1   7
TORSDOF 1
ENDMDL
MODEL 4
REMARK VINA RESULT:    -4.455      2.503      3.196
REMARK INTER + INTRA:          -4.739
REMARK INTER:                  -4.719
REMARK INTRA:                  -0.020
REMARK UNBOUND:                -0.023
REMARK SMILES O=C([O-])c1cccnc1
REMARK SMILES IDX 4 1 5 2 9 3 6 4 8 5 7 6 2 7 1 8 3 9
REMARK H PARENT
REMARK Flexibility Score: inf
ROOT
ATOM      1  C   UNL     1      13.182 -25.352 -31.119  1.00  0.00     0.016 A 
ATOM      2  C   UNL     1      12.500 -24.493 -30.241  1.00  0.00     0.013 A 
ATOM      3  C   UNL     1      13.248 -26.719 -30.799  1.00  0.00     0.120 A 
ATOM      4  C   UNL     1      11.908 -25.000 -29.083  1.00  0.00     0.021 A 
ATOM      5  N   UNL     1      12.663 -27.187 -29.665  1.00  0.00    -0.264 NA
ATOM      6  C   UNL     1      12.001 -26.364 -28.808  1.00  0.00     0.111 A 
ENDROOT
BRANCH   1   7
ATOM      7  C   UNL     1      13.815 -24.835 -32.351  1.00  0.00     0.073 C 
ATOM      8  O   UNL     1      14.944 -25.257 -32.718  1.00  0.00    -0.545 OA
ATOM      9  O   UNL     1      13.171 -23.876 -33.125  1.00  0.00    -0.545 OA
ENDBRANCH   1   7
TORSDOF 1
ENDMDL
MODEL 5
REMARK VINA RESULT:    -4.441      2.920      3.491
REMARK INTER + INTRA:          -4.724
REMARK INTER:                  -4.701
REMARK INTRA:                  -0.023
REMARK UNBOUND:                -0.023
REMARK SMILES O=C([O-])c1cccnc1
REMARK SMILES IDX 4 1 5 2 9 3 6 4 8 5 7 6 2 7 1 8 3 9
REMARK H PARENT
REMARK Flexibility Score: inf
ROOT
ATOM      1  C   UNL     1      15.042 -27.717 -30.919  1.00  0.00     0.016 A 
ATOM      2  C   UNL     1      13.867 -26.950 -30.836  1.00  0.00     0.013 A 
ATOM      3  C   UNL     1      15.182 -28.818 -30.057  1.00  0.00     0.120 A 
ATOM      4  C   UNL     1      12.875 -27.286 -29.915  1.00  0.00     0.021 A 
ATOM      5  N   UNL     1      14.200 -29.124 -29.169  1.00  0.00    -0.264 NA
ATOM      6  C   UNL     1      13.060 -28.388 -29.080  1.00  0.00     0.111 A 
ENDROOT
BRANCH   1   7
ATOM      7  C   UNL     1      16.105 -27.378 -31.888  1.00  0.00     0.073 C 
ATOM      8  O   UNL     1      15.859 -26.637 -32.878  1.00  0.00    -0.545 OA
ATOM      9  O   UNL     1      17.394 -27.871 -31.721  1.00  0.00    -0.545 OA
ENDBRANCH   1   7
TORSDOF 1
ENDMDL
MODEL 6
REMARK VINA RESULT:    -4.346      2.747      3.880
REMARK INTER + INTRA:          -4.623
REMARK INTER:                  -4.600
REMARK INTRA:                  -0.023
REMARK UNBOUND:                -0.023
REMARK SMILES O=C([O-])c1cccnc1
REMARK SMILES IDX 4 1 5 2 9 3 6 4 8 5 7 6 2 7 1 8 3 9
REMARK H PARENT
REMARK Flexibility Score: inf
ROOT
ATOM      1  C   UNL     1      14.125 -26.023 -31.582  1.00  0.00     0.016 A 
ATOM      2  C   UNL     1      15.397 -26.366 -32.070  1.00  0.00     0.013 A 
ATOM      3  C   UNL     1      13.517 -26.877 -30.646  1.00  0.00     0.120 A 
ATOM      4  C   UNL     1      16.028 -27.529 -31.627  1.00  0.00     0.021 A 
ATOM      5  N   UNL     1      14.153 -28.004 -30.230  1.00  0.00    -0.264 NA
ATOM      6  C   UNL     1      15.384 -28.345 -30.697  1.00  0.00     0.111 A 
ENDROOT
BRANCH   1   7
ATOM      7  C   UNL     1      13.440 -24.795 -32.038  1.00  0.00     0.073 C 
ATOM      8  O   UNL     1      13.765 -24.245 -33.125  1.00  0.00    -0.545 OA
ATOM      9  O   UNL     1      12.425 -24.229 -31.274  1.00  0.00    -0.545 OA
ENDBRANCH   1   7
TORSDOF 1
ENDMDL
MODEL 7
REMARK VINA RESULT:    -4.166      2.510      3.405
REMARK INTER + INTRA:          -4.433
REMARK INTER:                  -4.409
REMARK INTRA:                  -0.023
REMARK UNBOUND:                -0.023
REMARK SMILES O=C([O-])c1cccnc1
REMARK SMILES IDX 4 1 5 2 9 3 6 4 8 5 7 6 2 7 1 8 3 9
REMARK H PARENT
REMARK Flexibility Score: inf
ROOT
ATOM      1  C   UNL     1      13.476 -25.779 -31.323  1.00  0.00     0.016 A 
ATOM      2  C   UNL     1      14.181 -26.978 -31.125  1.00  0.00     0.013 A 
ATOM      3  C   UNL     1      12.390 -25.495 -30.478  1.00  0.00     0.120 A 
ATOM      4  C   UNL     1      13.799 -27.856 -30.110  1.00  0.00     0.021 A 
ATOM      5  N   UNL     1      12.038 -26.368 -29.496  1.00  0.00    -0.264 NA
ATOM      6  C   UNL     1      12.713 -27.531 -29.297  1.00  0.00     0.111 A 
ENDROOT
BRANCH   1   7
ATOM      7  C   UNL     1      13.865 -24.834 -32.392  1.00  0.00     0.073 C 
ATOM      8  O   UNL     1      13.141 -23.839 -32.664  1.00  0.00    -0.545 OA
ATOM      9  O   UNL     1      15.038 -25.030 -33.113  1.00  0.00    -0.545 OA
ENDBRANCH   1   7
TORSDOF 1
ENDMDL
MODEL 8
REMARK VINA RESULT:    -4.064      2.590      3.483
REMARK INTER + INTRA:          -4.325
REMARK INTER:                  -4.301
REMARK INTRA:                  -0.023
REMARK UNBOUND:                -0.023
REMARK SMILES O=C([O-])c1cccnc1
REMARK SMILES IDX 4 1 5 2 9 3 6 4 8 5 7 6 2 7 1 8 3 9
REMARK H PARENT
REMARK Flexibility Score: inf
ROOT
ATOM      1  C   UNL     1      12.570 -25.661 -30.105  1.00  0.00     0.016 A 
ATOM      2  C   UNL     1      12.429 -24.326 -30.521  1.00  0.00     0.013 A 
ATOM      3  C   UNL     1      13.398 -26.511 -30.857  1.00  0.00     0.120 A 
ATOM      4  C   UNL     1      13.100 -23.872 -31.657  1.00  0.00     0.021 A 
ATOM      5  N   UNL     1      14.041 -26.043 -31.960  1.00  0.00    -0.264 NA
ATOM      6  C   UNL     1      13.911 -24.753 -32.371  1.00  0.00     0.111 A 
ENDROOT
BRANCH   1   7
ATOM      7  C   UNL     1      11.867 -26.162 -28.904  1.00  0.00     0.073 C 
ATOM      8  O   UNL     1      12.116 -27.310 -28.448  1.00  0.00    -0.545 OA
ATOM      9  O   UNL     1      10.922 -25.372 -28.260  1.00  0.00    -0.545 OA
ENDBRANCH   1   7
TORSDOF 1
ENDMDL
MODEL 9
REMARK VINA RESULT:    -3.708     15.763     16.237
REMARK INTER + INTRA:          -3.948
REMARK INTER:                  -3.932
REMARK INTRA:                  -0.016
REMARK UNBOUND:                -0.023
REMARK SMILES O=C([O-])c1cccnc1
REMARK SMILES IDX 4 1 5 2 9 3 6 4 8 5 7 6 2 7 1 8 3 9
REMARK H PARENT
REMARK Flexibility Score: inf
ROOT
ATOM      1  C   UNL     1      20.897 -24.152 -16.982  1.00  0.00     0.016 A 
ATOM      2  C   UNL     1      20.915 -22.807 -17.390  1.00  0.00     0.013 A 
ATOM      3  C   UNL     1      19.652 -24.770 -16.775  1.00  0.00     0.120 A 
ATOM      4  C   UNL     1      19.718 -22.117 -17.580  1.00  0.00     0.021 A 
ATOM      5  N   UNL     1      18.500 -24.075 -16.968  1.00  0.00    -0.264 NA
ATOM      6  C   UNL     1      18.507 -22.774 -17.362  1.00  0.00     0.111 A 
ENDROOT
BRANCH   1   7
ATOM      7  C   UNL     1      22.155 -24.902 -16.774  1.00  0.00     0.073 C 
ATOM      8  O   UNL     1      22.633 -25.044 -15.617  1.00  0.00    -0.545 OA
ATOM      9  O   UNL     1      22.827 -25.461 -17.854  1.00  0.00    -0.545 OA
ENDBRANCH   1   7
TORSDOF 1
ENDMDL
