MODEL 1
REMARK VINA RESULT:    -5.897      0.000      0.000
REMARK INTER + INTRA:          -7.374
REMARK INTER:                  -7.104
REMARK INTRA:                  -0.270
REMARK UNBOUND:                -0.270
REMARK SMILES O=c1c(O)c(-c2ccc(O)c(O)c2)oc2cc(O)cc(O)c12
REMARK SMILES IDX 5 1 3 2 2 3 1 4 22 5 20 6 19 7 17 8 16 9 15 10 14 11 6 12
REMARK SMILES IDX 7 13 8 14 9 15 13 16 11 17 10 18 12 20 4 22 21 24 18 26
REMARK H PARENT 10 19 12 21 4 23 21 25 18 27
REMARK Flexibility Score: inf
ROOT
ATOM      1  C   UNL     1     118.237  73.350  44.628  1.00  0.00     0.180 A 
ATOM      2  C   UNL     1     117.888  73.577  43.286  1.00  0.00     0.208 A 
ATOM      3  C   UNL     1     118.851  73.365  42.287  1.00  0.00     0.238 A 
ATOM      4  O   UNL     1     118.518  73.517  41.084  1.00  0.00    -0.285 OA
ATOM      5  C   UNL     1     120.156  72.945  42.644  1.00  0.00     0.111 A 
ATOM      6  C   UNL     1     121.222  72.738  41.718  1.00  0.00     0.134 A 
ATOM      7  C   UNL     1     122.432  72.197  42.169  1.00  0.00     0.093 A 
ATOM      8  C   UNL     1     122.636  71.916  43.523  1.00  0.00     0.123 A 
ATOM      9  C   UNL     1     121.622  72.169  44.442  1.00  0.00     0.094 A 
ATOM     10  C   UNL     1     120.391  72.675  44.017  1.00  0.00     0.146 A 
ATOM     11  O   UNL     1     119.447  72.893  44.925  1.00  0.00    -0.452 OA
ENDROOT
BRANCH   1  12
ATOM     12  C   UNL     1     117.283  73.576  45.739  1.00  0.00     0.025 A 
ATOM     13  C   UNL     1     116.991  74.888  46.143  1.00  0.00     0.016 A 
ATOM     14  C   UNL     1     116.080  75.125  47.175  1.00  0.00     0.051 A 
ATOM     15  C   UNL     1     115.435  74.057  47.808  1.00  0.00     0.157 A 
ATOM     16  C   UNL     1     116.617  72.504  46.362  1.00  0.00     0.062 A 
ATOM     17  C   UNL     1     115.700  72.740  47.398  1.00  0.00     0.158 A 
BRANCH  15  18
ATOM     18  O   UNL     1     114.531  74.324  48.836  1.00  0.00    -0.504 OA
ATOM     19  H   UNL     1     113.797  75.014  48.742  1.00  0.00     0.293 HD
ENDBRANCH  15  18
BRANCH  17  20
ATOM     20  O   UNL     1     115.050  71.672  48.014  1.00  0.00    -0.504 OA
ATOM     21  H   UNL     1     114.230  71.812  48.591  1.00  0.00     0.293 HD
ENDBRANCH  17  20
ENDBRANCH   1  12
BRANCH   2  22
ATOM     22  O   UNL     1     116.588  73.970  42.954  1.00  0.00    -0.502 OA
ATOM     23  H   UNL     1     116.193  73.817  42.035  1.00  0.00     0.293 HD
ENDBRANCH   2  22
BRANCH   6  24
ATOM     24  O   UNL     1     121.154  73.071  40.363  1.00  0.00    -0.507 OA
ATOM     25  H   UNL     1     121.655  72.594  39.629  1.00  0.00     0.293 HD
ENDBRANCH   6  24
BRANCH   8  26
ATOM     26  O   UNL     1     123.849  71.391  43.965  1.00  0.00    -0.508 OA
ATOM     27  H   UNL     1     123.958  70.403  44.165  1.00  0.00     0.293 HD
ENDBRANCH   8  26
TORSDOF 6
ENDMDL
MODEL 2
REMARK VINA RESULT:    -5.871      1.728      2.148
REMARK INTER + INTRA:          -7.342
REMARK INTER:                  -7.573
REMARK INTRA:                   0.231
REMARK UNBOUND:                -0.270
REMARK SMILES O=c1c(O)c(-c2ccc(O)c(O)c2)oc2cc(O)cc(O)c12
REMARK SMILES IDX 5 1 3 2 2 3 1 4 22 5 20 6 19 7 17 8 16 9 15 10 14 11 6 12
REMARK SMILES IDX 7 13 8 14 9 15 13 16 11 17 10 18 12 20 4 22 21 24 18 26
REMARK H PARENT 10 19 12 21 4 23 21 25 18 27
REMARK Flexibility Score: inf
ROOT
ATOM      1  C   UNL     1     118.130  73.433  43.886  1.00  0.00     0.180 A 
ATOM      2  C   UNL     1     118.469  73.574  42.530  1.00  0.00     0.208 A 
ATOM      3  C   UNL     1     119.748  73.182  42.104  1.00  0.00     0.238 A 
ATOM      4  O   UNL     1     120.028  73.259  40.880  1.00  0.00    -0.285 OA
ATOM      5  C   UNL     1     120.678  72.671  43.043  1.00  0.00     0.111 A 
ATOM      6  C   UNL     1     122.014  72.281  42.729  1.00  0.00     0.134 A 
ATOM      7  C   UNL     1     122.802  71.667  43.711  1.00  0.00     0.093 A 
ATOM      8  C   UNL     1     122.323  71.489  45.012  1.00  0.00     0.123 A 
ATOM      9  C   UNL     1     121.041  71.919  45.342  1.00  0.00     0.094 A 
ATOM     10  C   UNL     1     120.219  72.502  44.375  1.00  0.00     0.146 A 
ATOM     11  O   UNL     1     118.999  72.890  44.729  1.00  0.00    -0.452 OA
ENDROOT
BRANCH   1  12
ATOM     12  C   UNL     1     116.809  73.848  44.415  1.00  0.00     0.025 A 
ATOM     13  C   UNL     1     116.727  74.427  45.691  1.00  0.00     0.016 A 
ATOM     14  C   UNL     1     115.495  74.844  46.201  1.00  0.00     0.051 A 
ATOM     15  C   UNL     1     114.330  74.702  45.440  1.00  0.00     0.157 A 
ATOM     16  C   UNL     1     115.640  73.726  43.643  1.00  0.00     0.062 A 
ATOM     17  C   UNL     1     114.402  74.144  44.153  1.00  0.00     0.158 A 
BRANCH  15  18
ATOM     18  O   UNL     1     113.114  75.125  45.976  1.00  0.00    -0.504 OA
ATOM     19  H   UNL     1     112.353  74.482  46.158  1.00  0.00     0.293 HD
ENDBRANCH  15  18
BRANCH  17  20
ATOM     20  O   UNL     1     113.247  74.014  43.383  1.00  0.00    -0.504 OA
ATOM     21  H   UNL     1     112.485  74.677  43.454  1.00  0.00     0.293 HD
ENDBRANCH  17  20
ENDBRANCH   1  12
BRANCH   2  22
ATOM     22  O   UNL     1     117.529  74.060  41.617  1.00  0.00    -0.502 OA
ATOM     23  H   UNL     1     117.779  74.686  40.861  1.00  0.00     0.293 HD
ENDBRANCH   2  22
BRANCH   6  24
ATOM     24  O   UNL     1     122.620  72.498  41.489  1.00  0.00    -0.507 OA
ATOM     25  H   UNL     1     123.527  72.920  41.359  1.00  0.00     0.293 HD
ENDBRANCH   6  24
BRANCH   8  26
ATOM     26  O   UNL     1     123.119  70.890  45.986  1.00  0.00    -0.508 OA
ATOM     27  H   UNL     1     122.713  70.402  46.777  1.00  0.00     0.293 HD
ENDBRANCH   8  26
TORSDOF 6
ENDMDL
MODEL 3
REMARK VINA RESULT:    -5.825      1.871      3.217
REMARK INTER + INTRA:          -7.286
REMARK INTER:                  -7.827
REMARK INTRA:                   0.540
REMARK UNBOUND:                -0.270
REMARK SMILES O=c1c(O)c(-c2ccc(O)c(O)c2)oc2cc(O)cc(O)c12
REMARK SMILES IDX 5 1 3 2 2 3 1 4 22 5 20 6 19 7 17 8 16 9 15 10 14 11 6 12
REMARK SMILES IDX 7 13 8 14 9 15 13 16 11 17 10 18 12 20 4 22 21 24 18 26
REMARK H PARENT 10 19 12 21 4 23 21 25 18 27
REMARK Flexibility Score: inf
ROOT
ATOM      1  C   UNL     1     117.948  73.417  44.807  1.00  0.00     0.180 A 
ATOM      2  C   UNL     1     118.926  73.430  45.816  1.00  0.00     0.208 A 
ATOM      3  C   UNL     1     120.268  73.215  45.467  1.00  0.00     0.238 A 
ATOM      4  O   UNL     1     121.145  73.282  46.367  1.00  0.00    -0.285 OA
ATOM      5  C   UNL     1     120.615  72.973  44.115  1.00  0.00     0.111 A 
ATOM      6  C   UNL     1     121.938  72.703  43.654  1.00  0.00     0.134 A 
ATOM      7  C   UNL     1     122.183  72.608  42.279  1.00  0.00     0.093 A 
ATOM      8  C   UNL     1     121.142  72.708  41.352  1.00  0.00     0.123 A 
ATOM      9  C   UNL     1     119.838  72.913  41.796  1.00  0.00     0.094 A 
ATOM     10  C   UNL     1     119.568  73.048  43.160  1.00  0.00     0.146 A 
ATOM     11  O   UNL     1     118.312  73.253  43.541  1.00  0.00    -0.452 OA
ENDROOT
BRANCH   1  12
ATOM     12  C   UNL     1     116.509  73.611  45.100  1.00  0.00     0.025 A 
ATOM     13  C   UNL     1     116.088  73.743  46.433  1.00  0.00     0.016 A 
ATOM     14  C   UNL     1     114.738  73.947  46.731  1.00  0.00     0.051 A 
ATOM     15  C   UNL     1     113.793  74.037  45.705  1.00  0.00     0.157 A 
ATOM     16  C   UNL     1     115.560  73.723  44.069  1.00  0.00     0.062 A 
ATOM     17  C   UNL     1     114.204  73.929  44.366  1.00  0.00     0.158 A 
BRANCH  15  18
ATOM     18  O   UNL     1     112.453  74.239  46.033  1.00  0.00    -0.504 OA
ATOM     19  H   UNL     1     112.171  74.679  46.901  1.00  0.00     0.293 HD
ENDBRANCH  15  18
BRANCH  17  20
ATOM     20  O   UNL     1     113.269  74.032  43.338  1.00  0.00    -0.504 OA
ATOM     21  H   UNL     1     112.628  73.277  43.125  1.00  0.00     0.293 HD
ENDBRANCH  17  20
ENDBRANCH   1  12
BRANCH   2  22
ATOM     22  O   UNL     1     118.565  73.693  47.141  1.00  0.00    -0.502 OA
ATOM     23  H   UNL     1     118.248  72.967  47.772  1.00  0.00     0.293 HD
ENDBRANCH   2  22
BRANCH   6  24
ATOM     24  O   UNL     1     123.031  72.493  44.498  1.00  0.00    -0.507 OA
ATOM     25  H   UNL     1     123.910  72.984  44.433  1.00  0.00     0.293 HD
ENDBRANCH   6  24
BRANCH   8  26
ATOM     26  O   UNL     1     121.393  72.598  39.986  1.00  0.00    -0.508 OA
ATOM     27  H   UNL     1     122.097  71.964  39.626  1.00  0.00     0.293 HD
ENDBRANCH   8  26
TORSDOF 6
ENDMDL
MODEL 4
REMARK VINA RESULT:    -5.734      1.922      6.883
REMARK INTER + INTRA:          -7.178
REMARK INTER:                  -6.843
REMARK INTRA:                  -0.334
REMARK UNBOUND:                -0.270
REMARK SMILES O=c1c(O)c(-c2ccc(O)c(O)c2)oc2cc(O)cc(O)c12
REMARK SMILES IDX 5 1 3 2 2 3 1 4 22 5 20 6 19 7 17 8 16 9 15 10 14 11 6 12
REMARK SMILES IDX 7 13 8 14 9 15 13 16 11 17 10 18 12 20 4 22 21 24 18 26
REMARK H PARENT 10 19 12 21 4 23 21 25 18 27
REMARK Flexibility Score: inf
ROOT
ATOM      1  C   UNL     1     117.163  74.013  44.293  1.00  0.00     0.180 A 
ATOM      2  C   UNL     1     115.982  74.458  43.674  1.00  0.00     0.208 A 
ATOM      3  C   UNL     1     114.793  74.491  44.419  1.00  0.00     0.238 A 
ATOM      4  O   UNL     1     113.751  74.941  43.876  1.00  0.00    -0.285 OA
ATOM      5  C   UNL     1     114.796  74.062  45.769  1.00  0.00     0.111 A 
ATOM      6  C   UNL     1     113.641  74.015  46.605  1.00  0.00     0.134 A 
ATOM      7  C   UNL     1     113.784  73.698  47.962  1.00  0.00     0.093 A 
ATOM      8  C   UNL     1     115.032  73.363  48.496  1.00  0.00     0.123 A 
ATOM      9  C   UNL     1     116.155  73.350  47.674  1.00  0.00     0.094 A 
ATOM     10  C   UNL     1     116.049  73.697  46.325  1.00  0.00     0.146 A 
ATOM     11  O   UNL     1     117.147  73.681  45.578  1.00  0.00    -0.452 OA
ENDROOT
BRANCH   1  12
ATOM     12  C   UNL     1     118.450  73.927  43.565  1.00  0.00     0.025 A 
ATOM     13  C   UNL     1     119.353  75.000  43.629  1.00  0.00     0.016 A 
ATOM     14  C   UNL     1     120.582  74.932  42.967  1.00  0.00     0.051 A 
ATOM     15  C   UNL     1     120.933  73.787  42.244  1.00  0.00     0.157 A 
ATOM     16  C   UNL     1     118.814  72.768  42.856  1.00  0.00     0.062 A 
ATOM     17  C   UNL     1     120.048  72.697  42.191  1.00  0.00     0.158 A 
BRANCH  15  18
ATOM     18  O   UNL     1     122.165  73.748  41.592  1.00  0.00    -0.504 OA
ATOM     19  H   UNL     1     122.266  73.381  40.654  1.00  0.00     0.293 HD
ENDBRANCH  15  18
BRANCH  17  20
ATOM     20  O   UNL     1     120.398  71.548  41.486  1.00  0.00    -0.504 OA
ATOM     21  H   UNL     1     121.107  70.910  41.827  1.00  0.00     0.293 HD
ENDBRANCH  17  20
ENDBRANCH   1  12
BRANCH   2  22
ATOM     22  O   UNL     1     116.007  74.897  42.347  1.00  0.00    -0.502 OA
ATOM     23  H   UNL     1     115.670  74.328  41.580  1.00  0.00     0.293 HD
ENDBRANCH   2  22
BRANCH   6  24
ATOM     24  O   UNL     1     112.339  74.240  46.152  1.00  0.00    -0.507 OA
ATOM     25  H   UNL     1     111.719  73.523  45.804  1.00  0.00     0.293 HD
ENDBRANCH   6  24
BRANCH   8  26
ATOM     26  O   UNL     1     115.163  73.035  49.844  1.00  0.00    -0.508 OA
ATOM     27  H   UNL     1     114.381  73.105  50.485  1.00  0.00     0.293 HD
ENDBRANCH   8  26
TORSDOF 6
ENDMDL
MODEL 5
REMARK VINA RESULT:    -5.630      4.217      7.491
REMARK INTER + INTRA:          -7.052
REMARK INTER:                  -6.751
REMARK INTRA:                  -0.301
REMARK UNBOUND:                -0.270
REMARK SMILES O=c1c(O)c(-c2ccc(O)c(O)c2)oc2cc(O)cc(O)c12
REMARK SMILES IDX 5 1 3 2 2 3 1 4 22 5 20 6 19 7 17 8 16 9 15 10 14 11 6 12
REMARK SMILES IDX 7 13 8 14 9 15 13 16 11 17 10 18 12 20 4 22 21 24 18 26
REMARK H PARENT 10 19 12 21 4 23 21 25 18 27
REMARK Flexibility Score: inf
ROOT
ATOM      1  C   UNL     1     121.860  70.341  45.290  1.00  0.00     0.180 A 
ATOM      2  C   UNL     1     122.780  70.227  46.347  1.00  0.00     0.208 A 
ATOM      3  C   UNL     1     122.671  69.142  47.231  1.00  0.00     0.238 A 
ATOM      4  O   UNL     1     123.530  69.017  48.142  1.00  0.00    -0.285 OA
ATOM      5  C   UNL     1     121.634  68.194  47.058  1.00  0.00     0.111 A 
ATOM      6  C   UNL     1     121.406  67.078  47.917  1.00  0.00     0.134 A 
ATOM      7  C   UNL     1     120.431  66.132  47.576  1.00  0.00     0.093 A 
ATOM      8  C   UNL     1     119.634  66.297  46.440  1.00  0.00     0.123 A 
ATOM      9  C   UNL     1     119.810  67.413  45.627  1.00  0.00     0.094 A 
ATOM     10  C   UNL     1     120.798  68.355  45.922  1.00  0.00     0.146 A 
ATOM     11  O   UNL     1     120.940  69.400  45.115  1.00  0.00    -0.452 OA
ENDROOT
BRANCH   1  12
ATOM     12  C   UNL     1     121.895  71.470  44.332  1.00  0.00     0.025 A 
ATOM     13  C   UNL     1     122.771  71.420  43.237  1.00  0.00     0.016 A 
ATOM     14  C   UNL     1     122.807  72.465  42.310  1.00  0.00     0.051 A 
ATOM     15  C   UNL     1     121.958  73.567  42.454  1.00  0.00     0.157 A 
ATOM     16  C   UNL     1     121.027  72.569  44.464  1.00  0.00     0.062 A 
ATOM     17  C   UNL     1     121.060  73.619  43.534  1.00  0.00     0.158 A 
BRANCH  15  18
ATOM     18  O   UNL     1     122.017  74.595  41.515  1.00  0.00    -0.504 OA
ATOM     19  H   UNL     1     121.185  74.975  41.079  1.00  0.00     0.293 HD
ENDBRANCH  15  18
BRANCH  17  20
ATOM     20  O   UNL     1     120.201  74.707  43.675  1.00  0.00    -0.504 OA
ATOM     21  H   UNL     1     119.306  74.620  44.140  1.00  0.00     0.293 HD
ENDBRANCH  17  20
ENDBRANCH   1  12
BRANCH   2  22
ATOM     22  O   UNL     1     123.809  71.163  46.486  1.00  0.00    -0.502 OA
ATOM     23  H   UNL     1     124.355  71.248  47.335  1.00  0.00     0.293 HD
ENDBRANCH   2  22
BRANCH   6  24
ATOM     24  O   UNL     1     122.082  66.869  49.122  1.00  0.00    -0.507 OA
ATOM     25  H   UNL     1     122.394  65.971  49.457  1.00  0.00     0.293 HD
ENDBRANCH   6  24
BRANCH   8  26
ATOM     26  O   UNL     1     118.656  65.358  46.115  1.00  0.00    -0.508 OA
ATOM     27  H   UNL     1     118.811  64.364  46.248  1.00  0.00     0.293 HD
ENDBRANCH   8  26
TORSDOF 6
ENDMDL
MODEL 6
REMARK VINA RESULT:    -5.455      3.302      6.157
REMARK INTER + INTRA:          -6.842
REMARK INTER:                  -6.530
REMARK INTRA:                  -0.312
REMARK UNBOUND:                -0.270
REMARK SMILES O=c1c(O)c(-c2ccc(O)c(O)c2)oc2cc(O)cc(O)c12
REMARK SMILES IDX 5 1 3 2 2 3 1 4 22 5 20 6 19 7 17 8 16 9 15 10 14 11 6 12
REMARK SMILES IDX 7 13 8 14 9 15 13 16 11 17 10 18 12 20 4 22 21 24 18 26
REMARK H PARENT 10 19 12 21 4 23 21 25 18 27
REMARK Flexibility Score: inf
ROOT
ATOM      1  C   UNL     1     120.946  71.182  44.572  1.00  0.00     0.180 A 
ATOM      2  C   UNL     1     122.221  71.605  44.982  1.00  0.00     0.208 A 
ATOM      3  C   UNL     1     122.925  70.836  45.921  1.00  0.00     0.238 A 
ATOM      4  O   UNL     1     124.089  71.190  46.243  1.00  0.00    -0.285 OA
ATOM      5  C   UNL     1     122.338  69.662  46.453  1.00  0.00     0.111 A 
ATOM      6  C   UNL     1     122.944  68.828  47.439  1.00  0.00     0.134 A 
ATOM      7  C   UNL     1     122.329  67.621  47.795  1.00  0.00     0.093 A 
ATOM      8  C   UNL     1     121.098  67.251  47.248  1.00  0.00     0.123 A 
ATOM      9  C   UNL     1     120.470  68.087  46.327  1.00  0.00     0.094 A 
ATOM     10  C   UNL     1     121.077  69.279  45.926  1.00  0.00     0.146 A 
ATOM     11  O   UNL     1     120.450  70.042  45.039  1.00  0.00    -0.452 OA
ENDROOT
BRANCH   1  12
ATOM     12  C   UNL     1     120.132  71.954  43.605  1.00  0.00     0.025 A 
ATOM     13  C   UNL     1     120.319  71.752  42.228  1.00  0.00     0.016 A 
ATOM     14  C   UNL     1     119.549  72.454  41.298  1.00  0.00     0.051 A 
ATOM     15  C   UNL     1     118.571  73.356  41.728  1.00  0.00     0.157 A 
ATOM     16  C   UNL     1     119.133  72.845  44.035  1.00  0.00     0.062 A 
ATOM     17  C   UNL     1     118.357  73.551  43.103  1.00  0.00     0.158 A 
BRANCH  15  18
ATOM     18  O   UNL     1     117.818  74.044  40.776  1.00  0.00    -0.504 OA
ATOM     19  H   UNL     1     117.358  74.922  40.986  1.00  0.00     0.293 HD
ENDBRANCH  15  18
BRANCH  17  20
ATOM     20  O   UNL     1     117.374  74.437  43.537  1.00  0.00    -0.504 OA
ATOM     21  H   UNL     1     117.465  74.946  44.408  1.00  0.00     0.293 HD
ENDBRANCH  17  20
ENDBRANCH   1  12
BRANCH   2  22
ATOM     22  O   UNL     1     122.792  72.756  44.429  1.00  0.00    -0.502 OA
ATOM     23  H   UNL     1     123.684  73.122  44.737  1.00  0.00     0.293 HD
ENDBRANCH   2  22
BRANCH   6  24
ATOM     24  O   UNL     1     124.124  69.149  48.115  1.00  0.00    -0.507 OA
ATOM     25  H   UNL     1     124.374  68.806  49.030  1.00  0.00     0.293 HD
ENDBRANCH   6  24
BRANCH   8  26
ATOM     26  O   UNL     1     120.485  66.055  47.619  1.00  0.00    -0.508 OA
ATOM     27  H   UNL     1     119.633  66.044  48.167  1.00  0.00     0.293 HD
ENDBRANCH   8  26
TORSDOF 6
ENDMDL
MODEL 7
REMARK VINA RESULT:    -5.451      1.926      7.263
REMARK INTER + INTRA:          -6.836
REMARK INTER:                  -6.821
REMARK INTRA:                  -0.015
REMARK UNBOUND:                -0.270
REMARK SMILES O=c1c(O)c(-c2ccc(O)c(O)c2)oc2cc(O)cc(O)c12
REMARK SMILES IDX 5 1 3 2 2 3 1 4 22 5 20 6 19 7 17 8 16 9 15 10 14 11 6 12
REMARK SMILES IDX 7 13 8 14 9 15 13 16 11 17 10 18 12 20 4 22 21 24 18 26
REMARK H PARENT 10 19 12 21 4 23 21 25 18 27
REMARK Flexibility Score: inf
ROOT
ATOM      1  C   UNL     1     118.520  73.218  44.771  1.00  0.00     0.180 A 
ATOM      2  C   UNL     1     118.388  73.004  46.153  1.00  0.00     0.208 A 
ATOM      3  C   UNL     1     117.146  73.238  46.764  1.00  0.00     0.238 A 
ATOM      4  O   UNL     1     117.020  72.993  47.992  1.00  0.00    -0.285 OA
ATOM      5  C   UNL     1     116.056  73.701  45.988  1.00  0.00     0.111 A 
ATOM      6  C   UNL     1     114.764  74.010  46.510  1.00  0.00     0.134 A 
ATOM      7  C   UNL     1     113.724  74.334  45.630  1.00  0.00     0.093 A 
ATOM      8  C   UNL     1     113.947  74.425  44.253  1.00  0.00     0.123 A 
ATOM      9  C   UNL     1     115.219  74.182  43.740  1.00  0.00     0.094 A 
ATOM     10  C   UNL     1     116.267  73.821  44.590  1.00  0.00     0.146 A 
ATOM     11  O   UNL     1     117.462  73.588  44.060  1.00  0.00    -0.452 OA
ENDROOT
BRANCH   1  12
ATOM     12  C   UNL     1     119.804  73.016  44.061  1.00  0.00     0.025 A 
ATOM     13  C   UNL     1     120.459  71.779  44.156  1.00  0.00     0.016 A 
ATOM     14  C   UNL     1     121.661  71.560  43.478  1.00  0.00     0.051 A 
ATOM     15  C   UNL     1     122.218  72.567  42.683  1.00  0.00     0.157 A 
ATOM     16  C   UNL     1     120.354  74.020  43.243  1.00  0.00     0.062 A 
ATOM     17  C   UNL     1     121.560  73.802  42.560  1.00  0.00     0.158 A 
BRANCH  15  18
ATOM     18  O   UNL     1     123.419  72.320  42.020  1.00  0.00    -0.504 OA
ATOM     19  H   UNL     1     123.727  72.883  41.236  1.00  0.00     0.293 HD
ENDBRANCH  15  18
BRANCH  17  20
ATOM     20  O   UNL     1     122.102  74.805  41.758  1.00  0.00    -0.504 OA
ATOM     21  H   UNL     1     122.089  74.740  40.747  1.00  0.00     0.293 HD
ENDBRANCH  17  20
ENDBRANCH   1  12
BRANCH   2  22
ATOM     22  O   UNL     1     119.472  72.526  46.897  1.00  0.00    -0.502 OA
ATOM     23  H   UNL     1     120.251  72.039  46.470  1.00  0.00     0.293 HD
ENDBRANCH   2  22
BRANCH   6  24
ATOM     24  O   UNL     1     114.459  74.040  47.873  1.00  0.00    -0.507 OA
ATOM     25  H   UNL     1     113.866  73.374  48.344  1.00  0.00     0.293 HD
ENDBRANCH   6  24
BRANCH   8  26
ATOM     26  O   UNL     1     112.910  74.762  43.386  1.00  0.00    -0.508 OA
ATOM     27  H   UNL     1     112.480  74.073  42.780  1.00  0.00     0.293 HD
ENDBRANCH   8  26
TORSDOF 6
ENDMDL
MODEL 8
REMARK VINA RESULT:    -5.355      4.757      6.236
REMARK INTER + INTRA:          -6.721
REMARK INTER:                  -6.734
REMARK INTRA:                   0.013
REMARK UNBOUND:                -0.270
REMARK SMILES O=c1c(O)c(-c2ccc(O)c(O)c2)oc2cc(O)cc(O)c12
REMARK SMILES IDX 5 1 3 2 2 3 1 4 22 5 20 6 19 7 17 8 16 9 15 10 14 11 6 12
REMARK SMILES IDX 7 13 8 14 9 15 13 16 11 17 10 18 12 20 4 22 21 24 18 26
REMARK H PARENT 10 19 12 21 4 23 21 25 18 27
REMARK Flexibility Score: inf
ROOT
ATOM      1  C   UNL     1     120.941  69.160  45.802  1.00  0.00     0.180 A 
ATOM      2  C   UNL     1     120.927  69.315  44.406  1.00  0.00     0.208 A 
ATOM      3  C   UNL     1     121.156  70.588  43.859  1.00  0.00     0.238 A 
ATOM      4  O   UNL     1     121.196  70.710  42.607  1.00  0.00    -0.285 OA
ATOM      5  C   UNL     1     121.379  71.693  44.716  1.00  0.00     0.111 A 
ATOM      6  C   UNL     1     121.582  73.034  44.272  1.00  0.00     0.134 A 
ATOM      7  C   UNL     1     121.923  74.024  45.202  1.00  0.00     0.093 A 
ATOM      8  C   UNL     1     122.005  73.734  46.567  1.00  0.00     0.123 A 
ATOM      9  C   UNL     1     121.751  72.441  47.015  1.00  0.00     0.094 A 
ATOM     10  C   UNL     1     121.444  71.424  46.108  1.00  0.00     0.146 A 
ATOM     11  O   UNL     1     121.219  70.202  46.577  1.00  0.00    -0.452 OA
ENDROOT
BRANCH   1  12
ATOM     12  C   UNL     1     120.683  67.855  46.453  1.00  0.00     0.025 A 
ATOM     13  C   UNL     1     121.506  67.436  47.511  1.00  0.00     0.016 A 
ATOM     14  C   UNL     1     121.269  66.218  48.152  1.00  0.00     0.051 A 
ATOM     15  C   UNL     1     120.199  65.408  47.758  1.00  0.00     0.157 A 
ATOM     16  C   UNL     1     119.595  67.049  46.073  1.00  0.00     0.062 A 
ATOM     17  C   UNL     1     119.354  65.826  46.717  1.00  0.00     0.158 A 
BRANCH  15  18
ATOM     18  O   UNL     1     119.987  64.197  48.416  1.00  0.00    -0.504 OA
ATOM     19  H   UNL     1     120.459  63.964  49.281  1.00  0.00     0.293 HD
ENDBRANCH  15  18
BRANCH  17  20
ATOM     20  O   UNL     1     118.277  65.031  46.329  1.00  0.00    -0.504 OA
ATOM     21  H   UNL     1     117.462  64.916  46.920  1.00  0.00     0.293 HD
ENDBRANCH  17  20
ENDBRANCH   1  12
BRANCH   2  22
ATOM     22  O   UNL     1     120.727  68.207  43.577  1.00  0.00    -0.502 OA
ATOM     23  H   UNL     1     120.897  67.258  43.889  1.00  0.00     0.293 HD
ENDBRANCH   2  22
BRANCH   6  24
ATOM     24  O   UNL     1     121.434  73.448  42.946  1.00  0.00    -0.507 OA
ATOM     25  H   UNL     1     121.276  72.830  42.165  1.00  0.00     0.293 HD
ENDBRANCH   6  24
BRANCH   8  26
ATOM     26  O   UNL     1     122.331  74.729  47.486  1.00  0.00    -0.508 OA
ATOM     27  H   UNL     1     121.662  75.053  48.176  1.00  0.00     0.293 HD
ENDBRANCH   8  26
TORSDOF 6
ENDMDL
