MODEL 1
REMARK VINA RESULT:    -7.756      0.000      0.000
REMARK INTER + INTRA:         -18.008
REMARK INTER:                 -16.824
REMARK INTRA:                  -1.184
REMARK UNBOUND:                -1.184
REMARK SMILES CCCCCCCCCCCCCCCCCCCCCC(=O)[O-]
REMARK SMILES IDX 12 1 11 2 10 3 9 4 8 5 7 6 6 7 5 8 4 9 3 10 2 11 1 12 13 13
REMARK SMILES IDX 14 14 15 15 16 16 17 17 18 18 19 19 20 20 21 21 22 22 23 23
REMARK SMILES IDX 24 24
REMARK H PARENT
REMARK Flexibility Score: inf
ROOT
ATOM      1  C   UNL     1      -3.726  -0.931 -19.098  1.00  0.00     0.000 C 
ENDROOT
BRANCH   1   2
ATOM      2  C   UNL     1      -5.079  -1.605 -18.801  1.00  0.00     0.000 C 
BRANCH   2   3
ATOM      3  C   UNL     1      -6.242  -0.600 -18.743  1.00  0.00     0.000 C 
BRANCH   3   4
ATOM      4  C   UNL     1      -7.367  -0.932 -19.742  1.00  0.00    -0.000 C 
BRANCH   4   5
ATOM      5  C   UNL     1      -7.799  -2.414 -19.772  1.00  0.00    -0.000 C 
BRANCH   5   6
ATOM      6  C   UNL     1      -7.256  -3.230 -20.962  1.00  0.00    -0.000 C 
BRANCH   6   7
ATOM      7  C   UNL     1      -6.911  -4.679 -20.577  1.00  0.00    -0.000 C 
BRANCH   7   8
ATOM      8  C   UNL     1      -7.139  -4.977 -19.084  1.00  0.00    -0.000 C 
BRANCH   8   9
ATOM      9  C   UNL     1      -8.236  -6.018 -18.782  1.00  0.00    -0.000 C 
BRANCH   9  10
ATOM     10  C   UNL     1      -8.504  -7.028 -19.911  1.00  0.00    -0.000 C 
BRANCH  10  11
ATOM     11  C   UNL     1      -8.537  -8.482 -19.415  1.00  0.00    -0.003 C 
ATOM     12  C   UNL     1      -7.916  -9.426 -20.443  1.00  0.00     0.004 C 
ENDBRANCH  10  11
ENDBRANCH   9  10
ENDBRANCH   8   9
ENDBRANCH   7   8
ENDBRANCH   6   7
ENDBRANCH   5   6
ENDBRANCH   4   5
ENDBRANCH   3   4
ENDBRANCH   2   3
ENDBRANCH   1   2
BRANCH   1  13
ATOM     13  C   UNL     1      -3.610   0.525 -18.599  1.00  0.00     0.000 C 
BRANCH  13  14
ATOM     14  C   UNL     1      -2.170   1.064 -18.487  1.00  0.00     0.000 C 
BRANCH  14  15
ATOM     15  C   UNL     1      -1.974   2.005 -17.285  1.00  0.00     0.000 C 
BRANCH  15  16
ATOM     16  C   UNL     1      -2.111   3.490 -17.665  1.00  0.00     0.000 C 
BRANCH  16  17
ATOM     17  C   UNL     1      -3.444   4.149 -17.257  1.00  0.00     0.000 C 
BRANCH  17  18
ATOM     18  C   UNL     1      -3.409   5.684 -17.181  1.00  0.00     0.000 C 
BRANCH  18  19
ATOM     19  C   UNL     1      -4.690   6.280 -16.570  1.00  0.00     0.000 C 
BRANCH  19  20
ATOM     20  C   UNL     1      -5.194   5.470 -15.358  1.00  0.00     0.006 C 
BRANCH  20  21
ATOM     21  C   UNL     1      -6.072   6.291 -14.400  1.00  0.00     0.053 C 
BRANCH  21  22
ATOM     22  C   UNL     1      -5.371   6.607 -13.116  1.00  0.00     0.041 C 
ATOM     23  O   UNL     1      -4.120   6.761 -13.099  1.00  0.00    -0.550 OA
ATOM     24  O   UNL     1      -6.103   6.790 -11.951  1.00  0.00    -0.550 OA
ENDBRANCH  21  22
ENDBRANCH  20  21
ENDBRANCH  19  20
ENDBRANCH  18  19
ENDBRANCH  17  18
ENDBRANCH  16  17
ENDBRANCH  15  16
ENDBRANCH  14  15
ENDBRANCH  13  14
ENDBRANCH   1  13
TORSDOF 20
ENDMDL
MODEL 2
REMARK VINA RESULT:    -7.500      5.573     11.965
REMARK INTER + INTRA:         -17.453
REMARK INTER:                 -16.173
REMARK INTRA:                  -1.281
REMARK UNBOUND:                -1.184
REMARK SMILES CCCCCCCCCCCCCCCCCCCCCC(=O)[O-]
REMARK SMILES IDX 12 1 11 2 10 3 9 4 8 5 7 6 6 7 5 8 4 9 3 10 2 11 1 12 13 13
REMARK SMILES IDX 14 14 15 15 16 16 17 17 18 18 19 19 20 20 21 21 22 22 23 23
REMARK SMILES IDX 24 24
REMARK H PARENT
REMARK Flexibility Score: inf
ROOT
ATOM      1  C   UNL     1      -5.205  -0.244 -18.985  1.00  0.00     0.000 C 
ENDROOT
BRANCH   1   2
ATOM      2  C   UNL     1      -3.799  -0.871 -18.943  1.00  0.00     0.000 C 
BRANCH   2   3
ATOM      3  C   UNL     1      -2.953  -0.353 -17.768  1.00  0.00     0.000 C 
BRANCH   3   4
ATOM      4  C   UNL     1      -1.979   0.767 -18.182  1.00  0.00    -0.000 C 
BRANCH   4   5
ATOM      5  C   UNL     1      -1.980   2.008 -17.265  1.00  0.00    -0.000 C 
BRANCH   5   6
ATOM      6  C   UNL     1      -3.049   3.068 -17.598  1.00  0.00    -0.000 C 
BRANCH   6   7
ATOM      7  C   UNL     1      -2.532   4.506 -17.421  1.00  0.00    -0.000 C 
BRANCH   7   8
ATOM      8  C   UNL     1      -3.655   5.558 -17.448  1.00  0.00    -0.000 C 
BRANCH   8   9
ATOM      9  C   UNL     1      -4.026   6.158 -16.077  1.00  0.00    -0.000 C 
BRANCH   9  10
ATOM     10  C   UNL     1      -5.218   5.486 -15.371  1.00  0.00    -0.000 C 
BRANCH  10  11
ATOM     11  C   UNL     1      -5.334   5.880 -13.891  1.00  0.00    -0.003 C 
ATOM     12  C   UNL     1      -6.713   6.462 -13.586  1.00  0.00     0.004 C 
ENDBRANCH  10  11
ENDBRANCH   9  10
ENDBRANCH   8   9
ENDBRANCH   7   8
ENDBRANCH   6   7
ENDBRANCH   5   6
ENDBRANCH   4   5
ENDBRANCH   3   4
ENDBRANCH   2   3
ENDBRANCH   1   2
BRANCH   1  13
ATOM     13  C   UNL     1      -6.359  -1.238 -18.732  1.00  0.00     0.000 C 
BRANCH  13  14
ATOM     14  C   UNL     1      -7.398  -1.334 -19.867  1.00  0.00     0.000 C 
BRANCH  14  15
ATOM     15  C   UNL     1      -7.302  -2.650 -20.659  1.00  0.00     0.000 C 
BRANCH  15  16
ATOM     16  C   UNL     1      -6.229  -3.602 -20.102  1.00  0.00     0.000 C 
BRANCH  16  17
ATOM     17  C   UNL     1      -6.773  -4.855 -19.388  1.00  0.00     0.000 C 
BRANCH  17  18
ATOM     18  C   UNL     1      -8.288  -4.845 -19.131  1.00  0.00     0.000 C 
BRANCH  18  19
ATOM     19  C   UNL     1      -8.996  -6.092 -19.690  1.00  0.00     0.000 C 
BRANCH  19  20
ATOM     20  C   UNL     1      -8.003  -7.214 -20.059  1.00  0.00     0.006 C 
BRANCH  20  21
ATOM     21  C   UNL     1      -8.431  -8.598 -19.546  1.00  0.00     0.053 C 
BRANCH  21  22
ATOM     22  C   UNL     1      -8.105  -9.690 -20.516  1.00  0.00     0.041 C 
ATOM     23  O   UNL     1      -7.610 -10.774 -20.107  1.00  0.00    -0.550 OA
ATOM     24  O   UNL     1      -8.404  -9.535 -21.863  1.00  0.00    -0.550 OA
ENDBRANCH  21  22
ENDBRANCH  20  21
ENDBRANCH  19  20
ENDBRANCH  18  19
ENDBRANCH  17  18
ENDBRANCH  16  17
ENDBRANCH  15  16
ENDBRANCH  14  15
ENDBRANCH  13  14
ENDBRANCH   1  13
TORSDOF 20
ENDMDL
MODEL 3
REMARK VINA RESULT:    -7.386      1.261      3.146
REMARK INTER + INTRA:         -17.205
REMARK INTER:                 -16.218
REMARK INTRA:                  -0.987
REMARK UNBOUND:                -1.184
REMARK SMILES CCCCCCCCCCCCCCCCCCCCCC(=O)[O-]
REMARK SMILES IDX 12 1 11 2 10 3 9 4 8 5 7 6 6 7 5 8 4 9 3 10 2 11 1 12 13 13
REMARK SMILES IDX 14 14 15 15 16 16 17 17 18 18 19 19 20 20 21 21 22 22 23 23
REMARK SMILES IDX 24 24
REMARK H PARENT
REMARK Flexibility Score: inf
ROOT
ATOM      1  C   UNL     1      -1.991   1.897 -17.306  1.00  0.00     0.000 C 
ENDROOT
BRANCH   1   2
ATOM      2  C   UNL     1      -2.787   1.112 -18.366  1.00  0.00     0.000 C 
BRANCH   2   3
ATOM      3  C   UNL     1      -3.648  -0.007 -17.755  1.00  0.00     0.000 C 
BRANCH   3   4
ATOM      4  C   UNL     1      -3.419  -1.372 -18.431  1.00  0.00    -0.000 C 
BRANCH   4   5
ATOM      5  C   UNL     1      -4.390  -1.700 -19.586  1.00  0.00    -0.000 C 
BRANCH   5   6
ATOM      6  C   UNL     1      -5.881  -1.744 -19.196  1.00  0.00    -0.000 C 
BRANCH   6   7
ATOM      7  C   UNL     1      -6.794  -2.087 -20.386  1.00  0.00    -0.000 C 
BRANCH   7   8
ATOM      8  C   UNL     1      -7.593  -3.386 -20.177  1.00  0.00    -0.000 C 
BRANCH   8   9
ATOM      9  C   UNL     1      -7.213  -4.197 -18.922  1.00  0.00    -0.000 C 
BRANCH   9  10
ATOM     10  C   UNL     1      -8.243  -5.258 -18.494  1.00  0.00    -0.000 C 
BRANCH  10  11
ATOM     11  C   UNL     1      -8.840  -6.023 -19.685  1.00  0.00    -0.003 C 
ATOM     12  C   UNL     1      -8.288  -7.446 -19.755  1.00  0.00     0.004 C 
ENDBRANCH  10  11
ENDBRANCH   9  10
ENDBRANCH   8   9
ENDBRANCH   7   8
ENDBRANCH   6   7
ENDBRANCH   5   6
ENDBRANCH   4   5
ENDBRANCH   3   4
ENDBRANCH   2   3
ENDBRANCH   1   2
BRANCH   1  13
ATOM     13  C   UNL     1      -2.012   3.429 -17.492  1.00  0.00     0.000 C 
BRANCH  13  14
ATOM     14  C   UNL     1      -3.394   4.089 -17.319  1.00  0.00     0.000 C 
BRANCH  14  15
ATOM     15  C   UNL     1      -3.334   5.626 -17.351  1.00  0.00     0.000 C 
BRANCH  15  16
ATOM     16  C   UNL     1      -4.547   6.283 -16.668  1.00  0.00     0.000 C 
BRANCH  16  17
ATOM     17  C   UNL     1      -4.875   5.748 -15.261  1.00  0.00     0.000 C 
BRANCH  17  18
ATOM     18  C   UNL     1      -6.303   6.044 -14.773  1.00  0.00     0.000 C 
BRANCH  18  19
ATOM     19  C   UNL     1      -6.338   6.635 -13.353  1.00  0.00     0.000 C 
BRANCH  19  20
ATOM     20  C   UNL     1      -4.930   6.986 -12.829  1.00  0.00     0.006 C 
BRANCH  20  21
ATOM     21  C   UNL     1      -4.509   6.152 -11.609  1.00  0.00     0.053 C 
BRANCH  21  22
ATOM     22  C   UNL     1      -4.714   6.886 -10.321  1.00  0.00     0.041 C 
ATOM     23  O   UNL     1      -3.759   7.019  -9.510  1.00  0.00    -0.550 OA
ATOM     24  O   UNL     1      -5.940   7.474 -10.044  1.00  0.00    -0.550 OA
ENDBRANCH  21  22
ENDBRANCH  20  21
ENDBRANCH  19  20
ENDBRANCH  18  19
ENDBRANCH  17  18
ENDBRANCH  16  17
ENDBRANCH  15  16
ENDBRANCH  14  15
ENDBRANCH  13  14
ENDBRANCH   1  13
TORSDOF 20
ENDMDL
MODEL 4
REMARK VINA RESULT:    -7.381      1.674      3.549
REMARK INTER + INTRA:         -17.195
REMARK INTER:                 -16.038
REMARK INTRA:                  -1.157
REMARK UNBOUND:                -1.184
REMARK SMILES CCCCCCCCCCCCCCCCCCCCCC(=O)[O-]
REMARK SMILES IDX 12 1 11 2 10 3 9 4 8 5 7 6 6 7 5 8 4 9 3 10 2 11 1 12 13 13
REMARK SMILES IDX 14 14 15 15 16 16 17 17 18 18 19 19 20 20 21 21 22 22 23 23
REMARK SMILES IDX 24 24
REMARK H PARENT
REMARK Flexibility Score: inf
ROOT
ATOM      1  C   UNL     1      -2.996   2.457 -17.590  1.00  0.00     0.000 C 
ENDROOT
BRANCH   1   2
ATOM      2  C   UNL     1      -2.593   1.110 -18.220  1.00  0.00     0.000 C 
BRANCH   2   3
ATOM      3  C   UNL     1      -3.503  -0.048 -17.776  1.00  0.00     0.000 C 
BRANCH   3   4
ATOM      4  C   UNL     1      -3.352  -1.298 -18.664  1.00  0.00    -0.000 C 
BRANCH   4   5
ATOM      5  C   UNL     1      -4.613  -1.687 -19.466  1.00  0.00    -0.000 C 
BRANCH   5   6
ATOM      6  C   UNL     1      -5.928  -1.055 -18.967  1.00  0.00    -0.000 C 
BRANCH   6   7
ATOM      7  C   UNL     1      -7.172  -1.826 -19.439  1.00  0.00    -0.000 C 
BRANCH   7   8
ATOM      8  C   UNL     1      -7.199  -2.052 -20.962  1.00  0.00    -0.000 C 
BRANCH   8   9
ATOM      9  C   UNL     1      -7.028  -3.517 -21.412  1.00  0.00    -0.000 C 
BRANCH   9  10
ATOM     10  C   UNL     1      -6.707  -4.512 -20.282  1.00  0.00    -0.000 C 
BRANCH  10  11
ATOM     11  C   UNL     1      -7.917  -5.372 -19.885  1.00  0.00    -0.003 C 
ATOM     12  C   UNL     1      -8.127  -5.357 -18.372  1.00  0.00     0.004 C 
ENDBRANCH  10  11
ENDBRANCH   9  10
ENDBRANCH   8   9
ENDBRANCH   7   8
ENDBRANCH   6   7
ENDBRANCH   5   6
ENDBRANCH   4   5
ENDBRANCH   3   4
ENDBRANCH   2   3
ENDBRANCH   1   2
BRANCH   1  13
ATOM     13  C   UNL     1      -1.926   3.564 -17.704  1.00  0.00     0.000 C 
BRANCH  13  14
ATOM     14  C   UNL     1      -2.379   4.959 -17.230  1.00  0.00     0.000 C 
BRANCH  14  15
ATOM     15  C   UNL     1      -3.745   5.374 -17.805  1.00  0.00     0.000 C 
BRANCH  15  16
ATOM     16  C   UNL     1      -4.532   6.299 -16.859  1.00  0.00     0.000 C 
BRANCH  16  17
ATOM     17  C   UNL     1      -4.814   5.718 -15.460  1.00  0.00     0.000 C 
BRANCH  17  18
ATOM     18  C   UNL     1      -4.611   6.703 -14.298  1.00  0.00     0.000 C 
BRANCH  18  19
ATOM     19  C   UNL     1      -5.414   6.319 -13.043  1.00  0.00     0.000 C 
BRANCH  19  20
ATOM     20  C   UNL     1      -6.918   6.631 -13.191  1.00  0.00     0.006 C 
BRANCH  20  21
ATOM     21  C   UNL     1      -7.564   7.142 -11.893  1.00  0.00     0.053 C 
BRANCH  21  22
ATOM     22  C   UNL     1      -7.825   6.038 -10.916  1.00  0.00     0.041 C 
ATOM     23  O   UNL     1      -6.948   5.722 -10.069  1.00  0.00    -0.550 OA
ATOM     24  O   UNL     1      -9.057   5.400 -10.901  1.00  0.00    -0.550 OA
ENDBRANCH  21  22
ENDBRANCH  20  21
ENDBRANCH  19  20
ENDBRANCH  18  19
ENDBRANCH  17  18
ENDBRANCH  16  17
ENDBRANCH  15  16
ENDBRANCH  14  15
ENDBRANCH  13  14
ENDBRANCH   1  13
TORSDOF 20
ENDMDL
MODEL 5
REMARK VINA RESULT:    -7.325      1.193      2.378
REMARK INTER + INTRA:         -17.072
REMARK INTER:                 -16.031
REMARK INTRA:                  -1.042
REMARK UNBOUND:                -1.184
REMARK SMILES CCCCCCCCCCCCCCCCCCCCCC(=O)[O-]
REMARK SMILES IDX 12 1 11 2 10 3 9 4 8 5 7 6 6 7 5 8 4 9 3 10 2 11 1 12 13 13
REMARK SMILES IDX 14 14 15 15 16 16 17 17 18 18 19 19 20 20 21 21 22 22 23 23
REMARK SMILES IDX 24 24
REMARK H PARENT
REMARK Flexibility Score: inf
ROOT
ATOM      1  C   UNL     1      -3.013   0.944 -18.197  1.00  0.00     0.000 C 
ENDROOT
BRANCH   1   2
ATOM      2  C   UNL     1      -2.419  -0.452 -17.929  1.00  0.00     0.000 C 
BRANCH   2   3
ATOM      3  C   UNL     1      -3.379  -1.589 -18.318  1.00  0.00     0.000 C 
BRANCH   3   4
ATOM      4  C   UNL     1      -4.837  -1.114 -18.468  1.00  0.00    -0.000 C 
BRANCH   4   5
ATOM      5  C   UNL     1      -5.474  -1.380 -19.849  1.00  0.00    -0.000 C 
BRANCH   5   6
ATOM      6  C   UNL     1      -6.988  -1.667 -19.827  1.00  0.00    -0.000 C 
BRANCH   6   7
ATOM      7  C   UNL     1      -7.395  -2.778 -20.810  1.00  0.00    -0.000 C 
BRANCH   7   8
ATOM      8  C   UNL     1      -7.060  -4.190 -20.296  1.00  0.00    -0.000 C 
BRANCH   8   9
ATOM      9  C   UNL     1      -7.375  -4.438 -18.807  1.00  0.00    -0.000 C 
BRANCH   9  10
ATOM     10  C   UNL     1      -8.282  -5.650 -18.526  1.00  0.00    -0.000 C 
BRANCH  10  11
ATOM     11  C   UNL     1      -8.698  -6.393 -19.804  1.00  0.00    -0.003 C 
ATOM     12  C   UNL     1      -8.338  -7.875 -19.719  1.00  0.00     0.004 C 
ENDBRANCH  10  11
ENDBRANCH   9  10
ENDBRANCH   8   9
ENDBRANCH   7   8
ENDBRANCH   6   7
ENDBRANCH   5   6
ENDBRANCH   4   5
ENDBRANCH   3   4
ENDBRANCH   2   3
ENDBRANCH   1   2
BRANCH   1  13
ATOM     13  C   UNL     1      -2.188   2.115 -17.618  1.00  0.00     0.000 C 
BRANCH  13  14
ATOM     14  C   UNL     1      -2.951   3.448 -17.488  1.00  0.00     0.000 C 
BRANCH  14  15
ATOM     15  C   UNL     1      -2.033   4.678 -17.601  1.00  0.00     0.000 C 
BRANCH  15  16
ATOM     16  C   UNL     1      -2.683   5.958 -17.047  1.00  0.00     0.000 C 
BRANCH  16  17
ATOM     17  C   UNL     1      -4.196   5.856 -16.771  1.00  0.00     0.000 C 
BRANCH  17  18
ATOM     18  C   UNL     1      -4.674   6.597 -15.511  1.00  0.00     0.000 C 
BRANCH  18  19
ATOM     19  C   UNL     1      -5.641   5.758 -14.657  1.00  0.00     0.000 C 
BRANCH  19  20
ATOM     20  C   UNL     1      -5.457   6.007 -13.146  1.00  0.00     0.006 C 
BRANCH  20  21
ATOM     21  C   UNL     1      -6.730   6.518 -12.454  1.00  0.00     0.053 C 
BRANCH  21  22
ATOM     22  C   UNL     1      -6.467   6.993 -11.059  1.00  0.00     0.041 C 
ATOM     23  O   UNL     1      -6.568   8.218 -10.778  1.00  0.00    -0.550 OA
ATOM     24  O   UNL     1      -6.171   6.080 -10.058  1.00  0.00    -0.550 OA
ENDBRANCH  21  22
ENDBRANCH  20  21
ENDBRANCH  19  20
ENDBRANCH  18  19
ENDBRANCH  17  18
ENDBRANCH  16  17
ENDBRANCH  15  16
ENDBRANCH  14  15
ENDBRANCH  13  14
ENDBRANCH   1  13
TORSDOF 20
ENDMDL
MODEL 6
REMARK VINA RESULT:    -7.278      1.625      3.484
REMARK INTER + INTRA:         -16.971
REMARK INTER:                 -15.611
REMARK INTRA:                  -1.359
REMARK UNBOUND:                -1.184
REMARK SMILES CCCCCCCCCCCCCCCCCCCCCC(=O)[O-]
REMARK SMILES IDX 12 1 11 2 10 3 9 4 8 5 7 6 6 7 5 8 4 9 3 10 2 11 1 12 13 13
REMARK SMILES IDX 14 14 15 15 16 16 17 17 18 18 19 19 20 20 21 21 22 22 23 23
REMARK SMILES IDX 24 24
REMARK H PARENT
REMARK Flexibility Score: inf
ROOT
ATOM      1  C   UNL     1      -7.261  -1.465 -19.670  1.00  0.00     0.000 C 
ENDROOT
BRANCH   1   2
ATOM      2  C   UNL     1      -7.173  -2.149 -21.047  1.00  0.00     0.000 C 
BRANCH   2   3
ATOM      3  C   UNL     1      -7.279  -3.681 -20.956  1.00  0.00     0.000 C 
BRANCH   3   4
ATOM      4  C   UNL     1      -6.585  -4.253 -19.705  1.00  0.00    -0.000 C 
BRANCH   4   5
ATOM      5  C   UNL     1      -7.520  -4.978 -18.712  1.00  0.00    -0.000 C 
BRANCH   5   6
ATOM      6  C   UNL     1      -8.973  -5.159 -19.194  1.00  0.00    -0.000 C 
BRANCH   6   7
ATOM      7  C   UNL     1      -9.185  -6.480 -19.954  1.00  0.00    -0.000 C 
BRANCH   7   8
ATOM      8  C   UNL     1      -8.077  -7.513 -19.685  1.00  0.00    -0.000 C 
BRANCH   8   9
ATOM      9  C   UNL     1      -8.553  -8.977 -19.586  1.00  0.00    -0.000 C 
BRANCH   9  10
ATOM     10  C   UNL     1      -7.640 -10.007 -20.275  1.00  0.00    -0.000 C 
BRANCH  10  11
ATOM     11  C   UNL     1      -8.320 -10.707 -21.461  1.00  0.00    -0.003 C 
ATOM     12  C   UNL     1      -8.562  -9.729 -22.609  1.00  0.00     0.004 C 
ENDBRANCH  10  11
ENDBRANCH   9  10
ENDBRANCH   8   9
ENDBRANCH   7   8
ENDBRANCH   6   7
ENDBRANCH   5   6
ENDBRANCH   4   5
ENDBRANCH   3   4
ENDBRANCH   2   3
ENDBRANCH   1   2
BRANCH   1  13
ATOM     13  C   UNL     1      -6.184  -0.388 -19.419  1.00  0.00     0.000 C 
BRANCH  13  14
ATOM     14  C   UNL     1      -5.447  -0.505 -18.070  1.00  0.00     0.000 C 
BRANCH  14  15
ATOM     15  C   UNL     1      -4.125  -1.287 -18.174  1.00  0.00     0.000 C 
BRANCH  15  16
ATOM     16  C   UNL     1      -2.962  -0.421 -18.689  1.00  0.00     0.000 C 
BRANCH  16  17
ATOM     17  C   UNL     1      -3.087   1.087 -18.393  1.00  0.00     0.000 C 
BRANCH  17  18
ATOM     18  C   UNL     1      -1.929   1.684 -17.576  1.00  0.00     0.000 C 
BRANCH  18  19
ATOM     19  C   UNL     1      -1.875   3.219 -17.653  1.00  0.00     0.000 C 
BRANCH  19  20
ATOM     20  C   UNL     1      -3.257   3.867 -17.428  1.00  0.00     0.006 C 
BRANCH  20  21
ATOM     21  C   UNL     1      -3.245   5.396 -17.587  1.00  0.00     0.053 C 
BRANCH  21  22
ATOM     22  C   UNL     1      -3.978   6.087 -16.479  1.00  0.00     0.041 C 
ATOM     23  O   UNL     1      -3.830   7.325 -16.300  1.00  0.00    -0.550 OA
ATOM     24  O   UNL     1      -4.868   5.378 -15.685  1.00  0.00    -0.550 OA
ENDBRANCH  21  22
ENDBRANCH  20  21
ENDBRANCH  19  20
ENDBRANCH  18  19
ENDBRANCH  17  18
ENDBRANCH  16  17
ENDBRANCH  15  16
ENDBRANCH  14  15
ENDBRANCH  13  14
ENDBRANCH   1  13
TORSDOF 20
ENDMDL
MODEL 7
REMARK VINA RESULT:    -7.256      4.845     11.241
REMARK INTER + INTRA:         -16.923
REMARK INTER:                 -16.040
REMARK INTRA:                  -0.883
REMARK UNBOUND:                -1.184
REMARK SMILES CCCCCCCCCCCCCCCCCCCCCC(=O)[O-]
REMARK SMILES IDX 12 1 11 2 10 3 9 4 8 5 7 6 6 7 5 8 4 9 3 10 2 11 1 12 13 13
REMARK SMILES IDX 14 14 15 15 16 16 17 17 18 18 19 19 20 20 21 21 22 22 23 23
REMARK SMILES IDX 24 24
REMARK H PARENT
REMARK Flexibility Score: inf
ROOT
ATOM      1  C   UNL     1      -2.451   1.108 -17.529  1.00  0.00     0.000 C 
ENDROOT
BRANCH   1   2
ATOM      2  C   UNL     1      -2.043   2.577 -17.754  1.00  0.00     0.000 C 
BRANCH   2   3
ATOM      3  C   UNL     1      -3.156   3.567 -17.369  1.00  0.00     0.000 C 
BRANCH   3   4
ATOM      4  C   UNL     1      -2.808   5.024 -17.729  1.00  0.00    -0.000 C 
BRANCH   4   5
ATOM      5  C   UNL     1      -3.888   6.064 -17.363  1.00  0.00    -0.000 C 
BRANCH   5   6
ATOM      6  C   UNL     1      -4.002   6.390 -15.861  1.00  0.00    -0.000 C 
BRANCH   6   7
ATOM      7  C   UNL     1      -5.291   5.836 -15.230  1.00  0.00    -0.000 C 
BRANCH   7   8
ATOM      8  C   UNL     1      -5.627   6.485 -13.876  1.00  0.00    -0.000 C 
BRANCH   8   9
ATOM      9  C   UNL     1      -6.984   6.074 -13.269  1.00  0.00    -0.000 C 
BRANCH   9  10
ATOM     10  C   UNL     1      -7.430   6.902 -12.051  1.00  0.00    -0.000 C 
BRANCH  10  11
ATOM     11  C   UNL     1      -7.642   6.045 -10.793  1.00  0.00    -0.003 C 
ATOM     12  C   UNL     1      -8.947   5.257 -10.880  1.00  0.00     0.004 C 
ENDBRANCH  10  11
ENDBRANCH   9  10
ENDBRANCH   8   9
ENDBRANCH   7   8
ENDBRANCH   6   7
ENDBRANCH   5   6
ENDBRANCH   4   5
ENDBRANCH   3   4
ENDBRANCH   2   3
ENDBRANCH   1   2
BRANCH   1  13
ATOM     13  C   UNL     1      -3.434   0.547 -18.578  1.00  0.00     0.000 C 
BRANCH  13  14
ATOM     14  C   UNL     1      -3.753  -0.955 -18.435  1.00  0.00     0.000 C 
BRANCH  14  15
ATOM     15  C   UNL     1      -4.868  -1.425 -19.387  1.00  0.00     0.000 C 
BRANCH  15  16
ATOM     16  C   UNL     1      -6.221  -0.752 -19.096  1.00  0.00     0.000 C 
BRANCH  16  17
ATOM     17  C   UNL     1      -7.428  -1.364 -19.833  1.00  0.00     0.000 C 
BRANCH  17  18
ATOM     18  C   UNL     1      -7.067  -2.307 -20.992  1.00  0.00     0.000 C 
BRANCH  18  19
ATOM     19  C   UNL     1      -7.250  -3.792 -20.632  1.00  0.00     0.000 C 
BRANCH  19  20
ATOM     20  C   UNL     1      -7.979  -3.983 -19.286  1.00  0.00     0.006 C 
BRANCH  20  21
ATOM     21  C   UNL     1      -7.882  -5.417 -18.740  1.00  0.00     0.053 C 
BRANCH  21  22
ATOM     22  C   UNL     1      -8.525  -6.416 -19.650  1.00  0.00     0.041 C 
ATOM     23  O   UNL     1      -9.657  -6.179 -20.150  1.00  0.00    -0.550 OA
ATOM     24  O   UNL     1      -7.850  -7.579 -19.993  1.00  0.00    -0.550 OA
ENDBRANCH  21  22
ENDBRANCH  20  21
ENDBRANCH  19  20
ENDBRANCH  18  19
ENDBRANCH  17  18
ENDBRANCH  16  17
ENDBRANCH  15  16
ENDBRANCH  14  15
ENDBRANCH  13  14
ENDBRANCH   1  13
TORSDOF 20
ENDMDL
MODEL 8
REMARK VINA RESULT:    -7.255      5.324     11.727
REMARK INTER + INTRA:         -16.921
REMARK INTER:                 -15.999
REMARK INTRA:                  -0.922
REMARK UNBOUND:                -1.184
REMARK SMILES CCCCCCCCCCCCCCCCCCCCCC(=O)[O-]
REMARK SMILES IDX 12 1 11 2 10 3 9 4 8 5 7 6 6 7 5 8 4 9 3 10 2 11 1 12 13 13
REMARK SMILES IDX 14 14 15 15 16 16 17 17 18 18 19 19 20 20 21 21 22 22 23 23
REMARK SMILES IDX 24 24
REMARK H PARENT
REMARK Flexibility Score: inf
ROOT
ATOM      1  C   UNL     1      -3.850   0.158 -18.522  1.00  0.00     0.000 C 
ENDROOT
BRANCH   1   2
ATOM      2  C   UNL     1      -2.645   0.299 -17.573  1.00  0.00     0.000 C 
BRANCH   2   3
ATOM      3  C   UNL     1      -2.020   1.703 -17.611  1.00  0.00     0.000 C 
BRANCH   3   4
ATOM      4  C   UNL     1      -3.070   2.819 -17.776  1.00  0.00    -0.000 C 
BRANCH   4   5
ATOM      5  C   UNL     1      -2.564   4.245 -17.469  1.00  0.00    -0.000 C 
BRANCH   5   6
ATOM      6  C   UNL     1      -3.655   5.334 -17.439  1.00  0.00    -0.000 C 
BRANCH   6   7
ATOM      7  C   UNL     1      -3.884   5.904 -16.029  1.00  0.00    -0.000 C 
BRANCH   7   8
ATOM      8  C   UNL     1      -5.221   5.460 -15.409  1.00  0.00    -0.000 C 
BRANCH   8   9
ATOM      9  C   UNL     1      -5.933   6.525 -14.552  1.00  0.00    -0.000 C 
BRANCH   9  10
ATOM     10  C   UNL     1      -7.066   5.992 -13.657  1.00  0.00    -0.000 C 
BRANCH  10  11
ATOM     11  C   UNL     1      -7.025   6.570 -12.235  1.00  0.00    -0.003 C 
ATOM     12  C   UNL     1      -8.181   6.033 -11.392  1.00  0.00     0.004 C 
ENDBRANCH  10  11
ENDBRANCH   9  10
ENDBRANCH   8   9
ENDBRANCH   7   8
ENDBRANCH   6   7
ENDBRANCH   5   6
ENDBRANCH   4   5
ENDBRANCH   3   4
ENDBRANCH   2   3
ENDBRANCH   1   2
BRANCH   1  13
ATOM     13  C   UNL     1      -4.724  -1.089 -18.271  1.00  0.00     0.000 C 
BRANCH  13  14
ATOM     14  C   UNL     1      -4.232  -2.378 -18.958  1.00  0.00     0.000 C 
BRANCH  14  15
ATOM     15  C   UNL     1      -4.785  -2.546 -20.385  1.00  0.00     0.000 C 
BRANCH  15  16
ATOM     16  C   UNL     1      -6.251  -2.095 -20.511  1.00  0.00     0.000 C 
BRANCH  16  17
ATOM     17  C   UNL     1      -7.212  -3.148 -21.096  1.00  0.00     0.000 C 
BRANCH  17  18
ATOM     18  C   UNL     1      -7.146  -4.529 -20.423  1.00  0.00     0.000 C 
BRANCH  18  19
ATOM     19  C   UNL     1      -8.281  -4.753 -19.409  1.00  0.00     0.000 C 
BRANCH  19  20
ATOM     20  C   UNL     1      -8.561  -6.250 -19.162  1.00  0.00     0.006 C 
BRANCH  20  21
ATOM     21  C   UNL     1      -7.762  -7.178 -20.090  1.00  0.00     0.053 C 
BRANCH  21  22
ATOM     22  C   UNL     1      -8.224  -8.600 -20.006  1.00  0.00     0.041 C 
ATOM     23  O   UNL     1      -8.650  -9.063 -18.915  1.00  0.00    -0.550 OA
ATOM     24  O   UNL     1      -8.242  -9.393 -21.145  1.00  0.00    -0.550 OA
ENDBRANCH  21  22
ENDBRANCH  20  21
ENDBRANCH  19  20
ENDBRANCH  18  19
ENDBRANCH  17  18
ENDBRANCH  16  17
ENDBRANCH  15  16
ENDBRANCH  14  15
ENDBRANCH  13  14
ENDBRANCH   1  13
TORSDOF 20
ENDMDL
MODEL 9
REMARK VINA RESULT:    -6.835      4.524     11.144
REMARK INTER + INTRA:         -16.009
REMARK INTER:                 -14.975
REMARK INTRA:                  -1.035
REMARK UNBOUND:                -1.184
REMARK SMILES CCCCCCCCCCCCCCCCCCCCCC(=O)[O-]
REMARK SMILES IDX 12 1 11 2 10 3 9 4 8 5 7 6 6 7 5 8 4 9 3 10 2 11 1 12 13 13
REMARK SMILES IDX 14 14 15 15 16 16 17 17 18 18 19 19 20 20 21 21 22 22 23 23
REMARK SMILES IDX 24 24
REMARK H PARENT
REMARK Flexibility Score: inf
ROOT
ATOM      1  C   UNL     1      -2.181   3.638 -17.508  1.00  0.00     0.000 C 
ENDROOT
BRANCH   1   2
ATOM      2  C   UNL     1      -3.125   4.847 -17.649  1.00  0.00     0.000 C 
BRANCH   2   3
ATOM      3  C   UNL     1      -2.565   6.117 -16.987  1.00  0.00     0.000 C 
BRANCH   3   4
ATOM      4  C   UNL     1      -3.665   7.127 -16.609  1.00  0.00    -0.000 C 
BRANCH   4   5
ATOM      5  C   UNL     1      -4.365   6.857 -15.259  1.00  0.00    -0.000 C 
BRANCH   5   6
ATOM      6  C   UNL     1      -5.624   5.970 -15.340  1.00  0.00    -0.000 C 
BRANCH   6   7
ATOM      7  C   UNL     1      -6.604   6.227 -14.182  1.00  0.00    -0.000 C 
BRANCH   7   8
ATOM      8  C   UNL     1      -5.920   6.229 -12.803  1.00  0.00    -0.000 C 
BRANCH   8   9
ATOM      9  C   UNL     1      -6.278   7.422 -11.895  1.00  0.00    -0.000 C 
BRANCH   9  10
ATOM     10  C   UNL     1      -7.548   7.237 -11.045  1.00  0.00    -0.000 C 
BRANCH  10  11
ATOM     11  C   UNL     1      -7.644   5.841 -10.412  1.00  0.00    -0.003 C 
ATOM     12  C   UNL     1      -8.974   5.174 -10.755  1.00  0.00     0.004 C 
ENDBRANCH  10  11
ENDBRANCH   9  10
ENDBRANCH   8   9
ENDBRANCH   7   8
ENDBRANCH   6   7
ENDBRANCH   5   6
ENDBRANCH   4   5
ENDBRANCH   3   4
ENDBRANCH   2   3
ENDBRANCH   1   2
BRANCH   1  13
ATOM     13  C   UNL     1      -2.839   2.272 -17.804  1.00  0.00     0.000 C 
BRANCH  13  14
ATOM     14  C   UNL     1      -1.905   1.054 -17.660  1.00  0.00     0.000 C 
BRANCH  14  15
ATOM     15  C   UNL     1      -2.663  -0.285 -17.646  1.00  0.00     0.000 C 
BRANCH  15  16
ATOM     16  C   UNL     1      -4.167  -0.119 -17.930  1.00  0.00     0.000 C 
BRANCH  16  17
ATOM     17  C   UNL     1      -4.717  -0.992 -19.075  1.00  0.00     0.000 C 
BRANCH  17  18
ATOM     18  C   UNL     1      -4.242  -2.454 -19.059  1.00  0.00     0.000 C 
BRANCH  18  19
ATOM     19  C   UNL     1      -5.328  -3.428 -18.570  1.00  0.00     0.000 C 
BRANCH  19  20
ATOM     20  C   UNL     1      -6.118  -4.059 -19.736  1.00  0.00     0.006 C 
BRANCH  20  21
ATOM     21  C   UNL     1      -7.626  -3.767 -19.676  1.00  0.00     0.053 C 
BRANCH  21  22
ATOM     22  C   UNL     1      -8.427  -4.987 -19.344  1.00  0.00     0.041 C 
ATOM     23  O   UNL     1      -9.490  -4.884 -18.675  1.00  0.00    -0.550 OA
ATOM     24  O   UNL     1      -8.034  -6.229 -19.824  1.00  0.00    -0.550 OA
ENDBRANCH  21  22
ENDBRANCH  20  21
ENDBRANCH  19  20
ENDBRANCH  18  19
ENDBRANCH  17  18
ENDBRANCH  16  17
ENDBRANCH  15  16
ENDBRANCH  14  15
ENDBRANCH  13  14
ENDBRANCH   1  13
TORSDOF 20
ENDMDL
