MODEL 1
REMARK VINA RESULT:    -4.115      0.000      0.000
REMARK INTER + INTRA:          -4.235
REMARK INTER:                  -4.235
REMARK INTRA:                   0.000
REMARK UNBOUND:                 0.000
REMARK SMILES Nc1ncnc2nc[nH]c12
REMARK SMILES IDX 8 1 7 2 6 3 5 4 4 5 3 6 2 7 10 8 9 9 1 11
REMARK H PARENT 9 10 1 12 1 13
REMARK Flexibility Score: inf
ROOT
ATOM      1  C   UNL     1      -4.584  31.186  14.028  1.00  0.00     0.199 A 
ATOM      2  N   UNL     1      -4.202  32.358  14.607  1.00  0.00    -0.217 NA
ATOM      3  C   UNL     1      -2.923  32.110  14.934  1.00  0.00     0.182 A 
ATOM      4  N   UNL     1      -2.067  32.962  15.547  1.00  0.00    -0.215 NA
ATOM      5  C   UNL     1      -0.794  32.528  15.798  1.00  0.00     0.226 A 
ATOM      6  N   UNL     1      -0.406  31.263  15.437  1.00  0.00    -0.217 NA
ATOM      7  C   UNL     1      -1.269  30.402  14.819  1.00  0.00     0.152 A 
ATOM      8  C   UNL     1      -2.560  30.859  14.569  1.00  0.00     0.127 A 
ATOM      9  N   UNL     1      -3.602  30.251  13.989  1.00  0.00    -0.340 N 
ATOM     10  H   UNL     1      -3.658  29.285  13.598  1.00  0.00     0.168 HD
ENDROOT
BRANCH   7  11
ATOM     11  N   UNL     1      -0.842  29.090  14.452  1.00  0.00    -0.382 N 
ATOM     12  H   UNL     1       0.165  28.817  14.483  1.00  0.00     0.158 HD
ATOM     13  H   UNL     1      -1.542  28.379  14.143  1.00  0.00     0.158 HD
ENDBRANCH   7  11
TORSDOF 1
ENDMDL
MODEL 2
REMARK VINA RESULT:    -4.103      0.961      3.051
REMARK INTER + INTRA:          -4.223
REMARK INTER:                  -4.223
REMARK INTRA:                   0.000
REMARK UNBOUND:                 0.000
REMARK SMILES Nc1ncnc2nc[nH]c12
REMARK SMILES IDX 8 1 7 2 6 3 5 4 4 5 3 6 2 7 10 8 9 9 1 11
REMARK H PARENT 9 10 1 12 1 13
REMARK Flexibility Score: inf
ROOT
ATOM      1  C   UNL     1       0.238  29.546  15.030  1.00  0.00     0.199 A 
ATOM      2  N   UNL     1       0.414  30.785  15.567  1.00  0.00    -0.217 NA
ATOM      3  C   UNL     1      -0.780  31.362  15.348  1.00  0.00     0.182 A 
ATOM      4  N   UNL     1      -1.144  32.619  15.694  1.00  0.00    -0.215 NA
ATOM      5  C   UNL     1      -2.412  33.032  15.388  1.00  0.00     0.226 A 
ATOM      6  N   UNL     1      -3.282  32.187  14.747  1.00  0.00    -0.217 NA
ATOM      7  C   UNL     1      -2.916  30.917  14.397  1.00  0.00     0.152 A 
ATOM      8  C   UNL     1      -1.623  30.513  14.717  1.00  0.00     0.127 A 
ATOM      9  N   UNL     1      -0.997  29.349  14.504  1.00  0.00    -0.340 N 
ATOM     10  H   UNL     1      -1.362  28.487  14.041  1.00  0.00     0.168 HD
ENDROOT
BRANCH   7  11
ATOM     11  N   UNL     1      -3.840  30.056  13.732  1.00  0.00    -0.382 N 
ATOM     12  H   UNL     1      -4.039  29.094  14.085  1.00  0.00     0.158 HD
ATOM     13  H   UNL     1      -4.333  30.382  12.871  1.00  0.00     0.158 HD
ENDBRANCH   7  11
TORSDOF 1
ENDMDL
MODEL 3
REMARK VINA RESULT:    -3.949      3.381      5.057
REMARK INTER + INTRA:          -4.064
REMARK INTER:                  -4.064
REMARK INTRA:                   0.000
REMARK UNBOUND:                 0.000
REMARK SMILES Nc1ncnc2nc[nH]c12
REMARK SMILES IDX 8 1 7 2 6 3 5 4 4 5 3 6 2 7 10 8 9 9 1 11
REMARK H PARENT 9 10 1 12 1 13
REMARK Flexibility Score: inf
ROOT
ATOM      1  C   UNL     1       0.004  30.656  14.840  1.00  0.00     0.199 A 
ATOM      2  N   UNL     1       1.151  30.073  14.397  1.00  0.00    -0.217 NA
ATOM      3  C   UNL     1       1.971  31.128  14.256  1.00  0.00     0.182 A 
ATOM      4  N   UNL     1       3.258  31.101  13.834  1.00  0.00    -0.215 NA
ATOM      5  C   UNL     1       3.937  32.285  13.757  1.00  0.00     0.226 A 
ATOM      6  N   UNL     1       3.323  33.463  14.099  1.00  0.00    -0.217 NA
ATOM      7  C   UNL     1       2.024  33.493  14.525  1.00  0.00     0.152 A 
ATOM      8  C   UNL     1       1.348  32.279  14.599  1.00  0.00     0.127 A 
ATOM      9  N   UNL     1       0.093  32.003  14.975  1.00  0.00    -0.340 N 
ATOM     10  H   UNL     1      -0.652  32.661  15.296  1.00  0.00     0.168 HD
ENDROOT
BRANCH   7  11
ATOM     11  N   UNL     1       1.407  34.731  14.876  1.00  0.00    -0.382 N 
ATOM     12  H   UNL     1       1.968  35.541  15.219  1.00  0.00     0.158 HD
ATOM     13  H   UNL     1       0.371  34.841  14.793  1.00  0.00     0.158 HD
ENDBRANCH   7  11
TORSDOF 1
ENDMDL
MODEL 4
REMARK VINA RESULT:    -3.872      0.996      1.023
REMARK INTER + INTRA:          -3.985
REMARK INTER:                  -3.985
REMARK INTRA:                   0.000
REMARK UNBOUND:                 0.000
REMARK SMILES Nc1ncnc2nc[nH]c12
REMARK SMILES IDX 8 1 7 2 6 3 5 4 4 5 3 6 2 7 10 8 9 9 1 11
REMARK H PARENT 9 10 1 12 1 13
REMARK Flexibility Score: inf
ROOT
ATOM      1  C   UNL     1      -3.685  31.177  14.130  1.00  0.00     0.199 A 
ATOM      2  N   UNL     1      -3.112  32.267  14.710  1.00  0.00    -0.217 NA
ATOM      3  C   UNL     1      -1.884  31.816  15.016  1.00  0.00     0.182 A 
ATOM      4  N   UNL     1      -0.894  32.514  15.619  1.00  0.00    -0.215 NA
ATOM      5  C   UNL     1       0.297  31.880  15.848  1.00  0.00     0.226 A 
ATOM      6  N   UNL     1       0.472  30.572  15.474  1.00  0.00    -0.217 NA
ATOM      7  C   UNL     1      -0.527  29.865  14.865  1.00  0.00     0.152 A 
ATOM      8  C   UNL     1      -1.732  30.525  14.638  1.00  0.00     0.127 A 
ATOM      9  N   UNL     1      -2.866  30.097  14.071  1.00  0.00    -0.340 N 
ATOM     10  H   UNL     1      -3.082  29.155  13.674  1.00  0.00     0.168 HD
ENDROOT
BRANCH   7  11
ATOM     11  N   UNL     1      -0.322  28.505  14.483  1.00  0.00    -0.382 N 
ATOM     12  H   UNL     1       0.330  28.250  13.708  1.00  0.00     0.158 HD
ATOM     13  H   UNL     1      -0.827  27.739  14.981  1.00  0.00     0.158 HD
ENDBRANCH   7  11
TORSDOF 1
ENDMDL
MODEL 5
REMARK VINA RESULT:    -3.867      3.838      4.956
REMARK INTER + INTRA:          -3.980
REMARK INTER:                  -3.980
REMARK INTRA:                   0.000
REMARK UNBOUND:                 0.000
REMARK SMILES Nc1ncnc2nc[nH]c12
REMARK SMILES IDX 8 1 7 2 6 3 5 4 4 5 3 6 2 7 10 8 9 9 1 11
REMARK H PARENT 9 10 1 12 1 13
REMARK Flexibility Score: inf
ROOT
ATOM      1  C   UNL     1       0.576  33.953  15.770  1.00  0.00     0.199 A 
ATOM      2  N   UNL     1       1.784  34.460  15.401  1.00  0.00    -0.217 NA
ATOM      3  C   UNL     1       2.382  33.395  14.843  1.00  0.00     0.182 A 
ATOM      4  N   UNL     1       3.624  33.355  14.305  1.00  0.00    -0.215 NA
ATOM      5  C   UNL     1       4.063  32.171  13.779  1.00  0.00     0.226 A 
ATOM      6  N   UNL     1       3.260  31.059  13.803  1.00  0.00    -0.217 NA
ATOM      7  C   UNL     1       2.006  31.097  14.347  1.00  0.00     0.152 A 
ATOM      8  C   UNL     1       1.574  32.310  14.876  1.00  0.00     0.127 A 
ATOM      9  N   UNL     1       0.417  32.641  15.462  1.00  0.00    -0.340 N 
ATOM     10  H   UNL     1      -0.417  32.041  15.646  1.00  0.00     0.168 HD
ENDROOT
BRANCH   7  11
ATOM     11  N   UNL     1       1.188  29.927  14.360  1.00  0.00    -0.382 N 
ATOM     12  H   UNL     1       1.194  29.267  15.169  1.00  0.00     0.158 HD
ATOM     13  H   UNL     1       0.566  29.714  13.549  1.00  0.00     0.158 HD
ENDBRANCH   7  11
TORSDOF 1
ENDMDL
MODEL 6
REMARK VINA RESULT:    -3.798      1.060      2.340
REMARK INTER + INTRA:          -3.909
REMARK INTER:                  -3.909
REMARK INTRA:                   0.000
REMARK UNBOUND:                 0.000
REMARK SMILES Nc1ncnc2nc[nH]c12
REMARK SMILES IDX 8 1 7 2 6 3 5 4 4 5 3 6 2 7 10 8 9 9 1 11
REMARK H PARENT 9 10 1 12 1 13
REMARK Flexibility Score: inf
ROOT
ATOM      1  C   UNL     1      -3.520  33.825  15.993  1.00  0.00     0.199 A 
ATOM      2  N   UNL     1      -2.175  33.807  16.203  1.00  0.00    -0.217 NA
ATOM      3  C   UNL     1      -1.811  32.651  15.623  1.00  0.00     0.182 A 
ATOM      4  N   UNL     1      -0.558  32.145  15.547  1.00  0.00    -0.215 NA
ATOM      5  C   UNL     1      -0.383  30.946  14.911  1.00  0.00     0.226 A 
ATOM      6  N   UNL     1      -1.455  30.283  14.370  1.00  0.00    -0.217 NA
ATOM      7  C   UNL     1      -2.721  30.793  14.446  1.00  0.00     0.152 A 
ATOM      8  C   UNL     1      -2.881  32.013  15.095  1.00  0.00     0.127 A 
ATOM      9  N   UNL     1      -3.982  32.742  15.318  1.00  0.00    -0.340 N 
ATOM     10  H   UNL     1      -4.968  32.536  15.043  1.00  0.00     0.168 HD
ENDROOT
BRANCH   7  11
ATOM     11  N   UNL     1      -3.820  30.084  13.873  1.00  0.00    -0.382 N 
ATOM     12  H   UNL     1      -3.672  29.259  13.252  1.00  0.00     0.158 HD
ATOM     13  H   UNL     1      -4.799  30.389  14.072  1.00  0.00     0.158 HD
ENDBRANCH   7  11
TORSDOF 1
ENDMDL
MODEL 7
REMARK VINA RESULT:    -3.733      3.443      5.343
REMARK INTER + INTRA:          -3.842
REMARK INTER:                  -3.842
REMARK INTRA:                   0.000
REMARK UNBOUND:                 0.000
REMARK SMILES Nc1ncnc2nc[nH]c12
REMARK SMILES IDX 8 1 7 2 6 3 5 4 4 5 3 6 2 7 10 8 9 9 1 11
REMARK H PARENT 9 10 1 12 1 13
REMARK Flexibility Score: inf
ROOT
ATOM      1  C   UNL     1       3.148  33.176  13.147  1.00  0.00     0.199 A 
ATOM      2  N   UNL     1       3.904  32.319  13.887  1.00  0.00    -0.217 NA
ATOM      3  C   UNL     1       2.971  31.566  14.493  1.00  0.00     0.182 A 
ATOM      4  N   UNL     1       3.192  30.546  15.356  1.00  0.00    -0.215 NA
ATOM      5  C   UNL     1       2.108  29.891  15.873  1.00  0.00     0.226 A 
ATOM      6  N   UNL     1       0.836  30.267  15.522  1.00  0.00    -0.217 NA
ATOM      7  C   UNL     1       0.611  31.297  14.652  1.00  0.00     0.152 A 
ATOM      8  C   UNL     1       1.725  31.952  14.134  1.00  0.00     0.127 A 
ATOM      9  N   UNL     1       1.812  32.976  13.277  1.00  0.00    -0.340 N 
ATOM     10  H   UNL     1       1.042  33.505  12.811  1.00  0.00     0.168 HD
ENDROOT
BRANCH   7  11
ATOM     11  N   UNL     1      -0.722  31.670  14.302  1.00  0.00    -0.382 N 
ATOM     12  H   UNL     1      -0.916  32.524  13.734  1.00  0.00     0.158 HD
ATOM     13  H   UNL     1      -1.528  31.084  14.613  1.00  0.00     0.158 HD
ENDBRANCH   7  11
TORSDOF 1
ENDMDL
MODEL 8
REMARK VINA RESULT:    -3.639      1.663      2.721
REMARK INTER + INTRA:          -3.745
REMARK INTER:                  -3.745
REMARK INTRA:                   0.000
REMARK UNBOUND:                 0.000
REMARK SMILES Nc1ncnc2nc[nH]c12
REMARK SMILES IDX 8 1 7 2 6 3 5 4 4 5 3 6 2 7 10 8 9 9 1 11
REMARK H PARENT 9 10 1 12 1 13
REMARK Flexibility Score: inf
ROOT
ATOM      1  C   UNL     1      -3.724  30.612  14.061  1.00  0.00     0.199 A 
ATOM      2  N   UNL     1      -4.799  31.330  14.487  1.00  0.00    -0.217 NA
ATOM      3  C   UNL     1      -4.219  32.364  15.120  1.00  0.00     0.182 A 
ATOM      4  N   UNL     1      -4.850  33.390  15.737  1.00  0.00    -0.215 NA
ATOM      5  C   UNL     1      -4.085  34.358  16.329  1.00  0.00     0.226 A 
ATOM      6  N   UNL     1      -2.715  34.279  16.293  1.00  0.00    -0.217 NA
ATOM      7  C   UNL     1      -2.076  33.244  15.671  1.00  0.00     0.152 A 
ATOM      8  C   UNL     1      -2.870  32.269  15.073  1.00  0.00     0.127 A 
ATOM      9  N   UNL     1      -2.531  31.161  14.403  1.00  0.00    -0.340 N 
ATOM     10  H   UNL     1      -1.577  30.794  14.189  1.00  0.00     0.168 HD
ENDROOT
BRANCH   7  11
ATOM     11  N   UNL     1      -0.650  33.184  15.646  1.00  0.00    -0.382 N 
ATOM     12  H   UNL     1      -0.080  33.457  16.476  1.00  0.00     0.158 HD
ATOM     13  H   UNL     1      -0.155  32.863  14.785  1.00  0.00     0.158 HD
ENDBRANCH   7  11
TORSDOF 1
ENDMDL
MODEL 9
REMARK VINA RESULT:    -3.541      3.359      4.539
REMARK INTER + INTRA:          -3.645
REMARK INTER:                  -3.645
REMARK INTRA:                   0.000
REMARK UNBOUND:                 0.000
REMARK SMILES Nc1ncnc2nc[nH]c12
REMARK SMILES IDX 8 1 7 2 6 3 5 4 4 5 3 6 2 7 10 8 9 9 1 11
REMARK H PARENT 9 10 1 12 1 13
REMARK Flexibility Score: inf
ROOT
ATOM      1  C   UNL     1       0.777  29.949  14.666  1.00  0.00     0.199 A 
ATOM      2  N   UNL     1       0.061  30.858  15.384  1.00  0.00    -0.217 NA
ATOM      3  C   UNL     1       0.791  31.976  15.237  1.00  0.00     0.182 A 
ATOM      4  N   UNL     1       0.516  33.194  15.761  1.00  0.00    -0.215 NA
ATOM      5  C   UNL     1       1.383  34.220  15.499  1.00  0.00     0.226 A 
ATOM      6  N   UNL     1       2.496  34.010  14.726  1.00  0.00    -0.217 NA
ATOM      7  C   UNL     1       2.775  32.781  14.197  1.00  0.00     0.152 A 
ATOM      8  C   UNL     1       1.883  31.748  14.472  1.00  0.00     0.127 A 
ATOM      9  N   UNL     1       1.896  30.464  14.096  1.00  0.00    -0.340 N 
ATOM     10  H   UNL     1       2.596  29.963  13.505  1.00  0.00     0.168 HD
ENDROOT
BRANCH   7  11
ATOM     11  N   UNL     1       3.940  32.586  13.394  1.00  0.00    -0.382 N 
ATOM     12  H   UNL     1       4.795  32.128  13.779  1.00  0.00     0.158 HD
ATOM     13  H   UNL     1       3.950  32.905  12.400  1.00  0.00     0.158 HD
ENDBRANCH   7  11
TORSDOF 1
ENDMDL
