MODEL 1
REMARK VINA RESULT:    -5.432      0.000      0.000
REMARK INTER + INTRA:          -8.726
REMARK INTER:                  -8.291
REMARK INTRA:                  -0.436
REMARK UNBOUND:                -0.436
REMARK SMILES O=C([O-])CCCCCCCCC(=O)[O-]
REMARK SMILES IDX 7 1 6 2 5 3 4 4 2 5 1 6 3 7 8 8 9 9 10 10 11 11 12 12 13 13
REMARK SMILES IDX 14 14
REMARK H PARENT
REMARK Flexibility Score: inf
ROOT
ATOM      1  C   UNL     1     -14.010   0.134 -10.603  1.00  0.00     0.000 C 
ENDROOT
BRANCH   1   2
ATOM      2  C   UNL     1     -14.367   0.799  -9.269  1.00  0.00     0.000 C 
BRANCH   2   3
ATOM      3  C   UNL     1     -14.166   2.320  -9.341  1.00  0.00     0.006 C 
BRANCH   3   4
ATOM      4  C   UNL     1     -12.688   2.705  -9.486  1.00  0.00     0.053 C 
BRANCH   4   5
ATOM      5  C   UNL     1     -12.309   3.810  -8.547  1.00  0.00     0.041 C 
ATOM      6  O   UNL     1     -13.179   4.623  -8.139  1.00  0.00    -0.550 OA
ATOM      7  O   UNL     1     -10.999   3.923  -8.099  1.00  0.00    -0.550 OA
ENDBRANCH   4   5
ENDBRANCH   3   4
ENDBRANCH   2   3
ENDBRANCH   1   2
BRANCH   1   8
ATOM      8  C   UNL     1     -12.964  -0.971 -10.407  1.00  0.00     0.000 C 
BRANCH   8   9
ATOM      9  C   UNL     1     -11.541  -0.402 -10.493  1.00  0.00     0.000 C 
BRANCH   9  10
ATOM     10  C   UNL     1     -10.544  -1.165  -9.606  1.00  0.00     0.006 C 
BRANCH  10  11
ATOM     11  C   UNL     1     -10.852  -2.665  -9.527  1.00  0.00     0.053 C 
BRANCH  11  12
ATOM     12  C   UNL     1      -9.813  -3.369  -8.712  1.00  0.00     0.041 C 
ATOM     13  O   UNL     1      -8.920  -4.052  -9.277  1.00  0.00    -0.550 OA
ATOM     14  O   UNL     1      -9.803  -3.231  -7.330  1.00  0.00    -0.550 OA
ENDBRANCH  11  12
ENDBRANCH  10  11
ENDBRANCH   9  10
ENDBRANCH   8   9
ENDBRANCH   1   8
TORSDOF 9
ENDMDL
MODEL 2
REMARK VINA RESULT:    -5.417      0.462      6.287
REMARK INTER + INTRA:          -8.703
REMARK INTER:                  -8.308
REMARK INTRA:                  -0.395
REMARK UNBOUND:                -0.436
REMARK SMILES O=C([O-])CCCCCCCCC(=O)[O-]
REMARK SMILES IDX 7 1 6 2 5 3 4 4 2 5 1 6 3 7 8 8 9 9 10 10 11 11 12 12 13 13
REMARK SMILES IDX 14 14
REMARK H PARENT
REMARK Flexibility Score: inf
ROOT
ATOM      1  C   UNL     1     -12.926  -0.978 -10.430  1.00  0.00     0.000 C 
ENDROOT
BRANCH   1   2
ATOM      2  C   UNL     1     -11.534  -0.334 -10.408  1.00  0.00     0.000 C 
BRANCH   2   3
ATOM      3  C   UNL     1     -10.531  -1.219  -9.653  1.00  0.00     0.006 C 
BRANCH   3   4
ATOM      4  C   UNL     1     -10.975  -2.686  -9.601  1.00  0.00     0.053 C 
BRANCH   4   5
ATOM      5  C   UNL     1     -10.079  -3.506  -8.722  1.00  0.00     0.041 C 
ATOM      6  O   UNL     1     -10.571  -4.328  -7.905  1.00  0.00    -0.550 OA
ATOM      7  O   UNL     1      -8.700  -3.385  -8.829  1.00  0.00    -0.550 OA
ENDBRANCH   4   5
ENDBRANCH   3   4
ENDBRANCH   2   3
ENDBRANCH   1   2
BRANCH   1   8
ATOM      8  C   UNL     1     -14.020   0.080 -10.613  1.00  0.00     0.000 C 
BRANCH   8   9
ATOM      9  C   UNL     1     -14.293   0.822  -9.297  1.00  0.00     0.000 C 
BRANCH   9  10
ATOM     10  C   UNL     1     -14.094   2.341  -9.420  1.00  0.00     0.006 C 
BRANCH  10  11
ATOM     11  C   UNL     1     -12.615   2.736  -9.512  1.00  0.00     0.053 C 
BRANCH  11  12
ATOM     12  C   UNL     1     -12.311   3.847  -8.557  1.00  0.00     0.041 C 
ATOM     13  O   UNL     1     -13.234   4.593  -8.138  1.00  0.00    -0.550 OA
ATOM     14  O   UNL     1     -11.014   4.028  -8.091  1.00  0.00    -0.550 OA
ENDBRANCH  11  12
ENDBRANCH  10  11
ENDBRANCH   9  10
ENDBRANCH   8   9
ENDBRANCH   1   8
TORSDOF 9
ENDMDL
MODEL 3
REMARK VINA RESULT:    -5.095      1.237      7.107
REMARK INTER + INTRA:          -8.211
REMARK INTER:                  -7.901
REMARK INTRA:                  -0.310
REMARK UNBOUND:                -0.436
REMARK SMILES O=C([O-])CCCCCCCCC(=O)[O-]
REMARK SMILES IDX 7 1 6 2 5 3 4 4 2 5 1 6 3 7 8 8 9 9 10 10 11 11 12 12 13 13
REMARK SMILES IDX 14 14
REMARK H PARENT
REMARK Flexibility Score: inf
ROOT
ATOM      1  C   UNL     1     -10.602  -0.879  -9.489  1.00  0.00     0.000 C 
ENDROOT
BRANCH   1   2
ATOM      2  C   UNL     1     -10.352  -2.375  -9.263  1.00  0.00     0.000 C 
BRANCH   2   3
ATOM      3  C   UNL     1      -9.554  -2.610  -7.972  1.00  0.00     0.006 C 
BRANCH   3   4
ATOM      4  C   UNL     1      -8.858  -3.977  -7.961  1.00  0.00     0.053 C 
BRANCH   4   5
ATOM      5  C   UNL     1      -9.844  -5.100  -7.842  1.00  0.00     0.041 C 
ATOM      6  O   UNL     1      -9.953  -5.949  -8.764  1.00  0.00    -0.550 OA
ATOM      7  O   UNL     1     -10.619  -5.227  -6.696  1.00  0.00    -0.550 OA
ENDBRANCH   4   5
ENDBRANCH   3   4
ENDBRANCH   2   3
ENDBRANCH   1   2
BRANCH   1   8
ATOM      8  C   UNL     1     -11.724  -0.655 -10.510  1.00  0.00     0.000 C 
BRANCH   8   9
ATOM      9  C   UNL     1     -12.768   0.334  -9.972  1.00  0.00     0.000 C 
BRANCH   9  10
ATOM     10  C   UNL     1     -12.134   1.607  -9.389  1.00  0.00     0.006 C 
BRANCH  10  11
ATOM     11  C   UNL     1     -13.118   2.781  -9.325  1.00  0.00     0.053 C 
BRANCH  11  12
ATOM     12  C   UNL     1     -12.482   3.961  -8.660  1.00  0.00     0.041 C 
ATOM     13  O   UNL     1     -13.135   5.024  -8.496  1.00  0.00    -0.550 OA
ATOM     14  O   UNL     1     -11.182   3.869  -8.178  1.00  0.00    -0.550 OA
ENDBRANCH  11  12
ENDBRANCH  10  11
ENDBRANCH   9  10
ENDBRANCH   8   9
ENDBRANCH   1   8
TORSDOF 9
ENDMDL
MODEL 4
REMARK VINA RESULT:    -4.659      2.396      3.606
REMARK INTER + INTRA:          -7.546
REMARK INTER:                  -7.076
REMARK INTRA:                  -0.470
REMARK UNBOUND:                -0.436
REMARK SMILES O=C([O-])CCCCCCCCC(=O)[O-]
REMARK SMILES IDX 7 1 6 2 5 3 4 4 2 5 1 6 3 7 8 8 9 9 10 10 11 11 12 12 13 13
REMARK SMILES IDX 14 14
REMARK H PARENT
REMARK Flexibility Score: inf
ROOT
ATOM      1  C   UNL     1     -10.548  -1.728  -9.600  1.00  0.00     0.000 C 
ENDROOT
BRANCH   1   2
ATOM      2  C   UNL     1     -11.971  -1.971 -10.116  1.00  0.00     0.000 C 
BRANCH   2   3
ATOM      3  C   UNL     1     -12.645  -0.649 -10.515  1.00  0.00     0.006 C 
BRANCH   3   4
ATOM      4  C   UNL     1     -11.985   0.564  -9.847  1.00  0.00     0.053 C 
BRANCH   4   5
ATOM      5  C   UNL     1     -12.975   1.658  -9.584  1.00  0.00     0.041 C 
ATOM      6  O   UNL     1     -14.206   1.452  -9.741  1.00  0.00    -0.550 OA
ATOM      7  O   UNL     1     -12.537   2.898  -9.134  1.00  0.00    -0.550 OA
ENDBRANCH   4   5
ENDBRANCH   3   4
ENDBRANCH   2   3
ENDBRANCH   1   2
BRANCH   1   8
ATOM      8  C   UNL     1      -9.942  -3.015  -9.028  1.00  0.00     0.000 C 
BRANCH   8   9
ATOM      9  C   UNL     1     -10.777  -4.240  -9.426  1.00  0.00     0.000 C 
BRANCH   9  10
ATOM     10  C   UNL     1     -11.141  -5.125  -8.222  1.00  0.00     0.006 C 
BRANCH  10  11
ATOM     11  C   UNL     1     -10.304  -4.803  -6.978  1.00  0.00     0.053 C 
BRANCH  11  12
ATOM     12  C   UNL     1     -10.475  -5.870  -5.943  1.00  0.00     0.041 C 
ATOM     13  O   UNL     1      -9.793  -6.927  -6.004  1.00  0.00    -0.550 OA
ATOM     14  O   UNL     1     -11.352  -5.675  -4.883  1.00  0.00    -0.550 OA
ENDBRANCH  11  12
ENDBRANCH  10  11
ENDBRANCH   9  10
ENDBRANCH   8   9
ENDBRANCH   1   8
TORSDOF 9
ENDMDL
MODEL 5
REMARK VINA RESULT:    -4.641      2.366      7.065
REMARK INTER + INTRA:          -7.519
REMARK INTER:                  -6.991
REMARK INTRA:                  -0.528
REMARK UNBOUND:                -0.436
REMARK SMILES O=C([O-])CCCCCCCCC(=O)[O-]
REMARK SMILES IDX 7 1 6 2 5 3 4 4 2 5 1 6 3 7 8 8 9 9 10 10 11 11 12 12 13 13
REMARK SMILES IDX 14 14
REMARK H PARENT
REMARK Flexibility Score: inf
ROOT
ATOM      1  C   UNL     1      -9.816  -2.554  -8.083  1.00  0.00     0.000 C 
ENDROOT
BRANCH   1   2
ATOM      2  C   UNL     1      -8.782  -3.676  -7.929  1.00  0.00     0.000 C 
BRANCH   2   3
ATOM      3  C   UNL     1      -9.387  -5.037  -8.307  1.00  0.00     0.006 C 
BRANCH   3   4
ATOM      4  C   UNL     1      -9.707  -5.892  -7.074  1.00  0.00     0.053 C 
BRANCH   4   5
ATOM      5  C   UNL     1     -11.123  -5.703  -6.621  1.00  0.00     0.041 C 
ATOM      6  O   UNL     1     -11.386  -5.579  -5.396  1.00  0.00    -0.550 OA
ATOM      7  O   UNL     1     -12.148  -5.633  -7.555  1.00  0.00    -0.550 OA
ENDBRANCH   4   5
ENDBRANCH   3   4
ENDBRANCH   2   3
ENDBRANCH   1   2
BRANCH   1   8
ATOM      8  C   UNL     1     -10.174  -2.333  -9.557  1.00  0.00     0.000 C 
BRANCH   8   9
ATOM      9  C   UNL     1     -11.675  -2.549  -9.797  1.00  0.00     0.000 C 
BRANCH   9  10
ATOM     10  C   UNL     1     -12.357  -1.324 -10.426  1.00  0.00     0.006 C 
BRANCH  10  11
ATOM     11  C   UNL     1     -11.664  -0.007 -10.056  1.00  0.00     0.053 C 
BRANCH  11  12
ATOM     12  C   UNL     1     -12.676   1.026  -9.674  1.00  0.00     0.041 C 
ATOM     13  O   UNL     1     -13.889   0.711  -9.553  1.00  0.00    -0.550 OA
ATOM     14  O   UNL     1     -12.272   2.328  -9.403  1.00  0.00    -0.550 OA
ENDBRANCH  11  12
ENDBRANCH  10  11
ENDBRANCH   9  10
ENDBRANCH   8   9
ENDBRANCH   1   8
TORSDOF 9
ENDMDL
MODEL 6
REMARK VINA RESULT:    -4.619     15.712     17.602
REMARK INTER + INTRA:          -7.485
REMARK INTER:                  -6.902
REMARK INTRA:                  -0.583
REMARK UNBOUND:                -0.436
REMARK SMILES O=C([O-])CCCCCCCCC(=O)[O-]
REMARK SMILES IDX 7 1 6 2 5 3 4 4 2 5 1 6 3 7 8 8 9 9 10 10 11 11 12 12 13 13
REMARK SMILES IDX 14 14
REMARK H PARENT
REMARK Flexibility Score: inf
ROOT
ATOM      1  C   UNL     1      -9.107   6.545   6.988  1.00  0.00     0.000 C 
ENDROOT
BRANCH   1   2
ATOM      2  C   UNL     1      -9.597   7.653   6.047  1.00  0.00     0.000 C 
BRANCH   2   3
ATOM      3  C   UNL     1      -8.414   8.420   5.437  1.00  0.00     0.006 C 
BRANCH   3   4
ATOM      4  C   UNL     1      -7.670   9.264   6.480  1.00  0.00     0.053 C 
BRANCH   4   5
ATOM      5  C   UNL     1      -6.608  10.114   5.850  1.00  0.00     0.041 C 
ATOM      6  O   UNL     1      -6.865  10.791   4.821  1.00  0.00    -0.550 OA
ATOM      7  O   UNL     1      -5.344  10.182   6.420  1.00  0.00    -0.550 OA
ENDBRANCH   4   5
ENDBRANCH   3   4
ENDBRANCH   2   3
ENDBRANCH   1   2
BRANCH   1   8
ATOM      8  C   UNL     1     -10.142   6.253   8.081  1.00  0.00     0.000 C 
BRANCH   8   9
ATOM      9  C   UNL     1     -10.251   4.745   8.345  1.00  0.00     0.000 C 
BRANCH   9  10
ATOM     10  C   UNL     1     -11.080   4.015   7.276  1.00  0.00     0.006 C 
BRANCH  10  11
ATOM     11  C   UNL     1     -12.404   4.726   6.969  1.00  0.00     0.053 C 
BRANCH  11  12
ATOM     12  C   UNL     1     -12.454   5.136   5.530  1.00  0.00     0.041 C 
ATOM     13  O   UNL     1     -11.456   4.954   4.784  1.00  0.00    -0.550 OA
ATOM     14  O   UNL     1     -13.620   5.675   5.002  1.00  0.00    -0.550 OA
ENDBRANCH  11  12
ENDBRANCH  10  11
ENDBRANCH   9  10
ENDBRANCH   8   9
ENDBRANCH   1   8
TORSDOF 9
ENDMDL
MODEL 7
REMARK VINA RESULT:    -4.579      2.110      2.960
REMARK INTER + INTRA:          -7.423
REMARK INTER:                  -7.029
REMARK INTRA:                  -0.394
REMARK UNBOUND:                -0.436
REMARK SMILES O=C([O-])CCCCCCCCC(=O)[O-]
REMARK SMILES IDX 7 1 6 2 5 3 4 4 2 5 1 6 3 7 8 8 9 9 10 10 11 11 12 12 13 13
REMARK SMILES IDX 14 14
REMARK H PARENT
REMARK Flexibility Score: inf
ROOT
ATOM      1  C   UNL     1     -11.660   0.118  -9.961  1.00  0.00     0.000 C 
ENDROOT
BRANCH   1   2
ATOM      2  C   UNL     1     -12.595  -0.791 -10.768  1.00  0.00     0.000 C 
BRANCH   2   3
ATOM      3  C   UNL     1     -14.041  -0.274 -10.722  1.00  0.00     0.006 C 
BRANCH   3   4
ATOM      4  C   UNL     1     -14.510   0.013  -9.289  1.00  0.00     0.053 C 
BRANCH   4   5
ATOM      5  C   UNL     1     -14.695   1.481  -9.050  1.00  0.00     0.041 C 
ATOM      6  O   UNL     1     -15.123   1.894  -7.941  1.00  0.00    -0.550 OA
ATOM      7  O   UNL     1     -14.363   2.395 -10.042  1.00  0.00    -0.550 OA
ENDBRANCH   4   5
ENDBRANCH   3   4
ENDBRANCH   2   3
ENDBRANCH   1   2
BRANCH   1   8
ATOM      8  C   UNL     1     -10.621  -0.704  -9.189  1.00  0.00     0.000 C 
BRANCH   8   9
ATOM      9  C   UNL     1     -10.635  -2.171  -9.642  1.00  0.00     0.000 C 
BRANCH   9  10
ATOM     10  C   UNL     1      -9.990  -3.114  -8.613  1.00  0.00     0.006 C 
BRANCH  10  11
ATOM     11  C   UNL     1     -10.756  -4.434  -8.462  1.00  0.00     0.053 C 
BRANCH  11  12
ATOM     12  C   UNL     1     -10.281  -5.177  -7.253  1.00  0.00     0.041 C 
ATOM     13  O   UNL     1     -10.260  -4.611  -6.129  1.00  0.00    -0.550 OA
ATOM     14  O   UNL     1      -9.910  -6.512  -7.359  1.00  0.00    -0.550 OA
ENDBRANCH  11  12
ENDBRANCH  10  11
ENDBRANCH   9  10
ENDBRANCH   8   9
ENDBRANCH   1   8
TORSDOF 9
ENDMDL
MODEL 8
REMARK VINA RESULT:    -4.571     14.920     17.140
REMARK INTER + INTRA:          -7.412
REMARK INTER:                  -6.714
REMARK INTRA:                  -0.698
REMARK UNBOUND:                -0.436
REMARK SMILES O=C([O-])CCCCCCCCC(=O)[O-]
REMARK SMILES IDX 7 1 6 2 5 3 4 4 2 5 1 6 3 7 8 8 9 9 10 10 11 11 12 12 13 13
REMARK SMILES IDX 14 14
REMARK H PARENT
REMARK Flexibility Score: inf
ROOT
ATOM      1  C   UNL     1     -11.592   4.143   8.002  1.00  0.00     0.000 C 
ENDROOT
BRANCH   1   2
ATOM      2  C   UNL     1     -11.740   4.040   6.479  1.00  0.00     0.000 C 
BRANCH   2   3
ATOM      3  C   UNL     1     -12.835   4.986   5.967  1.00  0.00     0.006 C 
BRANCH   3   4
ATOM      4  C   UNL     1     -12.509   5.556   4.580  1.00  0.00     0.053 C 
BRANCH   4   5
ATOM      5  C   UNL     1     -13.735   6.073   3.891  1.00  0.00     0.041 C 
ATOM      6  O   UNL     1     -13.833   6.010   2.637  1.00  0.00    -0.550 OA
ATOM      7  O   UNL     1     -14.784   6.596   4.636  1.00  0.00    -0.550 OA
ENDBRANCH   4   5
ENDBRANCH   3   4
ENDBRANCH   2   3
ENDBRANCH   1   2
BRANCH   1   8
ATOM      8  C   UNL     1     -10.218   4.703   8.387  1.00  0.00     0.000 C 
BRANCH   8   9
ATOM      9  C   UNL     1     -10.143   6.212   8.115  1.00  0.00     0.000 C 
BRANCH   9  10
ATOM     10  C   UNL     1      -9.155   6.564   6.992  1.00  0.00     0.006 C 
BRANCH  10  11
ATOM     11  C   UNL     1      -9.631   7.742   6.134  1.00  0.00     0.053 C 
BRANCH  11  12
ATOM     12  C   UNL     1      -8.501   8.689   5.874  1.00  0.00     0.041 C 
ATOM     13  O   UNL     1      -7.721   9.016   6.807  1.00  0.00    -0.550 OA
ATOM     14  O   UNL     1      -8.280   9.170   4.590  1.00  0.00    -0.550 OA
ENDBRANCH  11  12
ENDBRANCH  10  11
ENDBRANCH   9  10
ENDBRANCH   8   9
ENDBRANCH   1   8
TORSDOF 9
ENDMDL
MODEL 9
REMARK VINA RESULT:    -4.485     16.147     17.967
REMARK INTER + INTRA:          -7.281
REMARK INTER:                  -6.724
REMARK INTRA:                  -0.556
REMARK UNBOUND:                -0.436
REMARK SMILES O=C([O-])CCCCCCCCC(=O)[O-]
REMARK SMILES IDX 7 1 6 2 5 3 4 4 2 5 1 6 3 7 8 8 9 9 10 10 11 11 12 12 13 13
REMARK SMILES IDX 14 14
REMARK H PARENT
REMARK Flexibility Score: inf
ROOT
ATOM      1  C   UNL     1      -8.814   7.244   6.770  1.00  0.00     0.000 C 
ENDROOT
BRANCH   1   2
ATOM      2  C   UNL     1      -8.775   8.004   5.439  1.00  0.00     0.000 C 
BRANCH   2   3
ATOM      3  C   UNL     1      -8.485   9.496   5.666  1.00  0.00     0.006 C 
BRANCH   3   4
ATOM      4  C   UNL     1      -7.040   9.867   5.308  1.00  0.00     0.053 C 
BRANCH   4   5
ATOM      5  C   UNL     1      -6.237  10.210   6.527  1.00  0.00     0.041 C 
ATOM      6  O   UNL     1      -4.980  10.219   6.476  1.00  0.00    -0.550 OA
ATOM      7  O   UNL     1      -6.881  10.550   7.710  1.00  0.00    -0.550 OA
ENDBRANCH   4   5
ENDBRANCH   3   4
ENDBRANCH   2   3
ENDBRANCH   1   2
BRANCH   1   8
ATOM      8  C   UNL     1      -9.214   5.779   6.557  1.00  0.00     0.000 C 
BRANCH   8   9
ATOM      9  C   UNL     1     -10.034   5.254   7.744  1.00  0.00     0.000 C 
BRANCH   9  10
ATOM     10  C   UNL     1     -11.435   5.882   7.819  1.00  0.00     0.006 C 
BRANCH  10  11
ATOM     11  C   UNL     1     -12.454   5.158   6.931  1.00  0.00     0.053 C 
BRANCH  11  12
ATOM     12  C   UNL     1     -12.760   5.974   5.715  1.00  0.00     0.041 C 
ATOM     13  O   UNL     1     -13.417   5.474   4.764  1.00  0.00    -0.550 OA
ATOM     14  O   UNL     1     -12.363   7.303   5.653  1.00  0.00    -0.550 OA
ENDBRANCH  11  12
ENDBRANCH  10  11
ENDBRANCH   9  10
ENDBRANCH   8   9
ENDBRANCH   1   8
TORSDOF 9
ENDMDL
