MODEL 1
REMARK VINA RESULT:    -4.871      0.000      0.000
REMARK INTER + INTRA:          -8.615
REMARK INTER:                  -7.434
REMARK INTRA:                  -1.181
REMARK UNBOUND:                -1.181
REMARK SMILES CCCCCCCCCCC(=O)[O-]
REMARK SMILES IDX 7 1 8 2 9 3 10 4 11 5 12 6 13 7 6 8 5 9 4 10 3 11 2 12 1 13
REMARK H PARENT
REMARK Flexibility Score: inf
ROOT
ATOM      1  C   UNL     1     -12.282  -8.559  10.396  1.00  0.00     0.000 C 
ENDROOT
BRANCH   1   2
ATOM      2  C   UNL     1     -10.945  -8.107   9.794  1.00  0.00     0.000 C 
BRANCH   2   3
ATOM      3  C   UNL     1     -10.479  -9.076   8.700  1.00  0.00     0.006 C 
BRANCH   3   4
ATOM      4  C   UNL     1      -9.032  -9.518   8.939  1.00  0.00     0.053 C 
BRANCH   4   5
ATOM      5  C   UNL     1      -8.244  -9.437   7.670  1.00  0.00     0.041 C 
ATOM      6  O   UNL     1      -7.734 -10.476   7.173  1.00  0.00    -0.550 OA
ATOM      7  O   UNL     1      -8.028  -8.206   7.062  1.00  0.00    -0.550 OA
ENDBRANCH   4   5
ENDBRANCH   3   4
ENDBRANCH   2   3
ENDBRANCH   1   2
BRANCH   1   8
ATOM      8  C   UNL     1     -12.123  -9.884  11.157  1.00  0.00     0.000 C 
BRANCH   8   9
ATOM      9  C   UNL     1     -13.184 -10.930  10.770  1.00  0.00    -0.000 C 
BRANCH   9  10
ATOM     10  C   UNL     1     -12.632 -12.192  10.083  1.00  0.00    -0.000 C 
BRANCH  10  11
ATOM     11  C   UNL     1     -11.146 -12.436  10.380  1.00  0.00    -0.000 C 
BRANCH  11  12
ATOM     12  C   UNL     1     -10.429 -13.018   9.156  1.00  0.00    -0.003 C 
ATOM     13  C   UNL     1     -11.144 -12.634   7.864  1.00  0.00     0.004 C 
ENDBRANCH  11  12
ENDBRANCH  10  11
ENDBRANCH   9  10
ENDBRANCH   8   9
ENDBRANCH   1   8
TORSDOF 9
ENDMDL
MODEL 2
REMARK VINA RESULT:    -4.860      3.000      4.765
REMARK INTER + INTRA:          -8.597
REMARK INTER:                  -7.423
REMARK INTRA:                  -1.174
REMARK UNBOUND:                -1.181
REMARK SMILES CCCCCCCCCCC(=O)[O-]
REMARK SMILES IDX 7 1 8 2 9 3 10 4 11 5 12 6 13 7 6 8 5 9 4 10 3 11 2 12 1 13
REMARK H PARENT
REMARK Flexibility Score: inf
ROOT
ATOM      1  C   UNL     1      -9.555 -10.621   9.624  1.00  0.00     0.000 C 
ENDROOT
BRANCH   1   2
ATOM      2  C   UNL     1      -9.986 -11.473   8.423  1.00  0.00     0.000 C 
BRANCH   2   3
ATOM      3  C   UNL     1     -11.214 -12.326   8.765  1.00  0.00     0.006 C 
BRANCH   3   4
ATOM      4  C   UNL     1     -10.822 -13.531   9.625  1.00  0.00     0.053 C 
BRANCH   4   5
ATOM      5  C   UNL     1     -11.061 -14.806   8.881  1.00  0.00     0.041 C 
ATOM      6  O   UNL     1     -12.117 -14.961   8.213  1.00  0.00    -0.550 OA
ATOM      7  O   UNL     1     -10.141 -15.843   8.965  1.00  0.00    -0.550 OA
ENDBRANCH   4   5
ENDBRANCH   3   4
ENDBRANCH   2   3
ENDBRANCH   1   2
BRANCH   1   8
ATOM      8  C   UNL     1      -9.467  -9.136   9.242  1.00  0.00     0.000 C 
BRANCH   8   9
ATOM      9  C   UNL     1     -10.802  -8.391   9.420  1.00  0.00    -0.000 C 
BRANCH   9  10
ATOM     10  C   UNL     1     -11.632  -8.825  10.643  1.00  0.00    -0.000 C 
BRANCH  10  11
ATOM     11  C   UNL     1     -13.012  -9.380  10.264  1.00  0.00    -0.000 C 
BRANCH  11  12
ATOM     12  C   UNL     1     -13.399 -10.554  11.171  1.00  0.00    -0.003 C 
ATOM     13  C   UNL     1     -12.297 -10.857  12.181  1.00  0.00     0.004 C 
ENDBRANCH  11  12
ENDBRANCH  10  11
ENDBRANCH   9  10
ENDBRANCH   8   9
ENDBRANCH   1   8
TORSDOF 9
ENDMDL
MODEL 3
REMARK VINA RESULT:    -4.825      0.890      3.104
REMARK INTER + INTRA:          -8.544
REMARK INTER:                  -7.332
REMARK INTRA:                  -1.213
REMARK UNBOUND:                -1.181
REMARK SMILES CCCCCCCCCCC(=O)[O-]
REMARK SMILES IDX 7 1 8 2 9 3 10 4 11 5 12 6 13 7 6 8 5 9 4 10 3 11 2 12 1 13
REMARK H PARENT
REMARK Flexibility Score: inf
ROOT
ATOM      1  C   UNL     1     -11.489 -12.423   8.475  1.00  0.00     0.000 C 
ENDROOT
BRANCH   1   2
ATOM      2  C   UNL     1     -10.779 -11.136   8.035  1.00  0.00     0.000 C 
BRANCH   2   3
ATOM      3  C   UNL     1      -9.411 -11.003   8.715  1.00  0.00     0.006 C 
BRANCH   3   4
ATOM      4  C   UNL     1      -8.995  -9.533   8.827  1.00  0.00     0.053 C 
BRANCH   4   5
ATOM      5  C   UNL     1      -8.230  -9.111   7.613  1.00  0.00     0.041 C 
ATOM      6  O   UNL     1      -8.525  -8.041   7.019  1.00  0.00    -0.550 OA
ATOM      7  O   UNL     1      -7.223  -9.923   7.108  1.00  0.00    -0.550 OA
ENDBRANCH   4   5
ENDBRANCH   3   4
ENDBRANCH   2   3
ENDBRANCH   1   2
BRANCH   1   8
ATOM      8  C   UNL     1     -11.527 -12.533  10.007  1.00  0.00     0.000 C 
BRANCH   8   9
ATOM      9  C   UNL     1     -12.754 -11.839  10.628  1.00  0.00    -0.000 C 
BRANCH   9  10
ATOM     10  C   UNL     1     -12.441 -10.885  11.794  1.00  0.00    -0.000 C 
BRANCH  10  11
ATOM     11  C   UNL     1     -11.740  -9.595  11.342  1.00  0.00    -0.000 C 
BRANCH  11  12
ATOM     12  C   UNL     1     -12.620  -8.808  10.363  1.00  0.00    -0.003 C 
ATOM     13  C   UNL     1     -11.927  -7.528   9.906  1.00  0.00     0.004 C 
ENDBRANCH  11  12
ENDBRANCH  10  11
ENDBRANCH   9  10
ENDBRANCH   8   9
ENDBRANCH   1   8
TORSDOF 9
ENDMDL
MODEL 4
REMARK VINA RESULT:    -4.818      2.680      4.461
REMARK INTER + INTRA:          -8.534
REMARK INTER:                  -7.379
REMARK INTRA:                  -1.154
REMARK UNBOUND:                -1.181
REMARK SMILES CCCCCCCCCCC(=O)[O-]
REMARK SMILES IDX 7 1 8 2 9 3 10 4 11 5 12 6 13 7 6 8 5 9 4 10 3 11 2 12 1 13
REMARK H PARENT
REMARK Flexibility Score: inf
ROOT
ATOM      1  C   UNL     1     -13.130 -10.890  10.377  1.00  0.00     0.000 C 
ENDROOT
BRANCH   1   2
ATOM      2  C   UNL     1     -11.978 -11.498  11.187  1.00  0.00     0.000 C 
BRANCH   2   3
ATOM      3  C   UNL     1     -11.173 -12.492  10.341  1.00  0.00     0.006 C 
BRANCH   3   4
ATOM      4  C   UNL     1     -11.829 -12.705   8.974  1.00  0.00     0.053 C 
BRANCH   4   5
ATOM      5  C   UNL     1     -11.723 -14.138   8.559  1.00  0.00     0.041 C 
ATOM      6  O   UNL     1     -10.660 -14.780   8.765  1.00  0.00    -0.550 OA
ATOM      7  O   UNL     1     -12.781 -14.752   7.900  1.00  0.00    -0.550 OA
ENDBRANCH   4   5
ENDBRANCH   3   4
ENDBRANCH   2   3
ENDBRANCH   1   2
BRANCH   1   8
ATOM      8  C   UNL     1     -13.030  -9.358  10.342  1.00  0.00     0.000 C 
BRANCH   8   9
ATOM      9  C   UNL     1     -11.677  -8.834  10.855  1.00  0.00    -0.000 C 
BRANCH   9  10
ATOM     10  C   UNL     1     -11.020  -7.755   9.974  1.00  0.00    -0.000 C 
BRANCH  10  11
ATOM     11  C   UNL     1     -10.182  -8.345   8.831  1.00  0.00    -0.000 C 
BRANCH  11  12
ATOM     12  C   UNL     1      -9.308  -9.501   9.330  1.00  0.00    -0.003 C 
ATOM     13  C   UNL     1      -8.899 -10.419   8.183  1.00  0.00     0.004 C 
ENDBRANCH  11  12
ENDBRANCH  10  11
ENDBRANCH   9  10
ENDBRANCH   8   9
ENDBRANCH   1   8
TORSDOF 9
ENDMDL
MODEL 5
REMARK VINA RESULT:    -4.788      3.060      4.630
REMARK INTER + INTRA:          -8.487
REMARK INTER:                  -7.450
REMARK INTRA:                  -1.037
REMARK UNBOUND:                -1.181
REMARK SMILES CCCCCCCCCCC(=O)[O-]
REMARK SMILES IDX 7 1 8 2 9 3 10 4 11 5 12 6 13 7 6 8 5 9 4 10 3 11 2 12 1 13
REMARK H PARENT
REMARK Flexibility Score: inf
ROOT
ATOM      1  C   UNL     1     -12.565 -11.402  11.114  1.00  0.00     0.000 C 
ENDROOT
BRANCH   1   2
ATOM      2  C   UNL     1     -12.158 -12.134   9.829  1.00  0.00     0.000 C 
BRANCH   2   3
ATOM      3  C   UNL     1     -10.913 -12.999  10.059  1.00  0.00     0.006 C 
BRANCH   3   4
ATOM      4  C   UNL     1     -10.508 -13.732   8.777  1.00  0.00     0.053 C 
BRANCH   4   5
ATOM      5  C   UNL     1     -10.980 -15.151   8.813  1.00  0.00     0.041 C 
ATOM      6  O   UNL     1     -10.202 -16.067   9.190  1.00  0.00    -0.550 OA
ATOM      7  O   UNL     1     -12.261 -15.469   8.383  1.00  0.00    -0.550 OA
ENDBRANCH   4   5
ENDBRANCH   3   4
ENDBRANCH   2   3
ENDBRANCH   1   2
BRANCH   1   8
ATOM      8  C   UNL     1     -11.592 -10.255  11.425  1.00  0.00     0.000 C 
BRANCH   8   9
ATOM      9  C   UNL     1     -11.961  -8.944  10.708  1.00  0.00    -0.000 C 
BRANCH   9  10
ATOM     10  C   UNL     1     -10.845  -8.345   9.832  1.00  0.00    -0.000 C 
BRANCH  10  11
ATOM     11  C   UNL     1      -9.749  -9.361   9.480  1.00  0.00    -0.000 C 
BRANCH  11  12
ATOM     12  C   UNL     1      -9.699  -9.613   7.968  1.00  0.00    -0.003 C 
ATOM     13  C   UNL     1      -8.671 -10.685   7.621  1.00  0.00     0.004 C 
ENDBRANCH  11  12
ENDBRANCH  10  11
ENDBRANCH   9  10
ENDBRANCH   8   9
ENDBRANCH   1   8
TORSDOF 9
ENDMDL
MODEL 6
REMARK VINA RESULT:    -4.763      1.684      3.142
REMARK INTER + INTRA:          -8.450
REMARK INTER:                  -7.339
REMARK INTRA:                  -1.111
REMARK UNBOUND:                -1.181
REMARK SMILES CCCCCCCCCCC(=O)[O-]
REMARK SMILES IDX 7 1 8 2 9 3 10 4 11 5 12 6 13 7 6 8 5 9 4 10 3 11 2 12 1 13
REMARK H PARENT
REMARK Flexibility Score: inf
ROOT
ATOM      1  C   UNL     1     -12.870 -11.075  10.579  1.00  0.00     0.000 C 
ENDROOT
BRANCH   1   2
ATOM      2  C   UNL     1     -11.660 -10.306  11.125  1.00  0.00     0.000 C 
BRANCH   2   3
ATOM      3  C   UNL     1     -11.796  -8.802  10.856  1.00  0.00     0.006 C 
BRANCH   3   4
ATOM      4  C   UNL     1     -12.570  -8.545   9.559  1.00  0.00     0.053 C 
BRANCH   4   5
ATOM      5  C   UNL     1     -11.627  -8.331   8.419  1.00  0.00     0.041 C 
ATOM      6  O   UNL     1     -11.879  -8.823   7.287  1.00  0.00    -0.550 OA
ATOM      7  O   UNL     1     -10.444  -7.631   8.617  1.00  0.00    -0.550 OA
ENDBRANCH   4   5
ENDBRANCH   3   4
ENDBRANCH   2   3
ENDBRANCH   1   2
BRANCH   1   8
ATOM      8  C   UNL     1     -12.471 -12.494  10.148  1.00  0.00     0.000 C 
BRANCH   8   9
ATOM      9  C   UNL     1     -10.948 -12.674  10.016  1.00  0.00    -0.000 C 
BRANCH   9  10
ATOM     10  C   UNL     1     -10.472 -13.222   8.658  1.00  0.00    -0.000 C 
BRANCH  10  11
ATOM     11  C   UNL     1     -10.036 -12.117   7.685  1.00  0.00    -0.000 C 
BRANCH  11  12
ATOM     12  C   UNL     1      -9.226 -11.036   8.410  1.00  0.00    -0.003 C 
ATOM     13  C   UNL     1      -8.349 -10.257   7.435  1.00  0.00     0.004 C 
ENDBRANCH  11  12
ENDBRANCH  10  11
ENDBRANCH   9  10
ENDBRANCH   8   9
ENDBRANCH   1   8
TORSDOF 9
ENDMDL
MODEL 7
REMARK VINA RESULT:    -4.724      1.594      2.320
REMARK INTER + INTRA:          -8.391
REMARK INTER:                  -7.471
REMARK INTRA:                  -0.919
REMARK UNBOUND:                -1.181
REMARK SMILES CCCCCCCCCCC(=O)[O-]
REMARK SMILES IDX 7 1 8 2 9 3 10 4 11 5 12 6 13 7 6 8 5 9 4 10 3 11 2 12 1 13
REMARK H PARENT
REMARK Flexibility Score: inf
ROOT
ATOM      1  C   UNL     1     -13.464 -10.254  10.463  1.00  0.00     0.000 C 
ENDROOT
BRANCH   1   2
ATOM      2  C   UNL     1     -12.834  -8.860  10.353  1.00  0.00     0.000 C 
BRANCH   2   3
ATOM      3  C   UNL     1     -11.315  -8.924  10.558  1.00  0.00     0.006 C 
BRANCH   3   4
ATOM      4  C   UNL     1     -10.571  -8.442   9.309  1.00  0.00     0.053 C 
BRANCH   4   5
ATOM      5  C   UNL     1     -10.224  -9.598   8.427  1.00  0.00     0.041 C 
ATOM      6  O   UNL     1      -9.054 -10.064   8.424  1.00  0.00    -0.550 OA
ATOM      7  O   UNL     1     -11.179 -10.132   7.571  1.00  0.00    -0.550 OA
ENDBRANCH   4   5
ENDBRANCH   3   4
ENDBRANCH   2   3
ENDBRANCH   1   2
BRANCH   1   8
ATOM      8  C   UNL     1     -12.520 -11.228  11.185  1.00  0.00     0.000 C 
BRANCH   8   9
ATOM      9  C   UNL     1     -12.230 -12.499  10.366  1.00  0.00    -0.000 C 
BRANCH   9  10
ATOM     10  C   UNL     1     -10.739 -12.774  10.097  1.00  0.00    -0.000 C 
BRANCH  10  11
ATOM     11  C   UNL     1     -10.492 -13.481   8.757  1.00  0.00    -0.000 C 
BRANCH  11  12
ATOM     12  C   UNL     1     -11.143 -14.869   8.740  1.00  0.00    -0.003 C 
ATOM     13  C   UNL     1     -10.218 -15.920   9.346  1.00  0.00     0.004 C 
ENDBRANCH  11  12
ENDBRANCH  10  11
ENDBRANCH   9  10
ENDBRANCH   8   9
ENDBRANCH   1   8
TORSDOF 9
ENDMDL
MODEL 8
REMARK VINA RESULT:    -4.718      2.861      4.169
REMARK INTER + INTRA:          -8.381
REMARK INTER:                  -7.485
REMARK INTRA:                  -0.895
REMARK UNBOUND:                -1.181
REMARK SMILES CCCCCCCCCCC(=O)[O-]
REMARK SMILES IDX 7 1 8 2 9 3 10 4 11 5 12 6 13 7 6 8 5 9 4 10 3 11 2 12 1 13
REMARK H PARENT
REMARK Flexibility Score: inf
ROOT
ATOM      1  C   UNL     1      -9.417  -9.972   9.398  1.00  0.00     0.000 C 
ENDROOT
BRANCH   1   2
ATOM      2  C   UNL     1     -10.249  -8.684   9.356  1.00  0.00     0.000 C 
BRANCH   2   3
ATOM      3  C   UNL     1     -11.287  -8.662  10.484  1.00  0.00     0.006 C 
BRANCH   3   4
ATOM      4  C   UNL     1     -12.544  -9.443  10.088  1.00  0.00     0.053 C 
BRANCH   4   5
ATOM      5  C   UNL     1     -12.686 -10.669  10.932  1.00  0.00     0.041 C 
ATOM      6  O   UNL     1     -13.375 -11.642  10.525  1.00  0.00    -0.550 OA
ATOM      7  O   UNL     1     -12.100 -10.719  12.191  1.00  0.00    -0.550 OA
ENDBRANCH   4   5
ENDBRANCH   3   4
ENDBRANCH   2   3
ENDBRANCH   1   2
BRANCH   1   8
ATOM      8  C   UNL     1      -8.875 -10.322   8.004  1.00  0.00     0.000 C 
BRANCH   8   9
ATOM      9  C   UNL     1      -9.509 -11.596   7.416  1.00  0.00    -0.000 C 
BRANCH   9  10
ATOM     10  C   UNL     1     -10.991 -11.811   7.775  1.00  0.00    -0.000 C 
BRANCH  10  11
ATOM     11  C   UNL     1     -11.341 -13.285   8.022  1.00  0.00    -0.000 C 
BRANCH  11  12
ATOM     12  C   UNL     1     -10.739 -13.778   9.343  1.00  0.00    -0.003 C 
ATOM     13  C   UNL     1     -10.442 -15.274   9.290  1.00  0.00     0.004 C 
ENDBRANCH  11  12
ENDBRANCH  10  11
ENDBRANCH   9  10
ENDBRANCH   8   9
ENDBRANCH   1   8
TORSDOF 9
ENDMDL
MODEL 9
REMARK VINA RESULT:    -4.623      2.724      4.367
REMARK INTER + INTRA:          -8.237
REMARK INTER:                  -7.341
REMARK INTRA:                  -0.895
REMARK UNBOUND:                -1.181
REMARK SMILES CCCCCCCCCCC(=O)[O-]
REMARK SMILES IDX 7 1 8 2 9 3 10 4 11 5 12 6 13 7 6 8 5 9 4 10 3 11 2 12 1 13
REMARK H PARENT
REMARK Flexibility Score: inf
ROOT
ATOM      1  C   UNL     1     -10.520  -8.522   9.499  1.00  0.00     0.000 C 
ENDROOT
BRANCH   1   2
ATOM      2  C   UNL     1     -11.854  -9.170   9.107  1.00  0.00     0.000 C 
BRANCH   2   3
ATOM      3  C   UNL     1     -12.893  -9.010  10.224  1.00  0.00     0.006 C 
BRANCH   3   4
ATOM      4  C   UNL     1     -13.388 -10.374  10.713  1.00  0.00     0.053 C 
BRANCH   4   5
ATOM      5  C   UNL     1     -12.358 -11.025  11.580  1.00  0.00     0.041 C 
ATOM      6  O   UNL     1     -12.063 -10.525  12.698  1.00  0.00    -0.550 OA
ATOM      7  O   UNL     1     -11.686 -12.156  11.133  1.00  0.00    -0.550 OA
ENDBRANCH   4   5
ENDBRANCH   3   4
ENDBRANCH   2   3
ENDBRANCH   1   2
BRANCH   1   8
ATOM      8  C   UNL     1      -9.378  -9.548   9.459  1.00  0.00     0.000 C 
BRANCH   8   9
ATOM      9  C   UNL     1      -8.648  -9.580   8.103  1.00  0.00    -0.000 C 
BRANCH   9  10
ATOM     10  C   UNL     1      -8.434 -10.986   7.512  1.00  0.00    -0.000 C 
BRANCH  10  11
ATOM     11  C   UNL     1      -9.744 -11.658   7.074  1.00  0.00    -0.000 C 
BRANCH  11  12
ATOM     12  C   UNL     1     -10.148 -12.765   8.054  1.00  0.00    -0.003 C 
ATOM     13  C   UNL     1     -11.625 -13.118   7.909  1.00  0.00     0.004 C 
ENDBRANCH  11  12
ENDBRANCH  10  11
ENDBRANCH   9  10
ENDBRANCH   8   9
ENDBRANCH   1   8
TORSDOF 9
ENDMDL
