MODEL 1
REMARK VINA RESULT:    -4.250      0.000      0.000
REMARK INTER + INTRA:          -6.728
REMARK INTER:                  -5.740
REMARK INTRA:                  -0.987
REMARK UNBOUND:                -0.987
REMARK SMILES CC(=O)CCC=C(C)CCC=C(C)C
REMARK SMILES IDX 7 1 6 2 8 3 9 4 10 5 11 6 13 7 12 8 14 9 5 10 4 11 2 12 3 13
REMARK SMILES IDX 1 14
REMARK H PARENT
REMARK Flexibility Score: inf
ROOT
ATOM      1  C   UNL     1    -119.874-101.940   1.282  1.00  0.00    -0.077 C 
ATOM      2  C   UNL     1    -120.249-101.299   2.411  1.00  0.00    -0.028 C 
ATOM      3  C   UNL     1    -120.861-102.226   0.176  1.00  0.00     0.039 C 
ENDROOT
BRANCH   1   4
ATOM      4  C   UNL     1    -118.434-102.376   1.121  1.00  0.00     0.034 C 
BRANCH   4   5
ATOM      5  C   UNL     1    -117.698-101.467   0.131  1.00  0.00     0.032 C 
BRANCH   5   6
ATOM      6  C   UNL     1    -116.857-100.450   0.862  1.00  0.00    -0.028 C 
ATOM      7  C   UNL     1    -118.520 -98.605   0.536  1.00  0.00     0.039 C 
ATOM      8  C   UNL     1    -117.225 -99.167   1.073  1.00  0.00    -0.080 C 
ATOM      9  C   UNL     1    -116.297 -98.274   1.857  1.00  0.00     0.039 C 
ENDBRANCH   5   6
ENDBRANCH   4   5
ENDBRANCH   1   4
BRANCH   2  10
ATOM     10  C   UNL     1    -121.661-100.828   2.662  1.00  0.00     0.035 C 
BRANCH  10  11
ATOM     11  C   UNL     1    -121.683 -99.379   3.160  1.00  0.00     0.079 C 
BRANCH  11  12
ATOM     12  C   UNL     1    -122.087 -99.321   4.610  1.00  0.00     0.130 C 
ATOM     13  O   UNL     1    -121.963 -98.273   5.227  1.00  0.00    -0.300 OA
ATOM     14  C   UNL     1    -122.652-100.520   5.313  1.00  0.00     0.087 C 
ENDBRANCH  11  12
ENDBRANCH  10  11
ENDBRANCH   2  10
TORSDOF 6
ENDMDL
MODEL 2
REMARK VINA RESULT:    -4.168     11.812     13.694
REMARK INTER + INTRA:          -6.618
REMARK INTER:                  -5.988
REMARK INTRA:                  -0.630
REMARK UNBOUND:                -0.987
REMARK SMILES CC(=O)CCC=C(C)CCC=C(C)C
REMARK SMILES IDX 7 1 6 2 8 3 9 4 10 5 11 6 13 7 12 8 14 9 5 10 4 11 2 12 3 13
REMARK SMILES IDX 1 14
REMARK H PARENT
REMARK Flexibility Score: inf
ROOT
ATOM      1  C   UNL     1    -114.650 -99.381  14.174  1.00  0.00    -0.077 C 
ATOM      2  C   UNL     1    -113.723 -99.334  13.191  1.00  0.00    -0.028 C 
ATOM      3  C   UNL     1    -114.462-100.258  15.389  1.00  0.00     0.039 C 
ENDROOT
BRANCH   1   4
ATOM      4  C   UNL     1    -115.899 -98.536  14.056  1.00  0.00     0.034 C 
BRANCH   4   5
ATOM      5  C   UNL     1    -116.080 -97.657  15.297  1.00  0.00     0.032 C 
BRANCH   5   6
ATOM      6  C   UNL     1    -115.344 -96.350  15.140  1.00  0.00    -0.028 C 
ATOM      7  C   UNL     1    -117.301 -95.188  14.094  1.00  0.00     0.039 C 
ATOM      8  C   UNL     1    -115.887 -95.225  14.624  1.00  0.00    -0.080 C 
ATOM      9  C   UNL     1    -115.040 -93.979  14.566  1.00  0.00     0.039 C 
ENDBRANCH   5   6
ENDBRANCH   4   5
ENDBRANCH   1   4
BRANCH   2  10
ATOM     10  C   UNL     1    -112.448-100.141  13.220  1.00  0.00     0.035 C 
BRANCH  10  11
ATOM     11  C   UNL     1    -111.922-100.399  11.805  1.00  0.00     0.079 C 
BRANCH  11  12
ATOM     12  C   UNL     1    -112.759-101.440  11.108  1.00  0.00     0.130 C 
ATOM     13  O   UNL     1    -112.870-102.552  11.603  1.00  0.00    -0.300 OA
ATOM     14  C   UNL     1    -113.472-101.139   9.823  1.00  0.00     0.087 C 
ENDBRANCH  11  12
ENDBRANCH  10  11
ENDBRANCH   2  10
TORSDOF 6
ENDMDL
MODEL 3
REMARK VINA RESULT:    -3.994      2.748      5.837
REMARK INTER + INTRA:          -6.382
REMARK INTER:                  -5.336
REMARK INTRA:                  -1.046
REMARK UNBOUND:                -0.987
REMARK SMILES CC(=O)CCC=C(C)CCC=C(C)C
REMARK SMILES IDX 7 1 6 2 8 3 9 4 10 5 11 6 13 7 12 8 14 9 5 10 4 11 2 12 3 13
REMARK SMILES IDX 1 14
REMARK H PARENT
REMARK Flexibility Score: inf
ROOT
ATOM      1  C   UNL     1    -120.974-100.569   1.435  1.00  0.00    -0.077 C 
ATOM      2  C   UNL     1    -120.405-101.794   1.499  1.00  0.00    -0.028 C 
ATOM      3  C   UNL     1    -120.139 -99.312   1.475  1.00  0.00     0.039 C 
ENDROOT
BRANCH   1   4
ATOM      4  C   UNL     1    -122.478-100.456   1.319  1.00  0.00     0.034 C 
BRANCH   4   5
ATOM      5  C   UNL     1    -123.153-100.772   2.657  1.00  0.00     0.032 C 
BRANCH   5   6
ATOM      6  C   UNL     1    -122.945 -99.647   3.640  1.00  0.00    -0.028 C 
ATOM      7  C   UNL     1    -121.704-101.086   5.271  1.00  0.00     0.039 C 
ATOM      8  C   UNL     1    -122.274 -99.766   4.807  1.00  0.00    -0.080 C 
ATOM      9  C   UNL     1    -122.111 -98.542   5.671  1.00  0.00     0.039 C 
ENDBRANCH   5   6
ENDBRANCH   4   5
ENDBRANCH   1   4
BRANCH   2  10
ATOM     10  C   UNL     1    -118.915-102.006   1.617  1.00  0.00     0.035 C 
BRANCH  10  11
ATOM     11  C   UNL     1    -118.357-102.720   0.382  1.00  0.00     0.079 C 
BRANCH  11  12
ATOM     12  C   UNL     1    -117.626-101.749  -0.508  1.00  0.00     0.130 C 
ATOM     13  O   UNL     1    -117.787-101.805  -1.719  1.00  0.00    -0.300 OA
ATOM     14  C   UNL     1    -116.711-100.704   0.059  1.00  0.00     0.087 C 
ENDBRANCH  11  12
ENDBRANCH  10  11
ENDBRANCH   2  10
TORSDOF 6
ENDMDL
MODEL 4
REMARK VINA RESULT:    -3.989     11.633     13.679
REMARK INTER + INTRA:          -6.376
REMARK INTER:                  -5.804
REMARK INTRA:                  -0.572
REMARK UNBOUND:                -0.987
REMARK SMILES CC(=O)CCC=C(C)CCC=C(C)C
REMARK SMILES IDX 7 1 6 2 8 3 9 4 10 5 11 6 13 7 12 8 14 9 5 10 4 11 2 12 3 13
REMARK SMILES IDX 1 14
REMARK H PARENT
REMARK Flexibility Score: inf
ROOT
ATOM      1  C   UNL     1    -113.399-100.127  13.802  1.00  0.00    -0.077 C 
ATOM      2  C   UNL     1    -113.262 -99.917  12.473  1.00  0.00    -0.028 C 
ATOM      3  C   UNL     1    -113.144-101.483  14.413  1.00  0.00     0.039 C 
ENDROOT
BRANCH   1   4
ATOM      4  C   UNL     1    -113.814 -98.977  14.694  1.00  0.00     0.034 C 
BRANCH   4   5
ATOM      5  C   UNL     1    -115.331 -98.969  14.901  1.00  0.00     0.032 C 
BRANCH   5   6
ATOM      6  C   UNL     1    -115.946 -97.729  14.300  1.00  0.00    -0.028 C 
ATOM      7  C   UNL     1    -116.018 -96.510  16.487  1.00  0.00     0.039 C 
ATOM      8  C   UNL     1    -116.237 -96.607  14.995  1.00  0.00    -0.080 C 
ATOM      9  C   UNL     1    -116.813 -95.430  14.250  1.00  0.00     0.039 C 
ENDBRANCH   5   6
ENDBRANCH   4   5
ENDBRANCH   1   4
BRANCH   2  10
ATOM     10  C   UNL     1    -112.855-101.001  11.505  1.00  0.00     0.035 C 
BRANCH  10  11
ATOM     11  C   UNL     1    -111.433-100.771  10.982  1.00  0.00     0.079 C 
BRANCH  11  12
ATOM     12  C   UNL     1    -111.463-100.040   9.665  1.00  0.00     0.130 C 
ATOM     13  O   UNL     1    -111.709-100.657   8.639  1.00  0.00    -0.300 OA
ATOM     14  C   UNL     1    -111.207 -98.564   9.584  1.00  0.00     0.087 C 
ENDBRANCH  11  12
ENDBRANCH  10  11
ENDBRANCH   2  10
TORSDOF 6
ENDMDL
MODEL 5
REMARK VINA RESULT:    -3.967      1.175      1.906
REMARK INTER + INTRA:          -6.345
REMARK INTER:                  -5.806
REMARK INTRA:                  -0.539
REMARK UNBOUND:                -0.987
REMARK SMILES CC(=O)CCC=C(C)CCC=C(C)C
REMARK SMILES IDX 7 1 6 2 8 3 9 4 10 5 11 6 13 7 12 8 14 9 5 10 4 11 2 12 3 13
REMARK SMILES IDX 1 14
REMARK H PARENT
REMARK Flexibility Score: inf
ROOT
ATOM      1  C   UNL     1    -120.070-100.373   1.516  1.00  0.00    -0.077 C 
ATOM      2  C   UNL     1    -121.021 -99.893   2.348  1.00  0.00    -0.028 C 
ATOM      3  C   UNL     1    -119.841-101.858   1.358  1.00  0.00     0.039 C 
ENDROOT
BRANCH   1   4
ATOM      4  C   UNL     1    -119.219 -99.404   0.725  1.00  0.00     0.034 C 
BRANCH   4   5
ATOM      5  C   UNL     1    -117.732 -99.742   0.869  1.00  0.00     0.032 C 
BRANCH   5   6
ATOM      6  C   UNL     1    -117.020 -98.687   1.679  1.00  0.00    -0.028 C 
ATOM      7  C   UNL     1    -115.076 -98.562   0.104  1.00  0.00     0.039 C 
ATOM      8  C   UNL     1    -115.838 -98.129   1.335  1.00  0.00    -0.080 C 
ATOM      9  C   UNL     1    -115.264 -97.055   2.223  1.00  0.00     0.039 C 
ENDBRANCH   5   6
ENDBRANCH   4   5
ENDBRANCH   1   4
BRANCH   2  10
ATOM     10  C   UNL     1    -121.916-100.781   3.178  1.00  0.00     0.035 C 
BRANCH  10  11
ATOM     11  C   UNL     1    -121.809-100.440   4.668  1.00  0.00     0.079 C 
BRANCH  11  12
ATOM     12  C   UNL     1    -122.604 -99.201   4.988  1.00  0.00     0.130 C 
ATOM     13  O   UNL     1    -122.030 -98.212   5.418  1.00  0.00    -0.300 OA
ATOM     14  C   UNL     1    -124.089 -99.149   4.779  1.00  0.00     0.087 C 
ENDBRANCH  11  12
ENDBRANCH  10  11
ENDBRANCH   2  10
TORSDOF 6
ENDMDL
MODEL 6
REMARK VINA RESULT:    -3.897      2.543      5.893
REMARK INTER + INTRA:          -6.252
REMARK INTER:                  -5.776
REMARK INTRA:                  -0.475
REMARK UNBOUND:                -0.987
REMARK SMILES CC(=O)CCC=C(C)CCC=C(C)C
REMARK SMILES IDX 7 1 6 2 8 3 9 4 10 5 11 6 13 7 12 8 14 9 5 10 4 11 2 12 3 13
REMARK SMILES IDX 1 14
REMARK H PARENT
REMARK Flexibility Score: inf
ROOT
ATOM      1  C   UNL     1    -119.758-101.180   1.290  1.00  0.00    -0.077 C 
ATOM      2  C   UNL     1    -119.173 -99.962   1.253  1.00  0.00    -0.028 C 
ATOM      3  C   UNL     1    -119.217-102.336   0.481  1.00  0.00     0.039 C 
ENDROOT
BRANCH   1   4
ATOM      4  C   UNL     1    -120.977-101.392   2.161  1.00  0.00     0.034 C 
BRANCH   4   5
ATOM      5  C   UNL     1    -121.330-100.110   2.922  1.00  0.00     0.032 C 
BRANCH   5   6
ATOM      6  C   UNL     1    -122.718-100.200   3.507  1.00  0.00    -0.028 C 
ATOM      7  C   UNL     1    -122.186 -98.672   5.418  1.00  0.00     0.039 C 
ATOM      8  C   UNL     1    -123.125 -99.540   4.613  1.00  0.00    -0.080 C 
ATOM      9  C   UNL     1    -124.556 -99.696   5.058  1.00  0.00     0.039 C 
ENDBRANCH   5   6
ENDBRANCH   4   5
ENDBRANCH   1   4
BRANCH   2  10
ATOM     10  C   UNL     1    -117.957 -99.656   0.414  1.00  0.00     0.035 C 
BRANCH  10  11
ATOM     11  C   UNL     1    -116.674 -99.732   1.248  1.00  0.00     0.079 C 
BRANCH  11  12
ATOM     12  C   UNL     1    -115.847 -98.486   1.068  1.00  0.00     0.130 C 
ATOM     13  O   UNL     1    -115.200 -98.336   0.042  1.00  0.00    -0.300 OA
ATOM     14  C   UNL     1    -115.809 -97.414   2.117  1.00  0.00     0.087 C 
ENDBRANCH  11  12
ENDBRANCH  10  11
ENDBRANCH   2  10
TORSDOF 6
ENDMDL
MODEL 7
REMARK VINA RESULT:    -3.887      1.838      2.733
REMARK INTER + INTRA:          -6.238
REMARK INTER:                  -5.413
REMARK INTRA:                  -0.825
REMARK UNBOUND:                -0.987
REMARK SMILES CC(=O)CCC=C(C)CCC=C(C)C
REMARK SMILES IDX 7 1 6 2 8 3 9 4 10 5 11 6 13 7 12 8 14 9 5 10 4 11 2 12 3 13
REMARK SMILES IDX 1 14
REMARK H PARENT
REMARK Flexibility Score: inf
ROOT
ATOM      1  C   UNL     1    -121.712-100.547   2.899  1.00  0.00    -0.077 C 
ATOM      2  C   UNL     1    -121.774-100.404   4.242  1.00  0.00    -0.028 C 
ATOM      3  C   UNL     1    -122.616 -99.759   1.982  1.00  0.00     0.039 C 
ENDROOT
BRANCH   1   4
ATOM      4  C   UNL     1    -120.714-101.515   2.303  1.00  0.00     0.034 C 
BRANCH   4   5
ATOM      5  C   UNL     1    -120.191-100.999   0.959  1.00  0.00     0.032 C 
BRANCH   5   6
ATOM      6  C   UNL     1    -118.724-100.663   1.048  1.00  0.00    -0.028 C 
ATOM      7  C   UNL     1    -119.132 -98.194   1.157  1.00  0.00     0.039 C 
ATOM      8  C   UNL     1    -118.234 -99.409   1.164  1.00  0.00    -0.080 C 
ATOM      9  C   UNL     1    -116.742 -99.228   1.284  1.00  0.00     0.039 C 
ENDBRANCH   5   6
ENDBRANCH   4   5
ENDBRANCH   1   4
BRANCH   2  10
ATOM     10  C   UNL     1    -122.737 -99.465   4.927  1.00  0.00     0.035 C 
BRANCH  10  11
ATOM     11  C   UNL     1    -123.981-100.210   5.421  1.00  0.00     0.079 C 
BRANCH  11  12
ATOM     12  C   UNL     1    -125.235 -99.479   5.016  1.00  0.00     0.130 C 
ATOM     13  O   UNL     1    -125.151 -98.486   4.309  1.00  0.00    -0.300 OA
ATOM     14  C   UNL     1    -126.591 -99.951   5.451  1.00  0.00     0.087 C 
ENDBRANCH  11  12
ENDBRANCH  10  11
ENDBRANCH   2  10
TORSDOF 6
ENDMDL
MODEL 8
REMARK VINA RESULT:    -3.875      2.379      6.131
REMARK INTER + INTRA:          -6.222
REMARK INTER:                  -5.492
REMARK INTRA:                  -0.730
REMARK UNBOUND:                -0.987
REMARK SMILES CC(=O)CCC=C(C)CCC=C(C)C
REMARK SMILES IDX 7 1 6 2 8 3 9 4 10 5 11 6 13 7 12 8 14 9 5 10 4 11 2 12 3 13
REMARK SMILES IDX 1 14
REMARK H PARENT
REMARK Flexibility Score: inf
ROOT
ATOM      1  C   UNL     1    -121.034-100.515   2.758  1.00  0.00    -0.077 C 
ATOM      2  C   UNL     1    -120.828 -99.267   2.282  1.00  0.00    -0.028 C 
ATOM      3  C   UNL     1    -120.550-101.733   2.007  1.00  0.00     0.039 C 
ENDROOT
BRANCH   1   4
ATOM      4  C   UNL     1    -121.761-100.697   4.073  1.00  0.00     0.034 C 
BRANCH   4   5
ATOM      5  C   UNL     1    -122.291 -99.356   4.590  1.00  0.00     0.032 C 
BRANCH   5   6
ATOM      6  C   UNL     1    -123.652 -99.526   5.219  1.00  0.00    -0.028 C 
ATOM      7  C   UNL     1    -124.857 -99.412   3.027  1.00  0.00     0.039 C 
ATOM      8  C   UNL     1    -124.812 -99.578   4.528  1.00  0.00    -0.080 C 
ATOM      9  C   UNL     1    -126.094 -99.793   5.290  1.00  0.00     0.039 C 
ENDBRANCH   5   6
ENDBRANCH   4   5
ENDBRANCH   1   4
BRANCH   2  10
ATOM     10  C   UNL     1    -120.115 -98.988   0.981  1.00  0.00     0.035 C 
BRANCH  10  11
ATOM     11  C   UNL     1    -118.905 -98.073   1.197  1.00  0.00     0.079 C 
BRANCH  11  12
ATOM     12  C   UNL     1    -117.633 -98.878   1.252  1.00  0.00     0.130 C 
ATOM     13  O   UNL     1    -117.657-100.063   0.958  1.00  0.00    -0.300 OA
ATOM     14  C   UNL     1    -116.328 -98.252   1.651  1.00  0.00     0.087 C 
ENDBRANCH  11  12
ENDBRANCH  10  11
ENDBRANCH   2  10
TORSDOF 6
ENDMDL
MODEL 9
REMARK VINA RESULT:    -3.812      2.262      5.316
REMARK INTER + INTRA:          -6.136
REMARK INTER:                  -5.241
REMARK INTRA:                  -0.894
REMARK UNBOUND:                -0.987
REMARK SMILES CC(=O)CCC=C(C)CCC=C(C)C
REMARK SMILES IDX 7 1 6 2 8 3 9 4 10 5 11 6 13 7 12 8 14 9 5 10 4 11 2 12 3 13
REMARK SMILES IDX 1 14
REMARK H PARENT
REMARK Flexibility Score: inf
ROOT
ATOM      1  C   UNL     1    -117.600-101.212   0.357  1.00  0.00    -0.077 C 
ATOM      2  C   UNL     1    -116.857-100.510   1.242  1.00  0.00    -0.028 C 
ATOM      3  C   UNL     1    -117.680-100.811  -1.096  1.00  0.00     0.039 C 
ENDROOT
BRANCH   1   4
ATOM      4  C   UNL     1    -118.364-102.429   0.833  1.00  0.00     0.034 C 
BRANCH   4   5
ATOM      5  C   UNL     1    -119.870-102.244   0.620  1.00  0.00     0.032 C 
BRANCH   5   6
ATOM      6  C   UNL     1    -120.560-101.931   1.924  1.00  0.00    -0.028 C 
ATOM      7  C   UNL     1    -120.568 -99.460   1.513  1.00  0.00     0.039 C 
ATOM      8  C   UNL     1    -120.903-100.688   2.328  1.00  0.00    -0.080 C 
ATOM      9  C   UNL     1    -121.627-100.532   3.641  1.00  0.00     0.039 C 
ENDBRANCH   5   6
ENDBRANCH   4   5
ENDBRANCH   1   4
BRANCH   2  10
ATOM     10  C   UNL     1    -116.064 -99.283   0.861  1.00  0.00     0.035 C 
BRANCH  10  11
ATOM     11  C   UNL     1    -116.485 -98.069   1.695  1.00  0.00     0.079 C 
BRANCH  11  12
ATOM     12  C   UNL     1    -115.290 -97.222   2.043  1.00  0.00     0.130 C 
ATOM     13  O   UNL     1    -115.274 -96.607   3.099  1.00  0.00    -0.300 OA
ATOM     14  C   UNL     1    -114.106 -97.123   1.125  1.00  0.00     0.087 C 
ENDBRANCH  11  12
ENDBRANCH  10  11
ENDBRANCH   2  10
TORSDOF 6
ENDMDL
