MODEL 1
REMARK VINA RESULT:    -3.201      0.000      0.000
REMARK INTER + INTRA:         -10.614
REMARK INTER:                  -6.945
REMARK INTRA:                  -3.669
REMARK UNBOUND:                -3.669
REMARK SMILES CCCCCCCCCCCCCCCCCCCCCC(=O)[O-]
REMARK SMILES IDX 12 1 11 2 10 3 9 4 8 5 7 6 6 7 5 8 4 9 3 10 2 11 1 12 13 13
REMARK SMILES IDX 14 14 15 15 16 16 17 17 18 18 19 19 20 20 21 21 22 22 23 23
REMARK SMILES IDX 24 24
REMARK H PARENT
REMARK Flexibility Score: inf
ROOT
ATOM      1  C   UNL     1      29.489  -0.512 -34.021  1.00  0.00     0.000 C 
ENDROOT
BRANCH   1   2
ATOM      2  C   UNL     1      30.785   0.081 -34.595  1.00  0.00     0.000 C 
BRANCH   2   3
ATOM      3  C   UNL     1      32.048  -0.400 -33.858  1.00  0.00     0.000 C 
BRANCH   3   4
ATOM      4  C   UNL     1      33.134  -1.025 -34.753  1.00  0.00    -0.000 C 
BRANCH   4   5
ATOM      5  C   UNL     1      33.240  -0.351 -36.131  1.00  0.00    -0.000 C 
BRANCH   5   6
ATOM      6  C   UNL     1      33.157  -1.355 -37.293  1.00  0.00    -0.000 C 
BRANCH   6   7
ATOM      7  C   UNL     1      32.407  -0.812 -38.530  1.00  0.00    -0.000 C 
BRANCH   7   8
ATOM      8  C   UNL     1      31.683   0.513 -38.231  1.00  0.00    -0.000 C 
BRANCH   8   9
ATOM      9  C   UNL     1      30.215   0.506 -38.688  1.00  0.00    -0.000 C 
BRANCH   9  10
ATOM     10  C   UNL     1      29.312   1.365 -37.787  1.00  0.00    -0.000 C 
BRANCH  10  11
ATOM     11  C   UNL     1      27.817   1.089 -38.018  1.00  0.00    -0.003 C 
ATOM     12  C   UNL     1      27.118   0.543 -36.772  1.00  0.00     0.004 C 
ENDBRANCH  10  11
ENDBRANCH   9  10
ENDBRANCH   8   9
ENDBRANCH   7   8
ENDBRANCH   6   7
ENDBRANCH   5   6
ENDBRANCH   4   5
ENDBRANCH   3   4
ENDBRANCH   2   3
ENDBRANCH   1   2
BRANCH   1  13
ATOM     13  C   UNL     1      29.195  -1.887 -34.638  1.00  0.00     0.000 C 
BRANCH  13  14
ATOM     14  C   UNL     1      29.634  -1.987 -36.109  1.00  0.00     0.000 C 
BRANCH  14  15
ATOM     15  C   UNL     1      29.994  -3.407 -36.589  1.00  0.00     0.000 C 
BRANCH  15  16
ATOM     16  C   UNL     1      28.902  -4.118 -37.411  1.00  0.00     0.000 C 
BRANCH  16  17
ATOM     17  C   UNL     1      27.661  -3.238 -37.640  1.00  0.00     0.000 C 
BRANCH  17  18
ATOM     18  C   UNL     1      26.467  -3.668 -36.772  1.00  0.00     0.000 C 
BRANCH  18  19
ATOM     19  C   UNL     1      26.639  -5.079 -36.189  1.00  0.00     0.000 C 
BRANCH  19  20
ATOM     20  C   UNL     1      26.428  -5.076 -34.670  1.00  0.00     0.006 C 
BRANCH  20  21
ATOM     21  C   UNL     1      25.555  -3.895 -34.240  1.00  0.00     0.053 C 
BRANCH  21  22
ATOM     22  C   UNL     1      24.411  -4.367 -33.398  1.00  0.00     0.041 C 
ATOM     23  O   UNL     1      23.340  -3.706 -33.357  1.00  0.00    -0.550 OA
ATOM     24  O   UNL     1      24.544  -5.510 -32.619  1.00  0.00    -0.550 OA
ENDBRANCH  21  22
ENDBRANCH  20  21
ENDBRANCH  19  20
ENDBRANCH  18  19
ENDBRANCH  17  18
ENDBRANCH  16  17
ENDBRANCH  15  16
ENDBRANCH  14  15
ENDBRANCH  13  14
ENDBRANCH   1  13
TORSDOF 20
ENDMDL
MODEL 2
REMARK VINA RESULT:    -3.189      8.623     12.078
REMARK INTER + INTRA:         -10.586
REMARK INTER:                  -6.827
REMARK INTRA:                  -3.759
REMARK UNBOUND:                -3.669
REMARK SMILES CCCCCCCCCCCCCCCCCCCCCC(=O)[O-]
REMARK SMILES IDX 12 1 11 2 10 3 9 4 8 5 7 6 6 7 5 8 4 9 3 10 2 11 1 12 13 13
REMARK SMILES IDX 14 14 15 15 16 16 17 17 18 18 19 19 20 20 21 21 22 22 23 23
REMARK SMILES IDX 24 24
REMARK H PARENT
REMARK Flexibility Score: inf
ROOT
ATOM      1  C   UNL     1      31.831   2.646 -30.873  1.00  0.00     0.000 C 
ENDROOT
BRANCH   1   2
ATOM      2  C   UNL     1      32.984   1.805 -30.305  1.00  0.00     0.000 C 
BRANCH   2   3
ATOM      3  C   UNL     1      33.420   2.250 -28.896  1.00  0.00     0.000 C 
BRANCH   3   4
ATOM      4  C   UNL     1      34.144   1.176 -28.062  1.00  0.00    -0.000 C 
BRANCH   4   5
ATOM      5  C   UNL     1      35.398   1.711 -27.351  1.00  0.00    -0.000 C 
BRANCH   5   6
ATOM      6  C   UNL     1      35.871   3.062 -27.914  1.00  0.00    -0.000 C 
BRANCH   6   7
ATOM      7  C   UNL     1      36.120   4.133 -26.829  1.00  0.00    -0.000 C 
BRANCH   7   8
ATOM      8  C   UNL     1      34.817   4.828 -26.394  1.00  0.00    -0.000 C 
BRANCH   8   9
ATOM      9  C   UNL     1      34.347   4.393 -24.996  1.00  0.00    -0.000 C 
BRANCH   9  10
ATOM     10  C   UNL     1      33.005   3.642 -25.033  1.00  0.00    -0.000 C 
BRANCH  10  11
ATOM     11  C   UNL     1      33.125   2.199 -24.518  1.00  0.00    -0.003 C 
ATOM     12  C   UNL     1      32.002   1.294 -25.027  1.00  0.00     0.004 C 
ENDBRANCH  10  11
ENDBRANCH   9  10
ENDBRANCH   8   9
ENDBRANCH   7   8
ENDBRANCH   6   7
ENDBRANCH   5   6
ENDBRANCH   4   5
ENDBRANCH   3   4
ENDBRANCH   2   3
ENDBRANCH   1   2
BRANCH   1  13
ATOM     13  C   UNL     1      31.853   2.641 -32.408  1.00  0.00     0.000 C 
BRANCH  13  14
ATOM     14  C   UNL     1      32.451   3.928 -33.001  1.00  0.00     0.000 C 
BRANCH  14  15
ATOM     15  C   UNL     1      33.988   3.941 -33.118  1.00  0.00     0.000 C 
BRANCH  15  16
ATOM     16  C   UNL     1      34.619   5.332 -33.316  1.00  0.00     0.000 C 
BRANCH  16  17
ATOM     17  C   UNL     1      35.422   5.803 -32.090  1.00  0.00     0.000 C 
BRANCH  17  18
ATOM     18  C   UNL     1      35.016   5.065 -30.804  1.00  0.00     0.000 C 
BRANCH  18  19
ATOM     19  C   UNL     1      34.426   6.008 -29.744  1.00  0.00     0.000 C 
BRANCH  19  20
ATOM     20  C   UNL     1      32.894   5.944 -29.744  1.00  0.00     0.006 C 
BRANCH  20  21
ATOM     21  C   UNL     1      32.301   6.967 -30.716  1.00  0.00     0.053 C 
BRANCH  21  22
ATOM     22  C   UNL     1      32.776   8.346 -30.381  1.00  0.00     0.041 C 
ATOM     23  O   UNL     1      32.385   8.911 -29.325  1.00  0.00    -0.550 OA
ATOM     24  O   UNL     1      33.610   9.029 -31.257  1.00  0.00    -0.550 OA
ENDBRANCH  21  22
ENDBRANCH  20  21
ENDBRANCH  19  20
ENDBRANCH  18  19
ENDBRANCH  17  18
ENDBRANCH  16  17
ENDBRANCH  15  16
ENDBRANCH  14  15
ENDBRANCH  13  14
ENDBRANCH   1  13
TORSDOF 20
ENDMDL
MODEL 3
REMARK VINA RESULT:    -3.186      1.945      4.090
REMARK INTER + INTRA:         -10.581
REMARK INTER:                  -6.962
REMARK INTRA:                  -3.619
REMARK UNBOUND:                -3.669
REMARK SMILES CCCCCCCCCCCCCCCCCCCCCC(=O)[O-]
REMARK SMILES IDX 12 1 11 2 10 3 9 4 8 5 7 6 6 7 5 8 4 9 3 10 2 11 1 12 13 13
REMARK SMILES IDX 14 14 15 15 16 16 17 17 18 18 19 19 20 20 21 21 22 22 23 23
REMARK SMILES IDX 24 24
REMARK H PARENT
REMARK Flexibility Score: inf
ROOT
ATOM      1  C   UNL     1      28.886  -4.491 -37.546  1.00  0.00     0.000 C 
ENDROOT
BRANCH   1   2
ATOM      2  C   UNL     1      30.198  -4.013 -36.906  1.00  0.00     0.000 C 
BRANCH   2   3
ATOM      3  C   UNL     1      30.017  -3.508 -35.462  1.00  0.00     0.000 C 
BRANCH   3   4
ATOM      4  C   UNL     1      30.464  -2.056 -35.213  1.00  0.00    -0.000 C 
BRANCH   4   5
ATOM      5  C   UNL     1      29.316  -1.041 -35.350  1.00  0.00    -0.000 C 
BRANCH   5   6
ATOM      6  C   UNL     1      29.712   0.198 -36.171  1.00  0.00    -0.000 C 
BRANCH   6   7
ATOM      7  C   UNL     1      29.311   0.108 -37.660  1.00  0.00    -0.000 C 
BRANCH   7   8
ATOM      8  C   UNL     1      30.536   0.133 -38.591  1.00  0.00    -0.000 C 
BRANCH   8   9
ATOM      9  C   UNL     1      31.086  -1.272 -38.889  1.00  0.00    -0.000 C 
BRANCH   9  10
ATOM     10  C   UNL     1      32.577  -1.409 -38.536  1.00  0.00    -0.000 C 
BRANCH  10  11
ATOM     11  C   UNL     1      33.146  -0.137 -37.887  1.00  0.00    -0.003 C 
ATOM     12  C   UNL     1      33.534  -0.344 -36.421  1.00  0.00     0.004 C 
ENDBRANCH  10  11
ENDBRANCH   9  10
ENDBRANCH   8   9
ENDBRANCH   7   8
ENDBRANCH   6   7
ENDBRANCH   5   6
ENDBRANCH   4   5
ENDBRANCH   3   4
ENDBRANCH   2   3
ENDBRANCH   1   2
BRANCH   1  13
ATOM     13  C   UNL     1      27.931  -3.312 -37.784  1.00  0.00     0.000 C 
BRANCH  13  14
ATOM     14  C   UNL     1      26.678  -3.370 -36.892  1.00  0.00     0.000 C 
BRANCH  14  15
ATOM     15  C   UNL     1      26.389  -4.747 -36.261  1.00  0.00     0.000 C 
BRANCH  15  16
ATOM     16  C   UNL     1      26.356  -4.769 -34.722  1.00  0.00     0.000 C 
BRANCH  16  17
ATOM     17  C   UNL     1      26.223  -3.364 -34.108  1.00  0.00     0.000 C 
BRANCH  17  18
ATOM     18  C   UNL     1      27.226  -3.122 -32.970  1.00  0.00     0.000 C 
BRANCH  18  19
ATOM     19  C   UNL     1      27.362  -4.333 -32.035  1.00  0.00     0.000 C 
BRANCH  19  20
ATOM     20  C   UNL     1      26.442  -4.192 -30.815  1.00  0.00     0.006 C 
BRANCH  20  21
ATOM     21  C   UNL     1      25.205  -5.083 -30.954  1.00  0.00     0.053 C 
BRANCH  21  22
ATOM     22  C   UNL     1      25.070  -5.982 -29.765  1.00  0.00     0.041 C 
ATOM     23  O   UNL     1      23.943  -6.445 -29.446  1.00  0.00    -0.550 OA
ATOM     24  O   UNL     1      26.179  -6.270 -28.980  1.00  0.00    -0.550 OA
ENDBRANCH  21  22
ENDBRANCH  20  21
ENDBRANCH  19  20
ENDBRANCH  18  19
ENDBRANCH  17  18
ENDBRANCH  16  17
ENDBRANCH  15  16
ENDBRANCH  14  15
ENDBRANCH  13  14
ENDBRANCH   1  13
TORSDOF 20
ENDMDL
MODEL 4
REMARK VINA RESULT:    -3.146      1.569      3.262
REMARK INTER + INTRA:         -10.494
REMARK INTER:                  -6.932
REMARK INTRA:                  -3.562
REMARK UNBOUND:                -3.669
REMARK SMILES CCCCCCCCCCCCCCCCCCCCCC(=O)[O-]
REMARK SMILES IDX 12 1 11 2 10 3 9 4 8 5 7 6 6 7 5 8 4 9 3 10 2 11 1 12 13 13
REMARK SMILES IDX 14 14 15 15 16 16 17 17 18 18 19 19 20 20 21 21 22 22 23 23
REMARK SMILES IDX 24 24
REMARK H PARENT
REMARK Flexibility Score: inf
ROOT
ATOM      1  C   UNL     1      29.618  -0.671 -34.906  1.00  0.00     0.000 C 
ENDROOT
BRANCH   1   2
ATOM      2  C   UNL     1      31.129  -0.504 -34.682  1.00  0.00     0.000 C 
BRANCH   2   3
ATOM      3  C   UNL     1      31.821   0.294 -35.803  1.00  0.00     0.000 C 
BRANCH   3   4
ATOM      4  C   UNL     1      33.019  -0.410 -36.467  1.00  0.00    -0.000 C 
BRANCH   4   5
ATOM      5  C   UNL     1      33.075  -0.195 -37.989  1.00  0.00    -0.000 C 
BRANCH   5   6
ATOM      6  C   UNL     1      32.642  -1.439 -38.782  1.00  0.00    -0.000 C 
BRANCH   6   7
ATOM      7  C   UNL     1      31.117  -1.527 -39.014  1.00  0.00    -0.000 C 
BRANCH   7   8
ATOM      8  C   UNL     1      30.609  -2.979 -38.969  1.00  0.00    -0.000 C 
BRANCH   8   9
ATOM      9  C   UNL     1      31.403  -3.858 -37.988  1.00  0.00    -0.000 C 
BRANCH   9  10
ATOM     10  C   UNL     1      30.802  -3.854 -36.573  1.00  0.00    -0.000 C 
BRANCH  10  11
ATOM     11  C   UNL     1      31.876  -3.961 -35.478  1.00  0.00    -0.003 C 
ATOM     12  C   UNL     1      33.295  -4.015 -36.045  1.00  0.00     0.004 C 
ENDBRANCH  10  11
ENDBRANCH   9  10
ENDBRANCH   8   9
ENDBRANCH   7   8
ENDBRANCH   6   7
ENDBRANCH   5   6
ENDBRANCH   4   5
ENDBRANCH   3   4
ENDBRANCH   2   3
ENDBRANCH   1   2
BRANCH   1  13
ATOM     13  C   UNL     1      29.184  -0.020 -36.228  1.00  0.00     0.000 C 
BRANCH  13  14
ATOM     14  C   UNL     1      28.191  -0.887 -37.022  1.00  0.00     0.000 C 
BRANCH  14  15
ATOM     15  C   UNL     1      27.714  -2.162 -36.299  1.00  0.00     0.000 C 
BRANCH  15  16
ATOM     16  C   UNL     1      27.078  -3.231 -37.206  1.00  0.00     0.000 C 
BRANCH  16  17
ATOM     17  C   UNL     1      26.287  -4.289 -36.417  1.00  0.00     0.000 C 
BRANCH  17  18
ATOM     18  C   UNL     1      26.968  -4.664 -35.091  1.00  0.00     0.000 C 
BRANCH  18  19
ATOM     19  C   UNL     1      25.959  -4.989 -33.980  1.00  0.00     0.000 C 
BRANCH  19  20
ATOM     20  C   UNL     1      24.868  -3.914 -33.897  1.00  0.00     0.006 C 
BRANCH  20  21
ATOM     21  C   UNL     1      23.728  -4.359 -32.978  1.00  0.00     0.053 C 
BRANCH  21  22
ATOM     22  C   UNL     1      24.254  -4.711 -31.621  1.00  0.00     0.041 C 
ATOM     23  O   UNL     1      24.121  -5.880 -31.174  1.00  0.00    -0.550 OA
ATOM     24  O   UNL     1      24.848  -3.735 -30.830  1.00  0.00    -0.550 OA
ENDBRANCH  21  22
ENDBRANCH  20  21
ENDBRANCH  19  20
ENDBRANCH  18  19
ENDBRANCH  17  18
ENDBRANCH  16  17
ENDBRANCH  15  16
ENDBRANCH  14  15
ENDBRANCH  13  14
ENDBRANCH   1  13
TORSDOF 20
ENDMDL
MODEL 5
REMARK VINA RESULT:    -3.141      1.683      3.782
REMARK INTER + INTRA:         -10.483
REMARK INTER:                  -6.576
REMARK INTRA:                  -3.907
REMARK UNBOUND:                -3.669
REMARK SMILES CCCCCCCCCCCCCCCCCCCCCC(=O)[O-]
REMARK SMILES IDX 12 1 11 2 10 3 9 4 8 5 7 6 6 7 5 8 4 9 3 10 2 11 1 12 13 13
REMARK SMILES IDX 14 14 15 15 16 16 17 17 18 18 19 19 20 20 21 21 22 22 23 23
REMARK SMILES IDX 24 24
REMARK H PARENT
REMARK Flexibility Score: inf
ROOT
ATOM      1  C   UNL     1      30.924   0.278 -38.068  1.00  0.00     0.000 C 
ENDROOT
BRANCH   1   2
ATOM      2  C   UNL     1      32.449   0.228 -37.888  1.00  0.00     0.000 C 
BRANCH   2   3
ATOM      3  C   UNL     1      33.097  -1.001 -38.553  1.00  0.00     0.000 C 
BRANCH   3   4
ATOM      4  C   UNL     1      32.111  -2.063 -39.074  1.00  0.00    -0.000 C 
BRANCH   4   5
ATOM      5  C   UNL     1      32.375  -3.464 -38.495  1.00  0.00    -0.000 C 
BRANCH   5   6
ATOM      6  C   UNL     1      32.831  -3.425 -37.027  1.00  0.00    -0.000 C 
BRANCH   6   7
ATOM      7  C   UNL     1      31.852  -4.119 -36.055  1.00  0.00    -0.000 C 
BRANCH   7   8
ATOM      8  C   UNL     1      30.877  -3.121 -35.406  1.00  0.00    -0.000 C 
BRANCH   8   9
ATOM      9  C   UNL     1      31.596  -2.002 -34.634  1.00  0.00    -0.000 C 
BRANCH   9  10
ATOM     10  C   UNL     1      30.806  -0.682 -34.635  1.00  0.00    -0.000 C 
BRANCH  10  11
ATOM     11  C   UNL     1      29.287  -0.907 -34.721  1.00  0.00    -0.003 C 
ATOM     12  C   UNL     1      28.530   0.342 -35.176  1.00  0.00     0.004 C 
ENDBRANCH  10  11
ENDBRANCH   9  10
ENDBRANCH   8   9
ENDBRANCH   7   8
ENDBRANCH   6   7
ENDBRANCH   5   6
ENDBRANCH   4   5
ENDBRANCH   3   4
ENDBRANCH   2   3
ENDBRANCH   1   2
BRANCH   1  13
ATOM     13  C   UNL     1      30.531   1.325 -39.120  1.00  0.00     0.000 C 
BRANCH  13  14
ATOM     14  C   UNL     1      29.221   0.977 -39.848  1.00  0.00     0.000 C 
BRANCH  14  15
ATOM     15  C   UNL     1      28.938  -0.531 -39.997  1.00  0.00     0.000 C 
BRANCH  15  16
ATOM     16  C   UNL     1      27.712  -1.048 -39.221  1.00  0.00     0.000 C 
BRANCH  16  17
ATOM     17  C   UNL     1      28.095  -1.950 -38.035  1.00  0.00     0.000 C 
BRANCH  17  18
ATOM     18  C   UNL     1      28.616  -3.324 -38.485  1.00  0.00     0.000 C 
BRANCH  18  19
ATOM     19  C   UNL     1      28.198  -4.454 -37.532  1.00  0.00     0.000 C 
BRANCH  19  20
ATOM     20  C   UNL     1      27.457  -3.898 -36.310  1.00  0.00     0.006 C 
BRANCH  20  21
ATOM     21  C   UNL     1      25.967  -4.247 -36.366  1.00  0.00     0.053 C 
BRANCH  21  22
ATOM     22  C   UNL     1      25.157  -3.201 -35.665  1.00  0.00     0.041 C 
ATOM     23  O   UNL     1      25.515  -1.995 -35.699  1.00  0.00    -0.550 OA
ATOM     24  O   UNL     1      24.033  -3.565 -34.934  1.00  0.00    -0.550 OA
ENDBRANCH  21  22
ENDBRANCH  20  21
ENDBRANCH  19  20
ENDBRANCH  18  19
ENDBRANCH  17  18
ENDBRANCH  16  17
ENDBRANCH  15  16
ENDBRANCH  14  15
ENDBRANCH  13  14
ENDBRANCH   1  13
TORSDOF 20
ENDMDL
MODEL 6
REMARK VINA RESULT:    -3.130      1.443      3.461
REMARK INTER + INTRA:         -10.458
REMARK INTER:                  -6.542
REMARK INTRA:                  -3.916
REMARK UNBOUND:                -3.669
REMARK SMILES CCCCCCCCCCCCCCCCCCCCCC(=O)[O-]
REMARK SMILES IDX 12 1 11 2 10 3 9 4 8 5 7 6 6 7 5 8 4 9 3 10 2 11 1 12 13 13
REMARK SMILES IDX 14 14 15 15 16 16 17 17 18 18 19 19 20 20 21 21 22 22 23 23
REMARK SMILES IDX 24 24
REMARK H PARENT
REMARK Flexibility Score: inf
ROOT
ATOM      1  C   UNL     1      29.624   0.361 -35.183  1.00  0.00     0.000 C 
ENDROOT
BRANCH   1   2
ATOM      2  C   UNL     1      28.169   0.175 -35.640  1.00  0.00     0.000 C 
BRANCH   2   3
ATOM      3  C   UNL     1      27.924   0.650 -37.085  1.00  0.00     0.000 C 
BRANCH   3   4
ATOM      4  C   UNL     1      28.983   1.613 -37.650  1.00  0.00    -0.000 C 
BRANCH   4   5
ATOM      5  C   UNL     1      29.548   1.159 -39.006  1.00  0.00    -0.000 C 
BRANCH   5   6
ATOM      6  C   UNL     1      30.645   0.090 -38.867  1.00  0.00    -0.000 C 
BRANCH   6   7
ATOM      7  C   UNL     1      31.931   0.607 -38.183  1.00  0.00    -0.000 C 
BRANCH   7   8
ATOM      8  C   UNL     1      33.043  -0.456 -38.165  1.00  0.00    -0.000 C 
BRANCH   8   9
ATOM      9  C   UNL     1      32.559  -1.834 -38.648  1.00  0.00    -0.000 C 
BRANCH   9  10
ATOM     10  C   UNL     1      32.981  -2.972 -37.704  1.00  0.00    -0.000 C 
BRANCH  10  11
ATOM     11  C   UNL     1      32.506  -4.350 -38.195  1.00  0.00    -0.003 C 
ATOM     12  C   UNL     1      31.870  -4.295 -39.585  1.00  0.00     0.004 C 
ENDBRANCH  10  11
ENDBRANCH   9  10
ENDBRANCH   8   9
ENDBRANCH   7   8
ENDBRANCH   6   7
ENDBRANCH   5   6
ENDBRANCH   4   5
ENDBRANCH   3   4
ENDBRANCH   2   3
ENDBRANCH   1   2
BRANCH   1  13
ATOM     13  C   UNL     1      30.414  -0.948 -35.325  1.00  0.00     0.000 C 
BRANCH  13  14
ATOM     14  C   UNL     1      29.606  -2.183 -34.887  1.00  0.00     0.000 C 
BRANCH  14  15
ATOM     15  C   UNL     1      29.534  -3.318 -35.927  1.00  0.00     0.000 C 
BRANCH  15  16
ATOM     16  C   UNL     1      29.210  -2.870 -37.365  1.00  0.00     0.000 C 
BRANCH  16  17
ATOM     17  C   UNL     1      27.854  -3.398 -37.863  1.00  0.00     0.000 C 
BRANCH  17  18
ATOM     18  C   UNL     1      27.175  -4.328 -36.844  1.00  0.00     0.000 C 
BRANCH  18  19
ATOM     19  C   UNL     1      25.764  -3.857 -36.463  1.00  0.00     0.000 C 
BRANCH  19  20
ATOM     20  C   UNL     1      25.819  -2.559 -35.647  1.00  0.00     0.006 C 
BRANCH  20  21
ATOM     21  C   UNL     1      25.586  -2.837 -34.159  1.00  0.00     0.053 C 
BRANCH  21  22
ATOM     22  C   UNL     1      24.126  -3.011 -33.880  1.00  0.00     0.041 C 
ATOM     23  O   UNL     1      23.345  -2.026 -33.955  1.00  0.00    -0.550 OA
ATOM     24  O   UNL     1      23.634  -4.251 -33.490  1.00  0.00    -0.550 OA
ENDBRANCH  21  22
ENDBRANCH  20  21
ENDBRANCH  19  20
ENDBRANCH  18  19
ENDBRANCH  17  18
ENDBRANCH  16  17
ENDBRANCH  15  16
ENDBRANCH  14  15
ENDBRANCH  13  14
ENDBRANCH   1  13
TORSDOF 20
ENDMDL
MODEL 7
REMARK VINA RESULT:    -3.126      5.320      8.367
REMARK INTER + INTRA:         -10.450
REMARK INTER:                  -7.293
REMARK INTRA:                  -3.157
REMARK UNBOUND:                -3.669
REMARK SMILES CCCCCCCCCCCCCCCCCCCCCC(=O)[O-]
REMARK SMILES IDX 12 1 11 2 10 3 9 4 8 5 7 6 6 7 5 8 4 9 3 10 2 11 1 12 13 13
REMARK SMILES IDX 14 14 15 15 16 16 17 17 18 18 19 19 20 20 21 21 22 22 23 23
REMARK SMILES IDX 24 24
REMARK H PARENT
REMARK Flexibility Score: inf
ROOT
ATOM      1  C   UNL     1      32.259  -2.049 -36.642  1.00  0.00     0.000 C 
ENDROOT
BRANCH   1   2
ATOM      2  C   UNL     1      32.514  -2.087 -38.157  1.00  0.00     0.000 C 
BRANCH   2   3
ATOM      3  C   UNL     1      31.484  -1.275 -38.964  1.00  0.00     0.000 C 
BRANCH   3   4
ATOM      4  C   UNL     1      31.420   0.226 -38.628  1.00  0.00    -0.000 C 
BRANCH   4   5
ATOM      5  C   UNL     1      29.981   0.765 -38.556  1.00  0.00    -0.000 C 
BRANCH   5   6
ATOM      6  C   UNL     1      28.939  -0.346 -38.345  1.00  0.00    -0.000 C 
BRANCH   6   7
ATOM      7  C   UNL     1      28.573  -0.580 -36.863  1.00  0.00    -0.000 C 
BRANCH   7   8
ATOM      8  C   UNL     1      28.538  -2.076 -36.505  1.00  0.00    -0.000 C 
BRANCH   8   9
ATOM      9  C   UNL     1      27.921  -2.941 -37.618  1.00  0.00    -0.000 C 
BRANCH   9  10
ATOM     10  C   UNL     1      28.341  -4.417 -37.518  1.00  0.00    -0.000 C 
BRANCH  10  11
ATOM     11  C   UNL     1      29.736  -4.673 -38.110  1.00  0.00    -0.003 C 
ATOM     12  C   UNL     1      29.776  -4.495 -39.629  1.00  0.00     0.004 C 
ENDBRANCH  10  11
ENDBRANCH   9  10
ENDBRANCH   8   9
ENDBRANCH   7   8
ENDBRANCH   6   7
ENDBRANCH   5   6
ENDBRANCH   4   5
ENDBRANCH   3   4
ENDBRANCH   2   3
ENDBRANCH   1   2
BRANCH   1  13
ATOM     13  C   UNL     1      33.437  -1.398 -35.904  1.00  0.00     0.000 C 
BRANCH  13  14
ATOM     14  C   UNL     1      33.100  -0.002 -35.354  1.00  0.00     0.000 C 
BRANCH  14  15
ATOM     15  C   UNL     1      31.633   0.194 -34.923  1.00  0.00     0.000 C 
BRANCH  15  16
ATOM     16  C   UNL     1      31.066   1.608 -35.148  1.00  0.00     0.000 C 
BRANCH  16  17
ATOM     17  C   UNL     1      30.570   2.265 -33.848  1.00  0.00     0.000 C 
BRANCH  17  18
ATOM     18  C   UNL     1      31.690   2.426 -32.807  1.00  0.00     0.000 C 
BRANCH  18  19
ATOM     19  C   UNL     1      32.207   3.869 -32.714  1.00  0.00     0.000 C 
BRANCH  19  20
ATOM     20  C   UNL     1      33.729   3.921 -32.893  1.00  0.00     0.006 C 
BRANCH  20  21
ATOM     21  C   UNL     1      34.389   4.701 -31.753  1.00  0.00     0.053 C 
BRANCH  21  22
ATOM     22  C   UNL     1      35.387   5.677 -32.293  1.00  0.00     0.041 C 
ATOM     23  O   UNL     1      35.723   5.633 -33.506  1.00  0.00    -0.550 OA
ATOM     24  O   UNL     1      35.984   6.603 -31.447  1.00  0.00    -0.550 OA
ENDBRANCH  21  22
ENDBRANCH  20  21
ENDBRANCH  19  20
ENDBRANCH  18  19
ENDBRANCH  17  18
ENDBRANCH  16  17
ENDBRANCH  15  16
ENDBRANCH  14  15
ENDBRANCH  13  14
ENDBRANCH   1  13
TORSDOF 20
ENDMDL
MODEL 8
REMARK VINA RESULT:    -3.117      5.475      8.680
REMARK INTER + INTRA:         -10.429
REMARK INTER:                  -7.212
REMARK INTRA:                  -3.217
REMARK UNBOUND:                -3.669
REMARK SMILES CCCCCCCCCCCCCCCCCCCCCC(=O)[O-]
REMARK SMILES IDX 12 1 11 2 10 3 9 4 8 5 7 6 6 7 5 8 4 9 3 10 2 11 1 12 13 13
REMARK SMILES IDX 14 14 15 15 16 16 17 17 18 18 19 19 20 20 21 21 22 22 23 23
REMARK SMILES IDX 24 24
REMARK H PARENT
REMARK Flexibility Score: inf
ROOT
ATOM      1  C   UNL     1      32.023   0.115 -33.901  1.00  0.00     0.000 C 
ENDROOT
BRANCH   1   2
ATOM      2  C   UNL     1      30.738   0.281 -34.727  1.00  0.00     0.000 C 
BRANCH   2   3
ATOM      3  C   UNL     1      30.912   1.222 -35.933  1.00  0.00     0.000 C 
BRANCH   3   4
ATOM      4  C   UNL     1      30.037   0.892 -37.156  1.00  0.00    -0.000 C 
BRANCH   4   5
ATOM      5  C   UNL     1      30.856   0.451 -38.382  1.00  0.00    -0.000 C 
BRANCH   5   6
ATOM      6  C   UNL     1      32.373   0.547 -38.149  1.00  0.00    -0.000 C 
BRANCH   6   7
ATOM      7  C   UNL     1      33.114  -0.797 -38.330  1.00  0.00    -0.000 C 
BRANCH   7   8
ATOM      8  C   UNL     1      33.104  -1.640 -37.043  1.00  0.00    -0.000 C 
BRANCH   8   9
ATOM      9  C   UNL     1      32.297  -2.942 -37.189  1.00  0.00    -0.000 C 
BRANCH   9  10
ATOM     10  C   UNL     1      30.898  -2.843 -36.558  1.00  0.00    -0.000 C 
BRANCH  10  11
ATOM     11  C   UNL     1      29.776  -3.134 -37.567  1.00  0.00    -0.003 C 
ATOM     12  C   UNL     1      30.270  -3.143 -39.015  1.00  0.00     0.004 C 
ENDBRANCH  10  11
ENDBRANCH   9  10
ENDBRANCH   8   9
ENDBRANCH   7   8
ENDBRANCH   6   7
ENDBRANCH   5   6
ENDBRANCH   4   5
ENDBRANCH   3   4
ENDBRANCH   2   3
ENDBRANCH   1   2
BRANCH   1  13
ATOM     13  C   UNL     1      33.119   1.071 -34.394  1.00  0.00     0.000 C 
BRANCH  13  14
ATOM     14  C   UNL     1      33.496   2.135 -33.350  1.00  0.00     0.000 C 
BRANCH  14  15
ATOM     15  C   UNL     1      32.379   3.142 -33.011  1.00  0.00     0.000 C 
BRANCH  15  16
ATOM     16  C   UNL     1      32.825   4.615 -32.935  1.00  0.00     0.000 C 
BRANCH  16  17
ATOM     17  C   UNL     1      34.317   4.803 -33.260  1.00  0.00     0.000 C 
BRANCH  17  18
ATOM     18  C   UNL     1      35.054   5.620 -32.186  1.00  0.00     0.000 C 
BRANCH  18  19
ATOM     19  C   UNL     1      34.312   5.631 -30.840  1.00  0.00     0.000 C 
BRANCH  19  20
ATOM     20  C   UNL     1      34.944   4.638 -29.856  1.00  0.00     0.006 C 
BRANCH  20  21
ATOM     21  C   UNL     1      33.910   3.626 -29.358  1.00  0.00     0.053 C 
BRANCH  21  22
ATOM     22  C   UNL     1      34.514   2.722 -28.329  1.00  0.00     0.041 C 
ATOM     23  O   UNL     1      34.149   1.519 -28.251  1.00  0.00    -0.550 OA
ATOM     24  O   UNL     1      35.444   3.218 -27.425  1.00  0.00    -0.550 OA
ENDBRANCH  21  22
ENDBRANCH  20  21
ENDBRANCH  19  20
ENDBRANCH  18  19
ENDBRANCH  17  18
ENDBRANCH  16  17
ENDBRANCH  15  16
ENDBRANCH  14  15
ENDBRANCH  13  14
ENDBRANCH   1  13
TORSDOF 20
ENDMDL
MODEL 9
REMARK VINA RESULT:    -3.096      3.609      6.862
REMARK INTER + INTRA:         -10.384
REMARK INTER:                  -6.604
REMARK INTRA:                  -3.780
REMARK UNBOUND:                -3.669
REMARK SMILES CCCCCCCCCCCCCCCCCCCCCC(=O)[O-]
REMARK SMILES IDX 12 1 11 2 10 3 9 4 8 5 7 6 6 7 5 8 4 9 3 10 2 11 1 12 13 13
REMARK SMILES IDX 14 14 15 15 16 16 17 17 18 18 19 19 20 20 21 21 22 22 23 23
REMARK SMILES IDX 24 24
REMARK H PARENT
REMARK Flexibility Score: inf
ROOT
ATOM      1  C   UNL     1      29.246  -0.063 -36.577  1.00  0.00     0.000 C 
ENDROOT
BRANCH   1   2
ATOM      2  C   UNL     1      28.553  -1.170 -35.768  1.00  0.00     0.000 C 
BRANCH   2   3
ATOM      3  C   UNL     1      29.442  -2.410 -35.555  1.00  0.00     0.000 C 
BRANCH   3   4
ATOM      4  C   UNL     1      29.090  -3.629 -36.426  1.00  0.00    -0.000 C 
BRANCH   4   5
ATOM      5  C   UNL     1      27.692  -3.531 -37.062  1.00  0.00    -0.000 C 
BRANCH   5   6
ATOM      6  C   UNL     1      26.760  -4.674 -36.629  1.00  0.00    -0.000 C 
BRANCH   6   7
ATOM      7  C   UNL     1      26.533  -4.744 -35.102  1.00  0.00    -0.000 C 
BRANCH   7   8
ATOM      8  C   UNL     1      25.281  -3.962 -34.668  1.00  0.00    -0.000 C 
BRANCH   8   9
ATOM      9  C   UNL     1      25.620  -2.646 -33.948  1.00  0.00    -0.000 C 
BRANCH   9  10
ATOM     10  C   UNL     1      25.018  -1.417 -34.650  1.00  0.00    -0.000 C 
BRANCH  10  11
ATOM     11  C   UNL     1      24.505  -1.739 -36.063  1.00  0.00    -0.003 C 
ATOM     12  C   UNL     1      25.112  -0.829 -37.133  1.00  0.00     0.004 C 
ENDBRANCH  10  11
ENDBRANCH   9  10
ENDBRANCH   8   9
ENDBRANCH   7   8
ENDBRANCH   6   7
ENDBRANCH   5   6
ENDBRANCH   4   5
ENDBRANCH   3   4
ENDBRANCH   2   3
ENDBRANCH   1   2
BRANCH   1  13
ATOM     13  C   UNL     1      28.857  -0.142 -38.060  1.00  0.00     0.000 C 
BRANCH  13  14
ATOM     14  C   UNL     1      30.076  -0.244 -38.992  1.00  0.00     0.000 C 
BRANCH  14  15
ATOM     15  C   UNL     1      30.744  -1.632 -39.044  1.00  0.00     0.000 C 
BRANCH  15  16
ATOM     16  C   UNL     1      32.228  -1.662 -38.630  1.00  0.00     0.000 C 
BRANCH  16  17
ATOM     17  C   UNL     1      32.747  -0.287 -38.174  1.00  0.00     0.000 C 
BRANCH  17  18
ATOM     18  C   UNL     1      33.537  -0.365 -36.857  1.00  0.00     0.000 C 
BRANCH  18  19
ATOM     19  C   UNL     1      32.777  -1.119 -35.756  1.00  0.00     0.000 C 
BRANCH  19  20
ATOM     20  C   UNL     1      32.487  -0.202 -34.561  1.00  0.00     0.006 C 
BRANCH  20  21
ATOM     21  C   UNL     1      33.506   0.937 -34.483  1.00  0.00     0.053 C 
BRANCH  21  22
ATOM     22  C   UNL     1      33.188   1.849 -33.340  1.00  0.00     0.041 C 
ATOM     23  O   UNL     1      33.376   3.089 -33.448  1.00  0.00    -0.550 OA
ATOM     24  O   UNL     1      32.729   1.325 -32.137  1.00  0.00    -0.550 OA
ENDBRANCH  21  22
ENDBRANCH  20  21
ENDBRANCH  19  20
ENDBRANCH  18  19
ENDBRANCH  17  18
ENDBRANCH  16  17
ENDBRANCH  15  16
ENDBRANCH  14  15
ENDBRANCH  13  14
ENDBRANCH   1  13
TORSDOF 20
ENDMDL
