MODEL 1
REMARK VINA RESULT:    -7.190      0.000      0.000
REMARK INTER + INTRA:         -17.188
REMARK INTER:                 -15.596
REMARK INTRA:                  -1.592
REMARK UNBOUND:                -1.592
REMARK SMILES CCCCCCCCCCCCCCCCCCCCCC(=O)[O-]
REMARK SMILES IDX 12 1 11 2 10 3 9 4 8 5 7 6 6 7 5 8 4 9 3 10 2 11 1 12 13 13
REMARK SMILES IDX 14 14 15 15 16 16 17 17 18 18 19 19 20 20 21 21 22 22 23 23
REMARK SMILES IDX 24 24
REMARK H PARENT
REMARK Flexibility Score: inf
ROOT
ATOM      1  C   UNL     1      -4.651   1.776   3.153  1.00  0.00     0.000 C 
ENDROOT
BRANCH   1   2
ATOM      2  C   UNL     1      -5.064   0.359   2.721  1.00  0.00     0.000 C 
BRANCH   2   3
ATOM      3  C   UNL     1      -6.493   0.002   3.163  1.00  0.00     0.000 C 
BRANCH   3   4
ATOM      4  C   UNL     1      -6.591  -1.411   3.760  1.00  0.00    -0.000 C 
BRANCH   4   5
ATOM      5  C   UNL     1      -5.956  -1.514   5.154  1.00  0.00    -0.000 C 
BRANCH   5   6
ATOM      6  C   UNL     1      -4.632  -2.287   5.096  1.00  0.00    -0.000 C 
BRANCH   6   7
ATOM      7  C   UNL     1      -3.600  -1.689   6.063  1.00  0.00    -0.000 C 
BRANCH   7   8
ATOM      8  C   UNL     1      -2.526  -2.715   6.482  1.00  0.00    -0.000 C 
BRANCH   8   9
ATOM      9  C   UNL     1      -3.064  -3.845   7.380  1.00  0.00    -0.000 C 
BRANCH   9  10
ATOM     10  C   UNL     1      -2.397  -5.215   7.168  1.00  0.00    -0.000 C 
BRANCH  10  11
ATOM     11  C   UNL     1      -2.677  -6.196   8.316  1.00  0.00    -0.003 C 
ATOM     12  C   UNL     1      -2.856  -5.455   9.639  1.00  0.00     0.004 C 
ENDBRANCH  10  11
ENDBRANCH   9  10
ENDBRANCH   8   9
ENDBRANCH   7   8
ENDBRANCH   6   7
ENDBRANCH   5   6
ENDBRANCH   4   5
ENDBRANCH   3   4
ENDBRANCH   2   3
ENDBRANCH   1   2
BRANCH   1  13
ATOM     13  C   UNL     1      -3.678   1.763   4.344  1.00  0.00     0.000 C 
BRANCH  13  14
ATOM     14  C   UNL     1      -3.066   3.144   4.623  1.00  0.00     0.000 C 
BRANCH  14  15
ATOM     15  C   UNL     1      -3.706   3.844   5.837  1.00  0.00     0.000 C 
BRANCH  15  16
ATOM     16  C   UNL     1      -4.815   4.827   5.433  1.00  0.00     0.000 C 
BRANCH  16  17
ATOM     17  C   UNL     1      -4.343   5.857   4.395  1.00  0.00     0.000 C 
BRANCH  17  18
ATOM     18  C   UNL     1      -5.521   6.695   3.883  1.00  0.00     0.000 C 
BRANCH  18  19
ATOM     19  C   UNL     1      -5.551   6.725   2.350  1.00  0.00     0.000 C 
BRANCH  19  20
ATOM     20  C   UNL     1      -6.940   6.334   1.821  1.00  0.00     0.006 C 
BRANCH  20  21
ATOM     21  C   UNL     1      -7.852   5.789   2.928  1.00  0.00     0.053 C 
BRANCH  21  22
ATOM     22  C   UNL     1      -9.235   5.513   2.425  1.00  0.00     0.041 C 
ATOM     23  O   UNL     1     -10.064   4.901   3.149  1.00  0.00    -0.550 OA
ATOM     24  O   UNL     1      -9.619   5.954   1.163  1.00  0.00    -0.550 OA
ENDBRANCH  21  22
ENDBRANCH  20  21
ENDBRANCH  19  20
ENDBRANCH  18  19
ENDBRANCH  17  18
ENDBRANCH  16  17
ENDBRANCH  15  16
ENDBRANCH  14  15
ENDBRANCH  13  14
ENDBRANCH   1  13
TORSDOF 20
ENDMDL
MODEL 2
REMARK VINA RESULT:    -7.116      3.462      9.381
REMARK INTER + INTRA:         -17.028
REMARK INTER:                 -14.957
REMARK INTRA:                  -2.071
REMARK UNBOUND:                -1.592
REMARK SMILES CCCCCCCCCCCCCCCCCCCCCC(=O)[O-]
REMARK SMILES IDX 12 1 11 2 10 3 9 4 8 5 7 6 6 7 5 8 4 9 3 10 2 11 1 12 13 13
REMARK SMILES IDX 14 14 15 15 16 16 17 17 18 18 19 19 20 20 21 21 22 22 23 23
REMARK SMILES IDX 24 24
REMARK H PARENT
REMARK Flexibility Score: inf
ROOT
ATOM      1  C   UNL     1      -3.953   1.228   2.814  1.00  0.00     0.000 C 
ENDROOT
BRANCH   1   2
ATOM      2  C   UNL     1      -4.457   2.204   3.890  1.00  0.00     0.000 C 
BRANCH   2   3
ATOM      3  C   UNL     1      -3.353   2.601   4.887  1.00  0.00     0.000 C 
BRANCH   3   4
ATOM      4  C   UNL     1      -3.486   4.056   5.367  1.00  0.00    -0.000 C 
BRANCH   4   5
ATOM      5  C   UNL     1      -4.778   4.728   4.878  1.00  0.00    -0.000 C 
BRANCH   5   6
ATOM      6  C   UNL     1      -4.486   6.121   4.306  1.00  0.00    -0.000 C 
BRANCH   6   7
ATOM      7  C   UNL     1      -5.659   6.623   3.450  1.00  0.00    -0.000 C 
BRANCH   7   8
ATOM      8  C   UNL     1      -6.558   5.471   2.954  1.00  0.00    -0.000 C 
BRANCH   8   9
ATOM      9  C   UNL     1      -7.767   5.941   2.121  1.00  0.00    -0.000 C 
BRANCH   9  10
ATOM     10  C   UNL     1      -9.113   5.922   2.865  1.00  0.00    -0.000 C 
BRANCH  10  11
ATOM     11  C   UNL     1     -10.267   5.409   1.990  1.00  0.00    -0.003 C 
ATOM     12  C   UNL     1     -10.146   5.933   0.561  1.00  0.00     0.004 C 
ENDBRANCH  10  11
ENDBRANCH   9  10
ENDBRANCH   8   9
ENDBRANCH   7   8
ENDBRANCH   6   7
ENDBRANCH   5   6
ENDBRANCH   4   5
ENDBRANCH   3   4
ENDBRANCH   2   3
ENDBRANCH   1   2
BRANCH   1  13
ATOM     13  C   UNL     1      -5.069   0.306   2.295  1.00  0.00     0.000 C 
BRANCH  13  14
ATOM     14  C   UNL     1      -6.266   0.226   3.257  1.00  0.00     0.000 C 
BRANCH  14  15
ATOM     15  C   UNL     1      -6.618  -1.221   3.647  1.00  0.00     0.000 C 
BRANCH  15  16
ATOM     16  C   UNL     1      -6.117  -1.592   5.051  1.00  0.00     0.000 C 
BRANCH  16  17
ATOM     17  C   UNL     1      -4.729  -2.250   5.029  1.00  0.00     0.000 C 
BRANCH  17  18
ATOM     18  C   UNL     1      -3.685  -1.347   5.698  1.00  0.00     0.000 C 
BRANCH  18  19
ATOM     19  C   UNL     1      -2.725  -2.165   6.570  1.00  0.00     0.000 C 
BRANCH  19  20
ATOM     20  C   UNL     1      -2.046  -1.275   7.622  1.00  0.00     0.006 C 
BRANCH  20  21
ATOM     21  C   UNL     1      -2.681   0.120   7.702  1.00  0.00     0.053 C 
BRANCH  21  22
ATOM     22  C   UNL     1      -1.981   0.994   8.696  1.00  0.00     0.041 C 
ATOM     23  O   UNL     1      -1.433   0.489   9.711  1.00  0.00    -0.550 OA
ATOM     24  O   UNL     1      -1.912   2.368   8.490  1.00  0.00    -0.550 OA
ENDBRANCH  21  22
ENDBRANCH  20  21
ENDBRANCH  19  20
ENDBRANCH  18  19
ENDBRANCH  17  18
ENDBRANCH  16  17
ENDBRANCH  15  16
ENDBRANCH  14  15
ENDBRANCH  13  14
ENDBRANCH   1  13
TORSDOF 20
ENDMDL
MODEL 3
REMARK VINA RESULT:    -6.959      4.667     10.268
REMARK INTER + INTRA:         -16.686
REMARK INTER:                 -14.738
REMARK INTRA:                  -1.948
REMARK UNBOUND:                -1.592
REMARK SMILES CCCCCCCCCCCCCCCCCCCCCC(=O)[O-]
REMARK SMILES IDX 12 1 11 2 10 3 9 4 8 5 7 6 6 7 5 8 4 9 3 10 2 11 1 12 13 13
REMARK SMILES IDX 14 14 15 15 16 16 17 17 18 18 19 19 20 20 21 21 22 22 23 23
REMARK SMILES IDX 24 24
REMARK H PARENT
REMARK Flexibility Score: inf
ROOT
ATOM      1  C   UNL     1      -6.408   0.066   3.246  1.00  0.00     0.000 C 
ENDROOT
BRANCH   1   2
ATOM      2  C   UNL     1      -5.243   0.193   2.251  1.00  0.00     0.000 C 
BRANCH   2   3
ATOM      3  C   UNL     1      -4.004   0.856   2.878  1.00  0.00     0.000 C 
BRANCH   3   4
ATOM      4  C   UNL     1      -4.365   2.047   3.781  1.00  0.00    -0.000 C 
BRANCH   4   5
ATOM      5  C   UNL     1      -3.292   2.336   4.842  1.00  0.00    -0.000 C 
BRANCH   5   6
ATOM      6  C   UNL     1      -3.450   3.753   5.406  1.00  0.00    -0.000 C 
BRANCH   6   7
ATOM      7  C   UNL     1      -4.715   4.430   4.855  1.00  0.00    -0.000 C 
BRANCH   7   8
ATOM      8  C   UNL     1      -4.448   5.874   4.381  1.00  0.00    -0.000 C 
BRANCH   8   9
ATOM      9  C   UNL     1      -5.707   6.605   3.877  1.00  0.00    -0.000 C 
BRANCH   9  10
ATOM     10  C   UNL     1      -6.601   5.781   2.936  1.00  0.00    -0.000 C 
BRANCH  10  11
ATOM     11  C   UNL     1      -6.777   6.438   1.558  1.00  0.00    -0.003 C 
ATOM     12  C   UNL     1      -5.493   7.135   1.116  1.00  0.00     0.004 C 
ENDBRANCH  10  11
ENDBRANCH   9  10
ENDBRANCH   8   9
ENDBRANCH   7   8
ENDBRANCH   6   7
ENDBRANCH   5   6
ENDBRANCH   4   5
ENDBRANCH   3   4
ENDBRANCH   2   3
ENDBRANCH   1   2
BRANCH   1  13
ATOM     13  C   UNL     1      -6.587  -1.376   3.753  1.00  0.00     0.000 C 
BRANCH  13  14
ATOM     14  C   UNL     1      -5.999  -1.586   5.158  1.00  0.00     0.000 C 
BRANCH  14  15
ATOM     15  C   UNL     1      -4.529  -2.046   5.123  1.00  0.00     0.000 C 
BRANCH  15  16
ATOM     16  C   UNL     1      -3.699  -1.456   6.273  1.00  0.00     0.000 C 
BRANCH  16  17
ATOM     17  C   UNL     1      -2.276  -2.030   6.330  1.00  0.00     0.000 C 
BRANCH  17  18
ATOM     18  C   UNL     1      -2.306  -3.545   6.567  1.00  0.00     0.000 C 
BRANCH  18  19
ATOM     19  C   UNL     1      -2.904  -3.877   7.939  1.00  0.00     0.000 C 
BRANCH  19  20
ATOM     20  C   UNL     1      -3.682  -5.202   7.892  1.00  0.00     0.006 C 
BRANCH  20  21
ATOM     21  C   UNL     1      -3.327  -6.042   6.658  1.00  0.00     0.053 C 
BRANCH  21  22
ATOM     22  C   UNL     1      -3.110  -7.482   7.008  1.00  0.00     0.041 C 
ATOM     23  O   UNL     1      -3.374  -8.385   6.171  1.00  0.00    -0.550 OA
ATOM     24  O   UNL     1      -2.592  -7.826   8.252  1.00  0.00    -0.550 OA
ENDBRANCH  21  22
ENDBRANCH  20  21
ENDBRANCH  19  20
ENDBRANCH  18  19
ENDBRANCH  17  18
ENDBRANCH  16  17
ENDBRANCH  15  16
ENDBRANCH  14  15
ENDBRANCH  13  14
ENDBRANCH   1  13
TORSDOF 20
ENDMDL
MODEL 4
REMARK VINA RESULT:    -6.899      1.915      2.775
REMARK INTER + INTRA:         -16.556
REMARK INTER:                 -14.643
REMARK INTRA:                  -1.913
REMARK UNBOUND:                -1.592
REMARK SMILES CCCCCCCCCCCCCCCCCCCCCC(=O)[O-]
REMARK SMILES IDX 12 1 11 2 10 3 9 4 8 5 7 6 6 7 5 8 4 9 3 10 2 11 1 12 13 13
REMARK SMILES IDX 14 14 15 15 16 16 17 17 18 18 19 19 20 20 21 21 22 22 23 23
REMARK SMILES IDX 24 24
REMARK H PARENT
REMARK Flexibility Score: inf
ROOT
ATOM      1  C   UNL     1      -3.976   0.919   2.966  1.00  0.00     0.000 C 
ENDROOT
BRANCH   1   2
ATOM      2  C   UNL     1      -5.120   0.108   2.334  1.00  0.00     0.000 C 
BRANCH   2   3
ATOM      3  C   UNL     1      -6.373   0.066   3.225  1.00  0.00     0.000 C 
BRANCH   3   4
ATOM      4  C   UNL     1      -6.629  -1.329   3.819  1.00  0.00    -0.000 C 
BRANCH   4   5
ATOM      5  C   UNL     1      -5.867  -1.567   5.131  1.00  0.00    -0.000 C 
BRANCH   5   6
ATOM      6  C   UNL     1      -4.688  -2.522   4.912  1.00  0.00    -0.000 C 
BRANCH   6   7
ATOM      7  C   UNL     1      -3.502  -2.152   5.816  1.00  0.00    -0.000 C 
BRANCH   7   8
ATOM      8  C   UNL     1      -3.654  -0.747   6.436  1.00  0.00    -0.000 C 
BRANCH   8   9
ATOM      9  C   UNL     1      -2.651  -0.457   7.570  1.00  0.00    -0.000 C 
BRANCH   9  10
ATOM     10  C   UNL     1      -2.502   1.029   7.938  1.00  0.00    -0.000 C 
BRANCH  10  11
ATOM     11  C   UNL     1      -1.625   1.248   9.179  1.00  0.00    -0.003 C 
ATOM     12  C   UNL     1      -0.284   0.530   9.036  1.00  0.00     0.004 C 
ENDBRANCH  10  11
ENDBRANCH   9  10
ENDBRANCH   8   9
ENDBRANCH   7   8
ENDBRANCH   6   7
ENDBRANCH   5   6
ENDBRANCH   4   5
ENDBRANCH   3   4
ENDBRANCH   2   3
ENDBRANCH   1   2
BRANCH   1  13
ATOM     13  C   UNL     1      -4.489   2.155   3.725  1.00  0.00     0.000 C 
BRANCH  13  14
ATOM     14  C   UNL     1      -3.392   2.829   4.565  1.00  0.00     0.000 C 
BRANCH  14  15
ATOM     15  C   UNL     1      -3.946   3.931   5.488  1.00  0.00     0.000 C 
BRANCH  15  16
ATOM     16  C   UNL     1      -3.941   5.316   4.822  1.00  0.00     0.000 C 
BRANCH  16  17
ATOM     17  C   UNL     1      -5.351   5.908   4.679  1.00  0.00     0.000 C 
BRANCH  17  18
ATOM     18  C   UNL     1      -6.051   5.360   3.430  1.00  0.00     0.000 C 
BRANCH  18  19
ATOM     19  C   UNL     1      -7.435   5.994   3.249  1.00  0.00     0.000 C 
BRANCH  19  20
ATOM     20  C   UNL     1      -7.930   5.827   1.804  1.00  0.00     0.006 C 
BRANCH  20  21
ATOM     21  C   UNL     1      -9.447   6.026   1.682  1.00  0.00     0.053 C 
BRANCH  21  22
ATOM     22  C   UNL     1     -10.159   5.672   2.951  1.00  0.00     0.041 C 
ATOM     23  O   UNL     1     -10.266   4.469   3.304  1.00  0.00    -0.550 OA
ATOM     24  O   UNL     1     -10.682   6.676   3.759  1.00  0.00    -0.550 OA
ENDBRANCH  21  22
ENDBRANCH  20  21
ENDBRANCH  19  20
ENDBRANCH  18  19
ENDBRANCH  17  18
ENDBRANCH  16  17
ENDBRANCH  15  16
ENDBRANCH  14  15
ENDBRANCH  13  14
ENDBRANCH   1  13
TORSDOF 20
ENDMDL
MODEL 5
REMARK VINA RESULT:    -6.876      4.113      9.954
REMARK INTER + INTRA:         -16.507
REMARK INTER:                 -14.643
REMARK INTRA:                  -1.864
REMARK UNBOUND:                -1.592
REMARK SMILES CCCCCCCCCCCCCCCCCCCCCC(=O)[O-]
REMARK SMILES IDX 12 1 11 2 10 3 9 4 8 5 7 6 6 7 5 8 4 9 3 10 2 11 1 12 13 13
REMARK SMILES IDX 14 14 15 15 16 16 17 17 18 18 19 19 20 20 21 21 22 22 23 23
REMARK SMILES IDX 24 24
REMARK H PARENT
REMARK Flexibility Score: inf
ROOT
ATOM      1  C   UNL     1      -4.258   1.748   4.002  1.00  0.00     0.000 C 
ENDROOT
BRANCH   1   2
ATOM      2  C   UNL     1      -2.995   2.475   4.490  1.00  0.00     0.000 C 
BRANCH   2   3
ATOM      3  C   UNL     1      -3.321   3.754   5.281  1.00  0.00     0.000 C 
BRANCH   3   4
ATOM      4  C   UNL     1      -2.970   5.034   4.505  1.00  0.00    -0.000 C 
BRANCH   4   5
ATOM      5  C   UNL     1      -4.154   6.006   4.393  1.00  0.00    -0.000 C 
BRANCH   5   6
ATOM      6  C   UNL     1      -5.478   5.289   4.682  1.00  0.00    -0.000 C 
BRANCH   6   7
ATOM      7  C   UNL     1      -6.667   6.070   4.101  1.00  0.00    -0.000 C 
BRANCH   7   8
ATOM      8  C   UNL     1      -6.533   6.297   2.580  1.00  0.00    -0.000 C 
BRANCH   8   9
ATOM      9  C   UNL     1      -7.817   5.982   1.790  1.00  0.00    -0.000 C 
BRANCH   9  10
ATOM     10  C   UNL     1      -9.043   5.642   2.654  1.00  0.00    -0.000 C 
BRANCH  10  11
ATOM     11  C   UNL     1     -10.370   5.836   1.905  1.00  0.00    -0.003 C 
ATOM     12  C   UNL     1     -10.146   5.874   0.395  1.00  0.00     0.004 C 
ENDBRANCH  10  11
ENDBRANCH   9  10
ENDBRANCH   8   9
ENDBRANCH   7   8
ENDBRANCH   6   7
ENDBRANCH   5   6
ENDBRANCH   4   5
ENDBRANCH   3   4
ENDBRANCH   2   3
ENDBRANCH   1   2
BRANCH   1  13
ATOM     13  C   UNL     1      -4.025   0.997   2.680  1.00  0.00     0.000 C 
BRANCH  13  14
ATOM     14  C   UNL     1      -5.282   0.262   2.187  1.00  0.00     0.000 C 
BRANCH  14  15
ATOM     15  C   UNL     1      -6.399   0.222   3.246  1.00  0.00     0.000 C 
BRANCH  15  16
ATOM     16  C   UNL     1      -6.693  -1.204   3.738  1.00  0.00     0.000 C 
BRANCH  16  17
ATOM     17  C   UNL     1      -5.952  -1.545   5.040  1.00  0.00     0.000 C 
BRANCH  17  18
ATOM     18  C   UNL     1      -4.738  -2.438   4.759  1.00  0.00     0.000 C 
BRANCH  18  19
ATOM     19  C   UNL     1      -3.452  -1.810   5.308  1.00  0.00     0.000 C 
BRANCH  19  20
ATOM     20  C   UNL     1      -3.177  -2.287   6.743  1.00  0.00     0.006 C 
BRANCH  20  21
ATOM     21  C   UNL     1      -2.088  -3.366   6.799  1.00  0.00     0.053 C 
BRANCH  21  22
ATOM     22  C   UNL     1      -2.595  -4.638   7.408  1.00  0.00     0.041 C 
ATOM     23  O   UNL     1      -2.612  -5.701   6.734  1.00  0.00    -0.550 OA
ATOM     24  O   UNL     1      -3.026  -4.654   8.730  1.00  0.00    -0.550 OA
ENDBRANCH  21  22
ENDBRANCH  20  21
ENDBRANCH  19  20
ENDBRANCH  18  19
ENDBRANCH  17  18
ENDBRANCH  16  17
ENDBRANCH  15  16
ENDBRANCH  14  15
ENDBRANCH  13  14
ENDBRANCH   1  13
TORSDOF 20
ENDMDL
MODEL 6
REMARK VINA RESULT:    -6.868      3.457      9.189
REMARK INTER + INTRA:         -16.491
REMARK INTER:                 -14.710
REMARK INTRA:                  -1.781
REMARK UNBOUND:                -1.592
REMARK SMILES CCCCCCCCCCCCCCCCCCCCCC(=O)[O-]
REMARK SMILES IDX 12 1 11 2 10 3 9 4 8 5 7 6 6 7 5 8 4 9 3 10 2 11 1 12 13 13
REMARK SMILES IDX 14 14 15 15 16 16 17 17 18 18 19 19 20 20 21 21 22 22 23 23
REMARK SMILES IDX 24 24
REMARK H PARENT
REMARK Flexibility Score: inf
ROOT
ATOM      1  C   UNL     1      -5.329   0.249   2.530  1.00  0.00     0.000 C 
ENDROOT
BRANCH   1   2
ATOM      2  C   UNL     1      -5.052   1.583   3.244  1.00  0.00     0.000 C 
BRANCH   2   3
ATOM      3  C   UNL     1      -3.583   1.722   3.682  1.00  0.00     0.000 C 
BRANCH   3   4
ATOM      4  C   UNL     1      -3.437   2.421   5.043  1.00  0.00    -0.000 C 
BRANCH   4   5
ATOM      5  C   UNL     1      -3.269   3.943   4.915  1.00  0.00    -0.000 C 
BRANCH   5   6
ATOM      6  C   UNL     1      -4.417   4.679   5.618  1.00  0.00    -0.000 C 
BRANCH   6   7
ATOM      7  C   UNL     1      -5.133   5.635   4.651  1.00  0.00    -0.000 C 
BRANCH   7   8
ATOM      8  C   UNL     1      -6.168   4.907   3.768  1.00  0.00    -0.000 C 
BRANCH   8   9
ATOM      9  C   UNL     1      -7.252   5.836   3.186  1.00  0.00    -0.000 C 
BRANCH   9  10
ATOM     10  C   UNL     1      -7.003   6.295   1.740  1.00  0.00    -0.000 C 
BRANCH  10  11
ATOM     11  C   UNL     1      -5.759   7.186   1.606  1.00  0.00    -0.003 C 
ATOM     12  C   UNL     1      -5.346   7.334   0.143  1.00  0.00     0.004 C 
ENDBRANCH  10  11
ENDBRANCH   9  10
ENDBRANCH   8   9
ENDBRANCH   7   8
ENDBRANCH   6   7
ENDBRANCH   5   6
ENDBRANCH   4   5
ENDBRANCH   3   4
ENDBRANCH   2   3
ENDBRANCH   1   2
BRANCH   1  13
ATOM     13  C   UNL     1      -6.544  -0.486   3.120  1.00  0.00     0.000 C 
BRANCH  13  14
ATOM     14  C   UNL     1      -6.209  -1.234   4.420  1.00  0.00     0.000 C 
BRANCH  14  15
ATOM     15  C   UNL     1      -4.722  -1.626   4.513  1.00  0.00     0.000 C 
BRANCH  15  16
ATOM     16  C   UNL     1      -4.187  -1.570   5.952  1.00  0.00     0.000 C 
BRANCH  16  17
ATOM     17  C   UNL     1      -2.810  -2.235   6.097  1.00  0.00     0.000 C 
BRANCH  17  18
ATOM     18  C   UNL     1      -2.225  -1.983   7.492  1.00  0.00     0.000 C 
BRANCH  18  19
ATOM     19  C   UNL     1      -2.113  -0.481   7.781  1.00  0.00     0.000 C 
BRANCH  19  20
ATOM     20  C   UNL     1      -1.125  -0.215   8.927  1.00  0.00     0.006 C 
BRANCH  20  21
ATOM     21  C   UNL     1      -0.827   1.280   9.103  1.00  0.00     0.053 C 
BRANCH  21  22
ATOM     22  C   UNL     1      -2.073   2.070   9.361  1.00  0.00     0.041 C 
ATOM     23  O   UNL     1      -2.759   1.853  10.394  1.00  0.00    -0.550 OA
ATOM     24  O   UNL     1      -2.465   3.064   8.471  1.00  0.00    -0.550 OA
ENDBRANCH  21  22
ENDBRANCH  20  21
ENDBRANCH  19  20
ENDBRANCH  18  19
ENDBRANCH  17  18
ENDBRANCH  16  17
ENDBRANCH  15  16
ENDBRANCH  14  15
ENDBRANCH  13  14
ENDBRANCH   1  13
TORSDOF 20
ENDMDL
MODEL 7
REMARK VINA RESULT:    -6.866      1.554      4.484
REMARK INTER + INTRA:         -16.485
REMARK INTER:                 -14.987
REMARK INTRA:                  -1.498
REMARK UNBOUND:                -1.592
REMARK SMILES CCCCCCCCCCCCCCCCCCCCCC(=O)[O-]
REMARK SMILES IDX 12 1 11 2 10 3 9 4 8 5 7 6 6 7 5 8 4 9 3 10 2 11 1 12 13 13
REMARK SMILES IDX 14 14 15 15 16 16 17 17 18 18 19 19 20 20 21 21 22 22 23 23
REMARK SMILES IDX 24 24
REMARK H PARENT
REMARK Flexibility Score: inf
ROOT
ATOM      1  C   UNL     1      -2.997   2.675   8.630  1.00  0.00     0.000 C 
ENDROOT
BRANCH   1   2
ATOM      2  C   UNL     1      -1.844   1.717   8.286  1.00  0.00     0.000 C 
BRANCH   2   3
ATOM      3  C   UNL     1      -1.951   0.376   9.034  1.00  0.00     0.000 C 
BRANCH   3   4
ATOM      4  C   UNL     1      -1.759  -0.835   8.107  1.00  0.00    -0.000 C 
BRANCH   4   5
ATOM      5  C   UNL     1      -2.904  -0.999   7.096  1.00  0.00    -0.000 C 
BRANCH   5   6
ATOM      6  C   UNL     1      -2.914  -2.414   6.506  1.00  0.00    -0.000 C 
BRANCH   6   7
ATOM      7  C   UNL     1      -4.093  -2.601   5.538  1.00  0.00    -0.000 C 
BRANCH   7   8
ATOM      8  C   UNL     1      -4.460  -1.295   4.804  1.00  0.00    -0.000 C 
BRANCH   8   9
ATOM      9  C   UNL     1      -5.966  -1.148   4.513  1.00  0.00    -0.000 C 
BRANCH   9  10
ATOM     10  C   UNL     1      -6.305  -0.473   3.174  1.00  0.00    -0.000 C 
BRANCH  10  11
ATOM     11  C   UNL     1      -5.070   0.115   2.476  1.00  0.00    -0.003 C 
ATOM     12  C   UNL     1      -4.743   1.504   3.019  1.00  0.00     0.004 C 
ENDBRANCH  10  11
ENDBRANCH   9  10
ENDBRANCH   8   9
ENDBRANCH   7   8
ENDBRANCH   6   7
ENDBRANCH   5   6
ENDBRANCH   4   5
ENDBRANCH   3   4
ENDBRANCH   2   3
ENDBRANCH   1   2
BRANCH   1  13
ATOM     13  C   UNL     1      -3.559   3.381   7.384  1.00  0.00     0.000 C 
BRANCH  13  14
ATOM     14  C   UNL     1      -2.807   3.000   6.099  1.00  0.00     0.000 C 
BRANCH  14  15
ATOM     15  C   UNL     1      -3.070   3.985   4.944  1.00  0.00     0.000 C 
BRANCH  15  16
ATOM     16  C   UNL     1      -4.279   4.895   5.209  1.00  0.00     0.000 C 
BRANCH  16  17
ATOM     17  C   UNL     1      -4.281   6.148   4.320  1.00  0.00     0.000 C 
BRANCH  17  18
ATOM     18  C   UNL     1      -5.701   6.477   3.844  1.00  0.00     0.000 C 
BRANCH  18  19
ATOM     19  C   UNL     1      -5.733   6.726   2.331  1.00  0.00     0.000 C 
BRANCH  19  20
ATOM     20  C   UNL     1      -7.095   6.331   1.739  1.00  0.00     0.006 C 
BRANCH  20  21
ATOM     21  C   UNL     1      -7.969   5.572   2.746  1.00  0.00     0.053 C 
BRANCH  21  22
ATOM     22  C   UNL     1      -9.399   5.507   2.303  1.00  0.00     0.041 C 
ATOM     23  O   UNL     1      -9.756   6.054   1.227  1.00  0.00    -0.550 OA
ATOM     24  O   UNL     1     -10.334   4.818   3.068  1.00  0.00    -0.550 OA
ENDBRANCH  21  22
ENDBRANCH  20  21
ENDBRANCH  19  20
ENDBRANCH  18  19
ENDBRANCH  17  18
ENDBRANCH  16  17
ENDBRANCH  15  16
ENDBRANCH  14  15
ENDBRANCH  13  14
ENDBRANCH   1  13
TORSDOF 20
ENDMDL
MODEL 8
REMARK VINA RESULT:    -6.787      3.828      9.668
REMARK INTER + INTRA:         -16.314
REMARK INTER:                 -14.493
REMARK INTRA:                  -1.821
REMARK UNBOUND:                -1.592
REMARK SMILES CCCCCCCCCCCCCCCCCCCCCC(=O)[O-]
REMARK SMILES IDX 12 1 11 2 10 3 9 4 8 5 7 6 6 7 5 8 4 9 3 10 2 11 1 12 13 13
REMARK SMILES IDX 14 14 15 15 16 16 17 17 18 18 19 19 20 20 21 21 22 22 23 23
REMARK SMILES IDX 24 24
REMARK H PARENT
REMARK Flexibility Score: inf
ROOT
ATOM      1  C   UNL     1      -3.744   3.793   4.729  1.00  0.00     0.000 C 
ENDROOT
BRANCH   1   2
ATOM      2  C   UNL     1      -4.778   4.669   5.455  1.00  0.00     0.000 C 
BRANCH   2   3
ATOM      3  C   UNL     1      -4.991   6.026   4.761  1.00  0.00     0.000 C 
BRANCH   3   4
ATOM      4  C   UNL     1      -6.170   6.005   3.775  1.00  0.00    -0.000 C 
BRANCH   4   5
ATOM      5  C   UNL     1      -5.827   6.647   2.422  1.00  0.00    -0.000 C 
BRANCH   5   6
ATOM      6  C   UNL     1      -6.920   6.359   1.387  1.00  0.00    -0.000 C 
BRANCH   6   7
ATOM      7  C   UNL     1      -8.207   5.865   2.066  1.00  0.00    -0.000 C 
BRANCH   7   8
ATOM      8  C   UNL     1      -9.423   5.907   1.117  1.00  0.00    -0.000 C 
BRANCH   8   9
ATOM      9  C   UNL     1     -10.756   6.211   1.828  1.00  0.00    -0.000 C 
BRANCH   9  10
ATOM     10  C   UNL     1     -10.891   5.607   3.236  1.00  0.00    -0.000 C 
BRANCH  10  11
ATOM     11  C   UNL     1     -11.013   6.677   4.332  1.00  0.00    -0.003 C 
ATOM     12  C   UNL     1      -9.843   6.595   5.310  1.00  0.00     0.004 C 
ENDBRANCH  10  11
ENDBRANCH   9  10
ENDBRANCH   8   9
ENDBRANCH   7   8
ENDBRANCH   6   7
ENDBRANCH   5   6
ENDBRANCH   4   5
ENDBRANCH   3   4
ENDBRANCH   2   3
ENDBRANCH   1   2
BRANCH   1  13
ATOM     13  C   UNL     1      -4.401   2.818   3.736  1.00  0.00     0.000 C 
BRANCH  13  14
ATOM     14  C   UNL     1      -3.991   1.358   3.984  1.00  0.00     0.000 C 
BRANCH  14  15
ATOM     15  C   UNL     1      -4.132   0.480   2.725  1.00  0.00     0.000 C 
BRANCH  15  16
ATOM     16  C   UNL     1      -5.570   0.454   2.184  1.00  0.00     0.000 C 
BRANCH  16  17
ATOM     17  C   UNL     1      -6.600   0.075   3.258  1.00  0.00     0.000 C 
BRANCH  17  18
ATOM     18  C   UNL     1      -6.457  -1.400   3.655  1.00  0.00     0.000 C 
BRANCH  18  19
ATOM     19  C   UNL     1      -6.040  -1.538   5.124  1.00  0.00     0.000 C 
BRANCH  19  20
ATOM     20  C   UNL     1      -4.665  -2.214   5.242  1.00  0.00     0.006 C 
BRANCH  20  21
ATOM     21  C   UNL     1      -3.736  -1.478   6.216  1.00  0.00     0.053 C 
BRANCH  21  22
ATOM     22  C   UNL     1      -2.741  -2.404   6.845  1.00  0.00     0.041 C 
ATOM     23  O   UNL     1      -1.738  -1.942   7.450  1.00  0.00    -0.550 OA
ATOM     24  O   UNL     1      -2.936  -3.780   6.786  1.00  0.00    -0.550 OA
ENDBRANCH  21  22
ENDBRANCH  20  21
ENDBRANCH  19  20
ENDBRANCH  18  19
ENDBRANCH  17  18
ENDBRANCH  16  17
ENDBRANCH  15  16
ENDBRANCH  14  15
ENDBRANCH  13  14
ENDBRANCH   1  13
TORSDOF 20
ENDMDL
MODEL 9
REMARK VINA RESULT:    -6.752      4.634     10.512
REMARK INTER + INTRA:         -16.238
REMARK INTER:                 -14.872
REMARK INTRA:                  -1.366
REMARK UNBOUND:                -1.592
REMARK SMILES CCCCCCCCCCCCCCCCCCCCCC(=O)[O-]
REMARK SMILES IDX 12 1 11 2 10 3 9 4 8 5 7 6 6 7 5 8 4 9 3 10 2 11 1 12 13 13
REMARK SMILES IDX 14 14 15 15 16 16 17 17 18 18 19 19 20 20 21 21 22 22 23 23
REMARK SMILES IDX 24 24
REMARK H PARENT
REMARK Flexibility Score: inf
ROOT
ATOM      1  C   UNL     1      -4.863   0.995   2.532  1.00  0.00     0.000 C 
ENDROOT
BRANCH   1   2
ATOM      2  C   UNL     1      -4.746   2.310   3.322  1.00  0.00     0.000 C 
BRANCH   2   3
ATOM      3  C   UNL     1      -3.639   2.258   4.389  1.00  0.00     0.000 C 
BRANCH   3   4
ATOM      4  C   UNL     1      -3.167   3.657   4.819  1.00  0.00    -0.000 C 
BRANCH   4   5
ATOM      5  C   UNL     1      -4.304   4.519   5.388  1.00  0.00    -0.000 C 
BRANCH   5   6
ATOM      6  C   UNL     1      -4.562   5.740   4.496  1.00  0.00    -0.000 C 
BRANCH   6   7
ATOM      7  C   UNL     1      -5.986   5.712   3.920  1.00  0.00    -0.000 C 
BRANCH   7   8
ATOM      8  C   UNL     1      -6.067   6.372   2.527  1.00  0.00    -0.000 C 
BRANCH   8   9
ATOM      9  C   UNL     1      -7.448   6.240   1.857  1.00  0.00    -0.000 C 
BRANCH   9  10
ATOM     10  C   UNL     1      -8.542   5.621   2.743  1.00  0.00    -0.000 C 
BRANCH  10  11
ATOM     11  C   UNL     1      -9.940   5.719   2.116  1.00  0.00    -0.003 C 
ATOM     12  C   UNL     1      -9.850   5.971   0.612  1.00  0.00     0.004 C 
ENDBRANCH  10  11
ENDBRANCH   9  10
ENDBRANCH   8   9
ENDBRANCH   7   8
ENDBRANCH   6   7
ENDBRANCH   5   6
ENDBRANCH   4   5
ENDBRANCH   3   4
ENDBRANCH   2   3
ENDBRANCH   1   2
BRANCH   1  13
ATOM     13  C   UNL     1      -4.660  -0.241   3.425  1.00  0.00     0.000 C 
BRANCH  13  14
ATOM     14  C   UNL     1      -5.988  -0.866   3.881  1.00  0.00     0.000 C 
BRANCH  14  15
ATOM     15  C   UNL     1      -5.814  -1.825   5.074  1.00  0.00     0.000 C 
BRANCH  15  16
ATOM     16  C   UNL     1      -4.412  -2.451   5.127  1.00  0.00     0.000 C 
BRANCH  16  17
ATOM     17  C   UNL     1      -3.651  -2.089   6.411  1.00  0.00     0.000 C 
BRANCH  17  18
ATOM     18  C   UNL     1      -2.252  -2.717   6.413  1.00  0.00     0.000 C 
BRANCH  18  19
ATOM     19  C   UNL     1      -2.123  -3.773   7.517  1.00  0.00     0.000 C 
BRANCH  19  20
ATOM     20  C   UNL     1      -3.383  -4.651   7.586  1.00  0.00     0.006 C 
BRANCH  20  21
ATOM     21  C   UNL     1      -3.364  -5.778   6.545  1.00  0.00     0.053 C 
BRANCH  21  22
ATOM     22  C   UNL     1      -3.118  -7.115   7.175  1.00  0.00     0.041 C 
ATOM     23  O   UNL     1      -2.853  -7.198   8.403  1.00  0.00    -0.550 OA
ATOM     24  O   UNL     1      -3.207  -8.273   6.410  1.00  0.00    -0.550 OA
ENDBRANCH  21  22
ENDBRANCH  20  21
ENDBRANCH  19  20
ENDBRANCH  18  19
ENDBRANCH  17  18
ENDBRANCH  16  17
ENDBRANCH  15  16
ENDBRANCH  14  15
ENDBRANCH  13  14
ENDBRANCH   1  13
TORSDOF 20
ENDMDL
