MODEL 1
REMARK VINA RESULT:    -7.868      0.000      0.000
REMARK INTER + INTRA:          -9.743
REMARK INTER:                  -9.478
REMARK INTRA:                  -0.265
REMARK UNBOUND:                -0.265
REMARK SMILES O=c1c(O)c(-c2ccc(O)c(O)c2)oc2cc(O)cc(O)c12
REMARK SMILES IDX 5 1 3 2 2 3 1 4 22 5 20 6 19 7 17 8 16 9 15 10 14 11 6 12
REMARK SMILES IDX 7 13 8 14 9 15 13 16 11 17 10 18 12 20 4 22 21 24 18 26
REMARK H PARENT 10 19 12 21 4 23 21 25 18 27
REMARK Flexibility Score: inf
ROOT
ATOM      1  C   UNL     1      31.419  -0.249   9.544  1.00  0.00     0.180 A 
ATOM      2  C   UNL     1      31.111  -1.390  10.304  1.00  0.00     0.208 A 
ATOM      3  C   UNL     1      31.772  -1.594  11.525  1.00  0.00     0.238 A 
ATOM      4  O   UNL     1      31.546  -2.654  12.165  1.00  0.00    -0.285 OA
ATOM      5  C   UNL     1      32.693  -0.626  12.000  1.00  0.00     0.111 A 
ATOM      6  C   UNL     1      33.388  -0.708  13.245  1.00  0.00     0.134 A 
ATOM      7  C   UNL     1      34.354   0.256  13.560  1.00  0.00     0.093 A 
ATOM      8  C   UNL     1      34.606   1.330  12.708  1.00  0.00     0.123 A 
ATOM      9  C   UNL     1      33.893   1.449  11.515  1.00  0.00     0.094 A 
ATOM     10  C   UNL     1      32.950   0.484  11.153  1.00  0.00     0.146 A 
ATOM     11  O   UNL     1      32.310   0.624   9.998  1.00  0.00    -0.452 OA
ENDROOT
BRANCH   1  12
ATOM     12  C   UNL     1      30.775   0.027   8.240  1.00  0.00     0.025 A 
ATOM     13  C   UNL     1      31.166  -0.707   7.109  1.00  0.00     0.016 A 
ATOM     14  C   UNL     1      30.556  -0.479   5.873  1.00  0.00     0.051 A 
ATOM     15  C   UNL     1      29.539   0.472   5.750  1.00  0.00     0.157 A 
ATOM     16  C   UNL     1      29.737   0.968   8.120  1.00  0.00     0.062 A 
ATOM     17  C   UNL     1      29.122   1.197   6.880  1.00  0.00     0.158 A 
BRANCH  15  18
ATOM     18  O   UNL     1      28.951   0.680   4.502  1.00  0.00    -0.504 OA
ATOM     19  H   UNL     1      28.312   1.446   4.330  1.00  0.00     0.293 HD
ENDBRANCH  15  18
BRANCH  17  20
ATOM     20  O   UNL     1      28.099   2.136   6.768  1.00  0.00    -0.504 OA
ATOM     21  H   UNL     1      27.689   2.575   7.584  1.00  0.00     0.293 HD
ENDBRANCH  17  20
ENDBRANCH   1  12
BRANCH   2  22
ATOM     22  O   UNL     1      30.144  -2.294   9.856  1.00  0.00    -0.502 OA
ATOM     23  H   UNL     1      29.650  -2.917  10.483  1.00  0.00     0.293 HD
ENDBRANCH   2  22
BRANCH   6  24
ATOM     24  O   UNL     1      33.151  -1.691  14.211  1.00  0.00    -0.507 OA
ATOM     25  H   UNL     1      33.783  -2.441  14.439  1.00  0.00     0.293 HD
ENDBRANCH   6  24
BRANCH   8  26
ATOM     26  O   UNL     1      35.562   2.278  13.062  1.00  0.00    -0.508 OA
ATOM     27  H   UNL     1      35.865   2.392  14.022  1.00  0.00     0.293 HD
ENDBRANCH   8  26
TORSDOF 6
ENDMDL
MODEL 2
REMARK VINA RESULT:    -7.428      1.640      1.926
REMARK INTER + INTRA:          -9.213
REMARK INTER:                  -9.063
REMARK INTRA:                  -0.150
REMARK UNBOUND:                -0.265
REMARK SMILES O=c1c(O)c(-c2ccc(O)c(O)c2)oc2cc(O)cc(O)c12
REMARK SMILES IDX 5 1 3 2 2 3 1 4 22 5 20 6 19 7 17 8 16 9 15 10 14 11 6 12
REMARK SMILES IDX 7 13 8 14 9 15 13 16 11 17 10 18 12 20 4 22 21 24 18 26
REMARK H PARENT 10 19 12 21 4 23 21 25 18 27
REMARK Flexibility Score: inf
ROOT
ATOM      1  C   UNL     1      32.399  -0.014  10.249  1.00  0.00     0.180 A 
ATOM      2  C   UNL     1      31.712  -0.052  11.474  1.00  0.00     0.208 A 
ATOM      3  C   UNL     1      32.437   0.094  12.667  1.00  0.00     0.238 A 
ATOM      4  O   UNL     1      31.826  -0.015  13.762  1.00  0.00    -0.285 OA
ATOM      5  C   UNL     1      33.833   0.333  12.619  1.00  0.00     0.111 A 
ATOM      6  C   UNL     1      34.662   0.540  13.764  1.00  0.00     0.134 A 
ATOM      7  C   UNL     1      36.047   0.662  13.601  1.00  0.00     0.093 A 
ATOM      8  C   UNL     1      36.627   0.646  12.333  1.00  0.00     0.123 A 
ATOM      9  C   UNL     1      35.821   0.500  11.204  1.00  0.00     0.094 A 
ATOM     10  C   UNL     1      34.440   0.338  11.336  1.00  0.00     0.146 A 
ATOM     11  O   UNL     1      33.713   0.179  10.237  1.00  0.00    -0.452 OA
ENDROOT
BRANCH   1  12
ATOM     12  C   UNL     1      31.706  -0.175   8.951  1.00  0.00     0.025 A 
ATOM     13  C   UNL     1      31.974  -1.304   8.161  1.00  0.00     0.016 A 
ATOM     14  C   UNL     1      31.315  -1.488   6.943  1.00  0.00     0.051 A 
ATOM     15  C   UNL     1      30.370  -0.556   6.502  1.00  0.00     0.157 A 
ATOM     16  C   UNL     1      30.740   0.750   8.516  1.00  0.00     0.062 A 
ATOM     17  C   UNL     1      30.076   0.566   7.294  1.00  0.00     0.158 A 
BRANCH  15  18
ATOM     18  O   UNL     1      29.731  -0.766   5.280  1.00  0.00    -0.504 OA
ATOM     19  H   UNL     1      29.111  -1.552   5.126  1.00  0.00     0.293 HD
ENDBRANCH  15  18
BRANCH  17  20
ATOM     20  O   UNL     1      29.124   1.491   6.868  1.00  0.00    -0.504 OA
ATOM     21  H   UNL     1      28.191   1.204   6.595  1.00  0.00     0.293 HD
ENDBRANCH  17  20
ENDBRANCH   1  12
BRANCH   2  22
ATOM     22  O   UNL     1      30.323  -0.211  11.497  1.00  0.00    -0.502 OA
ATOM     23  H   UNL     1      29.696   0.524  11.800  1.00  0.00     0.293 HD
ENDBRANCH   2  22
BRANCH   6  24
ATOM     24  O   UNL     1      34.176   0.661  15.070  1.00  0.00    -0.507 OA
ATOM     25  H   UNL     1      33.612  -0.028  15.543  1.00  0.00     0.293 HD
ENDBRANCH   6  24
BRANCH   8  26
ATOM     26  O   UNL     1      38.007   0.786  12.208  1.00  0.00    -0.508 OA
ATOM     27  H   UNL     1      38.434   1.686  12.021  1.00  0.00     0.293 HD
ENDBRANCH   8  26
TORSDOF 6
ENDMDL
MODEL 3
REMARK VINA RESULT:    -7.291      1.721      6.873
REMARK INTER + INTRA:          -9.047
REMARK INTER:                  -8.739
REMARK INTRA:                  -0.308
REMARK UNBOUND:                -0.265
REMARK SMILES O=c1c(O)c(-c2ccc(O)c(O)c2)oc2cc(O)cc(O)c12
REMARK SMILES IDX 5 1 3 2 2 3 1 4 22 5 20 6 19 7 17 8 16 9 15 10 14 11 6 12
REMARK SMILES IDX 7 13 8 14 9 15 13 16 11 17 10 18 12 20 4 22 21 24 18 26
REMARK H PARENT 10 19 12 21 4 23 21 25 18 27
REMARK Flexibility Score: inf
ROOT
ATOM      1  C   UNL     1      31.953  -0.324  10.416  1.00  0.00     0.180 A 
ATOM      2  C   UNL     1      32.671  -1.238   9.623  1.00  0.00     0.208 A 
ATOM      3  C   UNL     1      32.358  -1.348   8.259  1.00  0.00     0.238 A 
ATOM      4  O   UNL     1      32.953  -2.219   7.572  1.00  0.00    -0.285 OA
ATOM      5  C   UNL     1      31.371  -0.505   7.691  1.00  0.00     0.111 A 
ATOM      6  C   UNL     1      31.004  -0.500   6.310  1.00  0.00     0.134 A 
ATOM      7  C   UNL     1      29.940   0.302   5.882  1.00  0.00     0.093 A 
ATOM      8  C   UNL     1      29.271   1.146   6.769  1.00  0.00     0.123 A 
ATOM      9  C   UNL     1      29.658   1.189   8.108  1.00  0.00     0.094 A 
ATOM     10  C   UNL     1      30.690   0.373   8.574  1.00  0.00     0.146 A 
ATOM     11  O   UNL     1      31.011   0.429   9.861  1.00  0.00    -0.452 OA
ENDROOT
BRANCH   1  12
ATOM     12  C   UNL     1      32.216  -0.162  11.863  1.00  0.00     0.025 A 
ATOM     13  C   UNL     1      31.442  -0.880  12.789  1.00  0.00     0.016 A 
ATOM     14  C   UNL     1      31.686  -0.758  14.159  1.00  0.00     0.051 A 
ATOM     15  C   UNL     1      32.713   0.068  14.624  1.00  0.00     0.157 A 
ATOM     16  C   UNL     1      33.262   0.652  12.332  1.00  0.00     0.062 A 
ATOM     17  C   UNL     1      33.510   0.774  13.707  1.00  0.00     0.158 A 
BRANCH  15  18
ATOM     18  O   UNL     1      32.931   0.171  15.999  1.00  0.00    -0.504 OA
ATOM     19  H   UNL     1      33.863   0.175  16.396  1.00  0.00     0.293 HD
ENDBRANCH  15  18
BRANCH  17  20
ATOM     20  O   UNL     1      34.545   1.588  14.164  1.00  0.00    -0.504 OA
ATOM     21  H   UNL     1      35.463   1.213  14.371  1.00  0.00     0.293 HD
ENDBRANCH  17  20
ENDBRANCH   1  12
BRANCH   2  22
ATOM     22  O   UNL     1      33.694  -2.006  10.186  1.00  0.00    -0.502 OA
ATOM     23  H   UNL     1      34.515  -1.591  10.611  1.00  0.00     0.293 HD
ENDBRANCH   2  22
BRANCH   6  24
ATOM     24  O   UNL     1      31.664  -1.238   5.322  1.00  0.00    -0.507 OA
ATOM     25  H   UNL     1      32.394  -0.882   4.726  1.00  0.00     0.293 HD
ENDBRANCH   6  24
BRANCH   8  26
ATOM     26  O   UNL     1      28.228   1.942   6.304  1.00  0.00    -0.508 OA
ATOM     27  H   UNL     1      27.406   1.539   5.869  1.00  0.00     0.293 HD
ENDBRANCH   8  26
TORSDOF 6
ENDMDL
MODEL 4
REMARK VINA RESULT:    -7.285      2.659      7.449
REMARK INTER + INTRA:          -9.041
REMARK INTER:                  -8.734
REMARK INTRA:                  -0.307
REMARK UNBOUND:                -0.265
REMARK SMILES O=c1c(O)c(-c2ccc(O)c(O)c2)oc2cc(O)cc(O)c12
REMARK SMILES IDX 5 1 3 2 2 3 1 4 22 5 20 6 19 7 17 8 16 9 15 10 14 11 6 12
REMARK SMILES IDX 7 13 8 14 9 15 13 16 11 17 10 18 12 20 4 22 21 24 18 26
REMARK H PARENT 10 19 12 21 4 23 21 25 18 27
REMARK Flexibility Score: inf
ROOT
ATOM      1  C   UNL     1      34.125  -0.546  11.737  1.00  0.00     0.180 A 
ATOM      2  C   UNL     1      34.855  -1.143  10.694  1.00  0.00     0.208 A 
ATOM      3  C   UNL     1      34.161  -1.675   9.596  1.00  0.00     0.238 A 
ATOM      4  O   UNL     1      34.815  -2.273   8.701  1.00  0.00    -0.285 OA
ATOM      5  C   UNL     1      32.751  -1.556   9.525  1.00  0.00     0.111 A 
ATOM      6  C   UNL     1      31.949  -2.019   8.438  1.00  0.00     0.134 A 
ATOM      7  C   UNL     1      30.554  -1.942   8.527  1.00  0.00     0.093 A 
ATOM      8  C   UNL     1      29.934  -1.362   9.633  1.00  0.00     0.123 A 
ATOM      9  C   UNL     1      30.709  -0.855  10.676  1.00  0.00     0.094 A 
ATOM     10  C   UNL     1      32.102  -0.952  10.635  1.00  0.00     0.146 A 
ATOM     11  O   UNL     1      32.801  -0.478  11.659  1.00  0.00    -0.452 OA
ENDROOT
BRANCH   1  12
ATOM     12  C   UNL     1      34.783   0.024  12.933  1.00  0.00     0.025 A 
ATOM     13  C   UNL     1      35.303   1.327  12.880  1.00  0.00     0.016 A 
ATOM     14  C   UNL     1      35.909   1.894  14.003  1.00  0.00     0.051 A 
ATOM     15  C   UNL     1      35.993   1.176  15.200  1.00  0.00     0.157 A 
ATOM     16  C   UNL     1      34.849  -0.689  14.144  1.00  0.00     0.062 A 
ATOM     17  C   UNL     1      35.456  -0.120  15.274  1.00  0.00     0.158 A 
BRANCH  15  18
ATOM     18  O   UNL     1      36.606   1.767  16.304  1.00  0.00    -0.504 OA
ATOM     19  H   UNL     1      36.647   1.308  17.206  1.00  0.00     0.293 HD
ENDBRANCH  15  18
BRANCH  17  20
ATOM     20  O   UNL     1      35.523  -0.837  16.468  1.00  0.00    -0.504 OA
ATOM     21  H   UNL     1      35.711  -0.378  17.352  1.00  0.00     0.293 HD
ENDBRANCH  17  20
ENDBRANCH   1  12
BRANCH   2  22
ATOM     22  O   UNL     1      36.251  -1.182  10.745  1.00  0.00    -0.502 OA
ATOM     23  H   UNL     1      36.760  -1.313  11.610  1.00  0.00     0.293 HD
ENDBRANCH   2  22
BRANCH   6  24
ATOM     24  O   UNL     1      32.469  -2.536   7.247  1.00  0.00    -0.507 OA
ATOM     25  H   UNL     1      33.449  -2.588   7.019  1.00  0.00     0.293 HD
ENDBRANCH   6  24
BRANCH   8  26
ATOM     26  O   UNL     1      28.544  -1.287   9.680  1.00  0.00    -0.508 OA
ATOM     27  H   UNL     1      27.960  -1.952   9.185  1.00  0.00     0.293 HD
ENDBRANCH   8  26
TORSDOF 6
ENDMDL
MODEL 5
REMARK VINA RESULT:    -7.251      2.954      7.723
REMARK INTER + INTRA:          -8.999
REMARK INTER:                  -8.782
REMARK INTRA:                  -0.217
REMARK UNBOUND:                -0.265
REMARK SMILES O=c1c(O)c(-c2ccc(O)c(O)c2)oc2cc(O)cc(O)c12
REMARK SMILES IDX 5 1 3 2 2 3 1 4 22 5 20 6 19 7 17 8 16 9 15 10 14 11 6 12
REMARK SMILES IDX 7 13 8 14 9 15 13 16 11 17 10 18 12 20 4 22 21 24 18 26
REMARK H PARENT 10 19 12 21 4 23 21 25 18 27
REMARK Flexibility Score: inf
ROOT
ATOM      1  C   UNL     1      32.644  -0.828  13.648  1.00  0.00     0.180 A 
ATOM      2  C   UNL     1      33.761  -1.264  12.915  1.00  0.00     0.208 A 
ATOM      3  C   UNL     1      33.582  -1.687  11.588  1.00  0.00     0.238 A 
ATOM      4  O   UNL     1      34.573  -2.146  10.963  1.00  0.00    -0.285 OA
ATOM      5  C   UNL     1      32.299  -1.617  10.992  1.00  0.00     0.111 A 
ATOM      6  C   UNL     1      32.011  -1.978   9.640  1.00  0.00     0.134 A 
ATOM      7  C   UNL     1      30.684  -1.967   9.191  1.00  0.00     0.093 A 
ATOM      8  C   UNL     1      29.645  -1.550  10.022  1.00  0.00     0.123 A 
ATOM      9  C   UNL     1      29.923  -1.143  11.327  1.00  0.00     0.094 A 
ATOM     10  C   UNL     1      31.230  -1.178  11.817  1.00  0.00     0.146 A 
ATOM     11  O   UNL     1      31.448  -0.803  13.072  1.00  0.00    -0.452 OA
ENDROOT
BRANCH   1  12
ATOM     12  C   UNL     1      32.750  -0.380  15.054  1.00  0.00     0.025 A 
ATOM     13  C   UNL     1      32.249  -1.200  16.079  1.00  0.00     0.016 A 
ATOM     14  C   UNL     1      32.357  -0.807  17.415  1.00  0.00     0.051 A 
ATOM     15  C   UNL     1      32.980   0.399  17.750  1.00  0.00     0.157 A 
ATOM     16  C   UNL     1      33.395   0.822  15.395  1.00  0.00     0.062 A 
ATOM     17  C   UNL     1      33.507   1.216  16.736  1.00  0.00     0.158 A 
BRANCH  15  18
ATOM     18  O   UNL     1      33.072   0.764  19.093  1.00  0.00    -0.504 OA
ATOM     19  H   UNL     1      33.833   1.332  19.445  1.00  0.00     0.293 HD
ENDBRANCH  15  18
BRANCH  17  20
ATOM     20  O   UNL     1      34.142   2.413  17.064  1.00  0.00    -0.504 OA
ATOM     21  H   UNL     1      34.433   3.072  16.352  1.00  0.00     0.293 HD
ENDBRANCH  17  20
ENDBRANCH   1  12
BRANCH   2  22
ATOM     22  O   UNL     1      35.032  -1.254  13.496  1.00  0.00    -0.502 OA
ATOM     23  H   UNL     1      35.878  -1.146  12.952  1.00  0.00     0.293 HD
ENDBRANCH   2  22
BRANCH   6  24
ATOM     24  O   UNL     1      32.984  -2.326   8.698  1.00  0.00    -0.507 OA
ATOM     25  H   UNL     1      32.795  -2.721   7.790  1.00  0.00     0.293 HD
ENDBRANCH   6  24
BRANCH   8  26
ATOM     26  O   UNL     1      28.340  -1.537   9.536  1.00  0.00    -0.508 OA
ATOM     27  H   UNL     1      28.109  -1.103   8.650  1.00  0.00     0.293 HD
ENDBRANCH   8  26
TORSDOF 6
ENDMDL
MODEL 6
REMARK VINA RESULT:    -7.153      2.166      4.197
REMARK INTER + INTRA:          -8.881
REMARK INTER:                  -8.612
REMARK INTRA:                  -0.269
REMARK UNBOUND:                -0.265
REMARK SMILES O=c1c(O)c(-c2ccc(O)c(O)c2)oc2cc(O)cc(O)c12
REMARK SMILES IDX 5 1 3 2 2 3 1 4 22 5 20 6 19 7 17 8 16 9 15 10 14 11 6 12
REMARK SMILES IDX 7 13 8 14 9 15 13 16 11 17 10 18 12 20 4 22 21 24 18 26
REMARK H PARENT 10 19 12 21 4 23 21 25 18 27
REMARK Flexibility Score: inf
ROOT
ATOM      1  C   UNL     1      32.614  -0.019  11.654  1.00  0.00     0.180 A 
ATOM      2  C   UNL     1      33.625   0.951  11.769  1.00  0.00     0.208 A 
ATOM      3  C   UNL     1      34.057   1.335  13.048  1.00  0.00     0.238 A 
ATOM      4  O   UNL     1      34.910   2.256  13.145  1.00  0.00    -0.285 OA
ATOM      5  C   UNL     1      33.514   0.706  14.196  1.00  0.00     0.111 A 
ATOM      6  C   UNL     1      33.910   0.985  15.539  1.00  0.00     0.134 A 
ATOM      7  C   UNL     1      33.228   0.377  16.600  1.00  0.00     0.093 A 
ATOM      8  C   UNL     1      32.209  -0.546  16.368  1.00  0.00     0.123 A 
ATOM      9  C   UNL     1      31.852  -0.867  15.058  1.00  0.00     0.094 A 
ATOM     10  C   UNL     1      32.487  -0.249  13.979  1.00  0.00     0.146 A 
ATOM     11  O   UNL     1      32.101  -0.568  12.749  1.00  0.00    -0.452 OA
ENDROOT
BRANCH   1  12
ATOM     12  C   UNL     1      32.096  -0.465  10.342  1.00  0.00     0.025 A 
ATOM     13  C   UNL     1      30.870   0.038   9.877  1.00  0.00     0.016 A 
ATOM     14  C   UNL     1      30.372  -0.352   8.631  1.00  0.00     0.051 A 
ATOM     15  C   UNL     1      31.095  -1.237   7.826  1.00  0.00     0.157 A 
ATOM     16  C   UNL     1      32.831  -1.339   9.521  1.00  0.00     0.062 A 
ATOM     17  C   UNL     1      32.334  -1.730   8.269  1.00  0.00     0.158 A 
BRANCH  15  18
ATOM     18  O   UNL     1      30.571  -1.611   6.588  1.00  0.00    -0.504 OA
ATOM     19  H   UNL     1      30.814  -2.488   6.144  1.00  0.00     0.293 HD
ENDBRANCH  15  18
BRANCH  17  20
ATOM     20  O   UNL     1      33.067  -2.601   7.465  1.00  0.00    -0.504 OA
ATOM     21  H   UNL     1      32.984  -3.607   7.559  1.00  0.00     0.293 HD
ENDBRANCH  17  20
ENDBRANCH   1  12
BRANCH   2  22
ATOM     22  O   UNL     1      34.203   1.504  10.623  1.00  0.00    -0.502 OA
ATOM     23  H   UNL     1      35.205   1.549  10.486  1.00  0.00     0.293 HD
ENDBRANCH   2  22
BRANCH   6  24
ATOM     24  O   UNL     1      34.975   1.824  15.884  1.00  0.00    -0.507 OA
ATOM     25  H   UNL     1      35.467   2.426  15.243  1.00  0.00     0.293 HD
ENDBRANCH   6  24
BRANCH   8  26
ATOM     26  O   UNL     1      31.564  -1.143  17.447  1.00  0.00    -0.508 OA
ATOM     27  H   UNL     1      30.668  -1.604  17.341  1.00  0.00     0.293 HD
ENDBRANCH   8  26
TORSDOF 6
ENDMDL
MODEL 7
REMARK VINA RESULT:    -7.146      2.284      7.148
REMARK INTER + INTRA:          -8.873
REMARK INTER:                  -8.646
REMARK INTRA:                  -0.226
REMARK UNBOUND:                -0.265
REMARK SMILES O=c1c(O)c(-c2ccc(O)c(O)c2)oc2cc(O)cc(O)c12
REMARK SMILES IDX 5 1 3 2 2 3 1 4 22 5 20 6 19 7 17 8 16 9 15 10 14 11 6 12
REMARK SMILES IDX 7 13 8 14 9 15 13 16 11 17 10 18 12 20 4 22 21 24 18 26
REMARK H PARENT 10 19 12 21 4 23 21 25 18 27
REMARK Flexibility Score: inf
ROOT
ATOM      1  C   UNL     1      32.689  -0.225  12.212  1.00  0.00     0.180 A 
ATOM      2  C   UNL     1      31.362  -0.309  12.668  1.00  0.00     0.208 A 
ATOM      3  C   UNL     1      30.347  -0.635  11.754  1.00  0.00     0.238 A 
ATOM      4  O   UNL     1      29.153  -0.636  12.153  1.00  0.00    -0.285 OA
ATOM      5  C   UNL     1      30.677  -0.928  10.408  1.00  0.00     0.111 A 
ATOM      6  C   UNL     1      29.735  -1.313   9.405  1.00  0.00     0.134 A 
ATOM      7  C   UNL     1      30.163  -1.474   8.082  1.00  0.00     0.093 A 
ATOM      8  C   UNL     1      31.505  -1.327   7.735  1.00  0.00     0.123 A 
ATOM      9  C   UNL     1      32.443  -1.005   8.717  1.00  0.00     0.094 A 
ATOM     10  C   UNL     1      32.042  -0.800  10.039  1.00  0.00     0.146 A 
ATOM     11  O   UNL     1      32.963  -0.473  10.937  1.00  0.00    -0.452 OA
ENDROOT
BRANCH   1  12
ATOM     12  C   UNL     1      33.810   0.127  13.111  1.00  0.00     0.025 A 
ATOM     13  C   UNL     1      34.401   1.398  13.013  1.00  0.00     0.016 A 
ATOM     14  C   UNL     1      35.446   1.759  13.866  1.00  0.00     0.051 A 
ATOM     15  C   UNL     1      35.907   0.867  14.839  1.00  0.00     0.157 A 
ATOM     16  C   UNL     1      34.261  -0.761  14.104  1.00  0.00     0.062 A 
ATOM     17  C   UNL     1      35.309  -0.398  14.963  1.00  0.00     0.158 A 
BRANCH  15  18
ATOM     18  O   UNL     1      36.954   1.256  15.675  1.00  0.00    -0.504 OA
ATOM     19  H   UNL     1      37.905   0.942  15.526  1.00  0.00     0.293 HD
ENDBRANCH  15  18
BRANCH  17  20
ATOM     20  O   UNL     1      35.754  -1.288  15.940  1.00  0.00    -0.504 OA
ATOM     21  H   UNL     1      36.637  -1.776  15.850  1.00  0.00     0.293 HD
ENDBRANCH  17  20
ENDBRANCH   1  12
BRANCH   2  22
ATOM     22  O   UNL     1      31.066  -0.092  14.016  1.00  0.00    -0.502 OA
ATOM     23  H   UNL     1      31.783  -0.033  14.728  1.00  0.00     0.293 HD
ENDBRANCH   2  22
BRANCH   6  24
ATOM     24  O   UNL     1      28.385  -1.573   9.659  1.00  0.00    -0.507 OA
ATOM     25  H   UNL     1      27.612  -1.090   9.228  1.00  0.00     0.293 HD
ENDBRANCH   6  24
BRANCH   8  26
ATOM     26  O   UNL     1      31.897  -1.512   6.412  1.00  0.00    -0.508 OA
ATOM     27  H   UNL     1      32.046  -2.438   6.027  1.00  0.00     0.293 HD
ENDBRANCH   8  26
TORSDOF 6
ENDMDL
MODEL 8
REMARK VINA RESULT:    -7.064      1.841      3.097
REMARK INTER + INTRA:          -8.775
REMARK INTER:                  -8.607
REMARK INTRA:                  -0.168
REMARK UNBOUND:                -0.265
REMARK SMILES O=c1c(O)c(-c2ccc(O)c(O)c2)oc2cc(O)cc(O)c12
REMARK SMILES IDX 5 1 3 2 2 3 1 4 22 5 20 6 19 7 17 8 16 9 15 10 14 11 6 12
REMARK SMILES IDX 7 13 8 14 9 15 13 16 11 17 10 18 12 20 4 22 21 24 18 26
REMARK H PARENT 10 19 12 21 4 23 21 25 18 27
REMARK Flexibility Score: inf
ROOT
ATOM      1  C   UNL     1      32.751  -0.447  10.656  1.00  0.00     0.180 A 
ATOM      2  C   UNL     1      34.137  -0.246  10.768  1.00  0.00     0.208 A 
ATOM      3  C   UNL     1      34.718  -0.205  12.046  1.00  0.00     0.238 A 
ATOM      4  O   UNL     1      35.947   0.050  12.143  1.00  0.00    -0.285 OA
ATOM      5  C   UNL     1      33.915  -0.420  13.193  1.00  0.00     0.111 A 
ATOM      6  C   UNL     1      34.405  -0.444  14.535  1.00  0.00     0.134 A 
ATOM      7  C   UNL     1      33.500  -0.560  15.598  1.00  0.00     0.093 A 
ATOM      8  C   UNL     1      32.134  -0.717  15.368  1.00  0.00     0.123 A 
ATOM      9  C   UNL     1      31.652  -0.751  14.059  1.00  0.00     0.094 A 
ATOM     10  C   UNL     1      32.523  -0.598  12.979  1.00  0.00     0.146 A 
ATOM     11  O   UNL     1      32.019  -0.614  11.751  1.00  0.00    -0.452 OA
ENDROOT
BRANCH   1  12
ATOM     12  C   UNL     1      32.065  -0.489   9.345  1.00  0.00     0.025 A 
ATOM     13  C   UNL     1      32.331  -1.547   8.461  1.00  0.00     0.016 A 
ATOM     14  C   UNL     1      31.679  -1.618   7.227  1.00  0.00     0.051 A 
ATOM     15  C   UNL     1      30.742  -0.646   6.864  1.00  0.00     0.157 A 
ATOM     16  C   UNL     1      31.107   0.476   8.987  1.00  0.00     0.062 A 
ATOM     17  C   UNL     1      30.450   0.405   7.750  1.00  0.00     0.158 A 
BRANCH  15  18
ATOM     18  O   UNL     1      30.110  -0.743   5.625  1.00  0.00    -0.504 OA
ATOM     19  H   UNL     1      29.145  -0.465   5.491  1.00  0.00     0.293 HD
ENDBRANCH  15  18
BRANCH  17  20
ATOM     20  O   UNL     1      29.506   1.370   7.401  1.00  0.00    -0.504 OA
ATOM     21  H   UNL     1      29.107   1.996   8.091  1.00  0.00     0.293 HD
ENDBRANCH  17  20
ENDBRANCH   1  12
BRANCH   2  22
ATOM     22  O   UNL     1      34.925  -0.112   9.621  1.00  0.00    -0.502 OA
ATOM     23  H   UNL     1      35.932  -0.021   9.660  1.00  0.00     0.293 HD
ENDBRANCH   2  22
BRANCH   6  24
ATOM     24  O   UNL     1      35.760  -0.384  14.875  1.00  0.00    -0.507 OA
ATOM     25  H   UNL     1      36.134  -0.563  15.793  1.00  0.00     0.293 HD
ENDBRANCH   6  24
BRANCH   8  26
ATOM     26  O   UNL     1      31.266  -0.847  16.449  1.00  0.00    -0.508 OA
ATOM     27  H   UNL     1      30.715  -0.065  16.783  1.00  0.00     0.293 HD
ENDBRANCH   8  26
TORSDOF 6
ENDMDL
MODEL 9
REMARK VINA RESULT:    -7.056      2.170      3.512
REMARK INTER + INTRA:          -8.764
REMARK INTER:                  -8.442
REMARK INTRA:                  -0.322
REMARK UNBOUND:                -0.265
REMARK SMILES O=c1c(O)c(-c2ccc(O)c(O)c2)oc2cc(O)cc(O)c12
REMARK SMILES IDX 5 1 3 2 2 3 1 4 22 5 20 6 19 7 17 8 16 9 15 10 14 11 6 12
REMARK SMILES IDX 7 13 8 14 9 15 13 16 11 17 10 18 12 20 4 22 21 24 18 26
REMARK H PARENT 10 19 12 21 4 23 21 25 18 27
REMARK Flexibility Score: inf
ROOT
ATOM      1  C   UNL     1      33.505  -0.104  11.130  1.00  0.00     0.180 A 
ATOM      2  C   UNL     1      34.863  -0.351  10.865  1.00  0.00     0.208 A 
ATOM      3  C   UNL     1      35.812  -0.074  11.861  1.00  0.00     0.238 A 
ATOM      4  O   UNL     1      37.032  -0.227  11.592  1.00  0.00    -0.285 OA
ATOM      5  C   UNL     1      35.389   0.394  13.130  1.00  0.00     0.111 A 
ATOM      6  C   UNL     1      36.260   0.666  14.228  1.00  0.00     0.134 A 
ATOM      7  C   UNL     1      35.738   1.226  15.401  1.00  0.00     0.093 A 
ATOM      8  C   UNL     1      34.372   1.466  15.539  1.00  0.00     0.123 A 
ATOM      9  C   UNL     1      33.505   1.153  14.493  1.00  0.00     0.094 A 
ATOM     10  C   UNL     1      33.998   0.629  13.296  1.00  0.00     0.146 A 
ATOM     11  O   UNL     1      33.141   0.365  12.317  1.00  0.00    -0.452 OA
ENDROOT
BRANCH   1  12
ATOM     12  C   UNL     1      32.448  -0.358  10.126  1.00  0.00     0.025 A 
ATOM     13  C   UNL     1      31.861  -1.631  10.049  1.00  0.00     0.016 A 
ATOM     14  C   UNL     1      30.846  -1.887   9.123  1.00  0.00     0.051 A 
ATOM     15  C   UNL     1      30.392  -0.874   8.273  1.00  0.00     0.157 A 
ATOM     16  C   UNL     1      31.975   0.665   9.285  1.00  0.00     0.062 A 
ATOM     17  C   UNL     1      30.955   0.410   8.356  1.00  0.00     0.158 A 
BRANCH  15  18
ATOM     18  O   UNL     1      29.379  -1.161   7.357  1.00  0.00    -0.504 OA
ATOM     19  H   UNL     1      29.105  -2.112   7.140  1.00  0.00     0.293 HD
ENDBRANCH  15  18
BRANCH  17  20
ATOM     20  O   UNL     1      30.496   1.428   7.521  1.00  0.00    -0.504 OA
ATOM     21  H   UNL     1      29.990   2.227   7.887  1.00  0.00     0.293 HD
ENDBRANCH  17  20
ENDBRANCH   1  12
BRANCH   2  22
ATOM     22  O   UNL     1      35.254  -0.886   9.635  1.00  0.00    -0.502 OA
ATOM     23  H   UNL     1      35.924  -0.427   9.030  1.00  0.00     0.293 HD
ENDBRANCH   2  22
BRANCH   6  24
ATOM     24  O   UNL     1      37.629   0.382  14.230  1.00  0.00    -0.507 OA
ATOM     25  H   UNL     1      38.347   0.995  13.877  1.00  0.00     0.293 HD
ENDBRANCH   6  24
BRANCH   8  26
ATOM     26  O   UNL     1      33.887   2.009  16.726  1.00  0.00    -0.508 OA
ATOM     27  H   UNL     1      33.746   3.007  16.834  1.00  0.00     0.293 HD
ENDBRANCH   8  26
TORSDOF 6
ENDMDL
