MODEL 1
REMARK VINA RESULT:    -4.077      0.000      0.000
REMARK INTER + INTRA:         -12.030
REMARK INTER:                  -8.844
REMARK INTRA:                  -3.185
REMARK UNBOUND:                -3.185
REMARK SMILES CCCCCCCCCCCCCCCCCCCCCC(=O)[O-]
REMARK SMILES IDX 12 1 11 2 10 3 9 4 8 5 7 6 6 7 5 8 4 9 3 10 2 11 1 12 13 13
REMARK SMILES IDX 14 14 15 15 16 16 17 17 18 18 19 19 20 20 21 21 22 22 23 23
REMARK SMILES IDX 24 24
REMARK H PARENT
REMARK Flexibility Score: inf
ROOT
ATOM      1  C   UNL     1      -4.776  11.875  -5.528  1.00  0.00     0.000 C 
ENDROOT
BRANCH   1   2
ATOM      2  C   UNL     1      -4.991  12.106  -4.020  1.00  0.00     0.000 C 
BRANCH   2   3
ATOM      3  C   UNL     1      -5.245  13.570  -3.615  1.00  0.00     0.000 C 
BRANCH   3   4
ATOM      4  C   UNL     1      -6.037  13.761  -2.307  1.00  0.00    -0.000 C 
BRANCH   4   5
ATOM      5  C   UNL     1      -7.557  13.931  -2.516  1.00  0.00    -0.000 C 
BRANCH   5   6
ATOM      6  C   UNL     1      -7.956  13.897  -4.001  1.00  0.00    -0.000 C 
BRANCH   6   7
ATOM      7  C   UNL     1      -9.020  12.828  -4.303  1.00  0.00    -0.000 C 
BRANCH   7   8
ATOM      8  C   UNL     1      -9.114  11.759  -3.199  1.00  0.00    -0.000 C 
BRANCH   8   9
ATOM      9  C   UNL     1      -9.080  10.328  -3.757  1.00  0.00    -0.000 C 
BRANCH   9  10
ATOM     10  C   UNL     1      -8.031  10.152  -4.866  1.00  0.00    -0.000 C 
BRANCH  10  11
ATOM     11  C   UNL     1      -8.511   9.148  -5.921  1.00  0.00    -0.003 C 
ATOM     12  C   UNL     1      -9.772   9.643  -6.622  1.00  0.00     0.004 C 
ENDBRANCH  10  11
ENDBRANCH   9  10
ENDBRANCH   8   9
ENDBRANCH   7   8
ENDBRANCH   6   7
ENDBRANCH   5   6
ENDBRANCH   4   5
ENDBRANCH   3   4
ENDBRANCH   2   3
ENDBRANCH   1   2
BRANCH   1  13
ATOM     13  C   UNL     1      -4.808  13.177  -6.347  1.00  0.00     0.000 C 
BRANCH  13  14
ATOM     14  C   UNL     1      -6.124  13.366  -7.126  1.00  0.00     0.000 C 
BRANCH  14  15
ATOM     15  C   UNL     1      -6.815  12.064  -7.573  1.00  0.00     0.000 C 
BRANCH  15  16
ATOM     16  C   UNL     1      -7.887  12.289  -8.656  1.00  0.00     0.000 C 
BRANCH  16  17
ATOM     17  C   UNL     1      -7.462  11.747 -10.032  1.00  0.00     0.000 C 
BRANCH  17  18
ATOM     18  C   UNL     1      -6.292  12.499 -10.693  1.00  0.00     0.000 C 
BRANCH  18  19
ATOM     19  C   UNL     1      -5.117  11.575 -11.052  1.00  0.00     0.000 C 
BRANCH  19  20
ATOM     20  C   UNL     1      -4.091  11.523  -9.914  1.00  0.00     0.006 C 
BRANCH  20  21
ATOM     21  C   UNL     1      -2.869  10.692 -10.313  1.00  0.00     0.053 C 
BRANCH  21  22
ATOM     22  C   UNL     1      -1.798  10.801  -9.274  1.00  0.00     0.041 C 
ATOM     23  O   UNL     1      -1.224  11.903  -9.067  1.00  0.00    -0.550 OA
ATOM     24  O   UNL     1      -1.403   9.675  -8.562  1.00  0.00    -0.550 OA
ENDBRANCH  21  22
ENDBRANCH  20  21
ENDBRANCH  19  20
ENDBRANCH  18  19
ENDBRANCH  17  18
ENDBRANCH  16  17
ENDBRANCH  15  16
ENDBRANCH  14  15
ENDBRANCH  13  14
ENDBRANCH   1  13
TORSDOF 20
ENDMDL
MODEL 2
REMARK VINA RESULT:    -3.964      1.086      3.948
REMARK INTER + INTRA:         -11.785
REMARK INTER:                  -9.176
REMARK INTRA:                  -2.609
REMARK UNBOUND:                -3.185
REMARK SMILES CCCCCCCCCCCCCCCCCCCCCC(=O)[O-]
REMARK SMILES IDX 12 1 11 2 10 3 9 4 8 5 7 6 6 7 5 8 4 9 3 10 2 11 1 12 13 13
REMARK SMILES IDX 14 14 15 15 16 16 17 17 18 18 19 19 20 20 21 21 22 22 23 23
REMARK SMILES IDX 24 24
REMARK H PARENT
REMARK Flexibility Score: inf
ROOT
ATOM      1  C   UNL     1      -8.296   9.878  -4.993  1.00  0.00     0.000 C 
ENDROOT
BRANCH   1   2
ATOM      2  C   UNL     1      -9.441   9.996  -3.969  1.00  0.00     0.000 C 
BRANCH   2   3
ATOM      3  C   UNL     1      -9.382  11.244  -3.068  1.00  0.00     0.000 C 
BRANCH   3   4
ATOM      4  C   UNL     1      -9.815  12.560  -3.742  1.00  0.00    -0.000 C 
BRANCH   4   5
ATOM      5  C   UNL     1      -8.637  13.438  -4.215  1.00  0.00    -0.000 C 
BRANCH   5   6
ATOM      6  C   UNL     1      -7.294  13.002  -3.606  1.00  0.00    -0.000 C 
BRANCH   6   7
ATOM      7  C   UNL     1      -6.851  13.904  -2.441  1.00  0.00    -0.000 C 
BRANCH   7   8
ATOM      8  C   UNL     1      -5.336  13.832  -2.180  1.00  0.00    -0.000 C 
BRANCH   8   9
ATOM      9  C   UNL     1      -4.508  13.949  -3.469  1.00  0.00    -0.000 C 
BRANCH   9  10
ATOM     10  C   UNL     1      -3.723  12.666  -3.784  1.00  0.00    -0.000 C 
BRANCH  10  11
ATOM     11  C   UNL     1      -3.453  12.544  -5.289  1.00  0.00    -0.003 C 
ATOM     12  C   UNL     1      -2.633  13.724  -5.800  1.00  0.00     0.004 C 
ENDBRANCH  10  11
ENDBRANCH   9  10
ENDBRANCH   8   9
ENDBRANCH   7   8
ENDBRANCH   6   7
ENDBRANCH   5   6
ENDBRANCH   4   5
ENDBRANCH   3   4
ENDBRANCH   2   3
ENDBRANCH   1   2
BRANCH   1  13
ATOM     13  C   UNL     1      -8.717   9.159  -6.286  1.00  0.00     0.000 C 
BRANCH  13  14
ATOM     14  C   UNL     1      -9.643  10.012  -7.174  1.00  0.00     0.000 C 
BRANCH  14  15
ATOM     15  C   UNL     1      -9.229  11.487  -7.330  1.00  0.00     0.000 C 
BRANCH  15  16
ATOM     16  C   UNL     1      -7.968  11.674  -8.193  1.00  0.00     0.000 C 
BRANCH  16  17
ATOM     17  C   UNL     1      -6.734  12.073  -7.363  1.00  0.00     0.000 C 
BRANCH  17  18
ATOM     18  C   UNL     1      -5.535  12.578  -8.187  1.00  0.00     0.000 C 
BRANCH  18  19
ATOM     19  C   UNL     1      -5.516  12.016  -9.617  1.00  0.00     0.000 C 
BRANCH  19  20
ATOM     20  C   UNL     1      -4.108  11.550 -10.006  1.00  0.00     0.006 C 
BRANCH  20  21
ATOM     21  C   UNL     1      -3.190  11.494  -8.782  1.00  0.00     0.053 C 
BRANCH  21  22
ATOM     22  C   UNL     1      -1.922  10.770  -9.109  1.00  0.00     0.041 C 
ATOM     23  O   UNL     1      -1.949   9.549  -9.418  1.00  0.00    -0.550 OA
ATOM     24  O   UNL     1      -0.703  11.433  -9.034  1.00  0.00    -0.550 OA
ENDBRANCH  21  22
ENDBRANCH  20  21
ENDBRANCH  19  20
ENDBRANCH  18  19
ENDBRANCH  17  18
ENDBRANCH  16  17
ENDBRANCH  15  16
ENDBRANCH  14  15
ENDBRANCH  13  14
ENDBRANCH   1  13
TORSDOF 20
ENDMDL
MODEL 3
REMARK VINA RESULT:    -3.908      1.382      4.103
REMARK INTER + INTRA:         -11.663
REMARK INTER:                  -8.892
REMARK INTRA:                  -2.772
REMARK UNBOUND:                -3.185
REMARK SMILES CCCCCCCCCCCCCCCCCCCCCC(=O)[O-]
REMARK SMILES IDX 12 1 11 2 10 3 9 4 8 5 7 6 6 7 5 8 4 9 3 10 2 11 1 12 13 13
REMARK SMILES IDX 14 14 15 15 16 16 17 17 18 18 19 19 20 20 21 21 22 22 23 23
REMARK SMILES IDX 24 24
REMARK H PARENT
REMARK Flexibility Score: inf
ROOT
ATOM      1  C   UNL     1     -10.125  10.700  -7.520  1.00  0.00     0.000 C 
ENDROOT
BRANCH   1   2
ATOM      2  C   UNL     1      -9.666   9.796  -6.360  1.00  0.00     0.000 C 
BRANCH   2   3
ATOM      3  C   UNL     1      -8.163   9.868  -6.034  1.00  0.00     0.000 C 
BRANCH   3   4
ATOM      4  C   UNL     1      -7.821  10.404  -4.630  1.00  0.00    -0.000 C 
BRANCH   4   5
ATOM      5  C   UNL     1      -8.936  10.180  -3.587  1.00  0.00    -0.000 C 
BRANCH   5   6
ATOM      6  C   UNL     1      -9.480  11.498  -3.010  1.00  0.00    -0.000 C 
BRANCH   6   7
ATOM      7  C   UNL     1      -9.404  12.659  -4.016  1.00  0.00    -0.000 C 
BRANCH   7   8
ATOM      8  C   UNL     1      -8.871  13.957  -3.382  1.00  0.00    -0.000 C 
BRANCH   8   9
ATOM      9  C   UNL     1      -7.348  14.102  -3.525  1.00  0.00    -0.000 C 
BRANCH   9  10
ATOM     10  C   UNL     1      -6.602  13.811  -2.214  1.00  0.00    -0.000 C 
BRANCH  10  11
ATOM     11  C   UNL     1      -5.083  13.846  -2.427  1.00  0.00    -0.003 C 
ATOM     12  C   UNL     1      -4.596  12.585  -3.134  1.00  0.00     0.004 C 
ENDBRANCH  10  11
ENDBRANCH   9  10
ENDBRANCH   8   9
ENDBRANCH   7   8
ENDBRANCH   6   7
ENDBRANCH   5   6
ENDBRANCH   4   5
ENDBRANCH   3   4
ENDBRANCH   2   3
ENDBRANCH   1   2
BRANCH   1  13
ATOM     13  C   UNL     1      -9.095  10.788  -8.659  1.00  0.00     0.000 C 
BRANCH  13  14
ATOM     14  C   UNL     1      -8.782  12.237  -9.078  1.00  0.00     0.000 C 
BRANCH  14  15
ATOM     15  C   UNL     1      -8.946  13.292  -7.967  1.00  0.00     0.000 C 
BRANCH  15  16
ATOM     16  C   UNL     1      -7.747  13.347  -7.003  1.00  0.00     0.000 C 
BRANCH  16  17
ATOM     17  C   UNL     1      -6.501  12.638  -7.564  1.00  0.00     0.000 C 
BRANCH  17  18
ATOM     18  C   UNL     1      -5.159  13.153  -7.012  1.00  0.00     0.000 C 
BRANCH  18  19
ATOM     19  C   UNL     1      -4.309  12.041  -6.379  1.00  0.00     0.000 C 
BRANCH  19  20
ATOM     20  C   UNL     1      -2.853  12.125  -6.853  1.00  0.00     0.006 C 
BRANCH  20  21
ATOM     21  C   UNL     1      -2.735  11.759  -8.334  1.00  0.00     0.053 C 
BRANCH  21  22
ATOM     22  C   UNL     1      -1.467  11.004  -8.590  1.00  0.00     0.041 C 
ATOM     23  O   UNL     1      -1.449   9.748  -8.505  1.00  0.00    -0.550 OA
ATOM     24  O   UNL     1      -0.296  11.692  -8.882  1.00  0.00    -0.550 OA
ENDBRANCH  21  22
ENDBRANCH  20  21
ENDBRANCH  19  20
ENDBRANCH  18  19
ENDBRANCH  17  18
ENDBRANCH  16  17
ENDBRANCH  15  16
ENDBRANCH  14  15
ENDBRANCH  13  14
ENDBRANCH   1  13
TORSDOF 20
ENDMDL
MODEL 4
REMARK VINA RESULT:    -3.868     14.594     16.839
REMARK INTER + INTRA:         -11.575
REMARK INTER:                  -7.758
REMARK INTRA:                  -3.817
REMARK UNBOUND:                -3.185
REMARK SMILES CCCCCCCCCCCCCCCCCCCCCC(=O)[O-]
REMARK SMILES IDX 12 1 11 2 10 3 9 4 8 5 7 6 6 7 5 8 4 9 3 10 2 11 1 12 13 13
REMARK SMILES IDX 14 14 15 15 16 16 17 17 18 18 19 19 20 20 21 21 22 22 23 23
REMARK SMILES IDX 24 24
REMARK H PARENT
REMARK Flexibility Score: inf
ROOT
ATOM      1  C   UNL     1       7.879   3.536  -4.083  1.00  0.00     0.000 C 
ENDROOT
BRANCH   1   2
ATOM      2  C   UNL     1       9.090   2.847  -4.741  1.00  0.00     0.000 C 
BRANCH   2   3
ATOM      3  C   UNL     1       9.008   1.310  -4.807  1.00  0.00     0.000 C 
BRANCH   3   4
ATOM      4  C   UNL     1       9.726   0.666  -6.008  1.00  0.00    -0.000 C 
BRANCH   4   5
ATOM      5  C   UNL     1       9.841   1.591  -7.238  1.00  0.00    -0.000 C 
BRANCH   5   6
ATOM      6  C   UNL     1       9.332   0.926  -8.527  1.00  0.00    -0.000 C 
BRANCH   6   7
ATOM      7  C   UNL     1       9.555   1.801  -9.773  1.00  0.00    -0.000 C 
BRANCH   7   8
ATOM      8  C   UNL     1       8.476   1.584 -10.849  1.00  0.00    -0.000 C 
BRANCH   8   9
ATOM      9  C   UNL     1       7.209   0.920 -10.290  1.00  0.00    -0.000 C 
BRANCH   9  10
ATOM     10  C   UNL     1       5.956   1.253 -11.114  1.00  0.00    -0.000 C 
BRANCH  10  11
ATOM     11  C   UNL     1       4.680   0.988 -10.304  1.00  0.00    -0.003 C 
ATOM     12  C   UNL     1       3.819   2.243 -10.203  1.00  0.00     0.004 C 
ENDBRANCH  10  11
ENDBRANCH   9  10
ENDBRANCH   8   9
ENDBRANCH   7   8
ENDBRANCH   6   7
ENDBRANCH   5   6
ENDBRANCH   4   5
ENDBRANCH   3   4
ENDBRANCH   2   3
ENDBRANCH   1   2
BRANCH   1  13
ATOM     13  C   UNL     1       7.008   4.309  -5.088  1.00  0.00     0.000 C 
BRANCH  13  14
ATOM     14  C   UNL     1       5.897   3.443  -5.712  1.00  0.00     0.000 C 
BRANCH  14  15
ATOM     15  C   UNL     1       6.211   2.879  -7.111  1.00  0.00     0.000 C 
BRANCH  15  16
ATOM     16  C   UNL     1       7.021   3.852  -7.988  1.00  0.00     0.000 C 
BRANCH  16  17
ATOM     17  C   UNL     1       6.128   4.703  -8.909  1.00  0.00     0.000 C 
BRANCH  17  18
ATOM     18  C   UNL     1       6.645   4.858 -10.351  1.00  0.00     0.000 C 
BRANCH  18  19
ATOM     19  C   UNL     1       8.120   5.285 -10.412  1.00  0.00     0.000 C 
BRANCH  19  20
ATOM     20  C   UNL     1       8.254   6.724 -10.924  1.00  0.00     0.006 C 
BRANCH  20  21
ATOM     21  C   UNL     1       7.802   7.730  -9.863  1.00  0.00     0.053 C 
BRANCH  21  22
ATOM     22  C   UNL     1       8.639   7.603  -8.628  1.00  0.00     0.041 C 
ATOM     23  O   UNL     1       9.875   7.838  -8.673  1.00  0.00    -0.550 OA
ATOM     24  O   UNL     1       8.060   7.187  -7.436  1.00  0.00    -0.550 OA
ENDBRANCH  21  22
ENDBRANCH  20  21
ENDBRANCH  19  20
ENDBRANCH  18  19
ENDBRANCH  17  18
ENDBRANCH  16  17
ENDBRANCH  15  16
ENDBRANCH  14  15
ENDBRANCH  13  14
ENDBRANCH   1  13
TORSDOF 20
ENDMDL
MODEL 5
REMARK VINA RESULT:    -3.798     14.056     16.545
REMARK INTER + INTRA:         -11.425
REMARK INTER:                  -7.531
REMARK INTRA:                  -3.894
REMARK UNBOUND:                -3.185
REMARK SMILES CCCCCCCCCCCCCCCCCCCCCC(=O)[O-]
REMARK SMILES IDX 12 1 11 2 10 3 9 4 8 5 7 6 6 7 5 8 4 9 3 10 2 11 1 12 13 13
REMARK SMILES IDX 14 14 15 15 16 16 17 17 18 18 19 19 20 20 21 21 22 22 23 23
REMARK SMILES IDX 24 24
REMARK H PARENT
REMARK Flexibility Score: inf
ROOT
ATOM      1  C   UNL     1       6.614   4.969  -5.460  1.00  0.00     0.000 C 
ENDROOT
BRANCH   1   2
ATOM      2  C   UNL     1       6.738   5.891  -6.688  1.00  0.00     0.000 C 
BRANCH   2   3
ATOM      3  C   UNL     1       6.293   5.263  -8.022  1.00  0.00     0.000 C 
BRANCH   3   4
ATOM      4  C   UNL     1       5.861   6.267  -9.108  1.00  0.00    -0.000 C 
BRANCH   4   5
ATOM      5  C   UNL     1       6.516   6.020 -10.483  1.00  0.00    -0.000 C 
BRANCH   5   6
ATOM      6  C   UNL     1       7.710   6.953 -10.745  1.00  0.00    -0.000 C 
BRANCH   6   7
ATOM      7  C   UNL     1       9.045   6.352 -10.272  1.00  0.00    -0.000 C 
BRANCH   7   8
ATOM      8  C   UNL     1       9.551   6.992  -8.966  1.00  0.00    -0.000 C 
BRANCH   8   9
ATOM      9  C   UNL     1       9.217   8.489  -8.873  1.00  0.00    -0.000 C 
BRANCH   9  10
ATOM     10  C   UNL     1       8.526   8.858  -7.551  1.00  0.00    -0.000 C 
BRANCH  10  11
ATOM     11  C   UNL     1       7.205   9.594  -7.810  1.00  0.00    -0.003 C 
ATOM     12  C   UNL     1       7.305  10.493  -9.039  1.00  0.00     0.004 C 
ENDBRANCH  10  11
ENDBRANCH   9  10
ENDBRANCH   8   9
ENDBRANCH   7   8
ENDBRANCH   6   7
ENDBRANCH   5   6
ENDBRANCH   4   5
ENDBRANCH   3   4
ENDBRANCH   2   3
ENDBRANCH   1   2
BRANCH   1  13
ATOM     13  C   UNL     1       5.915   3.636  -5.776  1.00  0.00     0.000 C 
BRANCH  13  14
ATOM     14  C   UNL     1       6.798   2.408  -5.486  1.00  0.00     0.000 C 
BRANCH  14  15
ATOM     15  C   UNL     1       8.176   2.721  -4.873  1.00  0.00     0.000 C 
BRANCH  15  16
ATOM     16  C   UNL     1       9.349   2.189  -5.716  1.00  0.00     0.000 C 
BRANCH  16  17
ATOM     17  C   UNL     1       8.931   1.826  -7.152  1.00  0.00     0.000 C 
BRANCH  17  18
ATOM     18  C   UNL     1       9.155   2.938  -8.194  1.00  0.00     0.000 C 
BRANCH  18  19
ATOM     19  C   UNL     1       8.334   2.727  -9.476  1.00  0.00     0.000 C 
BRANCH  19  20
ATOM     20  C   UNL     1       7.534   1.421  -9.408  1.00  0.00     0.006 C 
BRANCH  20  21
ATOM     21  C   UNL     1       6.031   1.690  -9.512  1.00  0.00     0.053 C 
BRANCH  21  22
ATOM     22  C   UNL     1       5.294   0.434  -9.855  1.00  0.00     0.041 C 
ATOM     23  O   UNL     1       4.528   0.400 -10.854  1.00  0.00    -0.550 OA
ATOM     24  O   UNL     1       5.423  -0.689  -9.048  1.00  0.00    -0.550 OA
ENDBRANCH  21  22
ENDBRANCH  20  21
ENDBRANCH  19  20
ENDBRANCH  18  19
ENDBRANCH  17  18
ENDBRANCH  16  17
ENDBRANCH  15  16
ENDBRANCH  14  15
ENDBRANCH  13  14
ENDBRANCH   1  13
TORSDOF 20
ENDMDL
MODEL 6
REMARK VINA RESULT:    -3.774     14.125     16.588
REMARK INTER + INTRA:         -11.371
REMARK INTER:                  -8.275
REMARK INTRA:                  -3.097
REMARK UNBOUND:                -3.185
REMARK SMILES CCCCCCCCCCCCCCCCCCCCCC(=O)[O-]
REMARK SMILES IDX 12 1 11 2 10 3 9 4 8 5 7 6 6 7 5 8 4 9 3 10 2 11 1 12 13 13
REMARK SMILES IDX 14 14 15 15 16 16 17 17 18 18 19 19 20 20 21 21 22 22 23 23
REMARK SMILES IDX 24 24
REMARK H PARENT
REMARK Flexibility Score: inf
ROOT
ATOM      1  C   UNL     1       4.182   4.248  -9.812  1.00  0.00     0.000 C 
ENDROOT
BRANCH   1   2
ATOM      2  C   UNL     1       5.715   4.229  -9.667  1.00  0.00     0.000 C 
BRANCH   2   3
ATOM      3  C   UNL     1       6.493   4.653 -10.926  1.00  0.00     0.000 C 
BRANCH   3   4
ATOM      4  C   UNL     1       7.948   5.099 -10.680  1.00  0.00    -0.000 C 
BRANCH   4   5
ATOM      5  C   UNL     1       8.197   6.598 -10.952  1.00  0.00    -0.000 C 
BRANCH   5   6
ATOM      6  C   UNL     1       7.095   7.495 -10.365  1.00  0.00    -0.000 C 
BRANCH   6   7
ATOM      7  C   UNL     1       7.417   7.973  -8.939  1.00  0.00    -0.000 C 
BRANCH   7   8
ATOM      8  C   UNL     1       6.507   7.326  -7.879  1.00  0.00    -0.000 C 
BRANCH   8   9
ATOM      9  C   UNL     1       7.208   6.198  -7.106  1.00  0.00    -0.000 C 
BRANCH   9  10
ATOM     10  C   UNL     1       6.544   5.910  -5.751  1.00  0.00    -0.000 C 
BRANCH  10  11
ATOM     11  C   UNL     1       6.837   4.476  -5.290  1.00  0.00    -0.003 C 
ATOM     12  C   UNL     1       5.809   3.497  -5.846  1.00  0.00     0.004 C 
ENDBRANCH  10  11
ENDBRANCH   9  10
ENDBRANCH   8   9
ENDBRANCH   7   8
ENDBRANCH   6   7
ENDBRANCH   5   6
ENDBRANCH   4   5
ENDBRANCH   3   4
ENDBRANCH   2   3
ENDBRANCH   1   2
BRANCH   1  13
ATOM     13  C   UNL     1       3.665   3.262 -10.874  1.00  0.00     0.000 C 
BRANCH  13  14
ATOM     14  C   UNL     1       3.738   1.792 -10.419  1.00  0.00     0.000 C 
BRANCH  14  15
ATOM     15  C   UNL     1       5.015   1.039 -10.834  1.00  0.00     0.000 C 
BRANCH  15  16
ATOM     16  C   UNL     1       5.858   0.569  -9.634  1.00  0.00     0.000 C 
BRANCH  16  17
ATOM     17  C   UNL     1       7.297   0.193 -10.031  1.00  0.00     0.000 C 
BRANCH  17  18
ATOM     18  C   UNL     1       8.379   1.181  -9.557  1.00  0.00     0.000 C 
BRANCH  18  19
ATOM     19  C   UNL     1       8.063   1.798  -8.186  1.00  0.00     0.000 C 
BRANCH  19  20
ATOM     20  C   UNL     1       9.351   2.127  -7.421  1.00  0.00     0.006 C 
BRANCH  20  21
ATOM     21  C   UNL     1       9.247   1.693  -5.957  1.00  0.00     0.053 C 
BRANCH  21  22
ATOM     22  C   UNL     1       9.383   0.207  -5.839  1.00  0.00     0.041 C 
ATOM     23  O   UNL     1      10.038  -0.441  -6.698  1.00  0.00    -0.550 OA
ATOM     24  O   UNL     1       8.753  -0.468  -4.802  1.00  0.00    -0.550 OA
ENDBRANCH  21  22
ENDBRANCH  20  21
ENDBRANCH  19  20
ENDBRANCH  18  19
ENDBRANCH  17  18
ENDBRANCH  16  17
ENDBRANCH  15  16
ENDBRANCH  14  15
ENDBRANCH  13  14
ENDBRANCH   1  13
TORSDOF 20
ENDMDL
MODEL 7
REMARK VINA RESULT:    -3.767     13.690     16.689
REMARK INTER + INTRA:         -11.357
REMARK INTER:                  -7.659
REMARK INTRA:                  -3.698
REMARK UNBOUND:                -3.185
REMARK SMILES CCCCCCCCCCCCCCCCCCCCCC(=O)[O-]
REMARK SMILES IDX 12 1 11 2 10 3 9 4 8 5 7 6 6 7 5 8 4 9 3 10 2 11 1 12 13 13
REMARK SMILES IDX 14 14 15 15 16 16 17 17 18 18 19 19 20 20 21 21 22 22 23 23
REMARK SMILES IDX 24 24
REMARK H PARENT
REMARK Flexibility Score: inf
ROOT
ATOM      1  C   UNL     1       5.946   4.011  -5.777  1.00  0.00     0.000 C 
ENDROOT
BRANCH   1   2
ATOM      2  C   UNL     1       6.201   4.249  -7.278  1.00  0.00     0.000 C 
BRANCH   2   3
ATOM      3  C   UNL     1       5.563   3.210  -8.218  1.00  0.00     0.000 C 
BRANCH   3   4
ATOM      4  C   UNL     1       5.270   3.710  -9.646  1.00  0.00    -0.000 C 
BRANCH   4   5
ATOM      5  C   UNL     1       5.099   5.241  -9.750  1.00  0.00    -0.000 C 
BRANCH   5   6
ATOM      6  C   UNL     1       5.903   5.848 -10.912  1.00  0.00    -0.000 C 
BRANCH   6   7
ATOM      7  C   UNL     1       7.295   5.211 -11.065  1.00  0.00    -0.000 C 
BRANCH   7   8
ATOM      8  C   UNL     1       8.307   5.750 -10.038  1.00  0.00    -0.000 C 
BRANCH   8   9
ATOM      9  C   UNL     1       8.108   7.243  -9.738  1.00  0.00    -0.000 C 
BRANCH   9  10
ATOM     10  C   UNL     1       8.365   7.589  -8.264  1.00  0.00    -0.000 C 
BRANCH  10  11
ATOM     11  C   UNL     1       7.277   8.524  -7.721  1.00  0.00    -0.003 C 
ATOM     12  C   UNL     1       6.017   7.748  -7.351  1.00  0.00     0.004 C 
ENDBRANCH  10  11
ENDBRANCH   9  10
ENDBRANCH   8   9
ENDBRANCH   7   8
ENDBRANCH   6   7
ENDBRANCH   5   6
ENDBRANCH   4   5
ENDBRANCH   3   4
ENDBRANCH   2   3
ENDBRANCH   1   2
BRANCH   1  13
ATOM     13  C   UNL     1       7.148   4.392  -4.895  1.00  0.00     0.000 C 
BRANCH  13  14
ATOM     14  C   UNL     1       7.924   3.168  -4.373  1.00  0.00     0.000 C 
BRANCH  14  15
ATOM     15  C   UNL     1       8.970   2.591  -5.345  1.00  0.00     0.000 C 
BRANCH  15  16
ATOM     16  C   UNL     1       8.439   1.407  -6.174  1.00  0.00     0.000 C 
BRANCH  16  17
ATOM     17  C   UNL     1       9.192   1.229  -7.505  1.00  0.00     0.000 C 
BRANCH  17  18
ATOM     18  C   UNL     1       9.224   2.480  -8.402  1.00  0.00     0.000 C 
BRANCH  18  19
ATOM     19  C   UNL     1       9.204   2.139  -9.901  1.00  0.00     0.000 C 
BRANCH  19  20
ATOM     20  C   UNL     1       8.492   0.804 -10.151  1.00  0.00     0.006 C 
BRANCH  20  21
ATOM     21  C   UNL     1       7.138   1.022 -10.830  1.00  0.00     0.053 C 
BRANCH  21  22
ATOM     22  C   UNL     1       6.113   0.086 -10.271  1.00  0.00     0.041 C 
ATOM     23  O   UNL     1       5.315  -0.513 -11.039  1.00  0.00    -0.550 OA
ATOM     24  O   UNL     1       6.012  -0.094  -8.897  1.00  0.00    -0.550 OA
ENDBRANCH  21  22
ENDBRANCH  20  21
ENDBRANCH  19  20
ENDBRANCH  18  19
ENDBRANCH  17  18
ENDBRANCH  16  17
ENDBRANCH  15  16
ENDBRANCH  14  15
ENDBRANCH  13  14
ENDBRANCH   1  13
TORSDOF 20
ENDMDL
MODEL 8
REMARK VINA RESULT:    -3.755     14.152     16.884
REMARK INTER + INTRA:         -11.331
REMARK INTER:                  -8.567
REMARK INTRA:                  -2.765
REMARK UNBOUND:                -3.185
REMARK SMILES CCCCCCCCCCCCCCCCCCCCCC(=O)[O-]
REMARK SMILES IDX 12 1 11 2 10 3 9 4 8 5 7 6 6 7 5 8 4 9 3 10 2 11 1 12 13 13
REMARK SMILES IDX 14 14 15 15 16 16 17 17 18 18 19 19 20 20 21 21 22 22 23 23
REMARK SMILES IDX 24 24
REMARK H PARENT
REMARK Flexibility Score: inf
ROOT
ATOM      1  C   UNL     1       6.386   2.594  -7.229  1.00  0.00     0.000 C 
ENDROOT
BRANCH   1   2
ATOM      2  C   UNL     1       5.770   3.274  -5.991  1.00  0.00     0.000 C 
BRANCH   2   3
ATOM      3  C   UNL     1       6.547   4.495  -5.465  1.00  0.00     0.000 C 
BRANCH   3   4
ATOM      4  C   UNL     1       7.162   5.399  -6.550  1.00  0.00    -0.000 C 
BRANCH   4   5
ATOM      5  C   UNL     1       6.396   6.721  -6.769  1.00  0.00    -0.000 C 
BRANCH   5   6
ATOM      6  C   UNL     1       6.168   7.033  -8.258  1.00  0.00    -0.000 C 
BRANCH   6   7
ATOM      7  C   UNL     1       7.418   6.769  -9.115  1.00  0.00    -0.000 C 
BRANCH   7   8
ATOM      8  C   UNL     1       7.411   7.566 -10.432  1.00  0.00    -0.000 C 
BRANCH   8   9
ATOM      9  C   UNL     1       8.391   8.749 -10.413  1.00  0.00    -0.000 C 
BRANCH   9  10
ATOM     10  C   UNL     1       7.686  10.096 -10.191  1.00  0.00    -0.000 C 
BRANCH  10  11
ATOM     11  C   UNL     1       8.142  10.743  -8.877  1.00  0.00    -0.003 C 
ATOM     12  C   UNL     1       7.168  10.437  -7.743  1.00  0.00     0.004 C 
ENDBRANCH  10  11
ENDBRANCH   9  10
ENDBRANCH   8   9
ENDBRANCH   7   8
ENDBRANCH   6   7
ENDBRANCH   5   6
ENDBRANCH   4   5
ENDBRANCH   3   4
ENDBRANCH   2   3
ENDBRANCH   1   2
BRANCH   1  13
ATOM     13  C   UNL     1       5.528   2.758  -8.495  1.00  0.00     0.000 C 
BRANCH  13  14
ATOM     14  C   UNL     1       6.271   3.473  -9.639  1.00  0.00     0.000 C 
BRANCH  14  15
ATOM     15  C   UNL     1       6.827   2.550 -10.740  1.00  0.00     0.000 C 
BRANCH  15  16
ATOM     16  C   UNL     1       8.365   2.488 -10.760  1.00  0.00     0.000 C 
BRANCH  16  17
ATOM     17  C   UNL     1       8.907   1.084 -10.437  1.00  0.00     0.000 C 
BRANCH  17  18
ATOM     18  C   UNL     1       9.750   0.995  -9.151  1.00  0.00     0.000 C 
BRANCH  18  19
ATOM     19  C   UNL     1       9.636   2.252  -8.275  1.00  0.00     0.000 C 
BRANCH  19  20
ATOM     20  C   UNL     1       9.909   1.922  -6.803  1.00  0.00     0.006 C 
BRANCH  20  21
ATOM     21  C   UNL     1       9.726   0.428  -6.531  1.00  0.00     0.053 C 
BRANCH  21  22
ATOM     22  C   UNL     1       9.322   0.198  -5.108  1.00  0.00     0.041 C 
ATOM     23  O   UNL     1       9.360  -0.961  -4.616  1.00  0.00    -0.550 OA
ATOM     24  O   UNL     1       8.863   1.258  -4.337  1.00  0.00    -0.550 OA
ENDBRANCH  21  22
ENDBRANCH  20  21
ENDBRANCH  19  20
ENDBRANCH  18  19
ENDBRANCH  17  18
ENDBRANCH  16  17
ENDBRANCH  15  16
ENDBRANCH  14  15
ENDBRANCH  13  14
ENDBRANCH   1  13
TORSDOF 20
ENDMDL
MODEL 9
REMARK VINA RESULT:    -3.687     13.668     16.072
REMARK INTER + INTRA:         -11.184
REMARK INTER:                  -7.525
REMARK INTRA:                  -3.658
REMARK UNBOUND:                -3.185
REMARK SMILES CCCCCCCCCCCCCCCCCCCCCC(=O)[O-]
REMARK SMILES IDX 12 1 11 2 10 3 9 4 8 5 7 6 6 7 5 8 4 9 3 10 2 11 1 12 13 13
REMARK SMILES IDX 14 14 15 15 16 16 17 17 18 18 19 19 20 20 21 21 22 22 23 23
REMARK SMILES IDX 24 24
REMARK H PARENT
REMARK Flexibility Score: inf
ROOT
ATOM      1  C   UNL     1       5.893   3.709  -6.330  1.00  0.00     0.000 C 
ENDROOT
BRANCH   1   2
ATOM      2  C   UNL     1       6.441   2.858  -5.169  1.00  0.00     0.000 C 
BRANCH   2   3
ATOM      3  C   UNL     1       7.713   3.411  -4.501  1.00  0.00     0.000 C 
BRANCH   3   4
ATOM      4  C   UNL     1       9.029   2.737  -4.936  1.00  0.00    -0.000 C 
BRANCH   4   5
ATOM      5  C   UNL     1       8.829   1.500  -5.837  1.00  0.00    -0.000 C 
BRANCH   5   6
ATOM      6  C   UNL     1       9.260   1.752  -7.291  1.00  0.00    -0.000 C 
BRANCH   6   7
ATOM      7  C   UNL     1       8.153   1.409  -8.304  1.00  0.00    -0.000 C 
BRANCH   7   8
ATOM      8  C   UNL     1       8.413   2.020  -9.693  1.00  0.00    -0.000 C 
BRANCH   8   9
ATOM      9  C   UNL     1       7.124   2.203 -10.509  1.00  0.00    -0.000 C 
BRANCH   9  10
ATOM     10  C   UNL     1       5.867   1.792  -9.726  1.00  0.00    -0.000 C 
BRANCH  10  11
ATOM     11  C   UNL     1       4.599   2.316 -10.410  1.00  0.00    -0.003 C 
ATOM     12  C   UNL     1       3.825   3.258  -9.493  1.00  0.00     0.004 C 
ENDBRANCH  10  11
ENDBRANCH   9  10
ENDBRANCH   8   9
ENDBRANCH   7   8
ENDBRANCH   6   7
ENDBRANCH   5   6
ENDBRANCH   4   5
ENDBRANCH   3   4
ENDBRANCH   2   3
ENDBRANCH   1   2
BRANCH   1  13
ATOM     13  C   UNL     1       6.728   4.974  -6.596  1.00  0.00     0.000 C 
BRANCH  13  14
ATOM     14  C   UNL     1       7.284   5.038  -8.031  1.00  0.00     0.000 C 
BRANCH  14  15
ATOM     15  C   UNL     1       6.368   5.727  -9.060  1.00  0.00     0.000 C 
BRANCH  15  16
ATOM     16  C   UNL     1       6.994   5.816 -10.464  1.00  0.00     0.000 C 
BRANCH  16  17
ATOM     17  C   UNL     1       8.533   5.788 -10.430  1.00  0.00     0.000 C 
BRANCH  17  18
ATOM     18  C   UNL     1       9.204   7.169 -10.312  1.00  0.00     0.000 C 
BRANCH  18  19
ATOM     19  C   UNL     1       9.680   7.480  -8.884  1.00  0.00     0.000 C 
BRANCH  19  20
ATOM     20  C   UNL     1       9.151   8.839  -8.412  1.00  0.00     0.006 C 
BRANCH  20  21
ATOM     21  C   UNL     1       7.864   9.215  -9.149  1.00  0.00     0.053 C 
BRANCH  21  22
ATOM     22  C   UNL     1       7.238  10.426  -8.532  1.00  0.00     0.041 C 
ATOM     23  O   UNL     1       6.768  10.373  -7.364  1.00  0.00    -0.550 OA
ATOM     24  O   UNL     1       7.139  11.604  -9.261  1.00  0.00    -0.550 OA
ENDBRANCH  21  22
ENDBRANCH  20  21
ENDBRANCH  19  20
ENDBRANCH  18  19
ENDBRANCH  17  18
ENDBRANCH  16  17
ENDBRANCH  15  16
ENDBRANCH  14  15
ENDBRANCH  13  14
ENDBRANCH   1  13
TORSDOF 20
ENDMDL
