MODEL 1
REMARK VINA RESULT:    -6.887      0.000      0.000
REMARK INTER + INTRA:         -11.084
REMARK INTER:                  -9.705
REMARK INTRA:                  -1.379
REMARK UNBOUND:                -1.379
REMARK SMILES OC[C@H]1O[C@H](O[C@H]2OC=C[C@H]3[C@@H](O)[C@H]4O[C@@]4(CO)[C@@H]23)[C@@H](O)[C@@H](O)[C@H]1O
REMARK SMILES IDX 6 1 7 2 10 3 9 4 11 5 8 6 19 7 12 8 16 9 14 10 15 11 13 12
REMARK SMILES IDX 17 14 18 15 5 17 20 18 4 19 22 20 3 21 24 22 21 23 23 25
REMARK SMILES IDX 2 27 1 28 25 30
REMARK H PARENT 13 13 18 16 21 24 23 26 1 29 25 31
REMARK Flexibility Score: inf
ROOT
ATOM      1  O   UNL     1      -5.149  -1.222  -6.540  1.00  0.00    -0.310 OA
ENDROOT
BRANCH   1   2
ATOM      2  C   UNL     1      -6.395  -0.926  -5.934  1.00  0.00     0.315 C 
ATOM      3  C   UNL     1      -8.173   0.146  -4.001  1.00  0.00     0.018 C 
ATOM      4  C   UNL     1      -7.320  -0.824  -3.666  1.00  0.00     0.186 C 
ATOM      5  C   UNL     1      -8.046   0.931  -5.300  1.00  0.00     0.059 C 
ATOM      6  O   UNL     1      -6.314  -1.225  -4.546  1.00  0.00    -0.472 OA
ATOM      7  C   UNL     1      -6.787   0.557  -6.120  1.00  0.00     0.105 C 
ATOM      8  C   UNL     1      -7.877   2.441  -5.038  1.00  0.00     0.154 C 
ATOM      9  C   UNL     1      -5.703   1.560  -5.695  1.00  0.00     0.130 C 
ATOM     10  C   UNL     1      -6.379   2.722  -5.090  1.00  0.00     0.183 C 
ATOM     11  O   UNL     1      -5.606   1.829  -4.314  1.00  0.00    -0.360 OA
BRANCH   8  12
ATOM     12  O   UNL     1      -8.418   2.843  -3.806  1.00  0.00    -0.390 OA
ATOM     13  H   UNL     1      -7.938   3.671  -3.543  1.00  0.00     0.211 HD
ENDBRANCH   8  12
BRANCH   9  14
ATOM     14  C   UNL     1      -4.458   1.864  -6.548  1.00  0.00     0.195 C 
BRANCH  14  15
ATOM     15  O   UNL     1      -3.283   1.878  -5.779  1.00  0.00    -0.393 OA
ATOM     16  H   UNL     1      -3.553   2.101  -4.850  1.00  0.00     0.210 HD
ENDBRANCH  14  15
ENDBRANCH   9  14
ENDBRANCH   1   2
BRANCH   1  17
ATOM     17  C   UNL     1      -4.433  -2.231  -5.841  1.00  0.00     0.286 C 
ATOM     18  C   UNL     1      -3.096  -1.642  -5.356  1.00  0.00     0.202 C 
ATOM     19  O   UNL     1      -4.196  -3.292  -6.753  1.00  0.00    -0.341 OA
ATOM     20  C   UNL     1      -2.266  -2.728  -4.648  1.00  0.00     0.179 C 
ATOM     21  C   UNL     1      -3.513  -4.390  -6.161  1.00  0.00     0.178 C 
ATOM     22  C   UNL     1      -2.147  -3.965  -5.556  1.00  0.00     0.177 C 
BRANCH  18  23
ATOM     23  O   UNL     1      -3.336  -0.566  -4.487  1.00  0.00    -0.385 OA
ATOM     24  H   UNL     1      -3.530   0.224  -5.058  1.00  0.00     0.211 HD
ENDBRANCH  18  23
BRANCH  20  25
ATOM     25  O   UNL     1      -2.849  -3.082  -3.419  1.00  0.00    -0.387 OA
ATOM     26  H   UNL     1      -2.107  -3.218  -2.774  1.00  0.00     0.211 HD
ENDBRANCH  20  25
BRANCH  21  27
ATOM     27  C   UNL     1      -4.434  -5.200  -5.216  1.00  0.00     0.191 C 
BRANCH  27  28
ATOM     28  O   UNL     1      -3.892  -6.467  -4.953  1.00  0.00    -0.394 OA
ATOM     29  H   UNL     1      -3.208  -6.637  -5.653  1.00  0.00     0.210 HD
ENDBRANCH  27  28
ENDBRANCH  21  27
BRANCH  22  30
ATOM     30  O   UNL     1      -1.559  -5.035  -4.863  1.00  0.00    -0.387 OA
ATOM     31  H   UNL     1      -1.641  -4.830  -3.895  1.00  0.00     0.211 HD
ENDBRANCH  22  30
ENDBRANCH   1  17
TORSDOF 10
ENDMDL
MODEL 2
REMARK VINA RESULT:    -6.214      1.781      3.554
REMARK INTER + INTRA:         -10.136
REMARK INTER:                  -8.811
REMARK INTRA:                  -1.325
REMARK UNBOUND:                -1.379
REMARK SMILES OC[C@H]1O[C@H](O[C@H]2OC=C[C@H]3[C@@H](O)[C@H]4O[C@@]4(CO)[C@@H]23)[C@@H](O)[C@@H](O)[C@H]1O
REMARK SMILES IDX 6 1 7 2 10 3 9 4 11 5 8 6 19 7 12 8 16 9 14 10 15 11 13 12
REMARK SMILES IDX 17 14 18 15 5 17 20 18 4 19 22 20 3 21 24 22 21 23 23 25
REMARK SMILES IDX 2 27 1 28 25 30
REMARK H PARENT 13 13 18 16 21 24 23 26 1 29 25 31
REMARK Flexibility Score: inf
ROOT
ATOM      1  O   UNL     1      -4.194  -2.136  -4.109  1.00  0.00    -0.310 OA
ENDROOT
BRANCH   1   2
ATOM      2  C   UNL     1      -3.752  -0.964  -4.773  1.00  0.00     0.315 C 
ATOM      3  C   UNL     1      -3.652   1.005  -6.812  1.00  0.00     0.018 C 
ATOM      4  C   UNL     1      -3.302  -0.256  -7.076  1.00  0.00     0.186 C 
ATOM      5  C   UNL     1      -4.396   1.396  -5.542  1.00  0.00     0.059 C 
ATOM      6  O   UNL     1      -3.527  -1.269  -6.143  1.00  0.00    -0.472 OA
ATOM      7  C   UNL     1      -4.783   0.183  -4.661  1.00  0.00     0.105 C 
ATOM      8  C   UNL     1      -5.749   2.064  -5.858  1.00  0.00     0.154 C 
ATOM      9  C   UNL     1      -6.209  -0.200  -5.086  1.00  0.00     0.130 C 
ATOM     10  C   UNL     1      -6.805   0.967  -5.761  1.00  0.00     0.183 C 
ATOM     11  O   UNL     1      -6.469  -0.208  -6.472  1.00  0.00    -0.360 OA
BRANCH   8  12
ATOM     12  O   UNL     1      -5.774   2.671  -7.125  1.00  0.00    -0.390 OA
ATOM     13  H   UNL     1      -6.730   2.753  -7.380  1.00  0.00     0.211 HD
ENDBRANCH   8  12
BRANCH   9  14
ATOM     14  C   UNL     1      -7.156  -1.030  -4.200  1.00  0.00     0.195 C 
BRANCH  14  15
ATOM     15  O   UNL     1      -6.617  -1.258  -2.923  1.00  0.00    -0.393 OA
ATOM     16  H   UNL     1      -5.834  -1.855  -3.046  1.00  0.00     0.210 HD
ENDBRANCH  14  15
ENDBRANCH   9  14
ENDBRANCH   1   2
BRANCH   1  17
ATOM     17  C   UNL     1      -3.620  -3.316  -4.654  1.00  0.00     0.286 C 
ATOM     18  C   UNL     1      -4.731  -4.367  -4.834  1.00  0.00     0.202 C 
ATOM     19  O   UNL     1      -2.652  -3.784  -3.730  1.00  0.00    -0.341 OA
ATOM     20  C   UNL     1      -4.132  -5.682  -5.365  1.00  0.00     0.179 C 
ATOM     21  C   UNL     1      -1.973  -4.949  -4.179  1.00  0.00     0.178 C 
ATOM     22  C   UNL     1      -2.956  -6.115  -4.471  1.00  0.00     0.177 C 
BRANCH  18  23
ATOM     23  O   UNL     1      -5.708  -3.883  -5.719  1.00  0.00    -0.385 OA
ATOM     24  H   UNL     1      -6.015  -4.660  -6.257  1.00  0.00     0.211 HD
ENDBRANCH  18  23
BRANCH  20  25
ATOM     25  O   UNL     1      -3.703  -5.535  -6.695  1.00  0.00    -0.387 OA
ATOM     26  H   UNL     1      -2.910  -6.122  -6.811  1.00  0.00     0.211 HD
ENDBRANCH  20  25
BRANCH  21  27
ATOM     27  C   UNL     1      -0.965  -4.631  -5.310  1.00  0.00     0.191 C 
BRANCH  27  28
ATOM     28  O   UNL     1       0.141  -5.491  -5.252  1.00  0.00    -0.394 OA
ATOM     29  H   UNL     1       0.342  -5.762  -6.186  1.00  0.00     0.210 HD
ENDBRANCH  27  28
ENDBRANCH  21  27
BRANCH  22  30
ATOM     30  O   UNL     1      -2.276  -7.205  -5.040  1.00  0.00    -0.387 OA
ATOM     31  H   UNL     1      -2.886  -7.986  -4.983  1.00  0.00     0.211 HD
ENDBRANCH  22  30
ENDBRANCH   1  17
TORSDOF 10
ENDMDL
MODEL 3
REMARK VINA RESULT:    -6.089      1.711      6.379
REMARK INTER + INTRA:          -9.959
REMARK INTER:                  -9.018
REMARK INTRA:                  -0.942
REMARK UNBOUND:                -1.379
REMARK SMILES OC[C@H]1O[C@H](O[C@H]2OC=C[C@H]3[C@@H](O)[C@H]4O[C@@]4(CO)[C@@H]23)[C@@H](O)[C@@H](O)[C@H]1O
REMARK SMILES IDX 6 1 7 2 10 3 9 4 11 5 8 6 19 7 12 8 16 9 14 10 15 11 13 12
REMARK SMILES IDX 17 14 18 15 5 17 20 18 4 19 22 20 3 21 24 22 21 23 23 25
REMARK SMILES IDX 2 27 1 28 25 30
REMARK H PARENT 13 13 18 16 21 24 23 26 1 29 25 31
REMARK Flexibility Score: inf
ROOT
ATOM      1  O   UNL     1      -4.935  -1.411  -4.342  1.00  0.00    -0.310 OA
ENDROOT
BRANCH   1   2
ATOM      2  C   UNL     1      -3.841  -2.187  -4.799  1.00  0.00     0.315 C 
ATOM      3  C   UNL     1      -2.243  -4.505  -5.141  1.00  0.00     0.018 C 
ATOM      4  C   UNL     1      -2.408  -3.975  -3.928  1.00  0.00     0.186 C 
ATOM      5  C   UNL     1      -3.111  -4.111  -6.329  1.00  0.00     0.059 C 
ATOM      6  O   UNL     1      -3.340  -2.957  -3.714  1.00  0.00    -0.472 OA
ATOM      7  C   UNL     1      -4.248  -3.127  -5.957  1.00  0.00     0.105 C 
ATOM      8  C   UNL     1      -3.858  -5.326  -6.916  1.00  0.00     0.154 C 
ATOM      9  C   UNL     1      -5.475  -4.004  -5.663  1.00  0.00     0.130 C 
ATOM     10  C   UNL     1      -5.252  -5.316  -6.296  1.00  0.00     0.183 C 
ATOM     11  O   UNL     1      -5.248  -5.162  -4.891  1.00  0.00    -0.360 OA
BRANCH   8  12
ATOM     12  O   UNL     1      -3.205  -6.543  -6.657  1.00  0.00    -0.390 OA
ATOM     13  H   UNL     1      -3.837  -7.096  -6.127  1.00  0.00     0.211 HD
ENDBRANCH   8  12
BRANCH   9  14
ATOM     14  C   UNL     1      -6.918  -3.468  -5.697  1.00  0.00     0.195 C 
BRANCH  14  15
ATOM     15  O   UNL     1      -7.021  -2.279  -6.437  1.00  0.00    -0.393 OA
ATOM     16  H   UNL     1      -7.527  -1.636  -5.875  1.00  0.00     0.210 HD
ENDBRANCH  14  15
ENDBRANCH   9  14
ENDBRANCH   1   2
BRANCH   1  17
ATOM     17  C   UNL     1      -4.939  -0.102  -4.895  1.00  0.00     0.286 C 
ATOM     18  C   UNL     1      -6.166   0.657  -4.359  1.00  0.00     0.202 C 
ATOM     19  O   UNL     1      -5.027  -0.236  -6.305  1.00  0.00    -0.341 OA
ATOM     20  C   UNL     1      -6.236   2.061  -4.987  1.00  0.00     0.179 C 
ATOM     21  C   UNL     1      -5.002   1.013  -6.984  1.00  0.00     0.178 C 
ATOM     22  C   UNL     1      -6.152   1.948  -6.520  1.00  0.00     0.177 C 
BRANCH  18  23
ATOM     23  O   UNL     1      -6.096   0.752  -2.959  1.00  0.00    -0.385 OA
ATOM     24  H   UNL     1      -6.892   1.269  -2.668  1.00  0.00     0.211 HD
ENDBRANCH  18  23
BRANCH  20  25
ATOM     25  O   UNL     1      -5.200   2.878  -4.503  1.00  0.00    -0.387 OA
ATOM     26  H   UNL     1      -4.671   2.330  -3.866  1.00  0.00     0.211 HD
ENDBRANCH  20  25
BRANCH  21  27
ATOM     27  C   UNL     1      -3.589   1.646  -6.976  1.00  0.00     0.191 C 
BRANCH  27  28
ATOM     28  O   UNL     1      -2.599   0.664  -7.124  1.00  0.00    -0.394 OA
ATOM     29  H   UNL     1      -2.926   0.029  -7.814  1.00  0.00     0.210 HD
ENDBRANCH  27  28
ENDBRANCH  21  27
BRANCH  22  30
ATOM     30  O   UNL     1      -6.024   3.218  -7.105  1.00  0.00    -0.387 OA
ATOM     31  H   UNL     1      -5.052   3.407  -7.172  1.00  0.00     0.211 HD
ENDBRANCH  22  30
ENDBRANCH   1  17
TORSDOF 10
ENDMDL
MODEL 4
REMARK VINA RESULT:    -6.001      1.850      7.215
REMARK INTER + INTRA:          -9.836
REMARK INTER:                  -8.533
REMARK INTRA:                  -1.303
REMARK UNBOUND:                -1.379
REMARK SMILES OC[C@H]1O[C@H](O[C@H]2OC=C[C@H]3[C@@H](O)[C@H]4O[C@@]4(CO)[C@@H]23)[C@@H](O)[C@@H](O)[C@H]1O
REMARK SMILES IDX 6 1 7 2 10 3 9 4 11 5 8 6 19 7 12 8 16 9 14 10 15 11 13 12
REMARK SMILES IDX 17 14 18 15 5 17 20 18 4 19 22 20 3 21 24 22 21 23 23 25
REMARK SMILES IDX 2 27 1 28 25 30
REMARK H PARENT 13 13 18 16 21 24 23 26 1 29 25 31
REMARK Flexibility Score: inf
ROOT
ATOM      1  O   UNL     1      -4.366  -3.475  -6.529  1.00  0.00    -0.310 OA
ENDROOT
BRANCH   1   2
ATOM      2  C   UNL     1      -3.092  -4.080  -6.671  1.00  0.00     0.315 C 
ATOM      3  C   UNL     1      -0.805  -5.569  -5.900  1.00  0.00     0.018 C 
ATOM      4  C   UNL     1      -1.090  -4.413  -5.298  1.00  0.00     0.186 C 
ATOM      5  C   UNL     1      -1.809  -6.296  -6.785  1.00  0.00     0.059 C 
ATOM      6  O   UNL     1      -2.306  -3.769  -5.528  1.00  0.00    -0.472 OA
ATOM      7  C   UNL     1      -3.198  -5.614  -6.824  1.00  0.00     0.105 C 
ATOM      8  C   UNL     1      -2.112  -7.713  -6.257  1.00  0.00     0.154 C 
ATOM      9  C   UNL     1      -4.030  -6.306  -5.733  1.00  0.00     0.130 C 
ATOM     10  C   UNL     1      -3.393  -7.602  -5.437  1.00  0.00     0.183 C 
ATOM     11  O   UNL     1      -3.380  -6.540  -4.503  1.00  0.00    -0.360 OA
BRANCH   8  12
ATOM     12  O   UNL     1      -1.066  -8.240  -5.481  1.00  0.00    -0.390 OA
ATOM     13  H   UNL     1      -0.527  -8.814  -6.086  1.00  0.00     0.211 HD
ENDBRANCH   8  12
BRANCH   9  14
ATOM     14  C   UNL     1      -5.569  -6.282  -5.707  1.00  0.00     0.195 C 
BRANCH  14  15
ATOM     15  O   UNL     1      -6.066  -5.309  -4.825  1.00  0.00    -0.393 OA
ATOM     16  H   UNL     1      -6.500  -5.797  -4.077  1.00  0.00     0.210 HD
ENDBRANCH  14  15
ENDBRANCH   9  14
ENDBRANCH   1   2
BRANCH   1  17
ATOM     17  C   UNL     1      -4.281  -2.138  -6.057  1.00  0.00     0.286 C 
ATOM     18  C   UNL     1      -5.227  -1.979  -4.852  1.00  0.00     0.202 C 
ATOM     19  O   UNL     1      -4.693  -1.286  -7.114  1.00  0.00    -0.341 OA
ATOM     20  C   UNL     1      -5.207  -0.523  -4.353  1.00  0.00     0.179 C 
ATOM     21  C   UNL     1      -4.617   0.093  -6.778  1.00  0.00     0.178 C 
ATOM     22  C   UNL     1      -5.476   0.432  -5.529  1.00  0.00     0.177 C 
BRANCH  18  23
ATOM     23  O   UNL     1      -4.841  -2.853  -3.823  1.00  0.00    -0.385 OA
ATOM     24  H   UNL     1      -5.675  -3.254  -3.462  1.00  0.00     0.211 HD
ENDBRANCH  18  23
BRANCH  20  25
ATOM     25  O   UNL     1      -3.974  -0.217  -3.751  1.00  0.00    -0.387 OA
ATOM     26  H   UNL     1      -4.175   0.249  -2.897  1.00  0.00     0.211 HD
ENDBRANCH  20  25
BRANCH  21  27
ATOM     27  C   UNL     1      -3.154   0.597  -6.733  1.00  0.00     0.191 C 
BRANCH  27  28
ATOM     28  O   UNL     1      -3.043   1.746  -5.936  1.00  0.00    -0.394 OA
ATOM     29  H   UNL     1      -2.636   1.459  -5.076  1.00  0.00     0.210 HD
ENDBRANCH  27  28
ENDBRANCH  21  27
BRANCH  22  30
ATOM     30  O   UNL     1      -5.277   1.767  -5.140  1.00  0.00    -0.387 OA
ATOM     31  H   UNL     1      -4.615   2.155  -5.770  1.00  0.00     0.211 HD
ENDBRANCH  22  30
ENDBRANCH   1  17
TORSDOF 10
ENDMDL
MODEL 5
REMARK VINA RESULT:    -5.998      3.763      8.851
REMARK INTER + INTRA:          -9.832
REMARK INTER:                  -8.635
REMARK INTRA:                  -1.197
REMARK UNBOUND:                -1.379
REMARK SMILES OC[C@H]1O[C@H](O[C@H]2OC=C[C@H]3[C@@H](O)[C@H]4O[C@@]4(CO)[C@@H]23)[C@@H](O)[C@@H](O)[C@H]1O
REMARK SMILES IDX 6 1 7 2 10 3 9 4 11 5 8 6 19 7 12 8 16 9 14 10 15 11 13 12
REMARK SMILES IDX 17 14 18 15 5 17 20 18 4 19 22 20 3 21 24 22 21 23 23 25
REMARK SMILES IDX 2 27 1 28 25 30
REMARK H PARENT 13 13 18 16 21 24 23 26 1 29 25 31
REMARK Flexibility Score: inf
ROOT
ATOM      1  O   UNL     1      -1.053  -5.644  -4.921  1.00  0.00    -0.310 OA
ENDROOT
BRANCH   1   2
ATOM      2  C   UNL     1      -0.658  -5.977  -3.602  1.00  0.00     0.315 C 
ATOM      3  C   UNL     1       0.315  -7.614  -1.499  1.00  0.00     0.018 C 
ATOM      4  C   UNL     1      -0.845  -7.900  -2.093  1.00  0.00     0.186 C 
ATOM      5  C   UNL     1       1.308  -6.620  -2.086  1.00  0.00     0.059 C 
ATOM      6  O   UNL     1      -1.241  -7.225  -3.248  1.00  0.00    -0.472 OA
ATOM      7  C   UNL     1       0.879  -6.069  -3.469  1.00  0.00     0.105 C 
ATOM      8  C   UNL     1       2.675  -7.277  -2.363  1.00  0.00     0.154 C 
ATOM      9  C   UNL     1       1.554  -6.982  -4.505  1.00  0.00     0.130 C 
ATOM     10  C   UNL     1       2.675  -7.667  -3.838  1.00  0.00     0.183 C 
ATOM     11  O   UNL     1       1.515  -8.367  -4.241  1.00  0.00    -0.360 OA
BRANCH   8  12
ATOM     12  O   UNL     1       2.914  -8.398  -1.550  1.00  0.00    -0.390 OA
ATOM     13  H   UNL     1       2.919  -8.071  -0.613  1.00  0.00     0.211 HD
ENDBRANCH   8  12
BRANCH   9  14
ATOM     14  C   UNL     1       1.786  -6.563  -5.968  1.00  0.00     0.195 C 
BRANCH  14  15
ATOM     15  O   UNL     1       1.636  -5.179  -6.151  1.00  0.00    -0.393 OA
ATOM     16  H   UNL     1       2.473  -4.756  -5.827  1.00  0.00     0.210 HD
ENDBRANCH  14  15
ENDBRANCH   9  14
ENDBRANCH   1   2
BRANCH   1  17
ATOM     17  C   UNL     1      -2.051  -4.632  -4.948  1.00  0.00     0.286 C 
ATOM     18  C   UNL     1      -3.405  -5.285  -5.282  1.00  0.00     0.202 C 
ATOM     19  O   UNL     1      -1.693  -3.708  -5.963  1.00  0.00    -0.341 OA
ATOM     20  C   UNL     1      -4.500  -4.207  -5.382  1.00  0.00     0.179 C 
ATOM     21  C   UNL     1      -2.600  -2.618  -6.067  1.00  0.00     0.178 C 
ATOM     22  C   UNL     1      -4.050  -3.097  -6.348  1.00  0.00     0.177 C 
BRANCH  18  23
ATOM     23  O   UNL     1      -3.737  -6.229  -4.297  1.00  0.00    -0.385 OA
ATOM     24  H   UNL     1      -4.490  -6.766  -4.659  1.00  0.00     0.211 HD
ENDBRANCH  18  23
BRANCH  20  25
ATOM     25  O   UNL     1      -4.784  -3.664  -4.117  1.00  0.00    -0.387 OA
ATOM     26  H   UNL     1      -5.770  -3.698  -4.000  1.00  0.00     0.211 HD
ENDBRANCH  20  25
BRANCH  21  27
ATOM     27  C   UNL     1      -2.446  -1.624  -4.890  1.00  0.00     0.191 C 
BRANCH  27  28
ATOM     28  O   UNL     1      -2.887  -0.344  -5.254  1.00  0.00    -0.394 OA
ATOM     29  H   UNL     1      -3.103  -0.380  -6.223  1.00  0.00     0.210 HD
ENDBRANCH  27  28
ENDBRANCH  21  27
BRANCH  22  30
ATOM     30  O   UNL     1      -4.944  -2.015  -6.311  1.00  0.00    -0.387 OA
ATOM     31  H   UNL     1      -4.848  -1.533  -7.174  1.00  0.00     0.211 HD
ENDBRANCH  22  30
ENDBRANCH   1  17
TORSDOF 10
ENDMDL
MODEL 6
REMARK VINA RESULT:    -5.964      2.667      5.046
REMARK INTER + INTRA:          -9.784
REMARK INTER:                  -8.512
REMARK INTRA:                  -1.272
REMARK UNBOUND:                -1.379
REMARK SMILES OC[C@H]1O[C@H](O[C@H]2OC=C[C@H]3[C@@H](O)[C@H]4O[C@@]4(CO)[C@@H]23)[C@@H](O)[C@@H](O)[C@H]1O
REMARK SMILES IDX 6 1 7 2 10 3 9 4 11 5 8 6 19 7 12 8 16 9 14 10 15 11 13 12
REMARK SMILES IDX 17 14 18 15 5 17 20 18 4 19 22 20 3 21 24 22 21 23 23 25
REMARK SMILES IDX 2 27 1 28 25 30
REMARK H PARENT 13 13 18 16 21 24 23 26 1 29 25 31
REMARK Flexibility Score: inf
ROOT
ATOM      1  O   UNL     1      -2.925  -4.936  -5.204  1.00  0.00    -0.310 OA
ENDROOT
BRANCH   1   2
ATOM      2  C   UNL     1      -3.097  -3.610  -4.735  1.00  0.00     0.315 C 
ATOM      3  C   UNL     1      -3.844  -0.876  -4.840  1.00  0.00     0.018 C 
ATOM      4  C   UNL     1      -2.867  -1.337  -5.623  1.00  0.00     0.186 C 
ATOM      5  C   UNL     1      -4.798  -1.801  -4.095  1.00  0.00     0.059 C 
ATOM      6  O   UNL     1      -2.619  -2.706  -5.724  1.00  0.00    -0.472 OA
ATOM      7  C   UNL     1      -4.578  -3.298  -4.422  1.00  0.00     0.105 C 
ATOM      8  C   UNL     1      -6.265  -1.550  -4.499  1.00  0.00     0.154 C 
ATOM      9  C   UNL     1      -5.551  -3.619  -5.568  1.00  0.00     0.130 C 
ATOM     10  C   UNL     1      -6.600  -2.584  -5.570  1.00  0.00     0.183 C 
ATOM     11  O   UNL     1      -5.638  -2.664  -6.603  1.00  0.00    -0.360 OA
BRANCH   8  12
ATOM     12  O   UNL     1      -6.483  -0.247  -4.977  1.00  0.00    -0.390 OA
ATOM     13  H   UNL     1      -6.978  -0.339  -5.832  1.00  0.00     0.211 HD
ENDBRANCH   8  12
BRANCH   9  14
ATOM     14  C   UNL     1      -6.006  -5.050  -5.908  1.00  0.00     0.195 C 
BRANCH  14  15
ATOM     15  O   UNL     1      -5.794  -5.938  -4.841  1.00  0.00    -0.393 OA
ATOM     16  H   UNL     1      -4.955  -6.429  -5.041  1.00  0.00     0.210 HD
ENDBRANCH  14  15
ENDBRANCH   9  14
ENDBRANCH   1   2
BRANCH   1  17
ATOM     17  C   UNL     1      -1.811  -5.582  -4.606  1.00  0.00     0.286 C 
ATOM     18  C   UNL     1      -0.754  -5.850  -5.693  1.00  0.00     0.202 C 
ATOM     19  O   UNL     1      -2.271  -6.809  -4.062  1.00  0.00    -0.341 OA
ATOM     20  C   UNL     1       0.444  -6.608  -5.091  1.00  0.00     0.179 C 
ATOM     21  C   UNL     1      -1.250  -7.540  -3.397  1.00  0.00     0.178 C 
ATOM     22  C   UNL     1      -0.056  -7.854  -4.339  1.00  0.00     0.177 C 
BRANCH  18  23
ATOM     23  O   UNL     1      -0.330  -4.636  -6.257  1.00  0.00    -0.385 OA
ATOM     24  H   UNL     1       0.495  -4.835  -6.774  1.00  0.00     0.211 HD
ENDBRANCH  18  23
BRANCH  20  25
ATOM     25  O   UNL     1       1.175  -5.778  -4.223  1.00  0.00    -0.387 OA
ATOM     26  H   UNL     1       0.557  -5.066  -3.911  1.00  0.00     0.211 HD
ENDBRANCH  20  25
BRANCH  21  27
ATOM     27  C   UNL     1      -0.873  -6.900  -2.038  1.00  0.00     0.191 C 
BRANCH  27  28
ATOM     28  O   UNL     1      -0.371  -7.865  -1.152  1.00  0.00    -0.394 OA
ATOM     29  H   UNL     1       0.619  -7.788  -1.177  1.00  0.00     0.210 HD
ENDBRANCH  27  28
ENDBRANCH  21  27
BRANCH  22  30
ATOM     30  O   UNL     1       0.993  -8.456  -3.624  1.00  0.00    -0.387 OA
ATOM     31  H   UNL     1       0.576  -9.019  -2.921  1.00  0.00     0.211 HD
ENDBRANCH  22  30
ENDBRANCH   1  17
TORSDOF 10
ENDMDL
MODEL 7
REMARK VINA RESULT:    -5.947      1.715      3.781
REMARK INTER + INTRA:          -9.760
REMARK INTER:                  -8.458
REMARK INTRA:                  -1.302
REMARK UNBOUND:                -1.379
REMARK SMILES OC[C@H]1O[C@H](O[C@H]2OC=C[C@H]3[C@@H](O)[C@H]4O[C@@]4(CO)[C@@H]23)[C@@H](O)[C@@H](O)[C@H]1O
REMARK SMILES IDX 6 1 7 2 10 3 9 4 11 5 8 6 19 7 12 8 16 9 14 10 15 11 13 12
REMARK SMILES IDX 17 14 18 15 5 17 20 18 4 19 22 20 3 21 24 22 21 23 23 25
REMARK SMILES IDX 2 27 1 28 25 30
REMARK H PARENT 13 13 18 16 21 24 23 26 1 29 25 31
REMARK Flexibility Score: inf
ROOT
ATOM      1  O   UNL     1      -6.260  -0.334  -3.988  1.00  0.00    -0.310 OA
ENDROOT
BRANCH   1   2
ATOM      2  C   UNL     1      -6.311   1.057  -4.255  1.00  0.00     0.315 C 
ATOM      3  C   UNL     1      -6.879   3.417  -5.722  1.00  0.00     0.018 C 
ATOM      4  C   UNL     1      -5.988   2.537  -6.182  1.00  0.00     0.186 C 
ATOM      5  C   UNL     1      -7.843   3.086  -4.590  1.00  0.00     0.059 C 
ATOM      6  O   UNL     1      -5.839   1.289  -5.577  1.00  0.00    -0.472 OA
ATOM      7  C   UNL     1      -7.745   1.616  -4.114  1.00  0.00     0.105 C 
ATOM      8  C   UNL     1      -9.313   3.229  -5.034  1.00  0.00     0.154 C 
ATOM      9  C   UNL     1      -8.809   0.849  -4.915  1.00  0.00     0.130 C 
ATOM     10  C   UNL     1      -9.784   1.831  -5.421  1.00  0.00     0.183 C 
ATOM     11  O   UNL     1      -8.899   1.153  -6.289  1.00  0.00    -0.360 OA
BRANCH   8  12
ATOM     12  O   UNL     1      -9.473   4.125  -6.104  1.00  0.00    -0.390 OA
ATOM     13  H   UNL     1     -10.166   4.779  -5.824  1.00  0.00     0.211 HD
ENDBRANCH   8  12
BRANCH   9  14
ATOM     14  C   UNL     1      -9.380  -0.509  -4.469  1.00  0.00     0.195 C 
BRANCH  14  15
ATOM     15  O   UNL     1      -8.872  -1.571  -5.235  1.00  0.00    -0.393 OA
ATOM     16  H   UNL     1      -8.600  -1.188  -6.109  1.00  0.00     0.210 HD
ENDBRANCH  14  15
ENDBRANCH   9  14
ENDBRANCH   1   2
BRANCH   1  17
ATOM     17  C   UNL     1      -5.239  -0.990  -4.727  1.00  0.00     0.286 C 
ATOM     18  C   UNL     1      -5.338  -2.505  -4.470  1.00  0.00     0.202 C 
ATOM     19  O   UNL     1      -3.993  -0.498  -4.261  1.00  0.00    -0.341 OA
ATOM     20  C   UNL     1      -4.206  -3.242  -5.207  1.00  0.00     0.179 C 
ATOM     21  C   UNL     1      -2.882  -1.053  -4.953  1.00  0.00     0.178 C 
ATOM     22  C   UNL     1      -2.852  -2.603  -4.850  1.00  0.00     0.177 C 
BRANCH  18  23
ATOM     23  O   UNL     1      -6.589  -2.980  -4.895  1.00  0.00    -0.385 OA
ATOM     24  H   UNL     1      -6.714  -3.871  -4.472  1.00  0.00     0.211 HD
ENDBRANCH  18  23
BRANCH  20  25
ATOM     25  O   UNL     1      -4.408  -3.206  -6.598  1.00  0.00    -0.387 OA
ATOM     26  H   UNL     1      -4.406  -4.147  -6.916  1.00  0.00     0.211 HD
ENDBRANCH  20  25
BRANCH  21  27
ATOM     27  C   UNL     1      -2.748  -0.480  -6.385  1.00  0.00     0.191 C 
BRANCH  27  28
ATOM     28  O   UNL     1      -2.864   0.918  -6.378  1.00  0.00    -0.394 OA
ATOM     29  H   UNL     1      -3.801   1.129  -6.632  1.00  0.00     0.210 HD
ENDBRANCH  27  28
ENDBRANCH  21  27
BRANCH  22  30
ATOM     30  O   UNL     1      -1.827  -3.131  -5.651  1.00  0.00    -0.387 OA
ATOM     31  H   UNL     1      -1.631  -4.040  -5.305  1.00  0.00     0.211 HD
ENDBRANCH  22  30
ENDBRANCH   1  17
TORSDOF 10
ENDMDL
MODEL 8
REMARK VINA RESULT:    -5.927      1.690      6.533
REMARK INTER + INTRA:          -9.732
REMARK INTER:                  -8.274
REMARK INTRA:                  -1.458
REMARK UNBOUND:                -1.379
REMARK SMILES OC[C@H]1O[C@H](O[C@H]2OC=C[C@H]3[C@@H](O)[C@H]4O[C@@]4(CO)[C@@H]23)[C@@H](O)[C@@H](O)[C@H]1O
REMARK SMILES IDX 6 1 7 2 10 3 9 4 11 5 8 6 19 7 12 8 16 9 14 10 15 11 13 12
REMARK SMILES IDX 17 14 18 15 5 17 20 18 4 19 22 20 3 21 24 22 21 23 23 25
REMARK SMILES IDX 2 27 1 28 25 30
REMARK H PARENT 13 13 18 16 21 24 23 26 1 29 25 31
REMARK Flexibility Score: inf
ROOT
ATOM      1  O   UNL     1      -3.856  -2.134  -4.611  1.00  0.00    -0.310 OA
ENDROOT
BRANCH   1   2
ATOM      2  C   UNL     1      -4.632  -3.313  -4.487  1.00  0.00     0.315 C 
ATOM      3  C   UNL     1      -5.891  -5.714  -5.321  1.00  0.00     0.018 C 
ATOM      4  C   UNL     1      -6.276  -4.541  -5.828  1.00  0.00     0.186 C 
ATOM      5  C   UNL     1      -4.599  -5.876  -4.531  1.00  0.00     0.059 C 
ATOM      6  O   UNL     1      -5.544  -3.380  -5.576  1.00  0.00    -0.472 OA
ATOM      7  C   UNL     1      -3.751  -4.582  -4.472  1.00  0.00     0.105 C 
ATOM      8  C   UNL     1      -3.655  -6.903  -5.190  1.00  0.00     0.154 C 
ATOM      9  C   UNL     1      -2.760  -4.683  -5.643  1.00  0.00     0.130 C 
ATOM     10  C   UNL     1      -2.668  -6.101  -6.033  1.00  0.00     0.183 C 
ATOM     11  O   UNL     1      -3.284  -5.142  -6.870  1.00  0.00    -0.360 OA
BRANCH   8  12
ATOM     12  O   UNL     1      -4.339  -7.842  -5.979  1.00  0.00    -0.390 OA
ATOM     13  H   UNL     1      -4.019  -8.738  -5.693  1.00  0.00     0.211 HD
ENDBRANCH   8  12
BRANCH   9  14
ATOM     14  C   UNL     1      -1.453  -3.872  -5.709  1.00  0.00     0.195 C 
BRANCH  14  15
ATOM     15  O   UNL     1      -1.608  -2.680  -6.435  1.00  0.00    -0.393 OA
ATOM     16  H   UNL     1      -0.772  -2.161  -6.312  1.00  0.00     0.210 HD
ENDBRANCH  14  15
ENDBRANCH   9  14
ENDBRANCH   1   2
BRANCH   1  17
ATOM     17  C   UNL     1      -4.642  -1.002  -4.957  1.00  0.00     0.286 C 
ATOM     18  C   UNL     1      -3.854  -0.144  -5.965  1.00  0.00     0.202 C 
ATOM     19  O   UNL     1      -4.874  -0.265  -3.767  1.00  0.00    -0.341 OA
ATOM     20  C   UNL     1      -4.652   1.126  -6.314  1.00  0.00     0.179 C 
ATOM     21  C   UNL     1      -5.687   0.882  -3.974  1.00  0.00     0.178 C 
ATOM     22  C   UNL     1      -5.069   1.849  -5.021  1.00  0.00     0.177 C 
BRANCH  18  23
ATOM     23  O   UNL     1      -3.591  -0.890  -7.125  1.00  0.00    -0.385 OA
ATOM     24  H   UNL     1      -4.200  -0.544  -7.830  1.00  0.00     0.211 HD
ENDBRANCH  18  23
BRANCH  20  25
ATOM     25  O   UNL     1      -5.786   0.809  -7.081  1.00  0.00    -0.387 OA
ATOM     26  H   UNL     1      -6.186  -0.009  -6.685  1.00  0.00     0.211 HD
ENDBRANCH  20  25
BRANCH  21  27
ATOM     27  C   UNL     1      -7.169   0.504  -4.214  1.00  0.00     0.191 C 
BRANCH  27  28
ATOM     28  O   UNL     1      -8.023   1.541  -3.810  1.00  0.00    -0.394 OA
ATOM     29  H   UNL     1      -7.984   2.236  -4.519  1.00  0.00     0.210 HD
ENDBRANCH  27  28
ENDBRANCH  21  27
BRANCH  22  30
ATOM     30  O   UNL     1      -5.954   2.901  -5.304  1.00  0.00    -0.387 OA
ATOM     31  H   UNL     1      -6.503   3.044  -4.489  1.00  0.00     0.211 HD
ENDBRANCH  22  30
ENDBRANCH   1  17
TORSDOF 10
ENDMDL
MODEL 9
REMARK VINA RESULT:    -5.860      1.610      6.412
REMARK INTER + INTRA:          -9.638
REMARK INTER:                  -8.268
REMARK INTRA:                  -1.369
REMARK UNBOUND:                -1.379
REMARK SMILES OC[C@H]1O[C@H](O[C@H]2OC=C[C@H]3[C@@H](O)[C@H]4O[C@@]4(CO)[C@@H]23)[C@@H](O)[C@@H](O)[C@H]1O
REMARK SMILES IDX 6 1 7 2 10 3 9 4 11 5 8 6 19 7 12 8 16 9 14 10 15 11 13 12
REMARK SMILES IDX 17 14 18 15 5 17 20 18 4 19 22 20 3 21 24 22 21 23 23 25
REMARK SMILES IDX 2 27 1 28 25 30
REMARK H PARENT 13 13 18 16 21 24 23 26 1 29 25 31
REMARK Flexibility Score: inf
ROOT
ATOM      1  O   UNL     1      -4.982  -1.415  -6.412  1.00  0.00    -0.310 OA
ENDROOT
BRANCH   1   2
ATOM      2  C   UNL     1      -5.575  -2.607  -5.925  1.00  0.00     0.315 C 
ATOM      3  C   UNL     1      -6.214  -5.370  -5.855  1.00  0.00     0.018 C 
ATOM      4  C   UNL     1      -6.642  -4.605  -6.861  1.00  0.00     0.186 C 
ATOM      5  C   UNL     1      -5.138  -4.908  -4.881  1.00  0.00     0.059 C 
ATOM      6  O   UNL     1      -6.179  -3.297  -7.011  1.00  0.00    -0.472 OA
ATOM      7  C   UNL     1      -4.538  -3.527  -5.241  1.00  0.00     0.105 C 
ATOM      8  C   UNL     1      -3.918  -5.851  -4.892  1.00  0.00     0.154 C 
ATOM      9  C   UNL     1      -3.294  -3.825  -6.092  1.00  0.00     0.130 C 
ATOM     10  C   UNL     1      -2.894  -5.219  -5.830  1.00  0.00     0.183 C 
ATOM     11  O   UNL     1      -3.432  -4.826  -7.076  1.00  0.00    -0.360 OA
BRANCH   8  12
ATOM     12  O   UNL     1      -4.240  -7.153  -5.308  1.00  0.00    -0.390 OA
ATOM     13  H   UNL     1      -3.390  -7.576  -5.598  1.00  0.00     0.211 HD
ENDBRANCH   8  12
BRANCH   9  14
ATOM     14  C   UNL     1      -2.149  -2.815  -6.289  1.00  0.00     0.195 C 
BRANCH  14  15
ATOM     15  O   UNL     1      -2.159  -1.808  -5.310  1.00  0.00    -0.393 OA
ATOM     16  H   UNL     1      -1.222  -1.700  -5.002  1.00  0.00     0.210 HD
ENDBRANCH  14  15
ENDBRANCH   9  14
ENDBRANCH   1   2
BRANCH   1  17
ATOM     17  C   UNL     1      -5.614  -0.249  -5.902  1.00  0.00     0.286 C 
ATOM     18  C   UNL     1      -5.405  -0.202  -4.377  1.00  0.00     0.202 C 
ATOM     19  O   UNL     1      -6.996  -0.349  -6.201  1.00  0.00    -0.341 OA
ATOM     20  C   UNL     1      -6.131   1.018  -3.781  1.00  0.00     0.179 C 
ATOM     21  C   UNL     1      -7.741   0.784  -5.772  1.00  0.00     0.178 C 
ATOM     22  C   UNL     1      -7.599   1.025  -4.244  1.00  0.00     0.177 C 
BRANCH  18  23
ATOM     23  O   UNL     1      -4.033  -0.145  -4.084  1.00  0.00    -0.385 OA
ATOM     24  H   UNL     1      -3.601   0.337  -4.837  1.00  0.00     0.211 HD
ENDBRANCH  18  23
BRANCH  20  25
ATOM     25  O   UNL     1      -5.496   2.213  -4.162  1.00  0.00    -0.387 OA
ATOM     26  H   UNL     1      -6.182   2.930  -4.126  1.00  0.00     0.211 HD
ENDBRANCH  20  25
BRANCH  21  27
ATOM     27  C   UNL     1      -7.477   2.020  -6.666  1.00  0.00     0.191 C 
BRANCH  27  28
ATOM     28  O   UNL     1      -8.533   2.940  -6.573  1.00  0.00    -0.394 OA
ATOM     29  H   UNL     1      -8.170   3.821  -6.852  1.00  0.00     0.210 HD
ENDBRANCH  27  28
ENDBRANCH  21  27
BRANCH  22  30
ATOM     30  O   UNL     1      -8.231   2.222  -3.872  1.00  0.00    -0.387 OA
ATOM     31  H   UNL     1      -8.129   2.850  -4.633  1.00  0.00     0.211 HD
ENDBRANCH  22  30
ENDBRANCH   1  17
TORSDOF 10
ENDMDL
