MODEL 1
REMARK VINA RESULT:     6.425      0.000      0.000
REMARK INTER + INTRA:          12.064
REMARK INTER:                  12.434
REMARK INTRA:                  -0.370
REMARK UNBOUND:                -0.370
REMARK SMILES CCCCCCCCCCCCCCCCCC(=O)[O-]
REMARK SMILES IDX 10 1 11 2 12 3 13 4 14 5 15 6 16 7 17 8 18 9 19 10 20 11
REMARK SMILES IDX 9 12 8 13 7 14 6 15 5 16 4 17 3 18 2 19 1 20
REMARK H PARENT
REMARK Flexibility Score: inf
ROOT
ATOM      1  C   UNL     1      12.602  -0.502 -17.499  1.00  0.00     0.000 C 
ENDROOT
BRANCH   1   2
ATOM      2  C   UNL     1      12.264  -1.482 -16.364  1.00  0.00     0.000 C 
BRANCH   2   3
ATOM      3  C   UNL     1      10.905  -2.150 -16.601  1.00  0.00     0.000 C 
BRANCH   3   4
ATOM      4  C   UNL     1      11.001  -3.671 -16.398  1.00  0.00     0.000 C 
BRANCH   4   5
ATOM      5  C   UNL     1      11.246  -4.429 -17.713  1.00  0.00     0.000 C 
BRANCH   5   6
ATOM      6  C   UNL     1      12.113  -5.682 -17.520  1.00  0.00     0.000 C 
BRANCH   6   7
ATOM      7  C   UNL     1      12.712  -6.146 -18.854  1.00  0.00     0.006 C 
BRANCH   7   8
ATOM      8  C   UNL     1      14.243  -6.145 -18.800  1.00  0.00     0.053 C 
BRANCH   8   9
ATOM      9  C   UNL     1      14.739  -7.293 -17.980  1.00  0.00     0.041 C 
ATOM     10  O   UNL     1      14.994  -8.398 -18.527  1.00  0.00    -0.550 OA
ATOM     11  O   UNL     1      14.878  -7.158 -16.604  1.00  0.00    -0.550 OA
ENDBRANCH   8   9
ENDBRANCH   7   8
ENDBRANCH   6   7
ENDBRANCH   5   6
ENDBRANCH   4   5
ENDBRANCH   3   4
ENDBRANCH   2   3
ENDBRANCH   1   2
BRANCH   1  12
ATOM     12  C   UNL     1      14.117  -0.319 -17.690  1.00  0.00     0.000 C 
BRANCH  12  13
ATOM     13  C   UNL     1      14.479   1.076 -18.228  1.00  0.00    -0.000 C 
BRANCH  13  14
ATOM     14  C   UNL     1      13.364   2.112 -17.998  1.00  0.00    -0.000 C 
BRANCH  14  15
ATOM     15  C   UNL     1      13.079   2.455 -16.521  1.00  0.00    -0.000 C 
BRANCH  15  16
ATOM     16  C   UNL     1      11.690   2.036 -16.005  1.00  0.00    -0.000 C 
BRANCH  16  17
ATOM     17  C   UNL     1      11.090   3.049 -15.016  1.00  0.00    -0.000 C 
BRANCH  17  18
ATOM     18  C   UNL     1      10.552   2.388 -13.733  1.00  0.00    -0.000 C 
BRANCH  18  19
ATOM     19  C   UNL     1      10.380   0.861 -13.810  1.00  0.00    -0.003 C 
ATOM     20  C   UNL     1       9.284   0.334 -12.886  1.00  0.00     0.004 C 
ENDBRANCH  18  19
ENDBRANCH  17  18
ENDBRANCH  16  17
ENDBRANCH  15  16
ENDBRANCH  14  15
ENDBRANCH  13  14
ENDBRANCH  12  13
ENDBRANCH   1  12
TORSDOF 16
ENDMDL
MODEL 2
REMARK VINA RESULT:     6.626      3.613      8.283
REMARK INTER + INTRA:          12.453
REMARK INTER:                  12.181
REMARK INTRA:                   0.272
REMARK UNBOUND:                -0.370
REMARK SMILES CCCCCCCCCCCCCCCCCC(=O)[O-]
REMARK SMILES IDX 10 1 11 2 12 3 13 4 14 5 15 6 16 7 17 8 18 9 19 10 20 11
REMARK SMILES IDX 9 12 8 13 7 14 6 15 5 16 4 17 3 18 2 19 1 20
REMARK H PARENT
REMARK Flexibility Score: inf
ROOT
ATOM      1  C   UNL     1      12.748  -0.292 -17.558  1.00  0.00     0.000 C 
ENDROOT
BRANCH   1   2
ATOM      2  C   UNL     1      14.277  -0.199 -17.667  1.00  0.00     0.000 C 
BRANCH   2   3
ATOM      3  C   UNL     1      14.694   0.956 -18.584  1.00  0.00     0.000 C 
BRANCH   3   4
ATOM      4  C   UNL     1      13.764   2.165 -18.399  1.00  0.00     0.000 C 
BRANCH   4   5
ATOM      5  C   UNL     1      13.354   2.377 -16.932  1.00  0.00     0.000 C 
BRANCH   5   6
ATOM      6  C   UNL     1      11.835   2.289 -16.724  1.00  0.00     0.000 C 
BRANCH   6   7
ATOM      7  C   UNL     1      11.472   2.465 -15.245  1.00  0.00     0.006 C 
BRANCH   7   8
ATOM      8  C   UNL     1      10.801   1.206 -14.689  1.00  0.00     0.053 C 
BRANCH   8   9
ATOM      9  C   UNL     1      10.010   1.532 -13.462  1.00  0.00     0.041 C 
ATOM     10  O   UNL     1      10.123   2.662 -12.919  1.00  0.00    -0.550 OA
ATOM     11  O   UNL     1       9.182   0.574 -12.892  1.00  0.00    -0.550 OA
ENDBRANCH   8   9
ENDBRANCH   7   8
ENDBRANCH   6   7
ENDBRANCH   5   6
ENDBRANCH   4   5
ENDBRANCH   3   4
ENDBRANCH   2   3
ENDBRANCH   1   2
BRANCH   1  12
ATOM     12  C   UNL     1      12.291  -1.324 -16.514  1.00  0.00     0.000 C 
BRANCH  12  13
ATOM     13  C   UNL     1      11.073  -2.139 -16.984  1.00  0.00    -0.000 C 
BRANCH  13  14
ATOM     14  C   UNL     1      10.739  -3.309 -16.042  1.00  0.00    -0.000 C 
BRANCH  14  15
ATOM     15  C   UNL     1      11.084  -4.710 -16.586  1.00  0.00    -0.000 C 
BRANCH  15  16
ATOM     16  C   UNL     1      11.848  -4.728 -17.922  1.00  0.00    -0.000 C 
BRANCH  16  17
ATOM     17  C   UNL     1      12.392  -6.121 -18.281  1.00  0.00    -0.000 C 
BRANCH  17  18
ATOM     18  C   UNL     1      13.496  -6.075 -19.354  1.00  0.00    -0.000 C 
BRANCH  18  19
ATOM     19  C   UNL     1      14.906  -6.437 -18.855  1.00  0.00    -0.003 C 
ATOM     20  C   UNL     1      14.906  -7.558 -17.818  1.00  0.00     0.004 C 
ENDBRANCH  18  19
ENDBRANCH  17  18
ENDBRANCH  16  17
ENDBRANCH  15  16
ENDBRANCH  14  15
ENDBRANCH  13  14
ENDBRANCH  12  13
ENDBRANCH   1  12
TORSDOF 16
ENDMDL
MODEL 3
REMARK VINA RESULT:     6.827      1.052      3.891
REMARK INTER + INTRA:          12.842
REMARK INTER:                  13.568
REMARK INTRA:                  -0.726
REMARK UNBOUND:                -0.370
REMARK SMILES CCCCCCCCCCCCCCCCCC(=O)[O-]
REMARK SMILES IDX 10 1 11 2 12 3 13 4 14 5 15 6 16 7 17 8 18 9 19 10 20 11
REMARK SMILES IDX 9 12 8 13 7 14 6 15 5 16 4 17 3 18 2 19 1 20
REMARK H PARENT
REMARK Flexibility Score: inf
ROOT
ATOM      1  C   UNL     1      10.515  -0.158 -14.924  1.00  0.00     0.000 C 
ENDROOT
BRANCH   1   2
ATOM      2  C   UNL     1      11.931  -0.690 -15.192  1.00  0.00     0.000 C 
BRANCH   2   3
ATOM      3  C   UNL     1      11.961  -1.563 -16.452  1.00  0.00     0.000 C 
BRANCH   3   4
ATOM      4  C   UNL     1      10.730  -2.483 -16.510  1.00  0.00     0.000 C 
BRANCH   4   5
ATOM      5  C   UNL     1      11.101  -3.973 -16.430  1.00  0.00     0.000 C 
BRANCH   5   6
ATOM      6  C   UNL     1      11.355  -4.594 -17.811  1.00  0.00     0.000 C 
BRANCH   6   7
ATOM      7  C   UNL     1      12.228  -5.849 -17.697  1.00  0.00     0.006 C 
BRANCH   7   8
ATOM      8  C   UNL     1      13.016  -6.091 -18.988  1.00  0.00     0.053 C 
BRANCH   8   9
ATOM      9  C   UNL     1      14.421  -6.495 -18.677  1.00  0.00     0.041 C 
ATOM     10  O   UNL     1      15.377  -6.030 -19.352  1.00  0.00    -0.550 OA
ATOM     11  O   UNL     1      14.674  -7.418 -17.671  1.00  0.00    -0.550 OA
ENDBRANCH   8   9
ENDBRANCH   7   8
ENDBRANCH   6   7
ENDBRANCH   5   6
ENDBRANCH   4   5
ENDBRANCH   3   4
ENDBRANCH   2   3
ENDBRANCH   1   2
BRANCH   1  12
ATOM     12  C   UNL     1      10.353   0.398 -13.500  1.00  0.00     0.000 C 
BRANCH  12  13
ATOM     13  C   UNL     1      10.431   1.934 -13.454  1.00  0.00    -0.000 C 
BRANCH  13  14
ATOM     14  C   UNL     1      10.434   2.574 -14.854  1.00  0.00    -0.000 C 
BRANCH  14  15
ATOM     15  C   UNL     1      11.829   2.804 -15.470  1.00  0.00    -0.000 C 
BRANCH  15  16
ATOM     16  C   UNL     1      12.069   2.123 -16.830  1.00  0.00    -0.000 C 
BRANCH  16  17
ATOM     17  C   UNL     1      13.553   2.093 -17.229  1.00  0.00    -0.000 C 
BRANCH  17  18
ATOM     18  C   UNL     1      13.837   1.147 -18.412  1.00  0.00    -0.000 C 
BRANCH  18  19
ATOM     19  C   UNL     1      15.073   0.246 -18.244  1.00  0.00    -0.003 C 
ATOM     20  C   UNL     1      16.160   0.521 -19.281  1.00  0.00     0.004 C 
ENDBRANCH  18  19
ENDBRANCH  17  18
ENDBRANCH  16  17
ENDBRANCH  15  16
ENDBRANCH  14  15
ENDBRANCH  13  14
ENDBRANCH  12  13
ENDBRANCH   1  12
TORSDOF 16
ENDMDL
MODEL 4
REMARK VINA RESULT:     7.054      2.703      7.482
REMARK INTER + INTRA:          13.282
REMARK INTER:                  14.131
REMARK INTRA:                  -0.849
REMARK UNBOUND:                -0.370
REMARK SMILES CCCCCCCCCCCCCCCCCC(=O)[O-]
REMARK SMILES IDX 10 1 11 2 12 3 13 4 14 5 15 6 16 7 17 8 18 9 19 10 20 11
REMARK SMILES IDX 9 12 8 13 7 14 6 15 5 16 4 17 3 18 2 19 1 20
REMARK H PARENT
REMARK Flexibility Score: inf
ROOT
ATOM      1  C   UNL     1      10.476  -0.507 -14.882  1.00  0.00     0.000 C 
ENDROOT
BRANCH   1   2
ATOM      2  C   UNL     1      10.690   0.440 -13.691  1.00  0.00     0.000 C 
BRANCH   2   3
ATOM      3  C   UNL     1      10.119   1.832 -13.986  1.00  0.00     0.000 C 
BRANCH   3   4
ATOM      4  C   UNL     1      11.167   2.718 -14.678  1.00  0.00     0.000 C 
BRANCH   4   5
ATOM      5  C   UNL     1      11.253   2.462 -16.191  1.00  0.00     0.000 C 
BRANCH   5   6
ATOM      6  C   UNL     1      12.700   2.338 -16.689  1.00  0.00     0.000 C 
BRANCH   6   7
ATOM      7  C   UNL     1      12.820   1.250 -17.763  1.00  0.00     0.006 C 
BRANCH   7   8
ATOM      8  C   UNL     1      13.973   1.552 -18.725  1.00  0.00     0.053 C 
BRANCH   8   9
ATOM      9  C   UNL     1      15.130   0.643 -18.457  1.00  0.00     0.041 C 
ATOM     10  O   UNL     1      15.331   0.200 -17.296  1.00  0.00    -0.550 OA
ATOM     11  O   UNL     1      16.014   0.321 -19.479  1.00  0.00    -0.550 OA
ENDBRANCH   8   9
ENDBRANCH   7   8
ENDBRANCH   6   7
ENDBRANCH   5   6
ENDBRANCH   4   5
ENDBRANCH   3   4
ENDBRANCH   2   3
ENDBRANCH   1   2
BRANCH   1  12
ATOM     12  C   UNL     1      11.798  -0.938 -15.538  1.00  0.00     0.000 C 
BRANCH  12  13
ATOM     13  C   UNL     1      11.591  -1.976 -16.654  1.00  0.00    -0.000 C 
BRANCH  13  14
ATOM     14  C   UNL     1      10.645  -3.117 -16.240  1.00  0.00    -0.000 C 
BRANCH  14  15
ATOM     15  C   UNL     1      11.135  -4.537 -16.589  1.00  0.00    -0.000 C 
BRANCH  15  16
ATOM     16  C   UNL     1      11.714  -4.705 -18.006  1.00  0.00    -0.000 C 
BRANCH  16  17
ATOM     17  C   UNL     1      12.345  -6.089 -18.233  1.00  0.00    -0.000 C 
BRANCH  17  18
ATOM     18  C   UNL     1      13.451  -6.074 -19.305  1.00  0.00    -0.000 C 
BRANCH  18  19
ATOM     19  C   UNL     1      14.866  -6.384 -18.785  1.00  0.00    -0.003 C 
ATOM     20  C   UNL     1      14.907  -7.580 -17.837  1.00  0.00     0.004 C 
ENDBRANCH  18  19
ENDBRANCH  17  18
ENDBRANCH  16  17
ENDBRANCH  15  16
ENDBRANCH  14  15
ENDBRANCH  13  14
ENDBRANCH  12  13
ENDBRANCH   1  12
TORSDOF 16
ENDMDL
MODEL 5
REMARK VINA RESULT:     7.517      6.554      9.512
REMARK INTER + INTRA:          14.179
REMARK INTER:                  14.867
REMARK INTRA:                  -0.689
REMARK UNBOUND:                -0.370
REMARK SMILES CCCCCCCCCCCCCCCCCC(=O)[O-]
REMARK SMILES IDX 10 1 11 2 12 3 13 4 14 5 15 6 16 7 17 8 18 9 19 10 20 11
REMARK SMILES IDX 9 12 8 13 7 14 6 15 5 16 4 17 3 18 2 19 1 20
REMARK H PARENT
REMARK Flexibility Score: inf
ROOT
ATOM      1  C   UNL     1       6.008   1.658 -14.305  1.00  0.00     0.000 C 
ENDROOT
BRANCH   1   2
ATOM      2  C   UNL     1       6.990   1.131 -13.247  1.00  0.00     0.000 C 
BRANCH   2   3
ATOM      3  C   UNL     1       8.383   1.742 -13.438  1.00  0.00     0.000 C 
BRANCH   3   4
ATOM      4  C   UNL     1       9.476   0.671 -13.283  1.00  0.00     0.000 C 
BRANCH   4   5
ATOM      5  C   UNL     1      10.825   1.114 -13.872  1.00  0.00     0.000 C 
BRANCH   5   6
ATOM      6  C   UNL     1      10.706   1.600 -15.324  1.00  0.00     0.000 C 
BRANCH   6   7
ATOM      7  C   UNL     1      12.090   1.845 -15.937  1.00  0.00     0.006 C 
BRANCH   7   8
ATOM      8  C   UNL     1      12.513   0.673 -16.828  1.00  0.00     0.053 C 
BRANCH   8   9
ATOM      9  C   UNL     1      13.571   1.103 -17.793  1.00  0.00     0.041 C 
ATOM     10  O   UNL     1      14.654   0.467 -17.868  1.00  0.00    -0.550 OA
ATOM     11  O   UNL     1      13.380   2.232 -18.578  1.00  0.00    -0.550 OA
ENDBRANCH   8   9
ENDBRANCH   7   8
ENDBRANCH   6   7
ENDBRANCH   5   6
ENDBRANCH   4   5
ENDBRANCH   3   4
ENDBRANCH   2   3
ENDBRANCH   1   2
BRANCH   1  12
ATOM     12  C   UNL     1       4.672   2.114 -13.695  1.00  0.00     0.000 C 
BRANCH  12  13
ATOM     13  C   UNL     1       3.795   0.933 -13.247  1.00  0.00    -0.000 C 
BRANCH  13  14
ATOM     14  C   UNL     1       2.714   0.566 -14.279  1.00  0.00    -0.000 C 
BRANCH  14  15
ATOM     15  C   UNL     1       1.267   0.570 -13.747  1.00  0.00    -0.000 C 
BRANCH  15  16
ATOM     16  C   UNL     1       0.217  -0.046 -14.689  1.00  0.00    -0.000 C 
BRANCH  16  17
ATOM     17  C   UNL     1      -0.125   0.864 -15.881  1.00  0.00    -0.000 C 
BRANCH  17  18
ATOM     18  C   UNL     1      -0.066   0.128 -17.233  1.00  0.00    -0.000 C 
BRANCH  18  19
ATOM     19  C   UNL     1       0.263  -1.373 -17.145  1.00  0.00    -0.003 C 
ATOM     20  C   UNL     1       0.208  -2.079 -18.497  1.00  0.00     0.004 C 
ENDBRANCH  18  19
ENDBRANCH  17  18
ENDBRANCH  16  17
ENDBRANCH  15  16
ENDBRANCH  14  15
ENDBRANCH  13  14
ENDBRANCH  12  13
ENDBRANCH   1  12
TORSDOF 16
ENDMDL
MODEL 6
REMARK VINA RESULT:     7.942      6.767      9.854
REMARK INTER + INTRA:          14.999
REMARK INTER:                  15.681
REMARK INTRA:                  -0.682
REMARK UNBOUND:                -0.370
REMARK SMILES CCCCCCCCCCCCCCCCCC(=O)[O-]
REMARK SMILES IDX 10 1 11 2 12 3 13 4 14 5 15 6 16 7 17 8 18 9 19 10 20 11
REMARK SMILES IDX 9 12 8 13 7 14 6 15 5 16 4 17 3 18 2 19 1 20
REMARK H PARENT
REMARK Flexibility Score: inf
ROOT
ATOM      1  C   UNL     1       7.860   1.432 -13.881  1.00  0.00     0.000 C 
ENDROOT
BRANCH   1   2
ATOM      2  C   UNL     1       6.520   1.562 -13.141  1.00  0.00     0.000 C 
BRANCH   2   3
ATOM      3  C   UNL     1       5.342   1.510 -14.122  1.00  0.00     0.000 C 
BRANCH   3   4
ATOM      4  C   UNL     1       4.004   1.451 -13.367  1.00  0.00     0.000 C 
BRANCH   4   5
ATOM      5  C   UNL     1       3.040   0.407 -13.954  1.00  0.00     0.000 C 
BRANCH   5   6
ATOM      6  C   UNL     1       1.744   1.034 -14.489  1.00  0.00     0.000 C 
BRANCH   6   7
ATOM      7  C   UNL     1       0.704  -0.046 -14.810  1.00  0.00     0.006 C 
BRANCH   7   8
ATOM      8  C   UNL     1       0.211   0.077 -16.255  1.00  0.00     0.053 C 
BRANCH   8   9
ATOM      9  C   UNL     1       0.393  -1.217 -16.983  1.00  0.00     0.041 C 
ATOM     10  O   UNL     1       0.989  -2.177 -16.426  1.00  0.00    -0.550 OA
ATOM     11  O   UNL     1      -0.055  -1.351 -18.290  1.00  0.00    -0.550 OA
ENDBRANCH   8   9
ENDBRANCH   7   8
ENDBRANCH   6   7
ENDBRANCH   5   6
ENDBRANCH   4   5
ENDBRANCH   3   4
ENDBRANCH   2   3
ENDBRANCH   1   2
BRANCH   1  12
ATOM     12  C   UNL     1       8.869   0.553 -13.125  1.00  0.00     0.000 C 
BRANCH  12  13
ATOM     13  C   UNL     1      10.326   0.972 -13.385  1.00  0.00    -0.000 C 
BRANCH  13  14
ATOM     14  C   UNL     1      10.437   2.292 -14.168  1.00  0.00    -0.000 C 
BRANCH  14  15
ATOM     15  C   UNL     1      11.360   2.248 -15.404  1.00  0.00    -0.000 C 
BRANCH  15  16
ATOM     16  C   UNL     1      12.021   0.886 -15.684  1.00  0.00    -0.000 C 
BRANCH  16  17
ATOM     17  C   UNL     1      12.091   0.552 -17.183  1.00  0.00    -0.000 C 
BRANCH  17  18
ATOM     18  C   UNL     1      13.311   1.184 -17.881  1.00  0.00    -0.000 C 
BRANCH  18  19
ATOM     19  C   UNL     1      14.633   0.418 -17.703  1.00  0.00    -0.003 C 
ATOM     20  C   UNL     1      15.554   0.522 -18.916  1.00  0.00     0.004 C 
ENDBRANCH  18  19
ENDBRANCH  17  18
ENDBRANCH  16  17
ENDBRANCH  15  16
ENDBRANCH  14  15
ENDBRANCH  13  14
ENDBRANCH  12  13
ENDBRANCH   1  12
TORSDOF 16
ENDMDL
