MODEL 1
REMARK VINA RESULT:    -3.796      0.000      0.000
REMARK INTER + INTRA:          -5.962
REMARK INTER:                  -5.793
REMARK INTRA:                  -0.169
REMARK UNBOUND:                -0.169
REMARK SMILES CC1=CCC[C@@H](C)C(=O)C[C@@H](C(C)C)C(=O)C1
REMARK SMILES IDX 8 1 9 2 6 3 7 4 5 5 4 6 3 7 2 8 1 9 10 11 11 12 15 13 16 14
REMARK SMILES IDX 17 15 12 17 13 18 14 19
REMARK H PARENT
REMARK Flexibility Score: 70.00
ROOT
ATOM      1  C   UNL     1      50.852  23.904  20.189  1.00  0.00     0.136 C 
ATOM      2  O   UNL     1      50.415  23.502  21.258  1.00  0.00    -0.299 OA
ENDROOT
BRANCH   1   3
ATOM      3  C   UNL     1      50.243  23.373  18.905  1.00  0.00     0.053 C 
ATOM      4  C   UNL     1      49.639  21.981  19.125  1.00  0.00     0.016 C 
BRANCH   3   5
ATOM      5  C   UNL     1      51.267  23.356  17.755  1.00  0.00     0.015 C 
BRANCH   5   6
ATOM      6  C   UNL     1      51.000  24.470  16.726  1.00  0.00     0.028 C 
BRANCH   6   7
ATOM      7  C   UNL     1      52.295  25.051  16.223  1.00  0.00    -0.028 C 
ATOM      8  C   UNL     1      52.804  26.242  16.620  1.00  0.00    -0.070 CG0
ATOM      9  C   UNL     1      54.134  26.689  16.067  1.00  0.00     0.039 C 
ATOM     10  G   UNL     1      52.052  27.203  17.526  1.00  0.00     0.000 G0
ENDBRANCH   6   7
ENDBRANCH   5   6
ENDBRANCH   3   5
ENDBRANCH   1   3
BRANCH   1  11
ATOM     11  C   UNL     1      51.997  24.893  20.198  1.00  0.00     0.087 C 
BRANCH  11  12
ATOM     12  C   UNL     1      51.516  26.353  19.971  1.00  0.00     0.066 C 
BRANCH  12  13
ATOM     13  C   UNL     1      52.419  27.090  18.991  1.00  0.00     0.140 C 
ATOM     14  O   UNL     1      53.437  27.637  19.392  1.00  0.00    -0.299 OA
BRANCH  13  15
ATOM     15  C   UNL     1      52.043  27.222  17.534  1.00  0.00     0.106 CG0
ATOM     16  G   UNL     1      52.799  26.240  16.654  1.00  0.00     0.000 G0
ENDBRANCH  13  15
ENDBRANCH  12  13
BRANCH  12  17
ATOM     17  C   UNL     1      51.349  27.124  21.316  1.00  0.00    -0.006 C 
ATOM     18  C   UNL     1      52.410  26.699  22.345  1.00  0.00     0.008 C 
ATOM     19  C   UNL     1      49.943  27.015  21.930  1.00  0.00     0.008 C 
ENDBRANCH  12  17
ENDBRANCH  11  12
ENDBRANCH   1  11
TORSDOF 1
ENDMDL
MODEL 2
REMARK VINA RESULT:    -3.762      2.056      2.688
REMARK INTER + INTRA:          -5.910
REMARK INTER:                  -5.604
REMARK INTRA:                  -0.306
REMARK UNBOUND:                -0.169
REMARK SMILES CC1=CCC[C@@H](C)C(=O)C[C@@H](C(C)C)C(=O)C1
REMARK SMILES IDX 8 1 9 2 6 3 7 4 5 5 4 6 3 7 2 8 1 9 10 11 11 12 15 13 16 14
REMARK SMILES IDX 17 15 12 17 13 18 14 19
REMARK H PARENT
REMARK Flexibility Score: 70.00
ROOT
ATOM      1  C   UNL     1      49.966  23.833  20.860  1.00  0.00     0.136 C 
ATOM      2  O   UNL     1      51.169  23.763  21.068  1.00  0.00    -0.299 OA
ENDROOT
BRANCH   1   3
ATOM      3  C   UNL     1      49.313  22.772  19.994  1.00  0.00     0.053 C 
ATOM      4  C   UNL     1      49.108  21.475  20.784  1.00  0.00     0.016 C 
BRANCH   3   5
ATOM      5  C   UNL     1      50.118  22.514  18.706  1.00  0.00     0.015 C 
BRANCH   5   6
ATOM      6  C   UNL     1      49.951  23.651  17.683  1.00  0.00     0.028 C 
BRANCH   6   7
ATOM      7  C   UNL     1      51.219  24.457  17.572  1.00  0.00    -0.028 C 
ATOM      8  C   UNL     1      51.319  25.772  17.882  1.00  0.00    -0.070 CG0
ATOM      9  C   UNL     1      52.661  26.450  17.764  1.00  0.00     0.039 C 
ATOM     10  G   UNL     1      50.120  26.629  18.251  1.00  0.00     0.000 G0
ENDBRANCH   6   7
ENDBRANCH   5   6
ENDBRANCH   3   5
ENDBRANCH   1   3
BRANCH   1  11
ATOM     11  C   UNL     1      49.191  24.988  21.455  1.00  0.00     0.087 C 
BRANCH  11  12
ATOM     12  C   UNL     1      48.696  25.985  20.372  1.00  0.00     0.066 C 
BRANCH  12  13
ATOM     13  C   UNL     1      49.859  26.728  19.726  1.00  0.00     0.140 C 
ATOM     14  O   UNL     1      50.579  27.444  20.408  1.00  0.00    -0.299 OA
BRANCH  13  15
ATOM     15  C   UNL     1      50.100  26.653  18.238  1.00  0.00     0.106 CG0
ATOM     16  G   UNL     1      51.293  25.778  17.891  1.00  0.00     0.000 G0
ENDBRANCH  13  15
ENDBRANCH  12  13
BRANCH  12  17
ATOM     17  C   UNL     1      47.611  26.957  20.931  1.00  0.00    -0.006 C 
ATOM     18  C   UNL     1      46.376  26.193  21.434  1.00  0.00     0.008 C 
ATOM     19  C   UNL     1      47.187  28.058  19.943  1.00  0.00     0.008 C 
ENDBRANCH  12  17
ENDBRANCH  11  12
ENDBRANCH   1  11
TORSDOF 1
ENDMDL
MODEL 3
REMARK VINA RESULT:    -3.593      2.132      4.391
REMARK INTER + INTRA:          -5.652
REMARK INTER:                  -5.916
REMARK INTRA:                   0.264
REMARK UNBOUND:                -0.169
REMARK SMILES CC1=CCC[C@@H](C)C(=O)C[C@@H](C(C)C)C(=O)C1
REMARK SMILES IDX 8 1 9 2 6 3 7 4 5 5 4 6 3 7 2 8 1 9 10 11 11 12 15 13 16 14
REMARK SMILES IDX 17 15 12 17 13 18 14 19
REMARK H PARENT
REMARK Flexibility Score: 70.00
ROOT
ATOM      1  C   UNL     1      49.644  24.471  21.325  1.00  0.00     0.136 C 
ATOM      2  O   UNL     1      50.653  24.176  21.950  1.00  0.00    -0.299 OA
ENDROOT
BRANCH   1   3
ATOM      3  C   UNL     1      49.061  25.861  21.496  1.00  0.00     0.053 C 
ATOM      4  C   UNL     1      47.544  25.846  21.272  1.00  0.00     0.016 C 
BRANCH   3   5
ATOM      5  C   UNL     1      49.747  26.884  20.571  1.00  0.00     0.015 C 
BRANCH   5   6
ATOM      6  C   UNL     1      49.433  26.624  19.087  1.00  0.00     0.028 C 
BRANCH   6   7
ATOM      7  C   UNL     1      50.700  26.390  18.309  1.00  0.00    -0.028 C 
ATOM      8  C   UNL     1      51.011  25.229  17.683  1.00  0.00    -0.070 CG0
ATOM      9  C   UNL     1      52.297  25.141  16.902  1.00  0.00     0.039 C 
ATOM     10  G   UNL     1      50.169  23.970  17.810  1.00  0.00     0.000 G0
ENDBRANCH   6   7
ENDBRANCH   5   6
ENDBRANCH   3   5
ENDBRANCH   1   3
BRANCH   1  11
ATOM     11  C   UNL     1      49.010  23.428  20.432  1.00  0.00     0.087 C 
BRANCH  11  12
ATOM     12  C   UNL     1      50.042  22.387  19.916  1.00  0.00     0.066 C 
BRANCH  12  13
ATOM     13  C   UNL     1      50.783  22.899  18.688  1.00  0.00     0.140 C 
ATOM     14  O   UNL     1      51.918  22.509  18.454  1.00  0.00    -0.299 OA
BRANCH  13  15
ATOM     15  C   UNL     1      50.167  23.940  17.785  1.00  0.00     0.106 CG0
ATOM     16  G   UNL     1      51.004  25.206  17.711  1.00  0.00     0.000 G0
ENDBRANCH  13  15
ENDBRANCH  12  13
BRANCH  12  17
ATOM     17  C   UNL     1      49.387  20.993  19.674  1.00  0.00    -0.006 C 
ATOM     18  C   UNL     1      47.871  21.112  19.455  1.00  0.00     0.008 C 
ATOM     19  C   UNL     1      49.683  19.961  20.777  1.00  0.00     0.008 C 
ENDBRANCH  12  17
ENDBRANCH  11  12
ENDBRANCH   1  11
TORSDOF 1
ENDMDL
MODEL 4
REMARK VINA RESULT:    -3.388      1.855      2.357
REMARK INTER + INTRA:          -5.339
REMARK INTER:                  -5.073
REMARK INTRA:                  -0.266
REMARK UNBOUND:                -0.169
REMARK SMILES CC1=CCC[C@@H](C)C(=O)C[C@@H](C(C)C)C(=O)C1
REMARK SMILES IDX 8 1 9 2 6 3 7 4 5 5 4 6 3 7 2 8 1 9 10 11 11 12 15 13 16 14
REMARK SMILES IDX 17 15 12 17 13 18 14 19
REMARK H PARENT
REMARK Flexibility Score: 70.00
ROOT
ATOM      1  C   UNL     1      51.457  25.648  20.341  1.00  0.00     0.136 C 
ATOM      2  O   UNL     1      52.647  25.531  20.591  1.00  0.00    -0.299 OA
ENDROOT
BRANCH   1   3
ATOM      3  C   UNL     1      50.629  24.395  20.124  1.00  0.00     0.053 C 
ATOM      4  C   UNL     1      50.288  23.731  21.463  1.00  0.00     0.016 C 
BRANCH   3   5
ATOM      5  C   UNL     1      51.334  23.405  19.179  1.00  0.00     0.015 C 
BRANCH   5   6
ATOM      6  C   UNL     1      50.992  23.672  17.702  1.00  0.00     0.028 C 
BRANCH   6   7
ATOM      7  C   UNL     1      52.122  24.395  17.018  1.00  0.00    -0.028 C 
ATOM      8  C   UNL     1      52.058  25.677  16.584  1.00  0.00    -0.070 CG0
ATOM      9  C   UNL     1      53.278  26.296  15.949  1.00  0.00     0.039 C 
ATOM     10  G   UNL     1      50.780  26.499  16.617  1.00  0.00     0.000 G0
ENDBRANCH   6   7
ENDBRANCH   5   6
ENDBRANCH   3   5
ENDBRANCH   1   3
BRANCH   1  11
ATOM     11  C   UNL     1      50.869  27.039  20.233  1.00  0.00     0.087 C 
BRANCH  11  12
ATOM     12  C   UNL     1      49.933  27.189  19.002  1.00  0.00     0.066 C 
BRANCH  12  13
ATOM     13  C   UNL     1      50.722  27.503  17.738  1.00  0.00     0.140 C 
ATOM     14  O   UNL     1      51.277  28.586  17.618  1.00  0.00    -0.299 OA
BRANCH  13  15
ATOM     15  C   UNL     1      50.775  26.523  16.591  1.00  0.00     0.106 CG0
ATOM     16  G   UNL     1      52.055  25.703  16.592  1.00  0.00     0.000 G0
ENDBRANCH  13  15
ENDBRANCH  12  13
BRANCH  12  17
ATOM     17  C   UNL     1      48.796  28.225  19.262  1.00  0.00    -0.006 C 
ATOM     18  C   UNL     1      49.313  29.447  20.039  1.00  0.00     0.008 C 
ATOM     19  C   UNL     1      47.561  27.636  19.965  1.00  0.00     0.008 C 
ENDBRANCH  12  17
ENDBRANCH  11  12
ENDBRANCH   1  11
TORSDOF 1
ENDMDL
MODEL 5
REMARK VINA RESULT:    -3.297      2.560      5.530
REMARK INTER + INTRA:          -5.200
REMARK INTER:                  -4.924
REMARK INTRA:                  -0.276
REMARK UNBOUND:                -0.169
REMARK SMILES CC1=CCC[C@@H](C)C(=O)C[C@@H](C(C)C)C(=O)C1
REMARK SMILES IDX 8 1 9 2 6 3 7 4 5 5 4 6 3 7 2 8 1 9 10 11 11 12 15 13 16 14
REMARK SMILES IDX 17 15 12 17 13 18 14 19
REMARK H PARENT
REMARK Flexibility Score: 70.00
ROOT
ATOM      1  C   UNL     1      52.327  26.701  19.775  1.00  0.00     0.136 C 
ATOM      2  O   UNL     1      52.230  27.058  18.610  1.00  0.00    -0.299 OA
ENDROOT
BRANCH   1   3
ATOM      3  C   UNL     1      52.845  27.690  20.802  1.00  0.00     0.053 C 
ATOM      4  C   UNL     1      53.243  26.973  22.097  1.00  0.00     0.016 C 
BRANCH   3   5
ATOM      5  C   UNL     1      51.824  28.809  21.080  1.00  0.00     0.015 C 
BRANCH   5   6
ATOM      6  C   UNL     1      50.779  28.391  22.128  1.00  0.00     0.028 C 
BRANCH   6   7
ATOM      7  C   UNL     1      49.440  28.157  21.479  1.00  0.00    -0.028 C 
ATOM      8  C   UNL     1      48.804  26.960  21.447  1.00  0.00    -0.070 CG0
ATOM      9  C   UNL     1      47.446  26.872  20.798  1.00  0.00     0.039 C 
ATOM     10  G   UNL     1      49.437  25.673  21.948  1.00  0.00     0.000 G0
ENDBRANCH   6   7
ENDBRANCH   5   6
ENDBRANCH   3   5
ENDBRANCH   1   3
BRANCH   1  11
ATOM     11  C   UNL     1      51.948  25.280  20.135  1.00  0.00     0.087 C 
BRANCH  11  12
ATOM     12  C   UNL     1      50.512  24.917  19.667  1.00  0.00     0.066 C 
BRANCH  12  13
ATOM     13  C   UNL     1      49.593  24.645  20.850  1.00  0.00     0.140 C 
ATOM     14  O   UNL     1      48.932  23.616  20.885  1.00  0.00    -0.299 OA
BRANCH  13  15
ATOM     15  C   UNL     1      49.425  25.659  21.955  1.00  0.00     0.106 CG0
ATOM     16  G   UNL     1      48.801  26.953  21.459  1.00  0.00     0.000 G0
ENDBRANCH  13  15
ENDBRANCH  12  13
BRANCH  12  17
ATOM     17  C   UNL     1      50.517  23.743  18.639  1.00  0.00    -0.006 C 
ATOM     18  C   UNL     1      51.868  23.010  18.627  1.00  0.00     0.008 C 
ATOM     19  C   UNL     1      50.129  24.160  17.210  1.00  0.00     0.008 C 
ENDBRANCH  12  17
ENDBRANCH  11  12
ENDBRANCH   1  11
TORSDOF 1
ENDMDL
MODEL 6
REMARK VINA RESULT:    -3.290      1.845      3.902
REMARK INTER + INTRA:          -5.189
REMARK INTER:                  -4.701
REMARK INTRA:                  -0.488
REMARK UNBOUND:                -0.169
REMARK SMILES CC1=CCC[C@@H](C)C(=O)C[C@@H](C(C)C)C(=O)C1
REMARK SMILES IDX 8 1 9 2 6 3 7 4 5 5 4 6 3 7 2 8 1 9 10 11 11 12 15 13 16 14
REMARK SMILES IDX 17 15 12 17 13 18 14 19
REMARK H PARENT
REMARK Flexibility Score: 70.00
ROOT
ATOM      1  C   UNL     1      49.574  25.799  20.292  1.00  0.00     0.136 C 
ATOM      2  O   UNL     1      48.748  26.656  20.572  1.00  0.00    -0.299 OA
ENDROOT
BRANCH   1   3
ATOM      3  C   UNL     1      50.780  25.625  21.196  1.00  0.00     0.053 C 
ATOM      4  C   UNL     1      50.350  25.162  22.593  1.00  0.00     0.016 C 
BRANCH   3   5
ATOM      5  C   UNL     1      51.623  26.911  21.274  1.00  0.00     0.015 C 
BRANCH   5   6
ATOM      6  C   UNL     1      52.720  26.950  20.195  1.00  0.00     0.028 C 
BRANCH   6   7
ATOM      7  C   UNL     1      52.262  27.746  19.001  1.00  0.00    -0.028 C 
ATOM      8  C   UNL     1      52.083  27.230  17.761  1.00  0.00    -0.070 CG0
ATOM      9  C   UNL     1      51.580  28.131  16.661  1.00  0.00     0.039 C 
ATOM     10  G   UNL     1      52.457  25.803  17.396  1.00  0.00     0.000 G0
ENDBRANCH   6   7
ENDBRANCH   5   6
ENDBRANCH   3   5
ENDBRANCH   1   3
BRANCH   1  11
ATOM     11  C   UNL     1      49.367  24.971  19.042  1.00  0.00     0.087 C 
BRANCH  11  12
ATOM     12  C   UNL     1      50.670  24.259  18.586  1.00  0.00     0.066 C 
BRANCH  12  13
ATOM     13  C   UNL     1      51.236  24.890  17.321  1.00  0.00     0.140 C 
ATOM     14  O   UNL     1      50.745  24.622  16.233  1.00  0.00    -0.299 OA
BRANCH  13  15
ATOM     15  C   UNL     1      52.445  25.793  17.376  1.00  0.00     0.106 CG0
ATOM     16  G   UNL     1      52.080  27.222  17.742  1.00  0.00     0.000 G0
ENDBRANCH  13  15
ENDBRANCH  12  13
BRANCH  12  17
ATOM     17  C   UNL     1      50.468  22.719  18.439  1.00  0.00    -0.006 C 
ATOM     18  C   UNL     1      49.611  22.151  19.582  1.00  0.00     0.008 C 
ATOM     19  C   UNL     1      51.779  21.924  18.315  1.00  0.00     0.008 C 
ENDBRANCH  12  17
ENDBRANCH  11  12
ENDBRANCH   1  11
TORSDOF 1
ENDMDL
MODEL 7
REMARK VINA RESULT:    -3.125      2.163      3.627
REMARK INTER + INTRA:          -4.938
REMARK INTER:                  -4.628
REMARK INTRA:                  -0.311
REMARK UNBOUND:                -0.169
REMARK SMILES CC1=CCC[C@@H](C)C(=O)C[C@@H](C(C)C)C(=O)C1
REMARK SMILES IDX 8 1 9 2 6 3 7 4 5 5 4 6 3 7 2 8 1 9 10 11 11 12 15 13 16 14
REMARK SMILES IDX 17 15 12 17 13 18 14 19
REMARK H PARENT
REMARK Flexibility Score: 70.00
ROOT
ATOM      1  C   UNL     1      50.991  24.910  17.680  1.00  0.00     0.136 C 
ATOM      2  O   UNL     1      50.040  24.169  17.484  1.00  0.00    -0.299 OA
ENDROOT
BRANCH   1   3
ATOM      3  C   UNL     1      51.668  25.561  16.488  1.00  0.00     0.053 C 
ATOM      4  C   UNL     1      53.118  25.931  16.821  1.00  0.00     0.016 C 
BRANCH   3   5
ATOM      5  C   UNL     1      50.884  26.789  15.989  1.00  0.00     0.015 C 
BRANCH   5   6
ATOM      6  C   UNL     1      51.484  28.108  16.507  1.00  0.00     0.028 C 
BRANCH   6   7
ATOM      7  C   UNL     1      50.487  28.846  17.361  1.00  0.00    -0.028 C 
ATOM      8  C   UNL     1      50.568  28.959  18.708  1.00  0.00    -0.070 CG0
ATOM      9  C   UNL     1      49.522  29.762  19.439  1.00  0.00     0.039 C 
ATOM     10  G   UNL     1      51.613  28.231  19.538  1.00  0.00     0.000 G0
ENDBRANCH   6   7
ENDBRANCH   5   6
ENDBRANCH   3   5
ENDBRANCH   1   3
BRANCH   1  11
ATOM     11  C   UNL     1      51.466  25.125  19.101  1.00  0.00     0.087 C 
BRANCH  11  12
ATOM     12  C   UNL     1      50.431  25.907  19.956  1.00  0.00     0.066 C 
BRANCH  12  13
ATOM     13  C   UNL     1      51.018  27.206  20.490  1.00  0.00     0.140 C 
ATOM     14  O   UNL     1      50.952  27.460  21.685  1.00  0.00    -0.299 OA
BRANCH  13  15
ATOM     15  C   UNL     1      51.622  28.228  19.558  1.00  0.00     0.106 CG0
ATOM     16  G   UNL     1      50.570  28.940  18.723  1.00  0.00     0.000 G0
ENDBRANCH  13  15
ENDBRANCH  12  13
BRANCH  12  17
ATOM     17  C   UNL     1      49.828  25.021  21.089  1.00  0.00    -0.006 C 
ATOM     18  C   UNL     1      50.270  23.555  20.954  1.00  0.00     0.008 C 
ATOM     19  C   UNL     1      48.295  25.103  21.201  1.00  0.00     0.008 C 
ENDBRANCH  12  17
ENDBRANCH  11  12
ENDBRANCH   1  11
TORSDOF 1
ENDMDL
MODEL 8
REMARK VINA RESULT:    -3.083      2.020      4.253
REMARK INTER + INTRA:          -4.874
REMARK INTER:                  -4.634
REMARK INTRA:                  -0.240
REMARK UNBOUND:                -0.169
REMARK SMILES CC1=CCC[C@@H](C)C(=O)C[C@@H](C(C)C)C(=O)C1
REMARK SMILES IDX 8 1 9 2 6 3 7 4 5 5 4 6 3 7 2 8 1 9 10 11 11 12 15 13 16 14
REMARK SMILES IDX 17 15 12 17 13 18 14 19
REMARK H PARENT
REMARK Flexibility Score: 70.00
ROOT
ATOM      1  C   UNL     1      49.970  26.502  20.317  1.00  0.00     0.136 C 
ATOM      2  O   UNL     1      49.119  27.320  20.635  1.00  0.00    -0.299 OA
ENDROOT
BRANCH   1   3
ATOM      3  C   UNL     1      50.842  25.897  21.401  1.00  0.00     0.053 C 
ATOM      4  C   UNL     1      50.048  24.888  22.238  1.00  0.00     0.016 C 
BRANCH   3   5
ATOM      5  C   UNL     1      51.474  26.982  22.294  1.00  0.00     0.015 C 
BRANCH   5   6
ATOM      6  C   UNL     1      52.838  27.450  21.758  1.00  0.00     0.028 C 
BRANCH   6   7
ATOM      7  C   UNL     1      52.705  28.770  21.046  1.00  0.00    -0.028 C 
ATOM      8  C   UNL     1      52.893  28.945  19.716  1.00  0.00    -0.070 CG0
ATOM      9  C   UNL     1      52.688  30.316  19.122  1.00  0.00     0.039 C 
ATOM     10  G   UNL     1      53.399  27.843  18.800  1.00  0.00     0.000 G0
ENDBRANCH   6   7
ENDBRANCH   5   6
ENDBRANCH   3   5
ENDBRANCH   1   3
BRANCH   1  11
ATOM     11  C   UNL     1      50.130  26.149  18.854  1.00  0.00     0.087 C 
BRANCH  11  12
ATOM     12  C   UNL     1      51.614  25.913  18.464  1.00  0.00     0.066 C 
BRANCH  12  13
ATOM     13  C   UNL     1      52.279  27.200  17.994  1.00  0.00     0.140 C 
ATOM     14  O   UNL     1      51.947  27.704  16.930  1.00  0.00    -0.299 OA
BRANCH  13  15
ATOM     15  C   UNL     1      53.397  27.833  18.786  1.00  0.00     0.106 CG0
ATOM     16  G   UNL     1      52.898  28.932  19.710  1.00  0.00     0.000 G0
ENDBRANCH  13  15
ENDBRANCH  12  13
BRANCH  12  17
ATOM     17  C   UNL     1      51.764  24.757  17.427  1.00  0.00    -0.006 C 
ATOM     18  C   UNL     1      50.670  24.822  16.349  1.00  0.00     0.008 C 
ATOM     19  C   UNL     1      51.806  23.353  18.055  1.00  0.00     0.008 C 
ENDBRANCH  12  17
ENDBRANCH  11  12
ENDBRANCH   1  11
TORSDOF 1
ENDMDL
MODEL 9
REMARK VINA RESULT:    -3.033     10.674     12.966
REMARK INTER + INTRA:          -4.797
REMARK INTER:                  -4.482
REMARK INTRA:                  -0.316
REMARK UNBOUND:                -0.169
REMARK SMILES CC1=CCC[C@@H](C)C(=O)C[C@@H](C(C)C)C(=O)C1
REMARK SMILES IDX 8 1 9 2 6 3 7 4 5 5 4 6 3 7 2 8 1 9 10 11 11 12 15 13 16 14
REMARK SMILES IDX 17 15 12 17 13 18 14 19
REMARK H PARENT
REMARK Flexibility Score: 70.00
ROOT
ATOM      1  C   UNL     1      38.932  23.516  22.334  1.00  0.00     0.136 C 
ATOM      2  O   UNL     1      37.838  23.753  21.842  1.00  0.00    -0.299 OA
ENDROOT
BRANCH   1   3
ATOM      3  C   UNL     1      39.033  22.448  23.407  1.00  0.00     0.053 C 
ATOM      4  C   UNL     1      38.584  21.087  22.864  1.00  0.00     0.016 C 
BRANCH   3   5
ATOM      5  C   UNL     1      38.236  22.831  24.668  1.00  0.00     0.015 C 
BRANCH   5   6
ATOM      6  C   UNL     1      38.337  24.334  24.982  1.00  0.00     0.028 C 
BRANCH   6   7
ATOM      7  C   UNL     1      39.452  24.599  25.959  1.00  0.00    -0.028 C 
ATOM      8  C   UNL     1      40.516  25.400  25.708  1.00  0.00    -0.070 CG0
ATOM      9  C   UNL     1      41.543  25.612  26.791  1.00  0.00     0.039 C 
ATOM     10  G   UNL     1      40.779  26.023  24.347  1.00  0.00     0.000 G0
ENDBRANCH   6   7
ENDBRANCH   5   6
ENDBRANCH   3   5
ENDBRANCH   1   3
BRANCH   1  11
ATOM     11  C   UNL     1      40.128  24.316  21.868  1.00  0.00     0.087 C 
BRANCH  11  12
ATOM     12  C   UNL     1      41.393  24.039  22.726  1.00  0.00     0.066 C 
BRANCH  12  13
ATOM     13  C   UNL     1      41.799  25.264  23.533  1.00  0.00     0.140 C 
ATOM     14  O   UNL     1      42.973  25.605  23.576  1.00  0.00    -0.299 OA
BRANCH  13  15
ATOM     15  C   UNL     1      40.784  26.033  24.344  1.00  0.00     0.106 CG0
ATOM     16  G   UNL     1      40.521  25.389  25.695  1.00  0.00     0.000 G0
ENDBRANCH  13  15
ENDBRANCH  12  13
BRANCH  12  17
ATOM     17  C   UNL     1      42.568  23.483  21.863  1.00  0.00    -0.006 C 
ATOM     18  C   UNL     1      42.372  23.802  20.372  1.00  0.00     0.008 C 
ATOM     19  C   UNL     1      42.828  21.978  22.053  1.00  0.00     0.008 C 
ENDBRANCH  12  17
ENDBRANCH  11  12
ENDBRANCH   1  11
TORSDOF 1
ENDMDL
