MODEL 1
REMARK VINA RESULT:    -4.639      0.000      0.000
REMARK INTER + INTRA:          -6.108
REMARK INTER:                  -5.724
REMARK INTRA:                  -0.384
REMARK UNBOUND:                -0.384
REMARK SMILES Oc1cc(O)c2cc(O)c(-c3cc(O)c(O)c(O)c3)[o+]c2c1.[Cl-]
REMARK SMILES IDX 10 1 20 2 21 3 22 4 2 5 3 6 4 7 6 8 7 9 8 10 11 11 12 12
REMARK SMILES IDX 13 13 19 14 15 15 17 16 14 17 16 19 18 21 9 23 1 25 5 27
REMARK H PARENT 14 18 16 20 18 22 9 24 1 26 5 28
REMARK Flexibility Score: inf
ROOT
ATOM      1  C   UNL     1       7.551 -18.453  20.537  1.00  0.00     0.402 A 
ATOM      2  O   UNL     1       6.617 -18.136  19.643  1.00  0.00    -0.202 OA
ATOM      3  C   UNL     1       5.344 -18.498  19.760  1.00  0.00     0.368 A 
ATOM      4  C   UNL     1       4.436 -18.119  18.767  1.00  0.00     0.162 A 
ATOM      5  C   UNL     1       3.091 -18.488  18.863  1.00  0.00     0.128 A 
ATOM      6  C   UNL     1       2.652 -19.239  19.956  1.00  0.00     0.093 A 
ATOM      7  C   UNL     1       3.542 -19.631  20.964  1.00  0.00     0.136 A 
ATOM      8  C   UNL     1       4.908 -19.257  20.872  1.00  0.00     0.125 A 
ATOM      9  C   UNL     1       5.867 -19.594  21.841  1.00  0.00     0.078 A 
ATOM     10  C   UNL     1       7.195 -19.185  21.685  1.00  0.00     0.223 A 
ENDROOT
BRANCH   1  11
ATOM     11  C   UNL     1       8.939 -18.001  20.289  1.00  0.00     0.091 A 
ATOM     12  C   UNL     1       9.338 -16.729  20.724  1.00  0.00     0.068 A 
ATOM     13  C   UNL     1      10.636 -16.261  20.491  1.00  0.00     0.162 A 
ATOM     14  C   UNL     1       9.852 -18.797  19.579  1.00  0.00     0.068 A 
ATOM     15  C   UNL     1      11.558 -17.078  19.793  1.00  0.00     0.200 A 
ATOM     16  C   UNL     1      11.153 -18.340  19.337  1.00  0.00     0.162 A 
BRANCH  13  17
ATOM     17  O   UNL     1      10.963 -14.988  20.963  1.00  0.00    -0.504 OA
ATOM     18  H   UNL     1      11.356 -14.255  20.390  1.00  0.00     0.293 HD
ENDBRANCH  13  17
BRANCH  15  19
ATOM     19  O   UNL     1      12.870 -16.675  19.532  1.00  0.00    -0.502 OA
ATOM     20  H   UNL     1      13.659 -16.897  20.122  1.00  0.00     0.293 HD
ENDBRANCH  15  19
BRANCH  16  21
ATOM     21  O   UNL     1      12.056 -19.139  18.637  1.00  0.00    -0.504 OA
ATOM     22  H   UNL     1      12.271 -20.084  18.933  1.00  0.00     0.293 HD
ENDBRANCH  16  21
ENDBRANCH   1  11
BRANCH  10  23
ATOM     23  O   UNL     1       8.137 -19.477  22.671  1.00  0.00    -0.500 OA
ATOM     24  H   UNL     1       8.536 -20.403  22.769  1.00  0.00     0.294 HD
ENDBRANCH  10  23
BRANCH   5  25
ATOM     25  O   UNL     1       2.181 -18.113  17.877  1.00  0.00    -0.507 OA
ATOM     26  H   UNL     1       1.246 -18.502  17.844  1.00  0.00     0.293 HD
ENDBRANCH   5  25
BRANCH   7  27
ATOM     27  O   UNL     1       3.024 -20.384  22.022  1.00  0.00    -0.507 OA
ATOM     28  H   UNL     1       2.132 -20.210  22.462  1.00  0.00     0.293 HD
ENDBRANCH   7  27
TORSDOF 7
ENDMDL
MODEL 2
REMARK VINA RESULT:    -4.569      2.549      4.660
REMARK INTER + INTRA:          -6.022
REMARK INTER:                  -5.697
REMARK INTRA:                  -0.325
REMARK UNBOUND:                -0.384
REMARK SMILES Oc1cc(O)c2cc(O)c(-c3cc(O)c(O)c(O)c3)[o+]c2c1.[Cl-]
REMARK SMILES IDX 10 1 20 2 21 3 22 4 2 5 3 6 4 7 6 8 7 9 8 10 11 11 12 12
REMARK SMILES IDX 13 13 19 14 15 15 17 16 14 17 16 19 18 21 9 23 1 25 5 27
REMARK H PARENT 14 18 16 20 18 22 9 24 1 26 5 28
REMARK Flexibility Score: inf
ROOT
ATOM      1  C   UNL     1       4.281 -18.961  20.036  1.00  0.00     0.402 A 
ATOM      2  O   UNL     1       4.242 -19.343  21.309  1.00  0.00    -0.202 OA
ATOM      3  C   UNL     1       3.155 -19.843  21.888  1.00  0.00     0.368 A 
ATOM      4  C   UNL     1       3.211 -20.214  23.234  1.00  0.00     0.162 A 
ATOM      5  C   UNL     1       2.082 -20.741  23.869  1.00  0.00     0.128 A 
ATOM      6  C   UNL     1       0.893 -20.897  23.154  1.00  0.00     0.093 A 
ATOM      7  C   UNL     1       0.811 -20.533  21.803  1.00  0.00     0.136 A 
ATOM      8  C   UNL     1       1.954 -20.000  21.155  1.00  0.00     0.125 A 
ATOM      9  C   UNL     1       1.969 -19.621  19.802  1.00  0.00     0.078 A 
ATOM     10  C   UNL     1       3.137 -19.108  19.230  1.00  0.00     0.223 A 
ENDROOT
BRANCH   1  11
ATOM     11  C   UNL     1       5.550 -18.408  19.509  1.00  0.00     0.091 A 
ATOM     12  C   UNL     1       6.653 -19.257  19.334  1.00  0.00     0.068 A 
ATOM     13  C   UNL     1       7.873 -18.765  18.857  1.00  0.00     0.162 A 
ATOM     14  C   UNL     1       5.692 -17.039  19.232  1.00  0.00     0.068 A 
ATOM     15  C   UNL     1       8.002 -17.387  18.559  1.00  0.00     0.200 A 
ATOM     16  C   UNL     1       6.907 -16.533  18.756  1.00  0.00     0.162 A 
BRANCH  13  17
ATOM     17  O   UNL     1       8.922 -19.672  18.698  1.00  0.00    -0.504 OA
ATOM     18  H   UNL     1       9.598 -19.632  17.948  1.00  0.00     0.293 HD
ENDBRANCH  13  17
BRANCH  15  19
ATOM     19  O   UNL     1       9.189 -16.832  18.074  1.00  0.00    -0.502 OA
ATOM     20  H   UNL     1       9.888 -17.349  17.561  1.00  0.00     0.293 HD
ENDBRANCH  15  19
BRANCH  16  21
ATOM     21  O   UNL     1       7.038 -15.174  18.477  1.00  0.00    -0.504 OA
ATOM     22  H   UNL     1       6.729 -14.780  17.596  1.00  0.00     0.293 HD
ENDBRANCH  16  21
ENDBRANCH   1  11
BRANCH  10  23
ATOM     23  O   UNL     1       3.165 -18.778  17.875  1.00  0.00    -0.500 OA
ATOM     24  H   UNL     1       2.714 -17.944  17.521  1.00  0.00     0.294 HD
ENDBRANCH  10  23
BRANCH   5  25
ATOM     25  O   UNL     1       2.131 -21.113  25.210  1.00  0.00    -0.507 OA
ATOM     26  H   UNL     1       1.356 -21.589  25.656  1.00  0.00     0.293 HD
ENDBRANCH   5  25
BRANCH   7  27
ATOM     27  O   UNL     1      -0.417 -20.718  21.160  1.00  0.00    -0.507 OA
ATOM     28  H   UNL     1      -0.730 -21.595  20.771  1.00  0.00     0.293 HD
ENDBRANCH   7  27
TORSDOF 7
ENDMDL
MODEL 3
REMARK VINA RESULT:    -4.555      1.419      2.831
REMARK INTER + INTRA:          -6.005
REMARK INTER:                  -5.714
REMARK INTRA:                  -0.290
REMARK UNBOUND:                -0.384
REMARK SMILES Oc1cc(O)c2cc(O)c(-c3cc(O)c(O)c(O)c3)[o+]c2c1.[Cl-]
REMARK SMILES IDX 10 1 20 2 21 3 22 4 2 5 3 6 4 7 6 8 7 9 8 10 11 11 12 12
REMARK SMILES IDX 13 13 19 14 15 15 17 16 14 17 16 19 18 21 9 23 1 25 5 27
REMARK H PARENT 14 18 16 20 18 22 9 24 1 26 5 28
REMARK Flexibility Score: inf
ROOT
ATOM      1  C   UNL     1       6.613 -18.680  20.145  1.00  0.00     0.402 A 
ATOM      2  O   UNL     1       6.219 -19.185  21.311  1.00  0.00    -0.202 OA
ATOM      3  C   UNL     1       4.952 -19.472  21.592  1.00  0.00     0.368 A 
ATOM      4  C   UNL     1       4.636 -19.998  22.847  1.00  0.00     0.162 A 
ATOM      5  C   UNL     1       3.310 -20.305  23.170  1.00  0.00     0.128 A 
ATOM      6  C   UNL     1       2.298 -20.087  22.233  1.00  0.00     0.093 A 
ATOM      7  C   UNL     1       2.589 -19.560  20.967  1.00  0.00     0.136 A 
ATOM      8  C   UNL     1       3.933 -19.249  20.635  1.00  0.00     0.125 A 
ATOM      9  C   UNL     1       4.319 -18.731  19.387  1.00  0.00     0.078 A 
ATOM     10  C   UNL     1       5.665 -18.453  19.130  1.00  0.00     0.223 A 
ENDROOT
BRANCH   1  11
ATOM     11  C   UNL     1       8.053 -18.393  19.957  1.00  0.00     0.091 A 
ATOM     12  C   UNL     1       8.622 -17.277  20.588  1.00  0.00     0.068 A 
ATOM     13  C   UNL     1       9.975 -16.963  20.418  1.00  0.00     0.162 A 
ATOM     14  C   UNL     1       8.853 -19.181  19.114  1.00  0.00     0.068 A 
ATOM     15  C   UNL     1      10.780 -17.776  19.583  1.00  0.00     0.200 A 
ATOM     16  C   UNL     1      10.208 -18.878  18.933  1.00  0.00     0.162 A 
BRANCH  13  17
ATOM     17  O   UNL     1      10.472 -15.844  21.087  1.00  0.00    -0.504 OA
ATOM     18  H   UNL     1      10.122 -15.513  21.976  1.00  0.00     0.293 HD
ENDBRANCH  13  17
BRANCH  15  19
ATOM     19  O   UNL     1      12.138 -17.523  19.375  1.00  0.00    -0.502 OA
ATOM     20  H   UNL     1      12.764 -18.150  18.890  1.00  0.00     0.293 HD
ENDBRANCH  15  19
BRANCH  16  21
ATOM     21  O   UNL     1      10.996 -19.669  18.100  1.00  0.00    -0.504 OA
ATOM     22  H   UNL     1      10.934 -19.604  17.091  1.00  0.00     0.293 HD
ENDBRANCH  16  21
ENDBRANCH   1  11
BRANCH  10  23
ATOM     23  O   UNL     1       6.055 -17.985  17.875  1.00  0.00    -0.500 OA
ATOM     24  H   UNL     1       7.031 -17.894  17.620  1.00  0.00     0.294 HD
ENDBRANCH  10  23
BRANCH   5  25
ATOM     25  O   UNL     1       2.988 -20.830  24.419  1.00  0.00    -0.507 OA
ATOM     26  H   UNL     1       2.494 -21.710  24.513  1.00  0.00     0.293 HD
ENDBRANCH   5  25
BRANCH   7  27
ATOM     27  O   UNL     1       1.519 -19.368  20.089  1.00  0.00    -0.507 OA
ATOM     28  H   UNL     1       1.357 -19.919  19.259  1.00  0.00     0.293 HD
ENDBRANCH   7  27
TORSDOF 7
ENDMDL
MODEL 4
REMARK VINA RESULT:    -4.450      1.660      7.139
REMARK INTER + INTRA:          -5.875
REMARK INTER:                  -5.498
REMARK INTRA:                  -0.377
REMARK UNBOUND:                -0.384
REMARK SMILES Oc1cc(O)c2cc(O)c(-c3cc(O)c(O)c(O)c3)[o+]c2c1.[Cl-]
REMARK SMILES IDX 10 1 20 2 21 3 22 4 2 5 3 6 4 7 6 8 7 9 8 10 11 11 12 12
REMARK SMILES IDX 13 13 19 14 15 15 17 16 14 17 16 19 18 21 9 23 1 25 5 27
REMARK H PARENT 14 18 16 20 18 22 9 24 1 26 5 28
REMARK Flexibility Score: inf
ROOT
ATOM      1  C   UNL     1       7.885 -17.557  19.862  1.00  0.00     0.402 A 
ATOM      2  O   UNL     1       8.027 -16.256  20.101  1.00  0.00    -0.202 OA
ATOM      3  C   UNL     1       9.197 -15.628  20.046  1.00  0.00     0.368 A 
ATOM      4  C   UNL     1       9.246 -14.258  20.316  1.00  0.00     0.162 A 
ATOM      5  C   UNL     1      10.465 -13.572  20.269  1.00  0.00     0.128 A 
ATOM      6  C   UNL     1      11.637 -14.261  19.950  1.00  0.00     0.093 A 
ATOM      7  C   UNL     1      11.614 -15.635  19.675  1.00  0.00     0.136 A 
ATOM      8  C   UNL     1      10.381 -16.333  19.720  1.00  0.00     0.125 A 
ATOM      9  C   UNL     1      10.260 -17.706  19.446  1.00  0.00     0.078 A 
ATOM     10  C   UNL     1       9.008 -18.326  19.505  1.00  0.00     0.223 A 
ENDROOT
BRANCH   1  11
ATOM     11  C   UNL     1       6.529 -18.144  19.965  1.00  0.00     0.091 A 
ATOM     12  C   UNL     1       5.626 -17.984  18.904  1.00  0.00     0.068 A 
ATOM     13  C   UNL     1       4.330 -18.508  18.975  1.00  0.00     0.162 A 
ATOM     14  C   UNL     1       6.107 -18.811  21.126  1.00  0.00     0.068 A 
ATOM     15  C   UNL     1       3.919 -19.198  20.141  1.00  0.00     0.200 A 
ATOM     16  C   UNL     1       4.813 -19.339  21.211  1.00  0.00     0.162 A 
BRANCH  13  17
ATOM     17  O   UNL     1       3.491 -18.319  17.875  1.00  0.00    -0.504 OA
ATOM     18  H   UNL     1       2.687 -17.707  17.874  1.00  0.00     0.293 HD
ENDBRANCH  13  17
BRANCH  15  19
ATOM     19  O   UNL     1       2.643 -19.752  20.274  1.00  0.00    -0.502 OA
ATOM     20  H   UNL     1       2.305 -20.200  21.113  1.00  0.00     0.293 HD
ENDBRANCH  15  19
BRANCH  16  21
ATOM     21  O   UNL     1       4.404 -20.005  22.365  1.00  0.00    -0.504 OA
ATOM     22  H   UNL     1       3.790 -19.568  23.042  1.00  0.00     0.293 HD
ENDBRANCH  16  21
ENDBRANCH   1  11
BRANCH  10  23
ATOM     23  O   UNL     1       8.882 -19.678  19.186  1.00  0.00    -0.500 OA
ATOM     24  H   UNL     1       8.380 -19.985  18.362  1.00  0.00     0.294 HD
ENDBRANCH  10  23
BRANCH   5  25
ATOM     25  O   UNL     1      10.521 -12.207  20.536  1.00  0.00    -0.507 OA
ATOM     26  H   UNL     1      10.270 -11.519  19.836  1.00  0.00     0.293 HD
ENDBRANCH   5  25
BRANCH   7  27
ATOM     27  O   UNL     1      12.832 -16.249  19.368  1.00  0.00    -0.507 OA
ATOM     28  H   UNL     1      13.665 -15.754  19.085  1.00  0.00     0.293 HD
ENDBRANCH   7  27
TORSDOF 7
ENDMDL
MODEL 5
REMARK VINA RESULT:    -4.356      2.525      3.800
REMARK INTER + INTRA:          -5.759
REMARK INTER:                  -5.433
REMARK INTRA:                  -0.325
REMARK UNBOUND:                -0.384
REMARK SMILES Oc1cc(O)c2cc(O)c(-c3cc(O)c(O)c(O)c3)[o+]c2c1.[Cl-]
REMARK SMILES IDX 10 1 20 2 21 3 22 4 2 5 3 6 4 7 6 8 7 9 8 10 11 11 12 12
REMARK SMILES IDX 13 13 19 14 15 15 17 16 14 17 16 19 18 21 9 23 1 25 5 27
REMARK H PARENT 14 18 16 20 18 22 9 24 1 26 5 28
REMARK Flexibility Score: inf
ROOT
ATOM      1  C   UNL     1       4.520 -18.979  20.387  1.00  0.00     0.402 A 
ATOM      2  O   UNL     1       3.448 -19.240  19.643  1.00  0.00    -0.202 OA
ATOM      3  C   UNL     1       2.322 -19.745  20.136  1.00  0.00     0.368 A 
ATOM      4  C   UNL     1       1.250 -19.988  19.273  1.00  0.00     0.162 A 
ATOM      5  C   UNL     1       0.055 -20.521  19.765  1.00  0.00     0.128 A 
ATOM      6  C   UNL     1      -0.068 -20.813  21.126  1.00  0.00     0.093 A 
ATOM      7  C   UNL     1       0.992 -20.579  22.012  1.00  0.00     0.136 A 
ATOM      8  C   UNL     1       2.206 -20.036  21.517  1.00  0.00     0.125 A 
ATOM      9  C   UNL     1       3.315 -19.756  22.332  1.00  0.00     0.078 A 
ATOM     10  C   UNL     1       4.477 -19.215  21.774  1.00  0.00     0.223 A 
ENDROOT
BRANCH   1  11
ATOM     11  C   UNL     1       5.720 -18.427  19.719  1.00  0.00     0.091 A 
ATOM     12  C   UNL     1       6.833 -19.254  19.508  1.00  0.00     0.068 A 
ATOM     13  C   UNL     1       7.992 -18.762  18.897  1.00  0.00     0.162 A 
ATOM     14  C   UNL     1       5.790 -17.078  19.339  1.00  0.00     0.068 A 
ATOM     15  C   UNL     1       8.048 -17.405  18.497  1.00  0.00     0.200 A 
ATOM     16  C   UNL     1       6.944 -16.572  18.727  1.00  0.00     0.162 A 
BRANCH  13  17
ATOM     17  O   UNL     1       9.055 -19.647  18.711  1.00  0.00    -0.504 OA
ATOM     18  H   UNL     1       9.849 -19.462  18.114  1.00  0.00     0.293 HD
ENDBRANCH  13  17
BRANCH  15  19
ATOM     19  O   UNL     1       9.170 -16.851  17.876  1.00  0.00    -0.502 OA
ATOM     20  H   UNL     1       9.923 -17.393  17.478  1.00  0.00     0.293 HD
ENDBRANCH  15  19
BRANCH  16  21
ATOM     21  O   UNL     1       7.004 -15.232  18.347  1.00  0.00    -0.504 OA
ATOM     22  H   UNL     1       6.938 -14.951  17.376  1.00  0.00     0.293 HD
ENDBRANCH  16  21
ENDBRANCH   1  11
BRANCH  10  23
ATOM     23  O   UNL     1       5.561 -18.892  22.591  1.00  0.00    -0.500 OA
ATOM     24  H   UNL     1       6.484 -18.728  22.210  1.00  0.00     0.294 HD
ENDBRANCH  10  23
BRANCH   5  25
ATOM     25  O   UNL     1      -1.018 -20.765  18.911  1.00  0.00    -0.507 OA
ATOM     26  H   UNL     1      -1.942 -20.979  19.268  1.00  0.00     0.293 HD
ENDBRANCH   5  25
BRANCH   7  27
ATOM     27  O   UNL     1       0.789 -20.901  23.357  1.00  0.00    -0.507 OA
ATOM     28  H   UNL     1       1.516 -21.213  23.984  1.00  0.00     0.293 HD
ENDBRANCH   7  27
TORSDOF 7
ENDMDL
MODEL 6
REMARK VINA RESULT:    -4.256      1.687      7.351
REMARK INTER + INTRA:          -5.636
REMARK INTER:                  -5.653
REMARK INTRA:                   0.018
REMARK UNBOUND:                -0.384
REMARK SMILES Oc1cc(O)c2cc(O)c(-c3cc(O)c(O)c(O)c3)[o+]c2c1.[Cl-]
REMARK SMILES IDX 10 1 20 2 21 3 22 4 2 5 3 6 4 7 6 8 7 9 8 10 11 11 12 12
REMARK SMILES IDX 13 13 19 14 15 15 17 16 14 17 16 19 18 21 9 23 1 25 5 27
REMARK H PARENT 14 18 16 20 18 22 9 24 1 26 5 28
REMARK Flexibility Score: inf
ROOT
ATOM      1  C   UNL     1       7.874 -18.088  20.175  1.00  0.00     0.402 A 
ATOM      2  O   UNL     1       8.748 -18.806  20.876  1.00  0.00    -0.202 OA
ATOM      3  C   UNL     1      10.057 -18.575  20.866  1.00  0.00     0.368 A 
ATOM      4  C   UNL     1      10.896 -19.385  21.635  1.00  0.00     0.162 A 
ATOM      5  C   UNL     1      12.278 -19.167  21.640  1.00  0.00     0.128 A 
ATOM      6  C   UNL     1      12.820 -18.132  20.874  1.00  0.00     0.093 A 
ATOM      7  C   UNL     1      12.000 -17.305  20.095  1.00  0.00     0.136 A 
ATOM      8  C   UNL     1      10.598 -17.523  20.088  1.00  0.00     0.125 A 
ATOM      9  C   UNL     1       9.699 -16.737  19.349  1.00  0.00     0.078 A 
ATOM     10  C   UNL     1       8.328 -17.007  19.396  1.00  0.00     0.223 A 
ENDROOT
BRANCH   1  11
ATOM     11  C   UNL     1       6.441 -18.451  20.260  1.00  0.00     0.091 A 
ATOM     12  C   UNL     1       5.905 -18.858  21.490  1.00  0.00     0.068 A 
ATOM     13  C   UNL     1       4.560 -19.227  21.605  1.00  0.00     0.162 A 
ATOM     14  C   UNL     1       5.618 -18.450  19.124  1.00  0.00     0.068 A 
ATOM     15  C   UNL     1       3.730 -19.203  20.458  1.00  0.00     0.200 A 
ATOM     16  C   UNL     1       4.270 -18.818  19.223  1.00  0.00     0.162 A 
BRANCH  13  17
ATOM     17  O   UNL     1       4.095 -19.610  22.864  1.00  0.00    -0.504 OA
ATOM     18  H   UNL     1       4.317 -20.491  23.306  1.00  0.00     0.293 HD
ENDBRANCH  13  17
BRANCH  15  19
ATOM     19  O   UNL     1       2.378 -19.552  20.503  1.00  0.00    -0.502 OA
ATOM     20  H   UNL     1       1.721 -19.187  21.176  1.00  0.00     0.293 HD
ENDBRANCH  15  19
BRANCH  16  21
ATOM     21  O   UNL     1       3.457 -18.809  18.090  1.00  0.00    -0.504 OA
ATOM     22  H   UNL     1       2.968 -17.973  17.794  1.00  0.00     0.293 HD
ENDBRANCH  16  21
ENDBRANCH   1  11
BRANCH  10  23
ATOM     23  O   UNL     1       7.431 -16.197  18.701  1.00  0.00    -0.500 OA
ATOM     24  H   UNL     1       6.641 -16.584  18.200  1.00  0.00     0.294 HD
ENDBRANCH  10  23
BRANCH   5  25
ATOM     25  O   UNL     1      13.120 -19.970  22.404  1.00  0.00    -0.507 OA
ATOM     26  H   UNL     1      12.793 -20.833  22.823  1.00  0.00     0.293 HD
ENDBRANCH   5  25
BRANCH   7  27
ATOM     27  O   UNL     1      12.622 -16.296  19.355  1.00  0.00    -0.507 OA
ATOM     28  H   UNL     1      12.676 -16.279  18.347  1.00  0.00     0.293 HD
ENDBRANCH   7  27
TORSDOF 7
ENDMDL
MODEL 7
REMARK VINA RESULT:    -4.184      1.849      7.019
REMARK INTER + INTRA:          -5.547
REMARK INTER:                  -5.165
REMARK INTRA:                  -0.381
REMARK UNBOUND:                -0.384
REMARK SMILES Oc1cc(O)c2cc(O)c(-c3cc(O)c(O)c(O)c3)[o+]c2c1.[Cl-]
REMARK SMILES IDX 10 1 20 2 21 3 22 4 2 5 3 6 4 7 6 8 7 9 8 10 11 11 12 12
REMARK SMILES IDX 13 13 19 14 15 15 17 16 14 17 16 19 18 21 9 23 1 25 5 27
REMARK H PARENT 14 18 16 20 18 22 9 24 1 26 5 28
REMARK Flexibility Score: inf
ROOT
ATOM      1  C   UNL     1       6.130 -18.247  20.171  1.00  0.00     0.402 A 
ATOM      2  O   UNL     1       7.154 -18.426  19.341  1.00  0.00    -0.202 OA
ATOM      3  C   UNL     1       8.411 -18.559  19.752  1.00  0.00     0.368 A 
ATOM      4  C   UNL     1       9.420 -18.740  18.802  1.00  0.00     0.162 A 
ATOM      5  C   UNL     1      10.752 -18.880  19.206  1.00  0.00     0.128 A 
ATOM      6  C   UNL     1      11.074 -18.839  20.564  1.00  0.00     0.093 A 
ATOM      7  C   UNL     1      10.080 -18.659  21.536  1.00  0.00     0.136 A 
ATOM      8  C   UNL     1       8.728 -18.518  21.131  1.00  0.00     0.125 A 
ATOM      9  C   UNL     1       7.666 -18.347  22.033  1.00  0.00     0.078 A 
ATOM     10  C   UNL     1       6.356 -18.221  21.560  1.00  0.00     0.223 A 
ENDROOT
BRANCH   1  11
ATOM     11  C   UNL     1       4.775 -18.100  19.591  1.00  0.00     0.091 A 
ATOM     12  C   UNL     1       3.992 -19.243  19.370  1.00  0.00     0.068 A 
ATOM     13  C   UNL     1       2.716 -19.144  18.805  1.00  0.00     0.162 A 
ATOM     14  C   UNL     1       4.277 -16.846  19.206  1.00  0.00     0.068 A 
ATOM     15  C   UNL     1       2.211 -17.873  18.439  1.00  0.00     0.200 A 
ATOM     16  C   UNL     1       3.002 -16.733  18.638  1.00  0.00     0.162 A 
BRANCH  13  17
ATOM     17  O   UNL     1       1.991 -20.324  18.626  1.00  0.00    -0.504 OA
ATOM     18  H   UNL     1       2.338 -21.131  18.127  1.00  0.00     0.293 HD
ENDBRANCH  13  17
BRANCH  15  19
ATOM     19  O   UNL     1       0.943 -17.703  17.877  1.00  0.00    -0.502 OA
ATOM     20  H   UNL     1       0.579 -18.262  17.120  1.00  0.00     0.293 HD
ENDBRANCH  15  19
BRANCH  16  21
ATOM     21  O   UNL     1       2.511 -15.483  18.264  1.00  0.00    -0.504 OA
ATOM     22  H   UNL     1       1.765 -15.029  18.777  1.00  0.00     0.293 HD
ENDBRANCH  16  21
ENDBRANCH   1  11
BRANCH  10  23
ATOM     23  O   UNL     1       5.296 -18.101  22.459  1.00  0.00    -0.500 OA
ATOM     24  H   UNL     1       5.301 -17.408  23.197  1.00  0.00     0.294 HD
ENDBRANCH  10  23
BRANCH   5  25
ATOM     25  O   UNL     1      11.763 -19.061  18.265  1.00  0.00    -0.507 OA
ATOM     26  H   UNL     1      12.208 -18.274  17.807  1.00  0.00     0.293 HD
ENDBRANCH   5  25
BRANCH   7  27
ATOM     27  O   UNL     1      10.487 -18.626  22.873  1.00  0.00    -0.507 OA
ATOM     28  H   UNL     1      11.447 -18.686  23.178  1.00  0.00     0.293 HD
ENDBRANCH   7  27
TORSDOF 7
ENDMDL
MODEL 8
REMARK VINA RESULT:    -1.769      1.686      7.137
REMARK INTER + INTRA:          -2.567
REMARK INTER:                  -2.204
REMARK INTRA:                  -0.363
REMARK UNBOUND:                -0.384
REMARK SMILES Oc1cc(O)c2cc(O)c(-c3cc(O)c(O)c(O)c3)[o+]c2c1.[Cl-]
REMARK SMILES IDX 10 1 20 2 21 3 22 4 2 5 3 6 4 7 6 8 7 9 8 10 11 11 12 12
REMARK SMILES IDX 13 13 19 14 15 15 17 16 14 17 16 19 18 21 9 23 1 25 5 27
REMARK H PARENT 14 18 16 20 18 22 9 24 1 26 5 28
REMARK Flexibility Score: inf
ROOT
ATOM      1  C   UNL     1       7.889 -17.478  19.823  1.00  0.00     0.402 A 
ATOM      2  O   UNL     1       8.057 -16.184  20.085  1.00  0.00    -0.202 OA
ATOM      3  C   UNL     1       9.241 -15.580  20.046  1.00  0.00     0.368 A 
ATOM      4  C   UNL     1       9.317 -14.216  20.340  1.00  0.00     0.162 A 
ATOM      5  C   UNL     1      10.550 -13.556  20.309  1.00  0.00     0.128 A 
ATOM      6  C   UNL     1      11.709 -14.263  19.982  1.00  0.00     0.093 A 
ATOM      7  C   UNL     1      11.658 -15.632  19.684  1.00  0.00     0.136 A 
ATOM      8  C   UNL     1      10.410 -16.305  19.712  1.00  0.00     0.125 A 
ATOM      9  C   UNL     1      10.262 -17.670  19.414  1.00  0.00     0.078 A 
ATOM     10  C   UNL     1       8.997 -18.264  19.458  1.00  0.00     0.223 A 
ENDROOT
BRANCH   1  11
ATOM     11  C   UNL     1       6.521 -18.038  19.911  1.00  0.00     0.091 A 
ATOM     12  C   UNL     1       6.135 -18.737  21.065  1.00  0.00     0.068 A 
ATOM     13  C   UNL     1       4.857 -19.296  21.175  1.00  0.00     0.162 A 
ATOM     14  C   UNL     1       5.617 -17.933  18.843  1.00  0.00     0.068 A 
ATOM     15  C   UNL     1       3.943 -19.168  20.101  1.00  0.00     0.200 A 
ATOM     16  C   UNL     1       4.336 -18.489  18.939  1.00  0.00     0.162 A 
BRANCH  13  17
ATOM     17  O   UNL     1       4.541 -19.968  22.358  1.00  0.00    -0.504 OA
ATOM     18  H   UNL     1       3.707 -20.524  22.488  1.00  0.00     0.293 HD
ENDBRANCH  13  17
BRANCH  15  19
ATOM     19  O   UNL     1       2.651 -19.696  20.148  1.00  0.00    -0.502 OA
ATOM     20  H   UNL     1       2.339 -20.371  20.831  1.00  0.00     0.293 HD
ENDBRANCH  15  19
BRANCH  16  21
ATOM     21  O   UNL     1       3.442 -18.376  17.875  1.00  0.00    -0.504 OA
ATOM     22  H   UNL     1       3.481 -17.596  17.229  1.00  0.00     0.293 HD
ENDBRANCH  16  21
ENDBRANCH   1  11
BRANCH  10  23
ATOM     23  O   UNL     1       8.843 -19.607  19.115  1.00  0.00    -0.500 OA
ATOM     24  H   UNL     1       9.593 -20.136  18.687  1.00  0.00     0.294 HD
ENDBRANCH  10  23
BRANCH   5  25
ATOM     25  O   UNL     1      10.634 -12.197  20.600  1.00  0.00    -0.507 OA
ATOM     26  H   UNL     1       9.815 -11.659  20.859  1.00  0.00     0.293 HD
ENDBRANCH   5  25
BRANCH   7  27
ATOM     27  O   UNL     1      12.864 -16.266  19.371  1.00  0.00    -0.507 OA
ATOM     28  H   UNL     1      13.376 -16.862  20.005  1.00  0.00     0.293 HD
ENDBRANCH   7  27
TORSDOF 7
ENDMDL
