MODEL 1
REMARK VINA RESULT:    -3.164      0.000      0.000
REMARK INTER + INTRA:          -3.740
REMARK INTER:                  -3.719
REMARK INTRA:                  -0.021
REMARK UNBOUND:                -0.021
REMARK SMILES CCCCC(=O)[O-]
REMARK SMILES IDX 4 1 5 2 6 3 7 4 3 5 2 6 1 7
REMARK H PARENT
REMARK Flexibility Score: inf
ROOT
ATOM      1  C   UNL     1      17.068  -6.341  10.038  1.00  0.00     0.053 C 
ENDROOT
BRANCH   1   2
ATOM      2  C   UNL     1      17.708  -6.362   8.685  1.00  0.00     0.041 C 
ATOM      3  O   UNL     1      18.000  -7.459   8.138  1.00  0.00    -0.550 OA
ATOM      4  O   UNL     1      17.952  -5.172   8.010  1.00  0.00    -0.550 OA
ENDBRANCH   1   2
BRANCH   1   5
ATOM      5  C   UNL     1      18.094  -6.102  11.157  1.00  0.00     0.006 C 
BRANCH   5   6
ATOM      6  C   UNL     1      17.644  -5.080  12.216  1.00  0.00    -0.003 C 
ATOM      7  C   UNL     1      18.794  -4.593  13.098  1.00  0.00     0.004 C 
ENDBRANCH   5   6
ENDBRANCH   1   5
TORSDOF 3
ENDMDL
MODEL 2
REMARK VINA RESULT:    -3.091     18.995     20.099
REMARK INTER + INTRA:          -3.655
REMARK INTER:                  -3.634
REMARK INTRA:                  -0.021
REMARK UNBOUND:                -0.021
REMARK SMILES CCCCC(=O)[O-]
REMARK SMILES IDX 4 1 5 2 6 3 7 4 3 5 2 6 1 7
REMARK H PARENT
REMARK Flexibility Score: inf
ROOT
ATOM      1  C   UNL     1      31.711  -0.764  -2.006  1.00  0.00     0.053 C 
ENDROOT
BRANCH   1   2
ATOM      2  C   UNL     1      30.710   0.347  -1.946  1.00  0.00     0.041 C 
ATOM      3  O   UNL     1      30.413   0.990  -2.987  1.00  0.00    -0.550 OA
ATOM      4  O   UNL     1      30.078   0.653  -0.747  1.00  0.00    -0.550 OA
ENDBRANCH   1   2
BRANCH   1   5
ATOM      5  C   UNL     1      32.101  -1.111  -3.451  1.00  0.00     0.006 C 
BRANCH   5   6
ATOM      6  C   UNL     1      33.381  -0.412  -3.944  1.00  0.00    -0.003 C 
ATOM      7  C   UNL     1      34.658  -1.099  -3.460  1.00  0.00     0.004 C 
ENDBRANCH   5   6
ENDBRANCH   1   5
TORSDOF 3
ENDMDL
MODEL 3
REMARK VINA RESULT:    -3.059      3.336      4.450
REMARK INTER + INTRA:          -3.617
REMARK INTER:                  -3.600
REMARK INTRA:                  -0.017
REMARK UNBOUND:                -0.021
REMARK SMILES CCCCC(=O)[O-]
REMARK SMILES IDX 4 1 5 2 6 3 7 4 3 5 2 6 1 7
REMARK H PARENT
REMARK Flexibility Score: inf
ROOT
ATOM      1  C   UNL     1      17.961  -4.825  12.483  1.00  0.00     0.053 C 
ENDROOT
BRANCH   1   2
ATOM      2  C   UNL     1      19.149  -4.526  13.343  1.00  0.00     0.041 C 
ATOM      3  O   UNL     1      19.771  -5.461  13.913  1.00  0.00    -0.550 OA
ATOM      4  O   UNL     1      19.593  -3.217  13.488  1.00  0.00    -0.550 OA
ENDBRANCH   1   2
BRANCH   1   5
ATOM      5  C   UNL     1      18.245  -5.955  11.480  1.00  0.00     0.006 C 
BRANCH   5   6
ATOM      6  C   UNL     1      17.124  -6.179  10.450  1.00  0.00    -0.003 C 
ATOM      7  C   UNL     1      17.636  -6.203   9.010  1.00  0.00     0.004 C 
ENDBRANCH   5   6
ENDBRANCH   1   5
TORSDOF 3
ENDMDL
MODEL 4
REMARK VINA RESULT:    -2.999     15.608     16.296
REMARK INTER + INTRA:          -3.546
REMARK INTER:                  -3.513
REMARK INTRA:                  -0.033
REMARK UNBOUND:                -0.021
REMARK SMILES CCCCC(=O)[O-]
REMARK SMILES IDX 4 1 5 2 6 3 7 4 3 5 2 6 1 7
REMARK H PARENT
REMARK Flexibility Score: inf
ROOT
ATOM      1  C   UNL     1      21.627   9.443   8.937  1.00  0.00     0.053 C 
ENDROOT
BRANCH   1   2
ATOM      2  C   UNL     1      20.669   9.704  10.057  1.00  0.00     0.041 C 
ATOM      3  O   UNL     1      19.506  10.122   9.811  1.00  0.00    -0.550 OA
ATOM      4  O   UNL     1      21.046   9.454  11.371  1.00  0.00    -0.550 OA
ENDBRANCH   1   2
BRANCH   1   5
ATOM      5  C   UNL     1      21.189  10.124   7.632  1.00  0.00     0.006 C 
BRANCH   5   6
ATOM      6  C   UNL     1      21.913   9.606   6.376  1.00  0.00    -0.003 C 
ATOM      7  C   UNL     1      22.098   8.088   6.380  1.00  0.00     0.004 C 
ENDBRANCH   5   6
ENDBRANCH   1   5
TORSDOF 3
ENDMDL
MODEL 5
REMARK VINA RESULT:    -2.954     19.677     20.599
REMARK INTER + INTRA:          -3.493
REMARK INTER:                  -3.420
REMARK INTRA:                  -0.074
REMARK UNBOUND:                -0.021
REMARK SMILES CCCCC(=O)[O-]
REMARK SMILES IDX 4 1 5 2 6 3 7 4 3 5 2 6 1 7
REMARK H PARENT
REMARK Flexibility Score: inf
ROOT
ATOM      1  C   UNL     1      30.924   1.232  -3.321  1.00  0.00     0.053 C 
ENDROOT
BRANCH   1   2
ATOM      2  C   UNL     1      32.072   2.108  -3.717  1.00  0.00     0.041 C 
ATOM      3  O   UNL     1      33.149   1.596  -4.122  1.00  0.00    -0.550 OA
ATOM      4  O   UNL     1      31.942   3.491  -3.673  1.00  0.00    -0.550 OA
ENDBRANCH   1   2
BRANCH   1   5
ATOM      5  C   UNL     1      31.111  -0.216  -3.801  1.00  0.00     0.006 C 
BRANCH   5   6
ATOM      6  C   UNL     1      31.435  -1.216  -2.676  1.00  0.00    -0.003 C 
ATOM      7  C   UNL     1      31.562  -0.550  -1.306  1.00  0.00     0.004 C 
ENDBRANCH   5   6
ENDBRANCH   1   5
TORSDOF 3
ENDMDL
MODEL 6
REMARK VINA RESULT:    -2.938     13.410     14.637
REMARK INTER + INTRA:          -3.475
REMARK INTER:                  -3.378
REMARK INTRA:                  -0.097
REMARK UNBOUND:                -0.021
REMARK SMILES CCCCC(=O)[O-]
REMARK SMILES IDX 4 1 5 2 6 3 7 4 3 5 2 6 1 7
REMARK H PARENT
REMARK Flexibility Score: inf
ROOT
ATOM      1  C   UNL     1      18.869   9.207  11.651  1.00  0.00     0.053 C 
ENDROOT
BRANCH   1   2
ATOM      2  C   UNL     1      20.320   9.276  11.289  1.00  0.00     0.041 C 
ATOM      3  O   UNL     1      20.677   9.213  10.083  1.00  0.00    -0.550 OA
ATOM      4  O   UNL     1      21.278   9.445  12.282  1.00  0.00    -0.550 OA
ENDBRANCH   1   2
BRANCH   1   5
ATOM      5  C   UNL     1      18.605   8.208  12.788  1.00  0.00     0.006 C 
BRANCH   5   6
ATOM      6  C   UNL     1      18.633   6.732  12.351  1.00  0.00    -0.003 C 
ATOM      7  C   UNL     1      19.914   6.012  12.770  1.00  0.00     0.004 C 
ENDBRANCH   5   6
ENDBRANCH   1   5
TORSDOF 3
ENDMDL
MODEL 7
REMARK VINA RESULT:    -2.934     19.806     20.785
REMARK INTER + INTRA:          -3.470
REMARK INTER:                  -3.340
REMARK INTRA:                  -0.130
REMARK UNBOUND:                -0.021
REMARK SMILES CCCCC(=O)[O-]
REMARK SMILES IDX 4 1 5 2 6 3 7 4 3 5 2 6 1 7
REMARK H PARENT
REMARK Flexibility Score: inf
ROOT
ATOM      1  C   UNL     1      32.923  -1.818  -4.124  1.00  0.00     0.053 C 
ENDROOT
BRANCH   1   2
ATOM      2  C   UNL     1      33.913  -0.784  -3.690  1.00  0.00     0.041 C 
ATOM      3  O   UNL     1      34.884  -1.104  -2.953  1.00  0.00    -0.550 OA
ATOM      4  O   UNL     1      33.786   0.530  -4.125  1.00  0.00    -0.550 OA
ENDBRANCH   1   2
BRANCH   1   5
ATOM      5  C   UNL     1      31.499  -1.488  -3.650  1.00  0.00     0.006 C 
BRANCH   5   6
ATOM      6  C   UNL     1      31.402  -1.112  -2.160  1.00  0.00    -0.003 C 
ATOM      7  C   UNL     1      30.804   0.277  -1.936  1.00  0.00     0.004 C 
ENDBRANCH   5   6
ENDBRANCH   1   5
TORSDOF 3
ENDMDL
MODEL 8
REMARK VINA RESULT:    -2.917     17.839     18.465
REMARK INTER + INTRA:          -3.450
REMARK INTER:                  -3.405
REMARK INTRA:                  -0.045
REMARK UNBOUND:                -0.021
REMARK SMILES CCCCC(=O)[O-]
REMARK SMILES IDX 4 1 5 2 6 3 7 4 3 5 2 6 1 7
REMARK H PARENT
REMARK Flexibility Score: inf
ROOT
ATOM      1  C   UNL     1      36.788  -7.257  11.165  1.00  0.00     0.053 C 
ENDROOT
BRANCH   1   2
ATOM      2  C   UNL     1      35.701  -7.904  10.364  1.00  0.00     0.041 C 
ATOM      3  O   UNL     1      35.666  -7.765   9.113  1.00  0.00    -0.550 OA
ATOM      4  O   UNL     1      34.744  -8.690  10.995  1.00  0.00    -0.550 OA
ENDBRANCH   1   2
BRANCH   1   5
ATOM      5  C   UNL     1      36.456  -7.222  12.665  1.00  0.00     0.006 C 
BRANCH   5   6
ATOM      6  C   UNL     1      36.945  -5.955  13.389  1.00  0.00    -0.003 C 
ATOM      7  C   UNL     1      37.088  -4.754  12.454  1.00  0.00     0.004 C 
ENDBRANCH   5   6
ENDBRANCH   1   5
TORSDOF 3
ENDMDL
MODEL 9
REMARK VINA RESULT:    -2.868      9.676     10.601
REMARK INTER + INTRA:          -3.392
REMARK INTER:                  -3.291
REMARK INTRA:                  -0.102
REMARK UNBOUND:                -0.021
REMARK SMILES CCCCC(=O)[O-]
REMARK SMILES IDX 4 1 5 2 6 3 7 4 3 5 2 6 1 7
REMARK H PARENT
REMARK Flexibility Score: inf
ROOT
ATOM      1  C   UNL     1      17.736  -6.446   0.143  1.00  0.00     0.053 C 
ENDROOT
BRANCH   1   2
ATOM      2  C   UNL     1      17.566  -6.905  -1.272  1.00  0.00     0.041 C 
ATOM      3  O   UNL     1      17.305  -6.073  -2.181  1.00  0.00    -0.550 OA
ATOM      4  O   UNL     1      17.730  -8.246  -1.595  1.00  0.00    -0.550 OA
ENDBRANCH   1   2
BRANCH   1   5
ATOM      5  C   UNL     1      16.879  -7.265   1.121  1.00  0.00     0.006 C 
BRANCH   5   6
ATOM      6  C   UNL     1      17.682  -8.245   1.994  1.00  0.00    -0.003 C 
ATOM      7  C   UNL     1      17.468  -9.706   1.599  1.00  0.00     0.004 C 
ENDBRANCH   5   6
ENDBRANCH   1   5
TORSDOF 3
ENDMDL
