MODEL 1
REMARK VINA RESULT:    -4.640      0.000      0.000
REMARK INTER + INTRA:          -9.569
REMARK INTER:                  -8.437
REMARK INTRA:                  -1.131
REMARK UNBOUND:                -1.131
REMARK SMILES CCCCCCCCCCCCCC[C@H](C)C(=O)[O-]
REMARK SMILES IDX 9 1 10 2 11 3 12 4 13 5 14 6 15 7 16 8 17 9 18 10 19 11 8 12
REMARK SMILES IDX 7 13 6 14 5 15 4 16 3 17 2 18 1 19
REMARK H PARENT
REMARK Flexibility Score: inf
ROOT
ATOM      1  C   UNL     1     -28.865  21.643  27.975  1.00  0.00     0.000 C 
ENDROOT
BRANCH   1   2
ATOM      2  C   UNL     1     -29.453  22.123  29.314  1.00  0.00     0.000 C 
BRANCH   2   3
ATOM      3  C   UNL     1     -30.921  21.696  29.502  1.00  0.00     0.000 C 
BRANCH   3   4
ATOM      4  C   UNL     1     -31.924  22.862  29.418  1.00  0.00     0.000 C 
BRANCH   4   5
ATOM      5  C   UNL     1     -31.265  24.250  29.596  1.00  0.00     0.001 C 
BRANCH   5   6
ATOM      6  C   UNL     1     -32.021  25.170  30.574  1.00  0.00     0.009 C 
BRANCH   6   7
ATOM      7  C   UNL     1     -33.469  24.723  30.879  1.00  0.00     0.032 C 
ATOM      8  C   UNL     1     -34.503  25.777  30.463  1.00  0.00     0.014 C 
BRANCH   7   9
ATOM      9  C   UNL     1     -33.611  24.441  32.350  1.00  0.00     0.044 C 
ATOM     10  O   UNL     1     -32.855  23.602  32.909  1.00  0.00    -0.550 OA
ATOM     11  O   UNL     1     -34.593  25.081  33.097  1.00  0.00    -0.550 OA
ENDBRANCH   7   9
ENDBRANCH   6   7
ENDBRANCH   5   6
ENDBRANCH   4   5
ENDBRANCH   3   4
ENDBRANCH   2   3
ENDBRANCH   1   2
BRANCH   1  12
ATOM     12  C   UNL     1     -29.191  22.601  26.816  1.00  0.00     0.000 C 
BRANCH  12  13
ATOM     13  C   UNL     1     -28.968  21.950  25.439  1.00  0.00    -0.000 C 
BRANCH  13  14
ATOM     14  C   UNL     1     -29.850  20.711  25.219  1.00  0.00    -0.000 C 
BRANCH  14  15
ATOM     15  C   UNL     1     -30.326  20.569  23.765  1.00  0.00    -0.000 C 
BRANCH  15  16
ATOM     16  C   UNL     1     -31.485  19.571  23.662  1.00  0.00    -0.000 C 
BRANCH  16  17
ATOM     17  C   UNL     1     -32.703  20.058  24.463  1.00  0.00    -0.000 C 
BRANCH  17  18
ATOM     18  C   UNL     1     -33.575  18.901  24.972  1.00  0.00    -0.003 C 
ATOM     19  C   UNL     1     -32.979  17.530  24.660  1.00  0.00     0.004 C 
ENDBRANCH  17  18
ENDBRANCH  16  17
ENDBRANCH  15  16
ENDBRANCH  14  15
ENDBRANCH  13  14
ENDBRANCH  12  13
ENDBRANCH   1  12
TORSDOF 14
ENDMDL
MODEL 2
REMARK VINA RESULT:    -4.565      3.302      7.369
REMARK INTER + INTRA:          -9.432
REMARK INTER:                  -8.127
REMARK INTRA:                  -1.304
REMARK UNBOUND:                -1.131
REMARK SMILES CCCCCCCCCCCCCC[C@H](C)C(=O)[O-]
REMARK SMILES IDX 9 1 10 2 11 3 12 4 13 5 14 6 15 7 16 8 17 9 18 10 19 11 8 12
REMARK SMILES IDX 7 13 6 14 5 15 4 16 3 17 2 18 1 19
REMARK H PARENT
REMARK Flexibility Score: inf
ROOT
ATOM      1  C   UNL     1     -29.268  22.879  26.590  1.00  0.00     0.000 C 
ENDROOT
BRANCH   1   2
ATOM      2  C   UNL     1     -28.220  22.372  25.583  1.00  0.00     0.000 C 
BRANCH   2   3
ATOM      3  C   UNL     1     -28.714  21.154  24.780  1.00  0.00     0.000 C 
BRANCH   3   4
ATOM      4  C   UNL     1     -29.325  21.518  23.413  1.00  0.00     0.000 C 
BRANCH   4   5
ATOM      5  C   UNL     1     -30.417  20.526  22.948  1.00  0.00     0.001 C 
BRANCH   5   6
ATOM      6  C   UNL     1     -30.706  19.406  23.966  1.00  0.00     0.009 C 
BRANCH   6   7
ATOM      7  C   UNL     1     -31.756  19.774  25.038  1.00  0.00     0.032 C 
ATOM      8  C   UNL     1     -31.557  18.989  26.341  1.00  0.00     0.014 C 
BRANCH   7   9
ATOM      9  C   UNL     1     -33.137  19.509  24.504  1.00  0.00     0.044 C 
ATOM     10  O   UNL     1     -33.908  20.469  24.240  1.00  0.00    -0.550 OA
ATOM     11  O   UNL     1     -33.583  18.204  24.323  1.00  0.00    -0.550 OA
ENDBRANCH   7   9
ENDBRANCH   6   7
ENDBRANCH   5   6
ENDBRANCH   4   5
ENDBRANCH   3   4
ENDBRANCH   2   3
ENDBRANCH   1   2
BRANCH   1  12
ATOM     12  C   UNL     1     -29.648  21.809  27.628  1.00  0.00     0.000 C 
BRANCH  12  13
ATOM     13  C   UNL     1     -29.131  22.151  29.037  1.00  0.00    -0.000 C 
BRANCH  13  14
ATOM     14  C   UNL     1     -30.258  22.234  30.079  1.00  0.00    -0.000 C 
BRANCH  14  15
ATOM     15  C   UNL     1     -31.643  22.431  29.442  1.00  0.00    -0.000 C 
BRANCH  15  16
ATOM     16  C   UNL     1     -31.971  23.922  29.291  1.00  0.00    -0.000 C 
BRANCH  16  17
ATOM     17  C   UNL     1     -31.626  24.693  30.575  1.00  0.00    -0.000 C 
BRANCH  17  18
ATOM     18  C   UNL     1     -32.849  24.917  31.476  1.00  0.00    -0.003 C 
ATOM     19  C   UNL     1     -33.974  25.671  30.769  1.00  0.00     0.004 C 
ENDBRANCH  17  18
ENDBRANCH  16  17
ENDBRANCH  15  16
ENDBRANCH  14  15
ENDBRANCH  13  14
ENDBRANCH  12  13
ENDBRANCH   1  12
TORSDOF 14
ENDMDL
MODEL 3
REMARK VINA RESULT:    -4.552      1.341      2.679
REMARK INTER + INTRA:          -9.409
REMARK INTER:                  -7.848
REMARK INTRA:                  -1.562
REMARK UNBOUND:                -1.131
REMARK SMILES CCCCCCCCCCCCCC[C@H](C)C(=O)[O-]
REMARK SMILES IDX 9 1 10 2 11 3 12 4 13 5 14 6 15 7 16 8 17 9 18 10 19 11 8 12
REMARK SMILES IDX 7 13 6 14 5 15 4 16 3 17 2 18 1 19
REMARK H PARENT
REMARK Flexibility Score: inf
ROOT
ATOM      1  C   UNL     1     -28.288  21.467  24.896  1.00  0.00     0.000 C 
ENDROOT
BRANCH   1   2
ATOM      2  C   UNL     1     -28.206  22.685  25.835  1.00  0.00     0.000 C 
BRANCH   2   3
ATOM      3  C   UNL     1     -29.374  22.737  26.837  1.00  0.00     0.000 C 
BRANCH   3   4
ATOM      4  C   UNL     1     -29.221  21.763  28.021  1.00  0.00     0.000 C 
BRANCH   4   5
ATOM      5  C   UNL     1     -29.869  22.281  29.327  1.00  0.00     0.001 C 
BRANCH   5   6
ATOM      6  C   UNL     1     -31.384  22.014  29.410  1.00  0.00     0.009 C 
BRANCH   6   7
ATOM      7  C   UNL     1     -32.216  23.212  29.923  1.00  0.00     0.032 C 
ATOM      8  C   UNL     1     -31.456  24.540  29.804  1.00  0.00     0.014 C 
BRANCH   7   9
ATOM      9  C   UNL     1     -32.598  22.984  31.360  1.00  0.00     0.044 C 
ATOM     10  O   UNL     1     -33.014  23.943  32.063  1.00  0.00    -0.550 OA
ATOM     11  O   UNL     1     -32.469  21.723  31.930  1.00  0.00    -0.550 OA
ENDBRANCH   7   9
ENDBRANCH   6   7
ENDBRANCH   5   6
ENDBRANCH   4   5
ENDBRANCH   3   4
ENDBRANCH   2   3
ENDBRANCH   1   2
BRANCH   1  12
ATOM     12  C   UNL     1     -29.373  21.632  23.818  1.00  0.00     0.000 C 
BRANCH  12  13
ATOM     13  C   UNL     1     -30.089  20.306  23.502  1.00  0.00    -0.000 C 
BRANCH  13  14
ATOM     14  C   UNL     1     -30.427  19.498  24.765  1.00  0.00    -0.000 C 
BRANCH  14  15
ATOM     15  C   UNL     1     -31.669  20.031  25.497  1.00  0.00    -0.000 C 
BRANCH  15  16
ATOM     16  C   UNL     1     -32.931  19.836  24.648  1.00  0.00    -0.000 C 
BRANCH  16  17
ATOM     17  C   UNL     1     -33.781  18.674  25.184  1.00  0.00    -0.000 C 
BRANCH  17  18
ATOM     18  C   UNL     1     -33.657  17.406  24.327  1.00  0.00    -0.003 C 
ATOM     19  C   UNL     1     -32.738  16.358  24.952  1.00  0.00     0.004 C 
ENDBRANCH  17  18
ENDBRANCH  16  17
ENDBRANCH  15  16
ENDBRANCH  14  15
ENDBRANCH  13  14
ENDBRANCH  12  13
ENDBRANCH   1  12
TORSDOF 14
ENDMDL
MODEL 4
REMARK VINA RESULT:    -4.540      1.181      1.926
REMARK INTER + INTRA:          -9.387
REMARK INTER:                  -8.296
REMARK INTRA:                  -1.091
REMARK UNBOUND:                -1.131
REMARK SMILES CCCCCCCCCCCCCC[C@H](C)C(=O)[O-]
REMARK SMILES IDX 9 1 10 2 11 3 12 4 13 5 14 6 15 7 16 8 17 9 18 10 19 11 8 12
REMARK SMILES IDX 7 13 6 14 5 15 4 16 3 17 2 18 1 19
REMARK H PARENT
REMARK Flexibility Score: inf
ROOT
ATOM      1  C   UNL     1     -28.833  22.416  26.115  1.00  0.00     0.000 C 
ENDROOT
BRANCH   1   2
ATOM      2  C   UNL     1     -28.870  21.411  27.280  1.00  0.00     0.000 C 
BRANCH   2   3
ATOM      3  C   UNL     1     -29.252  22.072  28.618  1.00  0.00     0.000 C 
BRANCH   3   4
ATOM      4  C   UNL     1     -30.747  22.430  28.731  1.00  0.00     0.000 C 
BRANCH   4   5
ATOM      5  C   UNL     1     -30.995  23.900  29.144  1.00  0.00     0.001 C 
BRANCH   5   6
ATOM      6  C   UNL     1     -32.428  24.165  29.643  1.00  0.00     0.009 C 
BRANCH   6   7
ATOM      7  C   UNL     1     -32.528  25.232  30.757  1.00  0.00     0.032 C 
ATOM      8  C   UNL     1     -31.784  24.814  32.032  1.00  0.00     0.014 C 
BRANCH   7   9
ATOM      9  C   UNL     1     -33.975  25.484  31.086  1.00  0.00     0.044 C 
ATOM     10  O   UNL     1     -34.386  25.351  32.269  1.00  0.00    -0.550 OA
ATOM     11  O   UNL     1     -34.872  25.840  30.085  1.00  0.00    -0.550 OA
ENDBRANCH   7   9
ENDBRANCH   6   7
ENDBRANCH   5   6
ENDBRANCH   4   5
ENDBRANCH   3   4
ENDBRANCH   2   3
ENDBRANCH   1   2
BRANCH   1  12
ATOM     12  C   UNL     1     -28.480  21.747  24.776  1.00  0.00     0.000 C 
BRANCH  12  13
ATOM     13  C   UNL     1     -29.192  20.394  24.592  1.00  0.00    -0.000 C 
BRANCH  13  14
ATOM     14  C   UNL     1     -30.176  20.399  23.411  1.00  0.00    -0.000 C 
BRANCH  14  15
ATOM     15  C   UNL     1     -31.607  20.026  23.828  1.00  0.00    -0.000 C 
BRANCH  15  16
ATOM     16  C   UNL     1     -31.703  19.826  25.345  1.00  0.00    -0.000 C 
BRANCH  16  17
ATOM     17  C   UNL     1     -32.275  18.441  25.683  1.00  0.00    -0.000 C 
BRANCH  17  18
ATOM     18  C   UNL     1     -33.724  18.269  25.204  1.00  0.00    -0.003 C 
ATOM     19  C   UNL     1     -33.893  17.094  24.242  1.00  0.00     0.004 C 
ENDBRANCH  17  18
ENDBRANCH  16  17
ENDBRANCH  15  16
ENDBRANCH  14  15
ENDBRANCH  13  14
ENDBRANCH  12  13
ENDBRANCH   1  12
TORSDOF 14
ENDMDL
MODEL 5
REMARK VINA RESULT:    -4.519      3.217      5.936
REMARK INTER + INTRA:          -9.350
REMARK INTER:                  -6.788
REMARK INTRA:                  -2.561
REMARK UNBOUND:                -1.131
REMARK SMILES CCCCCCCCCCCCCC[C@H](C)C(=O)[O-]
REMARK SMILES IDX 9 1 10 2 11 3 12 4 13 5 14 6 15 7 16 8 17 9 18 10 19 11 8 12
REMARK SMILES IDX 7 13 6 14 5 15 4 16 3 17 2 18 1 19
REMARK H PARENT
REMARK Flexibility Score: inf
ROOT
ATOM      1  C   UNL     1     -33.537  16.975  24.352  1.00  0.00     0.000 C 
ENDROOT
BRANCH   1   2
ATOM      2  C   UNL     1     -33.701  18.193  25.279  1.00  0.00     0.000 C 
BRANCH   2   3
ATOM      3  C   UNL     1     -33.445  19.526  24.552  1.00  0.00     0.000 C 
BRANCH   3   4
ATOM      4  C   UNL     1     -32.053  20.127  24.827  1.00  0.00     0.000 C 
BRANCH   4   5
ATOM      5  C   UNL     1     -31.431  19.646  26.159  1.00  0.00     0.001 C 
BRANCH   5   6
ATOM      6  C   UNL     1     -30.037  20.240  26.437  1.00  0.00     0.009 C 
BRANCH   6   7
ATOM      7  C   UNL     1     -30.056  21.691  26.972  1.00  0.00     0.032 C 
ATOM      8  C   UNL     1     -28.692  22.379  26.833  1.00  0.00     0.014 C 
BRANCH   7   9
ATOM      9  C   UNL     1     -30.469  21.690  28.419  1.00  0.00     0.044 C 
ATOM     10  O   UNL     1     -29.805  21.033  29.265  1.00  0.00    -0.550 OA
ATOM     11  O   UNL     1     -31.597  22.391  28.828  1.00  0.00    -0.550 OA
ENDBRANCH   7   9
ENDBRANCH   6   7
ENDBRANCH   5   6
ENDBRANCH   4   5
ENDBRANCH   3   4
ENDBRANCH   2   3
ENDBRANCH   1   2
BRANCH   1  12
ATOM     12  C   UNL     1     -32.338  16.095  24.749  1.00  0.00     0.000 C 
BRANCH  12  13
ATOM     13  C   UNL     1     -31.028  16.560  24.088  1.00  0.00    -0.000 C 
BRANCH  13  14
ATOM     14  C   UNL     1     -31.244  17.121  22.673  1.00  0.00    -0.000 C 
BRANCH  14  15
ATOM     15  C   UNL     1     -30.151  18.117  22.255  1.00  0.00    -0.000 C 
BRANCH  15  16
ATOM     16  C   UNL     1     -29.141  18.331  23.388  1.00  0.00    -0.000 C 
BRANCH  16  17
ATOM     17  C   UNL     1     -28.186  19.489  23.062  1.00  0.00    -0.000 C 
BRANCH  17  18
ATOM     18  C   UNL     1     -28.881  20.858  23.103  1.00  0.00    -0.003 C 
ATOM     19  C   UNL     1     -27.902  22.023  22.965  1.00  0.00     0.004 C 
ENDBRANCH  17  18
ENDBRANCH  16  17
ENDBRANCH  15  16
ENDBRANCH  14  15
ENDBRANCH  13  14
ENDBRANCH  12  13
ENDBRANCH   1  12
TORSDOF 14
ENDMDL
MODEL 6
REMARK VINA RESULT:    -4.447      4.183      7.858
REMARK INTER + INTRA:          -9.218
REMARK INTER:                  -8.171
REMARK INTRA:                  -1.047
REMARK UNBOUND:                -1.131
REMARK SMILES CCCCCCCCCCCCCC[C@H](C)C(=O)[O-]
REMARK SMILES IDX 9 1 10 2 11 3 12 4 13 5 14 6 15 7 16 8 17 9 18 10 19 11 8 12
REMARK SMILES IDX 7 13 6 14 5 15 4 16 3 17 2 18 1 19
REMARK H PARENT
REMARK Flexibility Score: inf
ROOT
ATOM      1  C   UNL     1     -29.372  21.245  24.367  1.00  0.00     0.000 C 
ENDROOT
BRANCH   1   2
ATOM      2  C   UNL     1     -30.442  20.499  23.549  1.00  0.00     0.000 C 
BRANCH   2   3
ATOM      3  C   UNL     1     -31.363  19.635  24.430  1.00  0.00     0.000 C 
BRANCH   3   4
ATOM      4  C   UNL     1     -32.844  20.059  24.385  1.00  0.00     0.000 C 
BRANCH   4   5
ATOM      5  C   UNL     1     -33.787  19.067  25.105  1.00  0.00     0.001 C 
BRANCH   5   6
ATOM      6  C   UNL     1     -33.062  17.831  25.674  1.00  0.00     0.009 C 
BRANCH   6   7
ATOM      7  C   UNL     1     -33.830  16.502  25.493  1.00  0.00     0.032 C 
ATOM      8  C   UNL     1     -34.609  16.105  26.753  1.00  0.00     0.014 C 
BRANCH   7   9
ATOM      9  C   UNL     1     -32.864  15.405  25.138  1.00  0.00     0.044 C 
ATOM     10  O   UNL     1     -32.986  14.263  25.658  1.00  0.00    -0.550 OA
ATOM     11  O   UNL     1     -31.816  15.647  24.258  1.00  0.00    -0.550 OA
ENDBRANCH   7   9
ENDBRANCH   6   7
ENDBRANCH   5   6
ENDBRANCH   4   5
ENDBRANCH   3   4
ENDBRANCH   2   3
ENDBRANCH   1   2
BRANCH   1  12
ATOM     12  C   UNL     1     -29.347  20.801  25.839  1.00  0.00     0.000 C 
BRANCH  12  13
ATOM     13  C   UNL     1     -28.710  21.859  26.759  1.00  0.00    -0.000 C 
BRANCH  13  14
ATOM     14  C   UNL     1     -29.754  22.666  27.546  1.00  0.00    -0.000 C 
BRANCH  14  15
ATOM     15  C   UNL     1     -30.861  21.784  28.144  1.00  0.00    -0.000 C 
BRANCH  15  16
ATOM     16  C   UNL     1     -31.628  22.534  29.240  1.00  0.00    -0.000 C 
BRANCH  16  17
ATOM     17  C   UNL     1     -31.275  24.029  29.234  1.00  0.00    -0.000 C 
BRANCH  17  18
ATOM     18  C   UNL     1     -31.815  24.768  30.467  1.00  0.00    -0.003 C 
ATOM     19  C   UNL     1     -33.319  25.029  30.387  1.00  0.00     0.004 C 
ENDBRANCH  17  18
ENDBRANCH  16  17
ENDBRANCH  15  16
ENDBRANCH  14  15
ENDBRANCH  13  14
ENDBRANCH  12  13
ENDBRANCH   1  12
TORSDOF 14
ENDMDL
MODEL 7
REMARK VINA RESULT:    -4.444      1.290      2.275
REMARK INTER + INTRA:          -9.213
REMARK INTER:                  -7.503
REMARK INTRA:                  -1.710
REMARK UNBOUND:                -1.131
REMARK SMILES CCCCCCCCCCCCCC[C@H](C)C(=O)[O-]
REMARK SMILES IDX 9 1 10 2 11 3 12 4 13 5 14 6 15 7 16 8 17 9 18 10 19 11 8 12
REMARK SMILES IDX 7 13 6 14 5 15 4 16 3 17 2 18 1 19
REMARK H PARENT
REMARK Flexibility Score: inf
ROOT
ATOM      1  C   UNL     1     -28.851  22.233  26.741  1.00  0.00     0.000 C 
ENDROOT
BRANCH   1   2
ATOM      2  C   UNL     1     -29.789  22.977  27.708  1.00  0.00     0.000 C 
BRANCH   2   3
ATOM      3  C   UNL     1     -30.687  22.019  28.515  1.00  0.00     0.000 C 
BRANCH   3   4
ATOM      4  C   UNL     1     -31.724  22.736  29.400  1.00  0.00     0.000 C 
BRANCH   4   5
ATOM      5  C   UNL     1     -31.507  24.266  29.480  1.00  0.00     0.001 C 
BRANCH   5   6
ATOM      6  C   UNL     1     -32.156  24.915  30.718  1.00  0.00     0.009 C 
BRANCH   6   7
ATOM      7  C   UNL     1     -33.701  24.865  30.728  1.00  0.00     0.032 C 
ATOM      8  C   UNL     1     -34.329  26.259  30.609  1.00  0.00     0.014 C 
BRANCH   7   9
ATOM      9  C   UNL     1     -34.176  24.211  31.997  1.00  0.00     0.044 C 
ATOM     10  O   UNL     1     -34.673  24.911  32.920  1.00  0.00    -0.550 OA
ATOM     11  O   UNL     1     -34.047  22.839  32.173  1.00  0.00    -0.550 OA
ENDBRANCH   7   9
ENDBRANCH   6   7
ENDBRANCH   5   6
ENDBRANCH   4   5
ENDBRANCH   3   4
ENDBRANCH   2   3
ENDBRANCH   1   2
BRANCH   1  12
ATOM     12  C   UNL     1     -28.089  21.088  27.431  1.00  0.00     0.000 C 
BRANCH  12  13
ATOM     13  C   UNL     1     -28.111  19.789  26.605  1.00  0.00    -0.000 C 
BRANCH  13  14
ATOM     14  C   UNL     1     -29.322  18.900  26.932  1.00  0.00    -0.000 C 
BRANCH  14  15
ATOM     15  C   UNL     1     -30.195  18.605  25.702  1.00  0.00    -0.000 C 
BRANCH  15  16
ATOM     16  C   UNL     1     -31.211  19.730  25.469  1.00  0.00    -0.000 C 
BRANCH  16  17
ATOM     17  C   UNL     1     -31.279  20.110  23.982  1.00  0.00    -0.000 C 
BRANCH  17  18
ATOM     18  C   UNL     1     -29.900  20.098  23.306  1.00  0.00    -0.003 C 
ATOM     19  C   UNL     1     -29.316  21.499  23.130  1.00  0.00     0.004 C 
ENDBRANCH  17  18
ENDBRANCH  16  17
ENDBRANCH  15  16
ENDBRANCH  14  15
ENDBRANCH  13  14
ENDBRANCH  12  13
ENDBRANCH   1  12
TORSDOF 14
ENDMDL
MODEL 8
REMARK VINA RESULT:    -4.433      5.491      7.079
REMARK INTER + INTRA:          -9.193
REMARK INTER:                  -6.816
REMARK INTRA:                  -2.377
REMARK UNBOUND:                -1.131
REMARK SMILES CCCCCCCCCCCCCC[C@H](C)C(=O)[O-]
REMARK SMILES IDX 9 1 10 2 11 3 12 4 13 5 14 6 15 7 16 8 17 9 18 10 19 11 8 12
REMARK SMILES IDX 7 13 6 14 5 15 4 16 3 17 2 18 1 19
REMARK H PARENT
REMARK Flexibility Score: inf
ROOT
ATOM      1  C   UNL     1     -29.370  21.521  23.438  1.00  0.00     0.000 C 
ENDROOT
BRANCH   1   2
ATOM      2  C   UNL     1     -29.474  21.240  24.948  1.00  0.00     0.000 C 
BRANCH   2   3
ATOM      3  C   UNL     1     -30.638  20.292  25.293  1.00  0.00     0.000 C 
BRANCH   3   4
ATOM      4  C   UNL     1     -31.605  20.041  24.119  1.00  0.00     0.000 C 
BRANCH   4   5
ATOM      5  C   UNL     1     -32.709  19.008  24.445  1.00  0.00     0.001 C 
BRANCH   5   6
ATOM      6  C   UNL     1     -32.269  17.940  25.465  1.00  0.00     0.009 C 
BRANCH   6   7
ATOM      7  C   UNL     1     -32.724  16.503  25.119  1.00  0.00     0.032 C 
ATOM      8  C   UNL     1     -33.304  16.402  23.703  1.00  0.00     0.014 C 
BRANCH   7   9
ATOM      9  C   UNL     1     -33.756  16.047  26.113  1.00  0.00     0.044 C 
ATOM     10  O   UNL     1     -33.880  14.822  26.379  1.00  0.00    -0.550 OA
ATOM     11  O   UNL     1     -34.598  16.968  26.726  1.00  0.00    -0.550 OA
ENDBRANCH   7   9
ENDBRANCH   6   7
ENDBRANCH   5   6
ENDBRANCH   4   5
ENDBRANCH   3   4
ENDBRANCH   2   3
ENDBRANCH   1   2
BRANCH   1  12
ATOM     12  C   UNL     1     -27.927  21.398  22.918  1.00  0.00     0.000 C 
BRANCH  12  13
ATOM     13  C   UNL     1     -27.234  20.116  23.416  1.00  0.00    -0.000 C 
BRANCH  13  14
ATOM     14  C   UNL     1     -27.533  18.898  22.527  1.00  0.00    -0.000 C 
BRANCH  14  15
ATOM     15  C   UNL     1     -27.898  17.645  23.338  1.00  0.00    -0.000 C 
BRANCH  15  16
ATOM     16  C   UNL     1     -29.390  17.319  23.203  1.00  0.00    -0.000 C 
BRANCH  16  17
ATOM     17  C   UNL     1     -29.951  17.852  21.876  1.00  0.00    -0.000 C 
BRANCH  17  18
ATOM     18  C   UNL     1     -30.604  16.751  21.027  1.00  0.00    -0.003 C 
ATOM     19  C   UNL     1     -30.760  17.150  19.560  1.00  0.00     0.004 C 
ENDBRANCH  17  18
ENDBRANCH  16  17
ENDBRANCH  15  16
ENDBRANCH  14  15
ENDBRANCH  13  14
ENDBRANCH  12  13
ENDBRANCH   1  12
TORSDOF 14
ENDMDL
MODEL 9
REMARK VINA RESULT:    -4.410      5.797      7.330
REMARK INTER + INTRA:          -9.150
REMARK INTER:                  -6.548
REMARK INTRA:                  -2.603
REMARK UNBOUND:                -1.131
REMARK SMILES CCCCCCCCCCCCCC[C@H](C)C(=O)[O-]
REMARK SMILES IDX 9 1 10 2 11 3 12 4 13 5 14 6 15 7 16 8 17 9 18 10 19 11 8 12
REMARK SMILES IDX 7 13 6 14 5 15 4 16 3 17 2 18 1 19
REMARK H PARENT
REMARK Flexibility Score: inf
ROOT
ATOM      1  C   UNL     1     -30.336  16.209  24.374  1.00  0.00     0.000 C 
ENDROOT
BRANCH   1   2
ATOM      2  C   UNL     1     -29.609  17.254  25.240  1.00  0.00     0.000 C 
BRANCH   2   3
ATOM      3  C   UNL     1     -30.405  17.630  26.504  1.00  0.00     0.000 C 
BRANCH   3   4
ATOM      4  C   UNL     1     -30.379  19.136  26.829  1.00  0.00     0.000 C 
BRANCH   4   5
ATOM      5  C   UNL     1     -30.753  20.029  25.624  1.00  0.00     0.001 C 
BRANCH   5   6
ATOM      6  C   UNL     1     -29.707  21.119  25.317  1.00  0.00     0.009 C 
BRANCH   6   7
ATOM      7  C   UNL     1     -29.459  21.359  23.810  1.00  0.00     0.032 C 
ATOM      8  C   UNL     1     -30.181  20.329  22.931  1.00  0.00     0.014 C 
BRANCH   7   9
ATOM      9  C   UNL     1     -27.983  21.306  23.527  1.00  0.00     0.044 C 
ATOM     10  O   UNL     1     -27.362  20.213  23.610  1.00  0.00    -0.550 OA
ATOM     11  O   UNL     1     -27.288  22.464  23.198  1.00  0.00    -0.550 OA
ENDBRANCH   7   9
ENDBRANCH   6   7
ENDBRANCH   5   6
ENDBRANCH   4   5
ENDBRANCH   3   4
ENDBRANCH   2   3
ENDBRANCH   1   2
BRANCH   1  12
ATOM     12  C   UNL     1     -31.378  16.847  23.440  1.00  0.00     0.000 C 
BRANCH  12  13
ATOM     13  C   UNL     1     -32.650  15.989  23.310  1.00  0.00    -0.000 C 
BRANCH  13  14
ATOM     14  C   UNL     1     -33.905  16.707  23.833  1.00  0.00    -0.000 C 
BRANCH  14  15
ATOM     15  C   UNL     1     -33.586  18.058  24.491  1.00  0.00    -0.000 C 
BRANCH  15  16
ATOM     16  C   UNL     1     -34.030  18.071  25.959  1.00  0.00    -0.000 C 
BRANCH  16  17
ATOM     17  C   UNL     1     -34.527  16.685  26.396  1.00  0.00    -0.000 C 
BRANCH  17  18
ATOM     18  C   UNL     1     -33.607  16.028  27.435  1.00  0.00    -0.003 C 
ATOM     19  C   UNL     1     -33.170  14.621  27.031  1.00  0.00     0.004 C 
ENDBRANCH  17  18
ENDBRANCH  16  17
ENDBRANCH  15  16
ENDBRANCH  14  15
ENDBRANCH  13  14
ENDBRANCH  12  13
ENDBRANCH   1  12
TORSDOF 14
ENDMDL
