MODEL 1
REMARK VINA RESULT:    -4.362      0.000      0.000
REMARK INTER + INTRA:          -5.559
REMARK INTER:                  -5.255
REMARK INTRA:                  -0.304
REMARK UNBOUND:                -0.304
REMARK SMILES O=c1c(O)c(-c2ccc(O)c(O)c2)oc2cc(O)cc(O)c12
REMARK SMILES IDX 5 1 3 2 2 3 1 4 22 5 20 6 19 7 17 8 16 9 15 10 14 11 6 12
REMARK SMILES IDX 7 13 8 14 9 15 13 16 11 17 10 18 12 20 4 22 21 24 18 26
REMARK H PARENT 10 19 12 21 4 23 21 25 18 27
REMARK Flexibility Score: inf
ROOT
ATOM      1  C   UNL     1      21.463  34.129  42.760  1.00  0.00     0.180 A 
ATOM      2  C   UNL     1      22.698  33.741  43.313  1.00  0.00     0.208 A 
ATOM      3  C   UNL     1      23.083  34.273  44.554  1.00  0.00     0.238 A 
ATOM      4  O   UNL     1      24.192  33.941  45.054  1.00  0.00    -0.285 OA
ATOM      5  C   UNL     1      22.221  35.163  45.227  1.00  0.00     0.111 A 
ATOM      6  C   UNL     1      22.532  35.740  46.482  1.00  0.00     0.134 A 
ATOM      7  C   UNL     1      21.617  36.611  47.092  1.00  0.00     0.093 A 
ATOM      8  C   UNL     1      20.402  36.915  46.476  1.00  0.00     0.123 A 
ATOM      9  C   UNL     1      20.089  36.349  45.236  1.00  0.00     0.094 A 
ATOM     10  C   UNL     1      20.988  35.480  44.610  1.00  0.00     0.146 A 
ATOM     11  O   UNL     1      20.670  34.960  43.431  1.00  0.00    -0.452 OA
ENDROOT
BRANCH   1  12
ATOM     12  C   UNL     1      20.996  33.627  41.447  1.00  0.00     0.025 A 
ATOM     13  C   UNL     1      20.385  32.367  41.321  1.00  0.00     0.016 A 
ATOM     14  C   UNL     1      19.975  31.905  40.067  1.00  0.00     0.051 A 
ATOM     15  C   UNL     1      20.180  32.685  38.923  1.00  0.00     0.157 A 
ATOM     16  C   UNL     1      21.219  34.397  40.294  1.00  0.00     0.062 A 
ATOM     17  C   UNL     1      20.809  33.936  39.037  1.00  0.00     0.158 A 
BRANCH  15  18
ATOM     18  O   UNL     1      19.768  32.221  37.674  1.00  0.00    -0.504 OA
ATOM     19  H   UNL     1      20.403  31.728  37.056  1.00  0.00     0.293 HD
ENDBRANCH  15  18
BRANCH  17  20
ATOM     20  O   UNL     1      21.035  34.735  37.917  1.00  0.00    -0.504 OA
ATOM     21  H   UNL     1      20.957  34.372  36.973  1.00  0.00     0.293 HD
ENDBRANCH  17  20
ENDBRANCH   1  12
BRANCH   2  22
ATOM     22  O   UNL     1      23.511  32.819  42.648  1.00  0.00    -0.502 OA
ATOM     23  H   UNL     1      24.403  32.515  43.020  1.00  0.00     0.293 HD
ENDBRANCH   2  22
BRANCH   6  24
ATOM     24  O   UNL     1      23.738  35.456  47.125  1.00  0.00    -0.507 OA
ATOM     25  H   UNL     1      24.631  35.685  46.706  1.00  0.00     0.293 HD
ENDBRANCH   6  24
BRANCH   8  26
ATOM     26  O   UNL     1      19.510  37.782  47.105  1.00  0.00    -0.508 OA
ATOM     27  H   UNL     1      18.666  38.099  46.643  1.00  0.00     0.293 HD
ENDBRANCH   8  26
TORSDOF 6
ENDMDL
MODEL 2
REMARK VINA RESULT:    -4.085      3.604      3.962
REMARK INTER + INTRA:          -5.225
REMARK INTER:                  -4.933
REMARK INTRA:                  -0.292
REMARK UNBOUND:                -0.304
REMARK SMILES O=c1c(O)c(-c2ccc(O)c(O)c2)oc2cc(O)cc(O)c12
REMARK SMILES IDX 5 1 3 2 2 3 1 4 22 5 20 6 19 7 17 8 16 9 15 10 14 11 6 12
REMARK SMILES IDX 7 13 8 14 9 15 13 16 11 17 10 18 12 20 4 22 21 24 18 26
REMARK H PARENT 10 19 12 21 4 23 21 25 18 27
REMARK Flexibility Score: inf
ROOT
ATOM      1  C   UNL     1      18.612  34.647  43.477  1.00  0.00     0.180 A 
ATOM      2  C   UNL     1      19.299  33.420  43.415  1.00  0.00     0.208 A 
ATOM      3  C   UNL     1      20.508  33.283  44.116  1.00  0.00     0.238 A 
ATOM      4  O   UNL     1      21.137  32.192  44.059  1.00  0.00    -0.285 OA
ATOM      5  C   UNL     1      20.997  34.364  44.878  1.00  0.00     0.111 A 
ATOM      6  C   UNL     1      22.204  34.307  45.616  1.00  0.00     0.134 A 
ATOM      7  C   UNL     1      22.618  35.422  46.358  1.00  0.00     0.093 A 
ATOM      8  C   UNL     1      21.853  36.589  46.378  1.00  0.00     0.123 A 
ATOM      9  C   UNL     1      20.659  36.652  45.652  1.00  0.00     0.094 A 
ATOM     10  C   UNL     1      20.230  35.552  44.904  1.00  0.00     0.146 A 
ATOM     11  O   UNL     1      19.096  35.639  44.218  1.00  0.00    -0.452 OA
ENDROOT
BRANCH   1  12
ATOM     12  C   UNL     1      17.341  34.875  42.751  1.00  0.00     0.025 A 
ATOM     13  C   UNL     1      16.098  34.767  43.399  1.00  0.00     0.016 A 
ATOM     14  C   UNL     1      14.912  34.962  42.686  1.00  0.00     0.051 A 
ATOM     15  C   UNL     1      14.948  35.255  41.317  1.00  0.00     0.157 A 
ATOM     16  C   UNL     1      17.372  35.147  41.373  1.00  0.00     0.062 A 
ATOM     17  C   UNL     1      16.185  35.345  40.658  1.00  0.00     0.158 A 
BRANCH  15  18
ATOM     18  O   UNL     1      13.763  35.451  40.610  1.00  0.00    -0.504 OA
ATOM     19  H   UNL     1      13.415  34.759  39.956  1.00  0.00     0.293 HD
ENDBRANCH  15  18
BRANCH  17  20
ATOM     20  O   UNL     1      16.256  35.627  39.294  1.00  0.00    -0.504 OA
ATOM     21  H   UNL     1      17.136  35.829  38.832  1.00  0.00     0.293 HD
ENDBRANCH  17  20
ENDBRANCH   1  12
BRANCH   2  22
ATOM     22  O   UNL     1      18.767  32.348  42.692  1.00  0.00    -0.502 OA
ATOM     23  H   UNL     1      18.469  32.440  41.728  1.00  0.00     0.293 HD
ENDBRANCH   2  22
BRANCH   6  24
ATOM     24  O   UNL     1      22.992  33.154  45.616  1.00  0.00    -0.507 OA
ATOM     25  H   UNL     1      22.774  32.361  46.206  1.00  0.00     0.293 HD
ENDBRANCH   6  24
BRANCH   8  26
ATOM     26  O   UNL     1      22.287  37.683  47.125  1.00  0.00    -0.508 OA
ATOM     27  H   UNL     1      21.710  38.508  47.239  1.00  0.00     0.293 HD
ENDBRANCH   8  26
TORSDOF 6
ENDMDL
MODEL 3
REMARK VINA RESULT:    -4.076      0.647      1.487
REMARK INTER + INTRA:          -5.215
REMARK INTER:                  -4.886
REMARK INTRA:                  -0.329
REMARK UNBOUND:                -0.304
REMARK SMILES O=c1c(O)c(-c2ccc(O)c(O)c2)oc2cc(O)cc(O)c12
REMARK SMILES IDX 5 1 3 2 2 3 1 4 22 5 20 6 19 7 17 8 16 9 15 10 14 11 6 12
REMARK SMILES IDX 7 13 8 14 9 15 13 16 11 17 10 18 12 20 4 22 21 24 18 26
REMARK H PARENT 10 19 12 21 4 23 21 25 18 27
REMARK Flexibility Score: inf
ROOT
ATOM      1  C   UNL     1      21.472  34.113  42.774  1.00  0.00     0.180 A 
ATOM      2  C   UNL     1      22.716  33.744  43.321  1.00  0.00     0.208 A 
ATOM      3  C   UNL     1      23.100  34.283  44.559  1.00  0.00     0.238 A 
ATOM      4  O   UNL     1      24.216  33.968  45.054  1.00  0.00    -0.285 OA
ATOM      5  C   UNL     1      22.230  35.162  45.236  1.00  0.00     0.111 A 
ATOM      6  C   UNL     1      22.539  35.746  46.489  1.00  0.00     0.134 A 
ATOM      7  C   UNL     1      21.615  36.604  47.103  1.00  0.00     0.093 A 
ATOM      8  C   UNL     1      20.393  36.890  46.493  1.00  0.00     0.123 A 
ATOM      9  C   UNL     1      20.081  36.317  45.255  1.00  0.00     0.094 A 
ATOM     10  C   UNL     1      20.988  35.460  44.626  1.00  0.00     0.146 A 
ATOM     11  O   UNL     1      20.672  34.933  43.449  1.00  0.00    -0.452 OA
ENDROOT
BRANCH   1  12
ATOM     12  C   UNL     1      21.005  33.602  41.466  1.00  0.00     0.025 A 
ATOM     13  C   UNL     1      21.247  34.309  40.275  1.00  0.00     0.016 A 
ATOM     14  C   UNL     1      20.775  33.818  39.055  1.00  0.00     0.051 A 
ATOM     15  C   UNL     1      20.045  32.624  39.006  1.00  0.00     0.157 A 
ATOM     16  C   UNL     1      20.254  32.416  41.415  1.00  0.00     0.062 A 
ATOM     17  C   UNL     1      19.781  31.922  40.194  1.00  0.00     0.158 A 
BRANCH  15  18
ATOM     18  O   UNL     1      19.577  32.136  37.787  1.00  0.00    -0.504 OA
ATOM     19  H   UNL     1      18.586  32.041  37.600  1.00  0.00     0.293 HD
ENDBRANCH  15  18
BRANCH  17  20
ATOM     20  O   UNL     1      19.051  30.733  40.182  1.00  0.00    -0.504 OA
ATOM     21  H   UNL     1      18.160  30.654  39.705  1.00  0.00     0.293 HD
ENDBRANCH  17  20
ENDBRANCH   1  12
BRANCH   2  22
ATOM     22  O   UNL     1      23.538  32.832  42.653  1.00  0.00    -0.502 OA
ATOM     23  H   UNL     1      23.208  31.921  42.356  1.00  0.00     0.293 HD
ENDBRANCH   2  22
BRANCH   6  24
ATOM     24  O   UNL     1      23.753  35.480  47.125  1.00  0.00    -0.507 OA
ATOM     25  H   UNL     1      24.631  35.492  46.622  1.00  0.00     0.293 HD
ENDBRANCH   6  24
BRANCH   8  26
ATOM     26  O   UNL     1      19.492  37.745  47.125  1.00  0.00    -0.508 OA
ATOM     27  H   UNL     1      18.829  38.299  46.597  1.00  0.00     0.293 HD
ENDBRANCH   8  26
TORSDOF 6
ENDMDL
MODEL 4
REMARK VINA RESULT:    -4.037      3.334      4.822
REMARK INTER + INTRA:          -5.168
REMARK INTER:                  -4.837
REMARK INTRA:                  -0.331
REMARK UNBOUND:                -0.304
REMARK SMILES O=c1c(O)c(-c2ccc(O)c(O)c2)oc2cc(O)cc(O)c12
REMARK SMILES IDX 5 1 3 2 2 3 1 4 22 5 20 6 19 7 17 8 16 9 15 10 14 11 6 12
REMARK SMILES IDX 7 13 8 14 9 15 13 16 11 17 10 18 12 20 4 22 21 24 18 26
REMARK H PARENT 10 19 12 21 4 23 21 25 18 27
REMARK Flexibility Score: inf
ROOT
ATOM      1  C   UNL     1      19.076  35.008  44.496  1.00  0.00     0.180 A 
ATOM      2  C   UNL     1      19.636  36.214  44.959  1.00  0.00     0.208 A 
ATOM      3  C   UNL     1      20.926  36.195  45.513  1.00  0.00     0.238 A 
ATOM      4  O   UNL     1      21.433  37.268  45.940  1.00  0.00    -0.285 OA
ATOM      5  C   UNL     1      21.638  34.981  45.577  1.00  0.00     0.111 A 
ATOM      6  C   UNL     1      22.944  34.876  46.117  1.00  0.00     0.134 A 
ATOM      7  C   UNL     1      23.590  33.632  46.136  1.00  0.00     0.093 A 
ATOM      8  C   UNL     1      22.962  32.494  45.629  1.00  0.00     0.123 A 
ATOM      9  C   UNL     1      21.672  32.589  45.094  1.00  0.00     0.094 A 
ATOM     10  C   UNL     1      21.010  33.820  45.067  1.00  0.00     0.146 A 
ATOM     11  O   UNL     1      19.784  33.884  44.560  1.00  0.00    -0.452 OA
ENDROOT
BRANCH   1  12
ATOM     12  C   UNL     1      17.716  34.943  43.917  1.00  0.00     0.025 A 
ATOM     13  C   UNL     1      16.590  34.679  44.717  1.00  0.00     0.016 A 
ATOM     14  C   UNL     1      15.319  34.599  44.143  1.00  0.00     0.051 A 
ATOM     15  C   UNL     1      15.154  34.768  42.763  1.00  0.00     0.157 A 
ATOM     16  C   UNL     1      17.547  35.091  42.530  1.00  0.00     0.062 A 
ATOM     17  C   UNL     1      16.275  35.012  41.952  1.00  0.00     0.158 A 
BRANCH  15  18
ATOM     18  O   UNL     1      13.883  34.690  42.193  1.00  0.00    -0.504 OA
ATOM     19  H   UNL     1      13.657  35.176  41.333  1.00  0.00     0.293 HD
ENDBRANCH  15  18
BRANCH  17  20
ATOM     20  O   UNL     1      16.146  35.178  40.574  1.00  0.00    -0.504 OA
ATOM     21  H   UNL     1      15.917  36.075  40.159  1.00  0.00     0.293 HD
ENDBRANCH  17  20
ENDBRANCH   1  12
BRANCH   2  22
ATOM     22  O   UNL     1      18.928  37.413  44.838  1.00  0.00    -0.502 OA
ATOM     23  H   UNL     1      17.915  37.445  44.820  1.00  0.00     0.293 HD
ENDBRANCH   2  22
BRANCH   6  24
ATOM     24  O   UNL     1      23.599  35.995  46.632  1.00  0.00    -0.507 OA
ATOM     25  H   UNL     1      24.316  36.481  46.107  1.00  0.00     0.293 HD
ENDBRANCH   6  24
BRANCH   8  26
ATOM     26  O   UNL     1      23.627  31.269  45.659  1.00  0.00    -0.508 OA
ATOM     27  H   UNL     1      23.709  30.690  44.832  1.00  0.00     0.293 HD
ENDBRANCH   8  26
TORSDOF 6
ENDMDL
MODEL 5
REMARK VINA RESULT:    -4.029      1.535      3.439
REMARK INTER + INTRA:          -5.157
REMARK INTER:                  -4.856
REMARK INTRA:                  -0.301
REMARK UNBOUND:                -0.304
REMARK SMILES O=c1c(O)c(-c2ccc(O)c(O)c2)oc2cc(O)cc(O)c12
REMARK SMILES IDX 5 1 3 2 2 3 1 4 22 5 20 6 19 7 17 8 16 9 15 10 14 11 6 12
REMARK SMILES IDX 7 13 8 14 9 15 13 16 11 17 10 18 12 20 4 22 21 24 18 26
REMARK H PARENT 10 19 12 21 4 23 21 25 18 27
REMARK Flexibility Score: inf
ROOT
ATOM      1  C   UNL     1      21.624  34.043  42.670  1.00  0.00     0.180 A 
ATOM      2  C   UNL     1      21.145  34.828  43.735  1.00  0.00     0.208 A 
ATOM      3  C   UNL     1      21.961  35.012  44.863  1.00  0.00     0.238 A 
ATOM      4  O   UNL     1      21.538  35.704  45.828  1.00  0.00    -0.285 OA
ATOM      5  C   UNL     1      23.243  34.426  44.898  1.00  0.00     0.111 A 
ATOM      6  C   UNL     1      24.128  34.565  45.995  1.00  0.00     0.134 A 
ATOM      7  C   UNL     1      25.392  33.958  45.949  1.00  0.00     0.093 A 
ATOM      8  C   UNL     1      25.788  33.218  44.834  1.00  0.00     0.123 A 
ATOM      9  C   UNL     1      24.918  33.077  43.747  1.00  0.00     0.094 A 
ATOM     10  C   UNL     1      23.654  33.672  43.773  1.00  0.00     0.146 A 
ATOM     11  O   UNL     1      22.845  33.518  42.732  1.00  0.00    -0.452 OA
ENDROOT
BRANCH   1  12
ATOM     12  C   UNL     1      20.817  33.788  41.455  1.00  0.00     0.025 A 
ATOM     13  C   UNL     1      19.785  32.832  41.449  1.00  0.00     0.016 A 
ATOM     14  C   UNL     1      19.053  32.593  40.283  1.00  0.00     0.051 A 
ATOM     15  C   UNL     1      19.347  33.292  39.106  1.00  0.00     0.157 A 
ATOM     16  C   UNL     1      21.122  34.471  40.266  1.00  0.00     0.062 A 
ATOM     17  C   UNL     1      20.389  34.233  39.097  1.00  0.00     0.158 A 
BRANCH  15  18
ATOM     18  O   UNL     1      18.613  33.051  37.945  1.00  0.00    -0.504 OA
ATOM     19  H   UNL     1      18.374  32.110  37.655  1.00  0.00     0.293 HD
ENDBRANCH  15  18
BRANCH  17  20
ATOM     20  O   UNL     1      20.713  34.941  37.940  1.00  0.00    -0.504 OA
ATOM     21  H   UNL     1      20.579  34.549  37.015  1.00  0.00     0.293 HD
ENDBRANCH  17  20
ENDBRANCH   1  12
BRANCH   2  22
ATOM     22  O   UNL     1      19.891  35.439  43.654  1.00  0.00    -0.502 OA
ATOM     23  H   UNL     1      19.103  35.001  43.191  1.00  0.00     0.293 HD
ENDBRANCH   2  22
BRANCH   6  24
ATOM     24  O   UNL     1      23.762  35.298  47.125  1.00  0.00    -0.507 OA
ATOM     25  H   UNL     1      24.407  35.932  47.580  1.00  0.00     0.293 HD
ENDBRANCH   6  24
BRANCH   8  26
ATOM     26  O   UNL     1      27.050  32.627  44.814  1.00  0.00    -0.508 OA
ATOM     27  H   UNL     1      27.597  32.577  43.963  1.00  0.00     0.293 HD
ENDBRANCH   8  26
TORSDOF 6
ENDMDL
MODEL 6
REMARK VINA RESULT:    -3.994      4.103      7.690
REMARK INTER + INTRA:          -5.116
REMARK INTER:                  -4.785
REMARK INTRA:                  -0.331
REMARK UNBOUND:                -0.304
REMARK SMILES O=c1c(O)c(-c2ccc(O)c(O)c2)oc2cc(O)cc(O)c12
REMARK SMILES IDX 5 1 3 2 2 3 1 4 22 5 20 6 19 7 17 8 16 9 15 10 14 11 6 12
REMARK SMILES IDX 7 13 8 14 9 15 13 16 11 17 10 18 12 20 4 22 21 24 18 26
REMARK H PARENT 10 19 12 21 4 23 21 25 18 27
REMARK Flexibility Score: inf
ROOT
ATOM      1  C   UNL     1      17.874  35.335  44.161  1.00  0.00     0.180 A 
ATOM      2  C   UNL     1      16.814  34.761  44.888  1.00  0.00     0.208 A 
ATOM      3  C   UNL     1      15.687  34.294  44.191  1.00  0.00     0.238 A 
ATOM      4  O   UNL     1      14.727  33.788  44.832  1.00  0.00    -0.285 OA
ATOM      5  C   UNL     1      15.649  34.392  42.785  1.00  0.00     0.111 A 
ATOM      6  C   UNL     1      14.554  33.942  42.008  1.00  0.00     0.134 A 
ATOM      7  C   UNL     1      14.596  34.066  40.611  1.00  0.00     0.093 A 
ATOM      8  C   UNL     1      15.706  34.627  39.978  1.00  0.00     0.123 A 
ATOM      9  C   UNL     1      16.791  35.073  40.740  1.00  0.00     0.094 A 
ATOM     10  C   UNL     1      16.768  34.960  42.133  1.00  0.00     0.146 A 
ATOM     11  O   UNL     1      17.808  35.397  42.834  1.00  0.00    -0.452 OA
ENDROOT
BRANCH   1  12
ATOM     12  C   UNL     1      19.086  35.866  44.825  1.00  0.00     0.025 A 
ATOM     13  C   UNL     1      19.177  37.215  45.211  1.00  0.00     0.016 A 
ATOM     14  C   UNL     1      20.342  37.698  45.815  1.00  0.00     0.051 A 
ATOM     15  C   UNL     1      21.434  36.848  46.029  1.00  0.00     0.157 A 
ATOM     16  C   UNL     1      20.192  35.023  45.022  1.00  0.00     0.062 A 
ATOM     17  C   UNL     1      21.359  35.505  45.627  1.00  0.00     0.158 A 
BRANCH  15  18
ATOM     18  O   UNL     1      22.593  37.334  46.632  1.00  0.00    -0.504 OA
ATOM     19  H   UNL     1      22.596  37.652  47.594  1.00  0.00     0.293 HD
ENDBRANCH  15  18
BRANCH  17  20
ATOM     20  O   UNL     1      22.431  34.633  45.818  1.00  0.00    -0.504 OA
ATOM     21  H   UNL     1      23.345  34.809  45.416  1.00  0.00     0.293 HD
ENDBRANCH  17  20
ENDBRANCH   1  12
BRANCH   2  22
ATOM     22  O   UNL     1      16.898  34.631  46.277  1.00  0.00    -0.502 OA
ATOM     23  H   UNL     1      16.274  35.122  46.906  1.00  0.00     0.293 HD
ENDBRANCH   2  22
BRANCH   6  24
ATOM     24  O   UNL     1      13.429  33.377  42.610  1.00  0.00    -0.507 OA
ATOM     25  H   UNL     1      12.672  32.986  42.063  1.00  0.00     0.293 HD
ENDBRANCH   6  24
BRANCH   8  26
ATOM     26  O   UNL     1      15.723  34.737  38.588  1.00  0.00    -0.508 OA
ATOM     27  H   UNL     1      16.162  34.034  38.007  1.00  0.00     0.293 HD
ENDBRANCH   8  26
TORSDOF 6
ENDMDL
MODEL 7
REMARK VINA RESULT:    -3.970      1.455      3.130
REMARK INTER + INTRA:          -5.087
REMARK INTER:                  -4.755
REMARK INTRA:                  -0.332
REMARK UNBOUND:                -0.304
REMARK SMILES O=c1c(O)c(-c2ccc(O)c(O)c2)oc2cc(O)cc(O)c12
REMARK SMILES IDX 5 1 3 2 2 3 1 4 22 5 20 6 19 7 17 8 16 9 15 10 14 11 6 12
REMARK SMILES IDX 7 13 8 14 9 15 13 16 11 17 10 18 12 20 4 22 21 24 18 26
REMARK H PARENT 10 19 12 21 4 23 21 25 18 27
REMARK Flexibility Score: inf
ROOT
ATOM      1  C   UNL     1      19.938  34.247  43.239  1.00  0.00     0.180 A 
ATOM      2  C   UNL     1      19.072  35.241  43.734  1.00  0.00     0.208 A 
ATOM      3  C   UNL     1      19.479  36.007  44.838  1.00  0.00     0.238 A 
ATOM      4  O   UNL     1      18.707  36.892  45.297  1.00  0.00    -0.285 OA
ATOM      5  C   UNL     1      20.746  35.781  45.413  1.00  0.00     0.111 A 
ATOM      6  C   UNL     1      21.233  36.511  46.525  1.00  0.00     0.134 A 
ATOM      7  C   UNL     1      22.510  36.233  47.033  1.00  0.00     0.093 A 
ATOM      8  C   UNL     1      23.308  35.243  46.456  1.00  0.00     0.123 A 
ATOM      9  C   UNL     1      22.833  34.518  45.358  1.00  0.00     0.094 A 
ATOM     10  C   UNL     1      21.562  34.779  44.837  1.00  0.00     0.146 A 
ATOM     11  O   UNL     1      21.132  34.073  43.798  1.00  0.00    -0.452 OA
ENDROOT
BRANCH   1  12
ATOM     12  C   UNL     1      19.573  33.387  42.091  1.00  0.00     0.025 A 
ATOM     13  C   UNL     1      18.903  32.165  42.275  1.00  0.00     0.016 A 
ATOM     14  C   UNL     1      18.591  31.358  41.177  1.00  0.00     0.051 A 
ATOM     15  C   UNL     1      18.953  31.753  39.883  1.00  0.00     0.157 A 
ATOM     16  C   UNL     1      19.953  33.768  40.793  1.00  0.00     0.062 A 
ATOM     17  C   UNL     1      19.641  32.962  39.692  1.00  0.00     0.158 A 
BRANCH  15  18
ATOM     18  O   UNL     1      18.639  30.947  38.790  1.00  0.00    -0.504 OA
ATOM     19  H   UNL     1      18.376  29.975  38.907  1.00  0.00     0.293 HD
ENDBRANCH  15  18
BRANCH  17  20
ATOM     20  O   UNL     1      20.023  33.381  38.417  1.00  0.00    -0.504 OA
ATOM     21  H   UNL     1      20.705  32.872  37.866  1.00  0.00     0.293 HD
ENDBRANCH  17  20
ENDBRANCH   1  12
BRANCH   2  22
ATOM     22  O   UNL     1      17.842  35.478  43.115  1.00  0.00    -0.502 OA
ATOM     23  H   UNL     1      17.682  35.282  42.133  1.00  0.00     0.293 HD
ENDBRANCH   2  22
BRANCH   6  24
ATOM     24  O   UNL     1      20.461  37.507  47.124  1.00  0.00    -0.507 OA
ATOM     25  H   UNL     1      19.614  37.856  46.693  1.00  0.00     0.293 HD
ENDBRANCH   6  24
BRANCH   8  26
ATOM     26  O   UNL     1      24.574  34.988  46.980  1.00  0.00    -0.508 OA
ATOM     27  H   UNL     1      25.280  35.711  47.035  1.00  0.00     0.293 HD
ENDBRANCH   8  26
TORSDOF 6
ENDMDL
MODEL 8
REMARK VINA RESULT:    -3.831      4.549      7.415
REMARK INTER + INTRA:          -4.919
REMARK INTER:                  -4.623
REMARK INTRA:                  -0.296
REMARK UNBOUND:                -0.304
REMARK SMILES O=c1c(O)c(-c2ccc(O)c(O)c2)oc2cc(O)cc(O)c12
REMARK SMILES IDX 5 1 3 2 2 3 1 4 22 5 20 6 19 7 17 8 16 9 15 10 14 11 6 12
REMARK SMILES IDX 7 13 8 14 9 15 13 16 11 17 10 18 12 20 4 22 21 24 18 26
REMARK H PARENT 10 19 12 21 4 23 21 25 18 27
REMARK Flexibility Score: inf
ROOT
ATOM      1  C   UNL     1      17.869  35.151  44.349  1.00  0.00     0.180 A 
ATOM      2  C   UNL     1      17.847  34.708  43.013  1.00  0.00     0.208 A 
ATOM      3  C   UNL     1      16.667  34.139  42.506  1.00  0.00     0.238 A 
ATOM      4  O   UNL     1      16.639  33.728  41.314  1.00  0.00    -0.285 OA
ATOM      5  C   UNL     1      15.530  34.042  43.334  1.00  0.00     0.111 A 
ATOM      6  C   UNL     1      14.302  33.486  42.900  1.00  0.00     0.134 A 
ATOM      7  C   UNL     1      13.213  33.434  43.781  1.00  0.00     0.093 A 
ATOM      8  C   UNL     1      13.325  33.925  45.083  1.00  0.00     0.123 A 
ATOM      9  C   UNL     1      14.535  34.475  45.518  1.00  0.00     0.094 A 
ATOM     10  C   UNL     1      15.633  34.535  44.656  1.00  0.00     0.146 A 
ATOM     11  O   UNL     1      16.773  35.057  45.095  1.00  0.00    -0.452 OA
ENDROOT
BRANCH   1  12
ATOM     12  C   UNL     1      19.080  35.744  44.960  1.00  0.00     0.025 A 
ATOM     13  C   UNL     1      19.247  37.137  45.052  1.00  0.00     0.016 A 
ATOM     14  C   UNL     1      20.410  37.673  45.612  1.00  0.00     0.051 A 
ATOM     15  C   UNL     1      21.427  36.829  46.075  1.00  0.00     0.157 A 
ATOM     16  C   UNL     1      20.112  34.902  45.406  1.00  0.00     0.062 A 
ATOM     17  C   UNL     1      21.278  35.437  45.968  1.00  0.00     0.158 A 
BRANCH  15  18
ATOM     18  O   UNL     1      22.585  37.367  46.634  1.00  0.00    -0.504 OA
ATOM     19  H   UNL     1      22.772  38.363  46.609  1.00  0.00     0.293 HD
ENDBRANCH  15  18
BRANCH  17  20
ATOM     20  O   UNL     1      22.274  34.568  46.413  1.00  0.00    -0.504 OA
ATOM     21  H   UNL     1      23.066  34.316  45.832  1.00  0.00     0.293 HD
ENDBRANCH  17  20
ENDBRANCH   1  12
BRANCH   2  22
ATOM     22  O   UNL     1      18.973  34.861  42.199  1.00  0.00    -0.502 OA
ATOM     23  H   UNL     1      19.909  34.940  42.578  1.00  0.00     0.293 HD
ENDBRANCH   2  22
BRANCH   6  24
ATOM     24  O   UNL     1      14.157  32.987  41.604  1.00  0.00    -0.507 OA
ATOM     25  H   UNL     1      14.955  32.691  41.055  1.00  0.00     0.293 HD
ENDBRANCH   6  24
BRANCH   8  26
ATOM     26  O   UNL     1      12.226  33.862  45.939  1.00  0.00    -0.508 OA
ATOM     27  H   UNL     1      11.705  34.692  46.193  1.00  0.00     0.293 HD
ENDBRANCH   8  26
TORSDOF 6
ENDMDL
