MODEL 1
REMARK VINA RESULT:     1.401      0.000      0.000
REMARK INTER + INTRA:           2.690
REMARK INTER:                   1.769
REMARK INTRA:                   0.921
REMARK UNBOUND:                 0.921
REMARK SMILES CC(C)=CCCC(C)=CCO
REMARK SMILES IDX 7 1 9 2 8 3 6 4 5 5 4 6 1 7 2 8 3 9 10 10 11 11
REMARK H PARENT 11 12
REMARK Flexibility Score: inf
ROOT
ATOM      1  C   UNL     1      33.647  32.717  54.763  1.00  0.00    -0.075 C 
ATOM      2  C   UNL     1      33.936  34.037  54.774  1.00  0.00    -0.000 C 
ATOM      3  C   UNL     1      32.828  32.172  53.622  1.00  0.00     0.039 C 
ENDROOT
BRANCH   1   4
ATOM      4  C   UNL     1      34.133  31.761  55.839  1.00  0.00     0.034 C 
BRANCH   4   5
ATOM      5  C   UNL     1      35.465  31.097  55.461  1.00  0.00     0.032 C 
BRANCH   5   6
ATOM      6  C   UNL     1      35.436  29.605  55.693  1.00  0.00    -0.028 C 
ATOM      7  C   UNL     1      32.965  29.546  56.107  1.00  0.00     0.039 C 
ATOM      8  C   UNL     1      34.315  28.890  55.943  1.00  0.00    -0.080 C 
ATOM      9  C   UNL     1      34.403  27.398  56.125  1.00  0.00     0.039 C 
ENDBRANCH   5   6
ENDBRANCH   4   5
ENDBRANCH   1   4
BRANCH   2  10
ATOM     10  C   UNL     1      34.716  34.720  55.869  1.00  0.00     0.183 C 
BRANCH  10  11
ATOM     11  O   UNL     1      36.086  34.696  55.576  1.00  0.00    -0.392 OA
ATOM     12  H   UNL     1      36.255  33.858  55.071  1.00  0.00     0.210 HD
ENDBRANCH  10  11
ENDBRANCH   2  10
TORSDOF 5
ENDMDL
