MODEL 1
REMARK VINA RESULT:    -7.977      0.000      0.000
REMARK INTER + INTRA:          -8.637
REMARK INTER:                  -8.443
REMARK INTRA:                  -0.194
REMARK UNBOUND:                -0.194
REMARK SMILES CC1=CC[C@@H]2[C@H]3[C@H](C(C)C)CC[C@]2(C)[C@@H]13
REMARK SMILES IDX 1 1 2 2 3 3 4 4 5 5 6 6 15 7 13 8 12 9 11 10 7 11 14 12 8 13
REMARK SMILES IDX 9 14 10 15
REMARK H PARENT
REMARK Flexibility Score: inf
ROOT
ATOM      1  C   UNL     1      -1.992 -12.745  10.255  1.00  0.00     0.039 C 
ATOM      2  C   UNL     1      -1.930 -14.079   9.572  1.00  0.00    -0.073 C 
ATOM      3  C   UNL     1      -0.754 -14.582   9.114  1.00  0.00    -0.027 C 
ATOM      4  C   UNL     1      -0.751 -15.958   8.440  1.00  0.00     0.031 C 
ATOM      5  C   UNL     1      -2.203 -16.536   8.377  1.00  0.00     0.003 C 
ATOM      6  C   UNL     1      -3.133 -15.409   7.871  1.00  0.00     0.004 C 
ATOM      7  C   UNL     1      -3.187 -14.922   9.341  1.00  0.00     0.024 C 
ATOM      8  C   UNL     1      -2.930 -16.397   9.737  1.00  0.00    -0.022 C 
ATOM      9  C   UNL     1      -4.256 -17.218   9.691  1.00  0.00     0.008 C 
ATOM     10  C   UNL     1      -5.228 -16.715   8.589  1.00  0.00     0.005 C 
ATOM     11  C   UNL     1      -4.487 -16.027   7.402  1.00  0.00    -0.005 C 
ATOM     12  C   UNL     1      -2.141 -16.696  11.034  1.00  0.00     0.012 C 
ENDROOT
BRANCH  11  13
ATOM     13  C   UNL     1      -5.405 -15.028   6.632  1.00  0.00    -0.014 C 
ATOM     14  C   UNL     1      -5.415 -15.325   5.124  1.00  0.00     0.007 C 
ATOM     15  C   UNL     1      -5.054 -13.550   6.872  1.00  0.00     0.007 C 
ENDBRANCH  11  13
TORSDOF 1
ENDMDL
MODEL 2
REMARK VINA RESULT:    -7.707      1.604      4.910
REMARK INTER + INTRA:          -8.352
REMARK INTER:                  -8.130
REMARK INTRA:                  -0.223
REMARK UNBOUND:                -0.194
REMARK SMILES CC1=CC[C@@H]2[C@H]3[C@H](C(C)C)CC[C@]2(C)[C@@H]13
REMARK SMILES IDX 1 1 2 2 3 3 4 4 5 5 6 6 15 7 13 8 12 9 11 10 7 11 14 12 8 13
REMARK SMILES IDX 9 14 10 15
REMARK H PARENT
REMARK Flexibility Score: inf
ROOT
ATOM      1  C   UNL     1      -6.124 -16.732   8.900  1.00  0.00     0.039 C 
ATOM      2  C   UNL     1      -4.624 -16.747   8.931  1.00  0.00    -0.073 C 
ATOM      3  C   UNL     1      -3.918 -17.768   8.379  1.00  0.00    -0.027 C 
ATOM      4  C   UNL     1      -2.388 -17.719   8.426  1.00  0.00     0.031 C 
ATOM      5  C   UNL     1      -1.907 -16.437   9.181  1.00  0.00     0.003 C 
ATOM      6  C   UNL     1      -2.743 -16.317  10.476  1.00  0.00     0.004 C 
ATOM      7  C   UNL     1      -3.824 -15.629   9.603  1.00  0.00     0.024 C 
ATOM      8  C   UNL     1      -2.658 -15.174   8.691  1.00  0.00    -0.022 C 
ATOM      9  C   UNL     1      -1.961 -13.908   9.280  1.00  0.00     0.008 C 
ATOM     10  C   UNL     1      -1.979 -13.887  10.832  1.00  0.00     0.005 C 
ATOM     11  C   UNL     1      -2.047 -15.317  11.451  1.00  0.00    -0.005 C 
ATOM     12  C   UNL     1      -2.917 -15.007   7.175  1.00  0.00     0.012 C 
ENDROOT
BRANCH  11  13
ATOM     13  C   UNL     1      -2.652 -15.309  12.889  1.00  0.00    -0.014 C 
ATOM     14  C   UNL     1      -2.666 -13.892  13.484  1.00  0.00     0.007 C 
ATOM     15  C   UNL     1      -1.958 -16.278  13.861  1.00  0.00     0.007 C 
ENDBRANCH  11  13
TORSDOF 1
ENDMDL
MODEL 3
REMARK VINA RESULT:    -7.108      1.156      2.907
REMARK INTER + INTRA:          -7.717
REMARK INTER:                  -7.585
REMARK INTRA:                  -0.133
REMARK UNBOUND:                -0.194
REMARK SMILES CC1=CC[C@@H]2[C@H]3[C@H](C(C)C)CC[C@]2(C)[C@@H]13
REMARK SMILES IDX 1 1 2 2 3 3 4 4 5 5 6 6 15 7 13 8 12 9 11 10 7 11 14 12 8 13
REMARK SMILES IDX 9 14 10 15
REMARK H PARENT
REMARK Flexibility Score: inf
ROOT
ATOM      1  C   UNL     1      -2.376 -16.256  12.284  1.00  0.00     0.039 C 
ATOM      2  C   UNL     1      -2.251 -15.187  11.240  1.00  0.00    -0.073 C 
ATOM      3  C   UNL     1      -2.021 -13.892  11.581  1.00  0.00    -0.027 C 
ATOM      4  C   UNL     1      -1.885 -12.847  10.469  1.00  0.00     0.031 C 
ATOM      5  C   UNL     1      -2.085 -13.513   9.069  1.00  0.00     0.003 C 
ATOM      6  C   UNL     1      -3.336 -14.417   9.156  1.00  0.00     0.004 C 
ATOM      7  C   UNL     1      -2.398 -15.499   9.748  1.00  0.00     0.024 C 
ATOM      8  C   UNL     1      -1.265 -14.820   8.939  1.00  0.00    -0.022 C 
ATOM      9  C   UNL     1      -1.294 -15.292   7.452  1.00  0.00     0.008 C 
ATOM     10  C   UNL     1      -2.732 -15.593   6.950  1.00  0.00     0.005 C 
ATOM     11  C   UNL     1      -3.818 -14.776   7.716  1.00  0.00    -0.005 C 
ATOM     12  C   UNL     1       0.176 -14.851   9.500  1.00  0.00     0.012 C 
ENDROOT
BRANCH  11  13
ATOM     13  C   UNL     1      -5.216 -15.464   7.670  1.00  0.00    -0.014 C 
ATOM     14  C   UNL     1      -5.330 -16.575   8.726  1.00  0.00     0.007 C 
ATOM     15  C   UNL     1      -5.590 -16.020   6.285  1.00  0.00     0.007 C 
ENDBRANCH  11  13
TORSDOF 1
ENDMDL
MODEL 4
REMARK VINA RESULT:    -6.877      1.595      4.162
REMARK INTER + INTRA:          -7.473
REMARK INTER:                  -7.055
REMARK INTRA:                  -0.419
REMARK UNBOUND:                -0.194
REMARK SMILES CC1=CC[C@@H]2[C@H]3[C@H](C(C)C)CC[C@]2(C)[C@@H]13
REMARK SMILES IDX 1 1 2 2 3 3 4 4 5 5 6 6 15 7 13 8 12 9 11 10 7 11 14 12 8 13
REMARK SMILES IDX 9 14 10 15
REMARK H PARENT
REMARK Flexibility Score: inf
ROOT
ATOM      1  C   UNL     1      -0.190 -15.538   7.993  1.00  0.00     0.039 C 
ATOM      2  C   UNL     1      -1.670 -15.597   8.232  1.00  0.00    -0.073 C 
ATOM      3  C   UNL     1      -2.542 -14.962   7.405  1.00  0.00    -0.027 C 
ATOM      4  C   UNL     1      -4.043 -15.073   7.690  1.00  0.00     0.031 C 
ATOM      5  C   UNL     1      -4.292 -15.921   8.981  1.00  0.00     0.003 C 
ATOM      6  C   UNL     1      -3.315 -15.413  10.067  1.00  0.00     0.004 C 
ATOM      7  C   UNL     1      -2.262 -16.351   9.425  1.00  0.00     0.024 C 
ATOM      8  C   UNL     1      -3.457 -17.225   8.973  1.00  0.00    -0.022 C 
ATOM      9  C   UNL     1      -3.939 -18.143  10.140  1.00  0.00     0.008 C 
ATOM     10  C   UNL     1      -3.756 -17.481  11.532  1.00  0.00     0.005 C 
ATOM     11  C   UNL     1      -3.786 -15.923  11.465  1.00  0.00    -0.005 C 
ATOM     12  C   UNL     1      -3.343 -18.024   7.654  1.00  0.00     0.012 C 
ENDROOT
BRANCH  11  13
ATOM     13  C   UNL     1      -3.036 -15.266  12.664  1.00  0.00    -0.014 C 
ATOM     14  C   UNL     1      -2.307 -13.982  12.233  1.00  0.00     0.007 C 
ATOM     15  C   UNL     1      -2.053 -16.211  13.375  1.00  0.00     0.007 C 
ENDBRANCH  11  13
TORSDOF 1
ENDMDL
MODEL 5
REMARK VINA RESULT:    -6.536      1.482      2.274
REMARK INTER + INTRA:          -7.112
REMARK INTER:                  -6.875
REMARK INTRA:                  -0.237
REMARK UNBOUND:                -0.194
REMARK SMILES CC1=CC[C@@H]2[C@H]3[C@H](C(C)C)CC[C@]2(C)[C@@H]13
REMARK SMILES IDX 1 1 2 2 3 3 4 4 5 5 6 6 15 7 13 8 12 9 11 10 7 11 14 12 8 13
REMARK SMILES IDX 9 14 10 15
REMARK H PARENT
REMARK Flexibility Score: inf
ROOT
ATOM      1  C   UNL     1      -2.025 -13.614  11.179  1.00  0.00     0.039 C 
ATOM      2  C   UNL     1      -2.487 -15.030  11.002  1.00  0.00    -0.073 C 
ATOM      3  C   UNL     1      -1.842 -16.062  11.607  1.00  0.00    -0.027 C 
ATOM      4  C   UNL     1      -2.371 -17.486  11.403  1.00  0.00     0.031 C 
ATOM      5  C   UNL     1      -3.609 -17.474  10.447  1.00  0.00     0.003 C 
ATOM      6  C   UNL     1      -3.256 -16.580   9.236  1.00  0.00     0.004 C 
ATOM      7  C   UNL     1      -3.686 -15.379  10.118  1.00  0.00     0.024 C 
ATOM      8  C   UNL     1      -4.624 -16.374  10.845  1.00  0.00    -0.022 C 
ATOM      9  C   UNL     1      -5.941 -16.582  10.033  1.00  0.00     0.008 C 
ATOM     10  C   UNL     1      -5.718 -16.478   8.500  1.00  0.00     0.005 C 
ATOM     11  C   UNL     1      -4.265 -16.855   8.078  1.00  0.00    -0.005 C 
ATOM     12  C   UNL     1      -4.929 -16.154  12.344  1.00  0.00     0.012 C 
ENDROOT
BRANCH  11  13
ATOM     13  C   UNL     1      -3.858 -16.207   6.718  1.00  0.00    -0.014 C 
ATOM     14  C   UNL     1      -2.783 -15.125   6.912  1.00  0.00     0.007 C 
ATOM     15  C   UNL     1      -5.043 -15.631   5.925  1.00  0.00     0.007 C 
ENDBRANCH  11  13
TORSDOF 1
ENDMDL
MODEL 6
REMARK VINA RESULT:    -6.517      1.659      4.486
REMARK INTER + INTRA:          -7.093
REMARK INTER:                  -6.870
REMARK INTRA:                  -0.223
REMARK UNBOUND:                -0.194
REMARK SMILES CC1=CC[C@@H]2[C@H]3[C@H](C(C)C)CC[C@]2(C)[C@@H]13
REMARK SMILES IDX 1 1 2 2 3 3 4 4 5 5 6 6 15 7 13 8 12 9 11 10 7 11 14 12 8 13
REMARK SMILES IDX 9 14 10 15
REMARK H PARENT
REMARK Flexibility Score: inf
ROOT
ATOM      1  C   UNL     1      -2.753 -15.048   6.948  1.00  0.00     0.039 C 
ATOM      2  C   UNL     1      -3.540 -15.674   8.061  1.00  0.00    -0.073 C 
ATOM      3  C   UNL     1      -4.890 -15.807   7.981  1.00  0.00    -0.027 C 
ATOM      4  C   UNL     1      -5.638 -16.470   9.142  1.00  0.00     0.031 C 
ATOM      5  C   UNL     1      -4.640 -16.858  10.281  1.00  0.00     0.003 C 
ATOM      6  C   UNL     1      -3.716 -15.643  10.526  1.00  0.00     0.004 C 
ATOM      7  C   UNL     1      -2.865 -16.170   9.342  1.00  0.00     0.024 C 
ATOM      8  C   UNL     1      -3.389 -17.578   9.720  1.00  0.00    -0.022 C 
ATOM      9  C   UNL     1      -2.567 -18.168  10.908  1.00  0.00     0.008 C 
ATOM     10  C   UNL     1      -2.073 -17.074  11.892  1.00  0.00     0.005 C 
ATOM     11  C   UNL     1      -2.989 -15.813  11.897  1.00  0.00    -0.005 C 
ATOM     12  C   UNL     1      -3.577 -18.629   8.602  1.00  0.00     0.012 C 
ENDROOT
BRANCH  11  13
ATOM     13  C   UNL     1      -2.233 -14.535  12.375  1.00  0.00    -0.014 C 
ATOM     14  C   UNL     1      -2.882 -13.937  13.633  1.00  0.00     0.007 C 
ATOM     15  C   UNL     1      -2.098 -13.451  11.291  1.00  0.00     0.007 C 
ENDBRANCH  11  13
TORSDOF 1
ENDMDL
MODEL 7
REMARK VINA RESULT:    -6.472      1.415      4.304
REMARK INTER + INTRA:          -7.044
REMARK INTER:                  -6.769
REMARK INTRA:                  -0.276
REMARK UNBOUND:                -0.194
REMARK SMILES CC1=CC[C@@H]2[C@H]3[C@H](C(C)C)CC[C@]2(C)[C@@H]13
REMARK SMILES IDX 1 1 2 2 3 3 4 4 5 5 6 6 15 7 13 8 12 9 11 10 7 11 14 12 8 13
REMARK SMILES IDX 9 14 10 15
REMARK H PARENT
REMARK Flexibility Score: inf
ROOT
ATOM      1  C   UNL     1      -5.404 -16.520  11.450  1.00  0.00     0.039 C 
ATOM      2  C   UNL     1      -4.549 -16.999  10.314  1.00  0.00    -0.073 C 
ATOM      3  C   UNL     1      -4.386 -18.325  10.066  1.00  0.00    -0.027 C 
ATOM      4  C   UNL     1      -3.515 -18.753   8.881  1.00  0.00     0.031 C 
ATOM      5  C   UNL     1      -2.916 -17.499   8.164  1.00  0.00     0.003 C 
ATOM      6  C   UNL     1      -2.359 -16.558   9.257  1.00  0.00     0.004 C 
ATOM      7  C   UNL     1      -3.806 -16.022   9.401  1.00  0.00     0.024 C 
ATOM      8  C   UNL     1      -3.997 -16.418   7.916  1.00  0.00    -0.022 C 
ATOM      9  C   UNL     1      -3.409 -15.320   6.974  1.00  0.00     0.008 C 
ATOM     10  C   UNL     1      -2.171 -14.610   7.588  1.00  0.00     0.005 C 
ATOM     11  C   UNL     1      -1.403 -15.513   8.601  1.00  0.00    -0.005 C 
ATOM     12  C   UNL     1      -5.397 -16.864   7.435  1.00  0.00     0.012 C 
ENDROOT
BRANCH  11  13
ATOM     13  C   UNL     1      -0.580 -14.677   9.629  1.00  0.00    -0.014 C 
ATOM     14  C   UNL     1      -1.264 -13.335   9.937  1.00  0.00     0.007 C 
ATOM     15  C   UNL     1       0.880 -14.435   9.207  1.00  0.00     0.007 C 
ENDBRANCH  11  13
TORSDOF 1
ENDMDL
MODEL 8
REMARK VINA RESULT:    -6.381      1.326      3.728
REMARK INTER + INTRA:          -6.949
REMARK INTER:                  -6.613
REMARK INTRA:                  -0.336
REMARK UNBOUND:                -0.194
REMARK SMILES CC1=CC[C@@H]2[C@H]3[C@H](C(C)C)CC[C@]2(C)[C@@H]13
REMARK SMILES IDX 1 1 2 2 3 3 4 4 5 5 6 6 15 7 13 8 12 9 11 10 7 11 14 12 8 13
REMARK SMILES IDX 9 14 10 15
REMARK H PARENT
REMARK Flexibility Score: inf
ROOT
ATOM      1  C   UNL     1      -4.386 -14.263   6.988  1.00  0.00     0.039 C 
ATOM      2  C   UNL     1      -3.227 -14.693   7.837  1.00  0.00    -0.073 C 
ATOM      3  C   UNL     1      -2.002 -14.919   7.295  1.00  0.00    -0.027 C 
ATOM      4  C   UNL     1      -0.853 -15.340   8.215  1.00  0.00     0.031 C 
ATOM      5  C   UNL     1      -1.356 -15.471   9.690  1.00  0.00     0.003 C 
ATOM      6  C   UNL     1      -2.681 -16.268   9.662  1.00  0.00     0.004 C 
ATOM      7  C   UNL     1      -3.376 -14.920   9.343  1.00  0.00     0.024 C 
ATOM      8  C   UNL     1      -2.210 -14.249  10.109  1.00  0.00    -0.022 C 
ATOM      9  C   UNL     1      -2.458 -14.307  11.649  1.00  0.00     0.008 C 
ATOM     10  C   UNL     1      -3.230 -15.584  12.080  1.00  0.00     0.005 C 
ATOM     11  C   UNL     1      -3.009 -16.777  11.100  1.00  0.00    -0.005 C 
ATOM     12  C   UNL     1      -1.747 -12.838   9.678  1.00  0.00     0.012 C 
ENDROOT
BRANCH  11  13
ATOM     13  C   UNL     1      -4.178 -17.809  11.155  1.00  0.00    -0.014 C 
ATOM     14  C   UNL     1      -4.000 -18.913  10.100  1.00  0.00     0.007 C 
ATOM     15  C   UNL     1      -5.573 -17.176  11.018  1.00  0.00     0.007 C 
ENDBRANCH  11  13
TORSDOF 1
ENDMDL
MODEL 9
REMARK VINA RESULT:    -6.346      1.435      2.352
REMARK INTER + INTRA:          -6.911
REMARK INTER:                  -6.683
REMARK INTRA:                  -0.228
REMARK UNBOUND:                -0.194
REMARK SMILES CC1=CC[C@@H]2[C@H]3[C@H](C(C)C)CC[C@]2(C)[C@@H]13
REMARK SMILES IDX 1 1 2 2 3 3 4 4 5 5 6 6 15 7 13 8 12 9 11 10 7 11 14 12 8 13
REMARK SMILES IDX 9 14 10 15
REMARK H PARENT
REMARK Flexibility Score: inf
ROOT
ATOM      1  C   UNL     1      -5.560 -16.092  12.229  1.00  0.00     0.039 C 
ATOM      2  C   UNL     1      -4.350 -16.074  11.343  1.00  0.00    -0.073 C 
ATOM      3  C   UNL     1      -3.167 -15.565  11.776  1.00  0.00    -0.027 C 
ATOM      4  C   UNL     1      -1.961 -15.591  10.832  1.00  0.00     0.031 C 
ATOM      5  C   UNL     1      -2.364 -16.206   9.451  1.00  0.00     0.003 C 
ATOM      6  C   UNL     1      -3.695 -15.548   9.018  1.00  0.00     0.004 C 
ATOM      7  C   UNL     1      -4.397 -16.605   9.908  1.00  0.00     0.024 C 
ATOM      8  C   UNL     1      -3.174 -17.513   9.627  1.00  0.00    -0.022 C 
ATOM      9  C   UNL     1      -3.317 -18.212   8.238  1.00  0.00     0.008 C 
ATOM     10  C   UNL     1      -4.070 -17.332   7.204  1.00  0.00     0.005 C 
ATOM     11  C   UNL     1      -3.929 -15.807   7.497  1.00  0.00    -0.005 C 
ATOM     12  C   UNL     1      -2.729 -18.523  10.709  1.00  0.00     0.012 C 
ENDROOT
BRANCH  11  13
ATOM     13  C   UNL     1      -5.101 -14.978   6.888  1.00  0.00    -0.014 C 
ATOM     14  C   UNL     1      -5.291 -15.289   5.394  1.00  0.00     0.007 C 
ATOM     15  C   UNL     1      -4.960 -13.460   7.091  1.00  0.00     0.007 C 
ENDBRANCH  11  13
TORSDOF 1
ENDMDL
