MODEL 1
REMARK VINA RESULT:    -3.206      0.000      0.000
REMARK INTER + INTRA:          -5.827
REMARK INTER:                  -5.081
REMARK INTRA:                  -0.746
REMARK UNBOUND:                -0.746
REMARK SMILES CCCCCCCCCCCC(=O)[O-]
REMARK SMILES IDX 7 1 8 2 9 3 10 4 11 5 12 6 13 7 14 8 6 9 5 10 4 11 3 12 2 13
REMARK SMILES IDX 1 14
REMARK H PARENT
REMARK Flexibility Score: inf
ROOT
ATOM      1  C   UNL     1       5.390  10.634 -13.486  1.00  0.00     0.000 C 
ENDROOT
BRANCH   1   2
ATOM      2  C   UNL     1       6.781  10.028 -13.234  1.00  0.00     0.000 C 
BRANCH   2   3
ATOM      3  C   UNL     1       6.722   8.754 -12.378  1.00  0.00     0.000 C 
BRANCH   3   4
ATOM      4  C   UNL     1       5.281   8.364 -11.998  1.00  0.00     0.006 C 
BRANCH   4   5
ATOM      5  C   UNL     1       5.034   8.464 -10.489  1.00  0.00     0.053 C 
BRANCH   5   6
ATOM      6  C   UNL     1       3.622   8.856 -10.181  1.00  0.00     0.041 C 
ATOM      7  O   UNL     1       2.888   9.341 -11.083  1.00  0.00    -0.550 OA
ATOM      8  O   UNL     1       3.103   8.652  -8.909  1.00  0.00    -0.550 OA
ENDBRANCH   5   6
ENDBRANCH   4   5
ENDBRANCH   3   4
ENDBRANCH   2   3
ENDBRANCH   1   2
BRANCH   1   9
ATOM      9  C   UNL     1       5.072  10.789 -14.984  1.00  0.00     0.000 C 
BRANCH   9  10
ATOM     10  C   UNL     1       3.576  10.680 -15.343  1.00  0.00    -0.000 C 
BRANCH  10  11
ATOM     11  C   UNL     1       3.000  11.878 -16.124  1.00  0.00    -0.000 C 
BRANCH  11  12
ATOM     12  C   UNL     1       3.860  13.153 -16.087  1.00  0.00    -0.000 C 
BRANCH  12  13
ATOM     13  C   UNL     1       3.102  14.366 -15.530  1.00  0.00    -0.003 C 
ATOM     14  C   UNL     1       2.367  14.009 -14.240  1.00  0.00     0.004 C 
ENDBRANCH  12  13
ENDBRANCH  11  12
ENDBRANCH  10  11
ENDBRANCH   9  10
ENDBRANCH   1   9
TORSDOF 10
ENDMDL
MODEL 2
REMARK VINA RESULT:    -3.006      1.730      3.939
REMARK INTER + INTRA:          -5.510
REMARK INTER:                  -4.713
REMARK INTRA:                  -0.796
REMARK UNBOUND:                -0.746
REMARK SMILES CCCCCCCCCCCC(=O)[O-]
REMARK SMILES IDX 7 1 8 2 9 3 10 4 11 5 12 6 13 7 14 8 6 9 5 10 4 11 3 12 2 13
REMARK SMILES IDX 1 14
REMARK H PARENT
REMARK Flexibility Score: inf
ROOT
ATOM      1  C   UNL     1       2.702  10.722 -13.930  1.00  0.00     0.000 C 
ENDROOT
BRANCH   1   2
ATOM      2  C   UNL     1       3.094  10.043 -12.606  1.00  0.00     0.000 C 
BRANCH   2   3
ATOM      3  C   UNL     1       1.875   9.532 -11.823  1.00  0.00     0.000 C 
BRANCH   3   4
ATOM      4  C   UNL     1       2.140   8.182 -11.134  1.00  0.00     0.006 C 
BRANCH   4   5
ATOM      5  C   UNL     1       3.622   7.988 -10.791  1.00  0.00     0.053 C 
BRANCH   5   6
ATOM      6  C   UNL     1       3.925   8.395  -9.382  1.00  0.00     0.041 C 
ATOM      7  O   UNL     1       2.992   8.729  -8.604  1.00  0.00    -0.550 OA
ATOM      8  O   UNL     1       5.233   8.369  -8.915  1.00  0.00    -0.550 OA
ENDBRANCH   5   6
ENDBRANCH   4   5
ENDBRANCH   3   4
ENDBRANCH   2   3
ENDBRANCH   1   2
BRANCH   1   9
ATOM      9  C   UNL     1       3.804  11.649 -14.472  1.00  0.00     0.000 C 
BRANCH   9  10
ATOM     10  C   UNL     1       4.852  10.957 -15.366  1.00  0.00    -0.000 C 
BRANCH  10  11
ATOM     11  C   UNL     1       5.682   9.858 -14.673  1.00  0.00    -0.000 C 
BRANCH  11  12
ATOM     12  C   UNL     1       6.562  10.345 -13.508  1.00  0.00    -0.000 C 
BRANCH  12  13
ATOM     13  C   UNL     1       6.741   9.283 -12.414  1.00  0.00    -0.003 C 
ATOM     14  C   UNL     1       6.719   7.876 -13.006  1.00  0.00     0.004 C 
ENDBRANCH  12  13
ENDBRANCH  11  12
ENDBRANCH  10  11
ENDBRANCH   9  10
ENDBRANCH   1   9
TORSDOF 10
ENDMDL
MODEL 3
REMARK VINA RESULT:    -2.800      1.713      2.677
REMARK INTER + INTRA:          -5.184
REMARK INTER:                  -4.060
REMARK INTRA:                  -1.124
REMARK UNBOUND:                -0.746
REMARK SMILES CCCCCCCCCCCC(=O)[O-]
REMARK SMILES IDX 7 1 8 2 9 3 10 4 11 5 12 6 13 7 14 8 6 9 5 10 4 11 3 12 2 13
REMARK SMILES IDX 1 14
REMARK H PARENT
REMARK Flexibility Score: inf
ROOT
ATOM      1  C   UNL     1       6.432   9.268 -12.541  1.00  0.00     0.000 C 
ENDROOT
BRANCH   1   2
ATOM      2  C   UNL     1       5.498   8.866 -11.387  1.00  0.00     0.000 C 
BRANCH   2   3
ATOM      3  C   UNL     1       4.113   8.418 -11.879  1.00  0.00     0.000 C 
BRANCH   3   4
ATOM      4  C   UNL     1       2.973   9.260 -11.280  1.00  0.00     0.006 C 
BRANCH   4   5
ATOM      5  C   UNL     1       2.118   8.458 -10.292  1.00  0.00     0.053 C 
BRANCH   5   6
ATOM      6  C   UNL     1       2.585   8.635  -8.880  1.00  0.00     0.041 C 
ATOM      7  O   UNL     1       1.994   9.442  -8.114  1.00  0.00    -0.550 OA
ATOM      8  O   UNL     1       3.648   7.883  -8.397  1.00  0.00    -0.550 OA
ENDBRANCH   5   6
ENDBRANCH   4   5
ENDBRANCH   3   4
ENDBRANCH   2   3
ENDBRANCH   1   2
BRANCH   1   9
ATOM      9  C   UNL     1       6.235   8.397 -13.796  1.00  0.00     0.000 C 
BRANCH   9  10
ATOM     10  C   UNL     1       5.770   9.165 -15.050  1.00  0.00    -0.000 C 
BRANCH  10  11
ATOM     11  C   UNL     1       4.318   8.886 -15.488  1.00  0.00    -0.000 C 
BRANCH  11  12
ATOM     12  C   UNL     1       3.472  10.140 -15.769  1.00  0.00    -0.000 C 
BRANCH  12  13
ATOM     13  C   UNL     1       3.157  10.941 -14.497  1.00  0.00    -0.003 C 
ATOM     14  C   UNL     1       3.855  12.299 -14.517  1.00  0.00     0.004 C 
ENDBRANCH  12  13
ENDBRANCH  11  12
ENDBRANCH  10  11
ENDBRANCH   9  10
ENDBRANCH   1   9
TORSDOF 10
ENDMDL
MODEL 4
REMARK VINA RESULT:    -2.778     13.886     16.055
REMARK INTER + INTRA:          -5.148
REMARK INTER:                  -4.638
REMARK INTRA:                  -0.511
REMARK UNBOUND:                -0.746
REMARK SMILES CCCCCCCCCCCC(=O)[O-]
REMARK SMILES IDX 7 1 8 2 9 3 10 4 11 5 12 6 13 7 14 8 6 9 5 10 4 11 3 12 2 13
REMARK SMILES IDX 1 14
REMARK H PARENT
REMARK Flexibility Score: inf
ROOT
ATOM      1  C   UNL     1      19.232  11.651 -15.276  1.00  0.00     0.000 C 
ENDROOT
BRANCH   1   2
ATOM      2  C   UNL     1      20.702  11.843 -14.867  1.00  0.00     0.000 C 
BRANCH   2   3
ATOM      3  C   UNL     1      20.861  12.784 -13.664  1.00  0.00     0.000 C 
BRANCH   3   4
ATOM      4  C   UNL     1      21.909  13.885 -13.910  1.00  0.00     0.006 C 
BRANCH   4   5
ATOM      5  C   UNL     1      22.070  14.207 -15.401  1.00  0.00     0.053 C 
BRANCH   5   6
ATOM      6  C   UNL     1      21.105  15.261 -15.851  1.00  0.00     0.041 C 
ATOM      7  O   UNL     1      19.914  14.954 -16.124  1.00  0.00    -0.550 OA
ATOM      8  O   UNL     1      21.509  16.587 -15.932  1.00  0.00    -0.550 OA
ENDBRANCH   5   6
ENDBRANCH   4   5
ENDBRANCH   3   4
ENDBRANCH   2   3
ENDBRANCH   1   2
BRANCH   1   9
ATOM      9  C   UNL     1      18.344  11.195 -14.104  1.00  0.00     0.000 C 
BRANCH   9  10
ATOM     10  C   UNL     1      18.257   9.668 -13.914  1.00  0.00    -0.000 C 
BRANCH  10  11
ATOM     11  C   UNL     1      17.618   8.896 -15.086  1.00  0.00    -0.000 C 
BRANCH  11  12
ATOM     12  C   UNL     1      16.482   7.937 -14.691  1.00  0.00    -0.000 C 
BRANCH  12  13
ATOM     13  C   UNL     1      15.209   8.673 -14.250  1.00  0.00    -0.003 C 
ATOM     14  C   UNL     1      13.960   7.875 -14.614  1.00  0.00     0.004 C 
ENDBRANCH  12  13
ENDBRANCH  11  12
ENDBRANCH  10  11
ENDBRANCH   9  10
ENDBRANCH   1   9
TORSDOF 10
ENDMDL
MODEL 5
REMARK VINA RESULT:    -2.630      2.531      5.193
REMARK INTER + INTRA:          -4.914
REMARK INTER:                  -3.889
REMARK INTRA:                  -1.025
REMARK UNBOUND:                -0.746
REMARK SMILES CCCCCCCCCCCC(=O)[O-]
REMARK SMILES IDX 7 1 8 2 9 3 10 4 11 5 12 6 13 7 14 8 6 9 5 10 4 11 3 12 2 13
REMARK SMILES IDX 1 14
REMARK H PARENT
REMARK Flexibility Score: inf
ROOT
ATOM      1  C   UNL     1       2.367  11.289 -13.865  1.00  0.00     0.000 C 
ENDROOT
BRANCH   1   2
ATOM      2  C   UNL     1       3.813  11.564 -14.312  1.00  0.00     0.000 C 
BRANCH   2   3
ATOM      3  C   UNL     1       4.165  10.863 -15.633  1.00  0.00     0.000 C 
BRANCH   3   4
ATOM      4  C   UNL     1       5.556  10.204 -15.599  1.00  0.00     0.006 C 
BRANCH   4   5
ATOM      5  C   UNL     1       5.605   9.003 -14.646  1.00  0.00     0.053 C 
BRANCH   5   6
ATOM      6  C   UNL     1       6.543   9.238 -13.503  1.00  0.00     0.041 C 
ATOM      7  O   UNL     1       6.993   8.263 -12.843  1.00  0.00    -0.550 OA
ATOM      8  O   UNL     1       6.950  10.527 -13.188  1.00  0.00    -0.550 OA
ENDBRANCH   5   6
ENDBRANCH   4   5
ENDBRANCH   3   4
ENDBRANCH   2   3
ENDBRANCH   1   2
BRANCH   1   9
ATOM      9  C   UNL     1       1.876   9.887 -14.270  1.00  0.00     0.000 C 
BRANCH   9  10
ATOM     10  C   UNL     1       2.228   8.765 -13.273  1.00  0.00    -0.000 C 
BRANCH  10  11
ATOM     11  C   UNL     1       2.475   9.229 -11.823  1.00  0.00    -0.000 C 
BRANCH  11  12
ATOM     12  C   UNL     1       3.805   8.760 -11.208  1.00  0.00    -0.000 C 
BRANCH  12  13
ATOM     13  C   UNL     1       3.745   8.648  -9.678  1.00  0.00    -0.003 C 
ATOM     14  C   UNL     1       5.143   8.500  -9.083  1.00  0.00     0.004 C 
ENDBRANCH  12  13
ENDBRANCH  11  12
ENDBRANCH  10  11
ENDBRANCH   9  10
ENDBRANCH   1   9
TORSDOF 10
ENDMDL
MODEL 6
REMARK VINA RESULT:    -2.508     12.774     14.766
REMARK INTER + INTRA:          -4.721
REMARK INTER:                  -4.156
REMARK INTRA:                  -0.565
REMARK UNBOUND:                -0.746
REMARK SMILES CCCCCCCCCCCC(=O)[O-]
REMARK SMILES IDX 7 1 8 2 9 3 10 4 11 5 12 6 13 7 14 8 6 9 5 10 4 11 3 12 2 13
REMARK SMILES IDX 1 14
REMARK H PARENT
REMARK Flexibility Score: inf
ROOT
ATOM      1  C   UNL     1      18.702  11.808 -13.884  1.00  0.00     0.000 C 
ENDROOT
BRANCH   1   2
ATOM      2  C   UNL     1      18.053  10.526 -13.335  1.00  0.00     0.000 C 
BRANCH   2   3
ATOM      3  C   UNL     1      17.930   9.425 -14.400  1.00  0.00     0.000 C 
BRANCH   3   4
ATOM      4  C   UNL     1      16.901   8.346 -14.018  1.00  0.00     0.006 C 
BRANCH   4   5
ATOM      5  C   UNL     1      15.987   7.977 -15.191  1.00  0.00     0.053 C 
BRANCH   5   6
ATOM      6  C   UNL     1      14.546   7.933 -14.783  1.00  0.00     0.041 C 
ATOM      7  O   UNL     1      14.236   7.876 -13.563  1.00  0.00    -0.550 OA
ATOM      8  O   UNL     1      13.547   7.993 -15.745  1.00  0.00    -0.550 OA
ENDBRANCH   5   6
ENDBRANCH   4   5
ENDBRANCH   3   4
ENDBRANCH   2   3
ENDBRANCH   1   2
BRANCH   1   9
ATOM      9  C   UNL     1      19.275  11.624 -15.300  1.00  0.00     0.000 C 
BRANCH   9  10
ATOM     10  C   UNL     1      20.796  11.374 -15.356  1.00  0.00    -0.000 C 
BRANCH  10  11
ATOM     11  C   UNL     1      21.658  12.628 -15.609  1.00  0.00    -0.000 C 
BRANCH  11  12
ATOM     12  C   UNL     1      22.016  13.436 -14.349  1.00  0.00    -0.000 C 
BRANCH  12  13
ATOM     13  C   UNL     1      21.839  14.948 -14.544  1.00  0.00    -0.003 C 
ATOM     14  C   UNL     1      21.390  15.271 -15.966  1.00  0.00     0.004 C 
ENDBRANCH  12  13
ENDBRANCH  11  12
ENDBRANCH  10  11
ENDBRANCH   9  10
ENDBRANCH   1   9
TORSDOF 10
ENDMDL
MODEL 7
REMARK VINA RESULT:    -2.378     13.974     15.662
REMARK INTER + INTRA:          -4.514
REMARK INTER:                  -4.229
REMARK INTRA:                  -0.286
REMARK UNBOUND:                -0.746
REMARK SMILES CCCCCCCCCCCC(=O)[O-]
REMARK SMILES IDX 7 1 8 2 9 3 10 4 11 5 12 6 13 7 14 8 6 9 5 10 4 11 3 12 2 13
REMARK SMILES IDX 1 14
REMARK H PARENT
REMARK Flexibility Score: inf
ROOT
ATOM      1  C   UNL     1      18.837  13.002 -14.632  1.00  0.00     0.000 C 
ENDROOT
BRANCH   1   2
ATOM      2  C   UNL     1      19.592  11.936 -13.821  1.00  0.00     0.000 C 
BRANCH   2   3
ATOM      3  C   UNL     1      19.825  10.644 -14.620  1.00  0.00     0.000 C 
BRANCH   3   4
ATOM      4  C   UNL     1      18.944   9.481 -14.130  1.00  0.00     0.006 C 
BRANCH   4   5
ATOM      5  C   UNL     1      17.475   9.893 -13.975  1.00  0.00     0.053 C 
BRANCH   5   6
ATOM      6  C   UNL     1      16.542   8.808 -14.418  1.00  0.00     0.041 C 
ATOM      7  O   UNL     1      16.952   7.893 -15.181  1.00  0.00    -0.550 OA
ATOM      8  O   UNL     1      15.232   8.784 -13.958  1.00  0.00    -0.550 OA
ENDBRANCH   5   6
ENDBRANCH   4   5
ENDBRANCH   3   4
ENDBRANCH   2   3
ENDBRANCH   1   2
BRANCH   1   9
ATOM      9  C   UNL     1      19.690  13.606 -15.762  1.00  0.00     0.000 C 
BRANCH   9  10
ATOM     10  C   UNL     1      21.210  13.593 -15.502  1.00  0.00    -0.000 C 
BRANCH  10  11
ATOM     11  C   UNL     1      21.801  14.927 -15.002  1.00  0.00    -0.000 C 
BRANCH  11  12
ATOM     12  C   UNL     1      22.045  15.980 -16.097  1.00  0.00    -0.000 C 
BRANCH  12  13
ATOM     13  C   UNL     1      20.962  17.069 -16.125  1.00  0.00    -0.003 C 
ATOM     14  C   UNL     1      21.572  18.454 -15.930  1.00  0.00     0.004 C 
ENDBRANCH  12  13
ENDBRANCH  11  12
ENDBRANCH  10  11
ENDBRANCH   9  10
ENDBRANCH   1   9
TORSDOF 10
ENDMDL
MODEL 8
REMARK VINA RESULT:    -2.347      1.711      2.956
REMARK INTER + INTRA:          -4.465
REMARK INTER:                  -3.499
REMARK INTRA:                  -0.966
REMARK UNBOUND:                -0.746
REMARK SMILES CCCCCCCCCCCC(=O)[O-]
REMARK SMILES IDX 7 1 8 2 9 3 10 4 11 5 12 6 13 7 14 8 6 9 5 10 4 11 3 12 2 13
REMARK SMILES IDX 1 14
REMARK H PARENT
REMARK Flexibility Score: inf
ROOT
ATOM      1  C   UNL     1       5.258  11.102 -13.492  1.00  0.00     0.000 C 
ENDROOT
BRANCH   1   2
ATOM      2  C   UNL     1       6.498  10.206 -13.646  1.00  0.00     0.000 C 
BRANCH   2   3
ATOM      3  C   UNL     1       6.224   8.747 -13.247  1.00  0.00     0.000 C 
BRANCH   3   4
ATOM      4  C   UNL     1       6.314   8.526 -11.726  1.00  0.00     0.006 C 
BRANCH   4   5
ATOM      5  C   UNL     1       5.046   7.876 -11.160  1.00  0.00     0.053 C 
BRANCH   5   6
ATOM      6  C   UNL     1       4.642   8.488  -9.854  1.00  0.00     0.041 C 
ATOM      7  O   UNL     1       5.521   8.881  -9.040  1.00  0.00    -0.550 OA
ATOM      8  O   UNL     1       3.298   8.659  -9.549  1.00  0.00    -0.550 OA
ENDBRANCH   5   6
ENDBRANCH   4   5
ENDBRANCH   3   4
ENDBRANCH   2   3
ENDBRANCH   1   2
BRANCH   1   9
ATOM      9  C   UNL     1       4.685  11.562 -14.845  1.00  0.00     0.000 C 
BRANCH   9  10
ATOM     10  C   UNL     1       3.293  10.994 -15.186  1.00  0.00    -0.000 C 
BRANCH  10  11
ATOM     11  C   UNL     1       3.276   9.512 -15.610  1.00  0.00    -0.000 C 
BRANCH  11  12
ATOM     12  C   UNL     1       1.929   8.795 -15.411  1.00  0.00    -0.000 C 
BRANCH  12  13
ATOM     13  C   UNL     1       1.922   7.876 -14.181  1.00  0.00    -0.003 C 
ATOM     14  C   UNL     1       1.879   8.688 -12.889  1.00  0.00     0.004 C 
ENDBRANCH  12  13
ENDBRANCH  11  12
ENDBRANCH  10  11
ENDBRANCH   9  10
ENDBRANCH   1   9
TORSDOF 10
ENDMDL
MODEL 9
REMARK VINA RESULT:    -2.246     14.291     16.369
REMARK INTER + INTRA:          -4.304
REMARK INTER:                  -3.686
REMARK INTRA:                  -0.618
REMARK UNBOUND:                -0.746
REMARK SMILES CCCCCCCCCCCC(=O)[O-]
REMARK SMILES IDX 7 1 8 2 9 3 10 4 11 5 12 6 13 7 14 8 6 9 5 10 4 11 3 12 2 13
REMARK SMILES IDX 1 14
REMARK H PARENT
REMARK Flexibility Score: inf
ROOT
ATOM      1  C   UNL     1      21.039   8.857 -16.050  1.00  0.00     0.000 C 
ENDROOT
BRANCH   1   2
ATOM      2  C   UNL     1      22.106   9.949 -15.863  1.00  0.00     0.000 C 
BRANCH   2   3
ATOM      3  C   UNL     1      21.496  11.356 -15.756  1.00  0.00     0.000 C 
BRANCH   3   4
ATOM      4  C   UNL     1      21.954  12.102 -14.489  1.00  0.00     0.006 C 
BRANCH   4   5
ATOM      5  C   UNL     1      20.976  13.212 -14.087  1.00  0.00     0.053 C 
BRANCH   5   6
ATOM      6  C   UNL     1      20.540  14.025 -15.266  1.00  0.00     0.041 C 
ATOM      7  O   UNL     1      21.310  14.893 -15.757  1.00  0.00    -0.550 OA
ATOM      8  O   UNL     1      19.299  13.800 -15.847  1.00  0.00    -0.550 OA
ENDBRANCH   5   6
ENDBRANCH   4   5
ENDBRANCH   3   4
ENDBRANCH   2   3
ENDBRANCH   1   2
BRANCH   1   9
ATOM      9  C   UNL     1      19.611   9.427 -16.125  1.00  0.00     0.000 C 
BRANCH   9  10
ATOM     10  C   UNL     1      18.488   8.378 -15.999  1.00  0.00    -0.000 C 
BRANCH  10  11
ATOM     11  C   UNL     1      17.460   8.649 -14.882  1.00  0.00    -0.000 C 
BRANCH  11  12
ATOM     12  C   UNL     1      17.971   9.528 -13.728  1.00  0.00    -0.000 C 
BRANCH  12  13
ATOM     13  C   UNL     1      17.932  11.027 -14.060  1.00  0.00    -0.003 C 
ATOM     14  C   UNL     1      17.895  11.870 -12.788  1.00  0.00     0.004 C 
ENDBRANCH  12  13
ENDBRANCH  11  12
ENDBRANCH  10  11
ENDBRANCH   9  10
ENDBRANCH   1   9
TORSDOF 10
ENDMDL
