MODEL 1
REMARK VINA RESULT:    -3.356      0.000      0.000
REMARK INTER + INTRA:          -8.211
REMARK INTER:                  -6.102
REMARK INTRA:                  -2.109
REMARK UNBOUND:                -2.109
REMARK SMILES CCCCCCCCCCCCCCCC(=O)[O-]
REMARK SMILES IDX 9 1 10 2 11 3 12 4 13 5 14 6 15 7 16 8 17 9 18 10 8 11 7 12
REMARK SMILES IDX 6 13 5 14 4 15 3 16 2 17 1 18
REMARK H PARENT
REMARK Flexibility Score: inf
ROOT
ATOM      1  C   UNL     1      -4.580 -10.264  64.380  1.00  0.00     0.000 C 
ENDROOT
BRANCH   1   2
ATOM      2  C   UNL     1      -5.829  -9.807  65.162  1.00  0.00     0.000 C 
BRANCH   2   3
ATOM      3  C   UNL     1      -6.443  -8.475  64.695  1.00  0.00     0.000 C 
BRANCH   3   4
ATOM      4  C   UNL     1      -5.468  -7.293  64.818  1.00  0.00     0.000 C 
BRANCH   4   5
ATOM      5  C   UNL     1      -4.957  -7.083  66.255  1.00  0.00     0.000 C 
BRANCH   5   6
ATOM      6  C   UNL     1      -3.423  -6.992  66.402  1.00  0.00     0.006 C 
BRANCH   6   7
ATOM      7  C   UNL     1      -2.659  -6.895  65.074  1.00  0.00     0.053 C 
BRANCH   7   8
ATOM      8  C   UNL     1      -2.290  -5.482  64.741  1.00  0.00     0.041 C 
ATOM      9  O   UNL     1      -2.655  -4.972  63.649  1.00  0.00    -0.550 OA
ATOM     10  O   UNL     1      -1.513  -4.741  65.621  1.00  0.00    -0.550 OA
ENDBRANCH   7   8
ENDBRANCH   6   7
ENDBRANCH   5   6
ENDBRANCH   4   5
ENDBRANCH   3   4
ENDBRANCH   2   3
ENDBRANCH   1   2
BRANCH   1  11
ATOM     11  C   UNL     1      -3.406 -10.759  65.249  1.00  0.00     0.000 C 
BRANCH  11  12
ATOM     12  C   UNL     1      -3.791 -11.213  66.669  1.00  0.00    -0.000 C 
BRANCH  12  13
ATOM     13  C   UNL     1      -3.161 -12.562  67.054  1.00  0.00    -0.000 C 
BRANCH  13  14
ATOM     14  C   UNL     1      -4.156 -13.729  66.950  1.00  0.00    -0.000 C 
BRANCH  14  15
ATOM     15  C   UNL     1      -5.532 -13.286  66.424  1.00  0.00    -0.000 C 
BRANCH  15  16
ATOM     16  C   UNL     1      -5.918 -13.990  65.113  1.00  0.00    -0.000 C 
BRANCH  16  17
ATOM     17  C   UNL     1      -4.696 -14.424  64.291  1.00  0.00    -0.003 C 
ATOM     18  C   UNL     1      -4.807 -13.944  62.846  1.00  0.00     0.004 C 
ENDBRANCH  16  17
ENDBRANCH  15  16
ENDBRANCH  14  15
ENDBRANCH  13  14
ENDBRANCH  12  13
ENDBRANCH  11  12
ENDBRANCH   1  11
TORSDOF 14
ENDMDL
MODEL 2
REMARK VINA RESULT:    -3.244      7.056     11.533
REMARK INTER + INTRA:          -8.007
REMARK INTER:                  -5.553
REMARK INTRA:                  -2.454
REMARK UNBOUND:                -2.109
REMARK SMILES CCCCCCCCCCCCCCCC(=O)[O-]
REMARK SMILES IDX 9 1 10 2 11 3 12 4 13 5 14 6 15 7 16 8 17 9 18 10 8 11 7 12
REMARK SMILES IDX 6 13 5 14 4 15 3 16 2 17 1 18
REMARK H PARENT
REMARK Flexibility Score: inf
ROOT
ATOM      1  C   UNL     1       3.019  -1.124  65.436  1.00  0.00     0.000 C 
ENDROOT
BRANCH   1   2
ATOM      2  C   UNL     1       2.173   0.031  66.010  1.00  0.00     0.000 C 
BRANCH   2   3
ATOM      3  C   UNL     1       0.699  -0.313  66.291  1.00  0.00     0.000 C 
BRANCH   3   4
ATOM      4  C   UNL     1       0.375  -0.365  67.793  1.00  0.00     0.000 C 
BRANCH   4   5
ATOM      5  C   UNL     1      -0.119  -1.748  68.253  1.00  0.00     0.000 C 
BRANCH   5   6
ATOM      6  C   UNL     1      -1.154  -2.421  67.326  1.00  0.00     0.006 C 
BRANCH   6   7
ATOM      7  C   UNL     1      -0.710  -3.774  66.749  1.00  0.00     0.053 C 
BRANCH   7   8
ATOM      8  C   UNL     1      -1.715  -4.329  65.787  1.00  0.00     0.041 C 
ATOM      9  O   UNL     1      -1.850  -5.575  65.661  1.00  0.00    -0.550 OA
ATOM     10  O   UNL     1      -2.478  -3.472  65.006  1.00  0.00    -0.550 OA
ENDBRANCH   7   8
ENDBRANCH   6   7
ENDBRANCH   5   6
ENDBRANCH   4   5
ENDBRANCH   3   4
ENDBRANCH   2   3
ENDBRANCH   1   2
BRANCH   1  11
ATOM     11  C   UNL     1       2.650  -2.529  65.952  1.00  0.00     0.000 C 
BRANCH  11  12
ATOM     12  C   UNL     1       3.848  -3.443  66.268  1.00  0.00    -0.000 C 
BRANCH  12  13
ATOM     13  C   UNL     1       4.403  -3.229  67.686  1.00  0.00    -0.000 C 
BRANCH  13  14
ATOM     14  C   UNL     1       3.328  -2.742  68.672  1.00  0.00    -0.000 C 
BRANCH  14  15
ATOM     15  C   UNL     1       3.676  -1.382  69.300  1.00  0.00    -0.000 C 
BRANCH  15  16
ATOM     16  C   UNL     1       4.865  -0.699  68.607  1.00  0.00    -0.000 C 
BRANCH  16  17
ATOM     17  C   UNL     1       4.744   0.832  68.591  1.00  0.00    -0.003 C 
ATOM     18  C   UNL     1       3.434   1.286  69.230  1.00  0.00     0.004 C 
ENDBRANCH  16  17
ENDBRANCH  15  16
ENDBRANCH  14  15
ENDBRANCH  13  14
ENDBRANCH  12  13
ENDBRANCH  11  12
ENDBRANCH   1  11
TORSDOF 14
ENDMDL
MODEL 3
REMARK VINA RESULT:    -3.175      6.909     11.968
REMARK INTER + INTRA:          -7.882
REMARK INTER:                  -5.309
REMARK INTRA:                  -2.573
REMARK UNBOUND:                -2.109
REMARK SMILES CCCCCCCCCCCCCCCC(=O)[O-]
REMARK SMILES IDX 9 1 10 2 11 3 12 4 13 5 14 6 15 7 16 8 17 9 18 10 8 11 7 12
REMARK SMILES IDX 6 13 5 14 4 15 3 16 2 17 1 18
REMARK H PARENT
REMARK Flexibility Score: inf
ROOT
ATOM      1  C   UNL     1       4.390  -2.347  67.661  1.00  0.00     0.000 C 
ENDROOT
BRANCH   1   2
ATOM      2  C   UNL     1       3.596  -2.046  68.949  1.00  0.00     0.000 C 
BRANCH   2   3
ATOM      3  C   UNL     1       2.151  -2.574  68.966  1.00  0.00     0.000 C 
BRANCH   3   4
ATOM      4  C   UNL     1       1.112  -1.462  69.189  1.00  0.00     0.000 C 
BRANCH   4   5
ATOM      5  C   UNL     1      -0.117  -1.596  68.272  1.00  0.00     0.000 C 
BRANCH   5   6
ATOM      6  C   UNL     1      -0.145  -2.861  67.388  1.00  0.00     0.006 C 
BRANCH   6   7
ATOM      7  C   UNL     1      -1.553  -3.344  67.009  1.00  0.00     0.053 C 
BRANCH   7   8
ATOM      8  C   UNL     1      -1.521  -4.667  66.306  1.00  0.00     0.041 C 
ATOM      9  O   UNL     1      -1.236  -5.716  66.941  1.00  0.00    -0.550 OA
ATOM     10  O   UNL     1      -1.775  -4.735  64.942  1.00  0.00    -0.550 OA
ENDBRANCH   7   8
ENDBRANCH   6   7
ENDBRANCH   5   6
ENDBRANCH   4   5
ENDBRANCH   3   4
ENDBRANCH   2   3
ENDBRANCH   1   2
BRANCH   1  11
ATOM     11  C   UNL     1       3.682  -3.276  66.654  1.00  0.00     0.000 C 
BRANCH  11  12
ATOM     12  C   UNL     1       3.011  -2.560  65.468  1.00  0.00    -0.000 C 
BRANCH  12  13
ATOM     13  C   UNL     1       3.265  -1.043  65.466  1.00  0.00    -0.000 C 
BRANCH  13  14
ATOM     14  C   UNL     1       1.983  -0.230  65.709  1.00  0.00    -0.000 C 
BRANCH  14  15
ATOM     15  C   UNL     1       2.220   0.989  66.617  1.00  0.00    -0.000 C 
BRANCH  15  16
ATOM     16  C   UNL     1       3.697   1.153  67.010  1.00  0.00    -0.000 C 
BRANCH  16  17
ATOM     17  C   UNL     1       3.876   1.843  68.371  1.00  0.00    -0.003 C 
ATOM     18  C   UNL     1       2.576   1.825  69.171  1.00  0.00     0.004 C 
ENDBRANCH  16  17
ENDBRANCH  15  16
ENDBRANCH  14  15
ENDBRANCH  13  14
ENDBRANCH  12  13
ENDBRANCH  11  12
ENDBRANCH   1  11
TORSDOF 14
ENDMDL
MODEL 4
REMARK VINA RESULT:    -3.125      2.074      3.898
REMARK INTER + INTRA:          -7.792
REMARK INTER:                  -5.364
REMARK INTRA:                  -2.428
REMARK UNBOUND:                -2.109
REMARK SMILES CCCCCCCCCCCCCCCC(=O)[O-]
REMARK SMILES IDX 9 1 10 2 11 3 12 4 13 5 14 6 15 7 16 8 17 9 18 10 8 11 7 12
REMARK SMILES IDX 6 13 5 14 4 15 3 16 2 17 1 18
REMARK H PARENT
REMARK Flexibility Score: inf
ROOT
ATOM      1  C   UNL     1      -5.520 -13.768  64.203  1.00  0.00     0.000 C 
ENDROOT
BRANCH   1   2
ATOM      2  C   UNL     1      -4.354 -12.780  64.002  1.00  0.00     0.000 C 
BRANCH   2   3
ATOM      3  C   UNL     1      -4.646 -11.327  64.418  1.00  0.00     0.000 C 
BRANCH   3   4
ATOM      4  C   UNL     1      -3.376 -10.544  64.785  1.00  0.00     0.000 C 
BRANCH   4   5
ATOM      5  C   UNL     1      -3.358  -9.120  64.201  1.00  0.00     0.000 C 
BRANCH   5   6
ATOM      6  C   UNL     1      -3.374  -7.980  65.241  1.00  0.00     0.006 C 
BRANCH   6   7
ATOM      7  C   UNL     1      -4.741  -7.731  65.895  1.00  0.00     0.053 C 
BRANCH   7   8
ATOM      8  C   UNL     1      -5.824  -7.547  64.876  1.00  0.00     0.041 C 
ATOM      9  O   UNL     1      -6.744  -8.401  64.768  1.00  0.00    -0.550 OA
ATOM     10  O   UNL     1      -5.799  -6.451  64.023  1.00  0.00    -0.550 OA
ENDBRANCH   7   8
ENDBRANCH   6   7
ENDBRANCH   5   6
ENDBRANCH   4   5
ENDBRANCH   3   4
ENDBRANCH   2   3
ENDBRANCH   1   2
BRANCH   1  11
ATOM     11  C   UNL     1      -5.932 -14.010  65.669  1.00  0.00     0.000 C 
BRANCH  11  12
ATOM     12  C   UNL     1      -4.884 -14.742  66.528  1.00  0.00    -0.000 C 
BRANCH  12  13
ATOM     13  C   UNL     1      -4.497 -13.958  67.792  1.00  0.00    -0.000 C 
BRANCH  13  14
ATOM     14  C   UNL     1      -3.302 -13.018  67.560  1.00  0.00    -0.000 C 
BRANCH  14  15
ATOM     15  C   UNL     1      -3.538 -11.611  68.136  1.00  0.00    -0.000 C 
BRANCH  15  16
ATOM     16  C   UNL     1      -4.933 -11.455  68.762  1.00  0.00    -0.000 C 
BRANCH  16  17
ATOM     17  C   UNL     1      -5.762 -10.349  68.094  1.00  0.00    -0.003 C 
ATOM     18  C   UNL     1      -6.896 -10.939  67.260  1.00  0.00     0.004 C 
ENDBRANCH  16  17
ENDBRANCH  15  16
ENDBRANCH  14  15
ENDBRANCH  13  14
ENDBRANCH  12  13
ENDBRANCH  11  12
ENDBRANCH   1  11
TORSDOF 14
ENDMDL
MODEL 5
REMARK VINA RESULT:    -3.123      5.919     10.735
REMARK INTER + INTRA:          -7.788
REMARK INTER:                  -5.654
REMARK INTRA:                  -2.134
REMARK UNBOUND:                -2.109
REMARK SMILES CCCCCCCCCCCCCCCC(=O)[O-]
REMARK SMILES IDX 9 1 10 2 11 3 12 4 13 5 14 6 15 7 16 8 17 9 18 10 8 11 7 12
REMARK SMILES IDX 6 13 5 14 4 15 3 16 2 17 1 18
REMARK H PARENT
REMARK Flexibility Score: inf
ROOT
ATOM      1  C   UNL     1       0.930  -0.212  66.187  1.00  0.00     0.000 C 
ENDROOT
BRANCH   1   2
ATOM      2  C   UNL     1       0.412  -0.167  67.640  1.00  0.00     0.000 C 
BRANCH   2   3
ATOM      3  C   UNL     1      -0.292  -1.447  68.124  1.00  0.00     0.000 C 
BRANCH   3   4
ATOM      4  C   UNL     1      -0.940  -2.242  66.979  1.00  0.00     0.000 C 
BRANCH   4   5
ATOM      5  C   UNL     1      -0.391  -3.676  66.858  1.00  0.00     0.000 C 
BRANCH   5   6
ATOM      6  C   UNL     1      -1.429  -4.748  66.465  1.00  0.00     0.006 C 
BRANCH   6   7
ATOM      7  C   UNL     1      -2.332  -4.360  65.285  1.00  0.00     0.053 C 
BRANCH   7   8
ATOM      8  C   UNL     1      -2.661  -5.538  64.420  1.00  0.00     0.041 C 
ATOM      9  O   UNL     1      -2.969  -5.371  63.211  1.00  0.00    -0.550 OA
ATOM     10  O   UNL     1      -2.660  -6.818  64.959  1.00  0.00    -0.550 OA
ENDBRANCH   7   8
ENDBRANCH   6   7
ENDBRANCH   5   6
ENDBRANCH   4   5
ENDBRANCH   3   4
ENDBRANCH   2   3
ENDBRANCH   1   2
BRANCH   1  11
ATOM     11  C   UNL     1       2.430   0.099  66.015  1.00  0.00     0.000 C 
BRANCH  11  12
ATOM     12  C   UNL     1       3.283  -1.072  65.492  1.00  0.00    -0.000 C 
BRANCH  12  13
ATOM     13  C   UNL     1       2.711  -2.445  65.881  1.00  0.00    -0.000 C 
BRANCH  13  14
ATOM     14  C   UNL     1       3.795  -3.415  66.381  1.00  0.00    -0.000 C 
BRANCH  14  15
ATOM     15  C   UNL     1       4.263  -3.090  67.810  1.00  0.00    -0.000 C 
BRANCH  15  16
ATOM     16  C   UNL     1       3.094  -2.770  68.756  1.00  0.00    -0.000 C 
BRANCH  16  17
ATOM     17  C   UNL     1       3.308  -1.470  69.544  1.00  0.00    -0.003 C 
ATOM     18  C   UNL     1       4.498  -0.685  68.997  1.00  0.00     0.004 C 
ENDBRANCH  16  17
ENDBRANCH  15  16
ENDBRANCH  14  15
ENDBRANCH  13  14
ENDBRANCH  12  13
ENDBRANCH  11  12
ENDBRANCH   1  11
TORSDOF 14
ENDMDL
MODEL 6
REMARK VINA RESULT:    -3.120      3.482      7.367
REMARK INTER + INTRA:          -7.782
REMARK INTER:                  -6.031
REMARK INTRA:                  -1.751
REMARK UNBOUND:                -2.109
REMARK SMILES CCCCCCCCCCCCCCCC(=O)[O-]
REMARK SMILES IDX 9 1 10 2 11 3 12 4 13 5 14 6 15 7 16 8 17 9 18 10 8 11 7 12
REMARK SMILES IDX 6 13 5 14 4 15 3 16 2 17 1 18
REMARK H PARENT
REMARK Flexibility Score: inf
ROOT
ATOM      1  C   UNL     1      -5.996  -8.736  64.745  1.00  0.00     0.000 C 
ENDROOT
BRANCH   1   2
ATOM      2  C   UNL     1      -4.618  -8.653  65.433  1.00  0.00     0.000 C 
BRANCH   2   3
ATOM      3  C   UNL     1      -3.437  -9.186  64.603  1.00  0.00     0.000 C 
BRANCH   3   4
ATOM      4  C   UNL     1      -3.403 -10.721  64.530  1.00  0.00     0.000 C 
BRANCH   4   5
ATOM      5  C   UNL     1      -3.682 -11.392  65.888  1.00  0.00     0.000 C 
BRANCH   5   6
ATOM      6  C   UNL     1      -4.170 -12.854  65.812  1.00  0.00     0.006 C 
BRANCH   6   7
ATOM      7  C   UNL     1      -5.423 -13.065  64.949  1.00  0.00     0.053 C 
BRANCH   7   8
ATOM      8  C   UNL     1      -5.114 -13.807  63.684  1.00  0.00     0.041 C 
ATOM      9  O   UNL     1      -5.620 -13.436  62.592  1.00  0.00    -0.550 OA
ATOM     10  O   UNL     1      -4.295 -14.928  63.718  1.00  0.00    -0.550 OA
ENDBRANCH   7   8
ENDBRANCH   6   7
ENDBRANCH   5   6
ENDBRANCH   4   5
ENDBRANCH   3   4
ENDBRANCH   2   3
ENDBRANCH   1   2
BRANCH   1  11
ATOM     11  C   UNL     1      -6.776  -7.408  64.673  1.00  0.00     0.000 C 
BRANCH  11  12
ATOM     12  C   UNL     1      -5.938  -6.144  64.946  1.00  0.00    -0.000 C 
BRANCH  12  13
ATOM     13  C   UNL     1      -5.805  -5.239  63.710  1.00  0.00    -0.000 C 
BRANCH  13  14
ATOM     14  C   UNL     1      -4.445  -5.393  63.010  1.00  0.00    -0.000 C 
BRANCH  14  15
ATOM     15  C   UNL     1      -3.304  -4.708  63.781  1.00  0.00    -0.000 C 
BRANCH  15  16
ATOM     16  C   UNL     1      -2.231  -5.702  64.255  1.00  0.00    -0.000 C 
BRANCH  16  17
ATOM     17  C   UNL     1      -2.161  -5.816  65.785  1.00  0.00    -0.003 C 
ATOM     18  C   UNL     1      -2.887  -4.653  66.456  1.00  0.00     0.004 C 
ENDBRANCH  16  17
ENDBRANCH  15  16
ENDBRANCH  14  15
ENDBRANCH  13  14
ENDBRANCH  12  13
ENDBRANCH  11  12
ENDBRANCH   1  11
TORSDOF 14
ENDMDL
MODEL 7
REMARK VINA RESULT:    -3.114      1.755      4.007
REMARK INTER + INTRA:          -7.771
REMARK INTER:                  -5.259
REMARK INTRA:                  -2.511
REMARK UNBOUND:                -2.109
REMARK SMILES CCCCCCCCCCCCCCCC(=O)[O-]
REMARK SMILES IDX 9 1 10 2 11 3 12 4 13 5 14 6 15 7 16 8 17 9 18 10 8 11 7 12
REMARK SMILES IDX 6 13 5 14 4 15 3 16 2 17 1 18
REMARK H PARENT
REMARK Flexibility Score: inf
ROOT
ATOM      1  C   UNL     1      -6.879 -13.666  66.247  1.00  0.00     0.000 C 
ENDROOT
BRANCH   1   2
ATOM      2  C   UNL     1      -5.510 -13.923  65.584  1.00  0.00     0.000 C 
BRANCH   2   3
ATOM      3  C   UNL     1      -5.266 -13.164  64.268  1.00  0.00     0.000 C 
BRANCH   3   4
ATOM      4  C   UNL     1      -4.086 -12.183  64.354  1.00  0.00     0.000 C 
BRANCH   4   5
ATOM      5  C   UNL     1      -4.528 -10.708  64.328  1.00  0.00     0.000 C 
BRANCH   5   6
ATOM      6  C   UNL     1      -3.398  -9.677  64.532  1.00  0.00     0.006 C 
BRANCH   6   7
ATOM      7  C   UNL     1      -3.799  -8.446  65.358  1.00  0.00     0.053 C 
BRANCH   7   8
ATOM      8  C   UNL     1      -3.026  -7.227  64.958  1.00  0.00     0.041 C 
ATOM      9  O   UNL     1      -2.319  -6.619  65.805  1.00  0.00    -0.550 OA
ATOM     10  O   UNL     1      -3.114  -6.743  63.660  1.00  0.00    -0.550 OA
ENDBRANCH   7   8
ENDBRANCH   6   7
ENDBRANCH   5   6
ENDBRANCH   4   5
ENDBRANCH   3   4
ENDBRANCH   2   3
ENDBRANCH   1   2
BRANCH   1  11
ATOM     11  C   UNL     1      -6.870 -12.636  67.394  1.00  0.00     0.000 C 
BRANCH  11  12
ATOM     12  C   UNL     1      -6.791 -11.164  66.947  1.00  0.00    -0.000 C 
BRANCH  12  13
ATOM     13  C   UNL     1      -5.984 -10.289  67.921  1.00  0.00    -0.000 C 
BRANCH  13  14
ATOM     14  C   UNL     1      -4.918 -11.089  68.688  1.00  0.00    -0.000 C 
BRANCH  14  15
ATOM     15  C   UNL     1      -3.607 -11.235  67.895  1.00  0.00    -0.000 C 
BRANCH  15  16
ATOM     16  C   UNL     1      -3.028 -12.657  67.969  1.00  0.00    -0.000 C 
BRANCH  16  17
ATOM     17  C   UNL     1      -3.377 -13.372  69.283  1.00  0.00    -0.003 C 
ATOM     18  C   UNL     1      -4.207 -14.626  69.022  1.00  0.00     0.004 C 
ENDBRANCH  16  17
ENDBRANCH  15  16
ENDBRANCH  14  15
ENDBRANCH  13  14
ENDBRANCH  12  13
ENDBRANCH  11  12
ENDBRANCH   1  11
TORSDOF 14
ENDMDL
MODEL 8
REMARK VINA RESULT:    -3.096      7.989     12.574
REMARK INTER + INTRA:          -7.739
REMARK INTER:                  -5.675
REMARK INTRA:                  -2.064
REMARK UNBOUND:                -2.109
REMARK SMILES CCCCCCCCCCCCCCCC(=O)[O-]
REMARK SMILES IDX 9 1 10 2 11 3 12 4 13 5 14 6 15 7 16 8 17 9 18 10 8 11 7 12
REMARK SMILES IDX 6 13 5 14 4 15 3 16 2 17 1 18
REMARK H PARENT
REMARK Flexibility Score: inf
ROOT
ATOM      1  C   UNL     1      -0.755  -1.763  58.379  1.00  0.00     0.000 C 
ENDROOT
BRANCH   1   2
ATOM      2  C   UNL     1      -2.090  -2.030  57.652  1.00  0.00     0.000 C 
BRANCH   2   3
ATOM      3  C   UNL     1      -3.354  -1.659  58.447  1.00  0.00     0.000 C 
BRANCH   3   4
ATOM      4  C   UNL     1      -3.039  -1.101  59.844  1.00  0.00     0.000 C 
BRANCH   4   5
ATOM      5  C   UNL     1      -4.029  -1.583  60.920  1.00  0.00     0.000 C 
BRANCH   5   6
ATOM      6  C   UNL     1      -4.147  -3.115  61.068  1.00  0.00     0.006 C 
BRANCH   6   7
ATOM      7  C   UNL     1      -2.949  -3.784  61.759  1.00  0.00     0.053 C 
BRANCH   7   8
ATOM      8  C   UNL     1      -3.239  -4.109  63.193  1.00  0.00     0.041 C 
ATOM      9  O   UNL     1      -3.765  -5.211  63.499  1.00  0.00    -0.550 OA
ATOM     10  O   UNL     1      -2.959  -3.181  64.187  1.00  0.00    -0.550 OA
ENDBRANCH   7   8
ENDBRANCH   6   7
ENDBRANCH   5   6
ENDBRANCH   4   5
ENDBRANCH   3   4
ENDBRANCH   2   3
ENDBRANCH   1   2
BRANCH   1  11
ATOM     11  C   UNL     1       0.497  -1.781  57.480  1.00  0.00     0.000 C 
BRANCH  11  12
ATOM     12  C   UNL     1       1.407  -0.544  57.604  1.00  0.00    -0.000 C 
BRANCH  12  13
ATOM     13  C   UNL     1       0.761   0.590  58.417  1.00  0.00    -0.000 C 
BRANCH  13  14
ATOM     14  C   UNL     1       0.949   1.968  57.760  1.00  0.00    -0.000 C 
BRANCH  14  15
ATOM     15  C   UNL     1      -0.187   2.315  56.782  1.00  0.00    -0.000 C 
BRANCH  15  16
ATOM     16  C   UNL     1      -1.536   1.714  57.208  1.00  0.00    -0.000 C 
BRANCH  16  17
ATOM     17  C   UNL     1      -2.319   1.120  56.028  1.00  0.00    -0.003 C 
ATOM     18  C   UNL     1      -1.376   0.519  54.989  1.00  0.00     0.004 C 
ENDBRANCH  16  17
ENDBRANCH  15  16
ENDBRANCH  14  15
ENDBRANCH  13  14
ENDBRANCH  12  13
ENDBRANCH  11  12
ENDBRANCH   1  11
TORSDOF 14
ENDMDL
MODEL 9
REMARK VINA RESULT:    -3.089      3.545      6.569
REMARK INTER + INTRA:          -7.726
REMARK INTER:                  -5.383
REMARK INTRA:                  -2.344
REMARK UNBOUND:                -2.109
REMARK SMILES CCCCCCCCCCCCCCCC(=O)[O-]
REMARK SMILES IDX 9 1 10 2 11 3 12 4 13 5 14 6 15 7 16 8 17 9 18 10 8 11 7 12
REMARK SMILES IDX 6 13 5 14 4 15 3 16 2 17 1 18
REMARK H PARENT
REMARK Flexibility Score: inf
ROOT
ATOM      1  C   UNL     1      -6.594  -9.923  66.135  1.00  0.00     0.000 C 
ENDROOT
BRANCH   1   2
ATOM      2  C   UNL     1      -5.867  -9.480  67.421  1.00  0.00     0.000 C 
BRANCH   2   3
ATOM      3  C   UNL     1      -5.279 -10.623  68.268  1.00  0.00     0.000 C 
BRANCH   3   4
ATOM      4  C   UNL     1      -3.759 -10.776  68.091  1.00  0.00     0.000 C 
BRANCH   4   5
ATOM      5  C   UNL     1      -3.346 -12.193  67.653  1.00  0.00     0.000 C 
BRANCH   5   6
ATOM      6  C   UNL     1      -4.458 -13.026  66.982  1.00  0.00     0.006 C 
BRANCH   6   7
ATOM      7  C   UNL     1      -3.991 -13.870  65.787  1.00  0.00     0.053 C 
BRANCH   7   8
ATOM      8  C   UNL     1      -5.099 -14.118  64.809  1.00  0.00     0.041 C 
ATOM      9  O   UNL     1      -6.300 -14.030  65.176  1.00  0.00    -0.550 OA
ATOM     10  O   UNL     1      -4.803 -14.479  63.501  1.00  0.00    -0.550 OA
ENDBRANCH   7   8
ENDBRANCH   6   7
ENDBRANCH   5   6
ENDBRANCH   4   5
ENDBRANCH   3   4
ENDBRANCH   2   3
ENDBRANCH   1   2
BRANCH   1  11
ATOM     11  C   UNL     1      -5.891  -9.539  64.817  1.00  0.00     0.000 C 
BRANCH  11  12
ATOM     12  C   UNL     1      -4.747 -10.477  64.390  1.00  0.00    -0.000 C 
BRANCH  12  13
ATOM     13  C   UNL     1      -3.356  -9.891  64.683  1.00  0.00    -0.000 C 
BRANCH  13  14
ATOM     14  C   UNL     1      -3.292  -8.374  64.438  1.00  0.00    -0.000 C 
BRANCH  14  15
ATOM     15  C   UNL     1      -3.228  -7.568  65.747  1.00  0.00    -0.000 C 
BRANCH  15  16
ATOM     16  C   UNL     1      -3.789  -6.145  65.592  1.00  0.00    -0.000 C 
BRANCH  16  17
ATOM     17  C   UNL     1      -5.282  -6.056  65.942  1.00  0.00    -0.003 C 
ATOM     18  C   UNL     1      -6.136  -5.941  64.682  1.00  0.00     0.004 C 
ENDBRANCH  16  17
ENDBRANCH  15  16
ENDBRANCH  14  15
ENDBRANCH  13  14
ENDBRANCH  12  13
ENDBRANCH  11  12
ENDBRANCH   1  11
TORSDOF 14
ENDMDL
