MODEL 1
REMARK VINA RESULT:    -7.960      0.000      0.000
REMARK INTER + INTRA:         -11.632
REMARK INTER:                 -10.752
REMARK INTRA:                  -0.881
REMARK UNBOUND:                -0.881
REMARK SMILES O=c1c(-c2ccc(O)cc2)coc2c([C@@H]3O[C@H](CO)[C@@H](O)[C@H](O)[C@H]3O)c(O)ccc12
REMARK SMILES IDX 3 1 11 2 12 3 13 4 30 5 2 6 1 7 29 8 28 9 26 10 14 11 4 12
REMARK SMILES IDX 5 13 6 14 7 15 10 16 9 17 8 18 15 20 24 21 16 22 22 23 17 24
REMARK SMILES IDX 20 25 25 26 23 28 18 30 19 31 21 33 27 35
REMARK H PARENT 8 19 25 27 23 29 19 32 21 34 27 36
REMARK Flexibility Score: inf
ROOT
ATOM      1  C   UNL     1     116.558 -46.891  31.328  1.00  0.00     0.065 A 
ATOM      2  C   UNL     1     116.993 -46.247  32.492  1.00  0.00     0.208 A 
ATOM      3  O   UNL     1     116.121 -45.740  33.352  1.00  0.00    -0.463 OA
ATOM      4  C   UNL     1     114.806 -45.772  33.169  1.00  0.00     0.147 A 
ATOM      5  C   UNL     1     114.282 -46.417  32.016  1.00  0.00     0.066 A 
ATOM      6  C   UNL     1     115.177 -46.997  31.099  1.00  0.00     0.200 A 
ATOM      7  O   UNL     1     114.752 -47.584  30.067  1.00  0.00    -0.288 OA
ATOM      8  C   UNL     1     112.894 -46.433  31.804  1.00  0.00     0.020 A 
ATOM      9  C   UNL     1     112.038 -45.819  32.710  1.00  0.00     0.047 A 
ATOM     10  C   UNL     1     112.539 -45.151  33.827  1.00  0.00     0.125 A 
ATOM     11  C   UNL     1     113.934 -45.139  34.101  1.00  0.00     0.069 A 
ENDROOT
BRANCH   1  12
ATOM     12  C   UNL     1     117.542 -47.339  30.324  1.00  0.00    -0.011 A 
ATOM     13  C   UNL     1     117.582 -48.678  29.901  1.00  0.00     0.013 A 
ATOM     14  C   UNL     1     118.468 -49.072  28.892  1.00  0.00     0.047 A 
ATOM     15  C   UNL     1     119.291 -48.110  28.269  1.00  0.00     0.115 A 
ATOM     16  C   UNL     1     118.403 -46.398  29.732  1.00  0.00     0.013 A 
ATOM     17  C   UNL     1     119.260 -46.783  28.698  1.00  0.00     0.047 A 
BRANCH  15  18
ATOM     18  O   UNL     1     120.127 -48.459  27.206  1.00  0.00    -0.508 OA
ATOM     19  H   UNL     1     121.036 -48.880  27.361  1.00  0.00     0.293 HD
ENDBRANCH  15  18
ENDBRANCH   1  12
BRANCH  11  20
ATOM     20  C   UNL     1     114.478 -44.635  35.441  1.00  0.00     0.188 C 
ATOM     21  C   UNL     1     114.784 -43.124  35.308  1.00  0.00     0.179 C 
ATOM     22  O   UNL     1     113.578 -44.953  36.498  1.00  0.00    -0.362 OA
ATOM     23  C   UNL     1     115.406 -42.567  36.604  1.00  0.00     0.177 C 
ATOM     24  C   UNL     1     113.631 -44.086  37.640  1.00  0.00     0.176 C 
ATOM     25  C   UNL     1     114.989 -43.377  37.849  1.00  0.00     0.177 C 
BRANCH  21  26
ATOM     26  O   UNL     1     115.686 -42.901  34.250  1.00  0.00    -0.387 OA
ATOM     27  H   UNL     1     116.429 -42.350  34.602  1.00  0.00     0.211 HD
ENDBRANCH  21  26
BRANCH  23  28
ATOM     28  O   UNL     1     115.050 -41.221  36.781  1.00  0.00    -0.387 OA
ATOM     29  H   UNL     1     114.183 -41.084  36.316  1.00  0.00     0.211 HD
ENDBRANCH  23  28
BRANCH  24  30
ATOM     30  C   UNL     1     112.430 -43.122  37.629  1.00  0.00     0.191 C 
BRANCH  30  31
ATOM     31  O   UNL     1     111.671 -43.304  38.794  1.00  0.00    -0.394 OA
ATOM     32  H   UNL     1     111.048 -42.536  38.849  1.00  0.00     0.210 HD
ENDBRANCH  30  31
ENDBRANCH  24  30
BRANCH  25  33
ATOM     33  O   UNL     1     115.951 -44.359  38.147  1.00  0.00    -0.388 OA
ATOM     34  H   UNL     1     115.766 -44.676  39.076  1.00  0.00     0.211 HD
ENDBRANCH  25  33
ENDBRANCH  11  20
BRANCH  10  35
ATOM     35  O   UNL     1     111.608 -44.452  34.617  1.00  0.00    -0.507 OA
ATOM     36  H   UNL     1     111.602 -43.449  34.745  1.00  0.00     0.293 HD
ENDBRANCH  10  35
TORSDOF 9
ENDMDL
MODEL 2
REMARK VINA RESULT:    -7.933      1.145      1.329
REMARK INTER + INTRA:         -11.596
REMARK INTER:                 -11.102
REMARK INTRA:                  -0.493
REMARK UNBOUND:                -0.881
REMARK SMILES O=c1c(-c2ccc(O)cc2)coc2c([C@@H]3O[C@H](CO)[C@@H](O)[C@H](O)[C@H]3O)c(O)ccc12
REMARK SMILES IDX 3 1 11 2 12 3 13 4 30 5 2 6 1 7 29 8 28 9 26 10 14 11 4 12
REMARK SMILES IDX 5 13 6 14 7 15 10 16 9 17 8 18 15 20 24 21 16 22 22 23 17 24
REMARK SMILES IDX 20 25 25 26 23 28 18 30 19 31 21 33 27 35
REMARK H PARENT 8 19 25 27 23 29 19 32 21 34 27 36
REMARK Flexibility Score: inf
ROOT
ATOM      1  C   UNL     1     116.962 -46.709  31.500  1.00  0.00     0.065 A 
ATOM      2  C   UNL     1     117.308 -45.520  32.153  1.00  0.00     0.208 A 
ATOM      3  O   UNL     1     116.510 -44.997  33.073  1.00  0.00    -0.463 OA
ATOM      4  C   UNL     1     115.339 -45.524  33.417  1.00  0.00     0.147 A 
ATOM      5  C   UNL     1     114.920 -46.737  32.806  1.00  0.00     0.066 A 
ATOM      6  C   UNL     1     115.757 -47.339  31.850  1.00  0.00     0.200 A 
ATOM      7  O   UNL     1     115.425 -48.419  31.289  1.00  0.00    -0.288 OA
ATOM      8  C   UNL     1     113.673 -47.286  33.146  1.00  0.00     0.020 A 
ATOM      9  C   UNL     1     112.852 -46.647  34.067  1.00  0.00     0.047 A 
ATOM     10  C   UNL     1     113.234 -45.438  34.647  1.00  0.00     0.125 A 
ATOM     11  C   UNL     1     114.502 -44.863  34.360  1.00  0.00     0.069 A 
ENDROOT
BRANCH   1  12
ATOM     12  C   UNL     1     117.800 -47.210  30.393  1.00  0.00    -0.011 A 
ATOM     13  C   UNL     1     117.549 -48.461  29.808  1.00  0.00     0.013 A 
ATOM     14  C   UNL     1     118.303 -48.890  28.709  1.00  0.00     0.047 A 
ATOM     15  C   UNL     1     119.286 -48.040  28.162  1.00  0.00     0.115 A 
ATOM     16  C   UNL     1     118.817 -46.391  29.871  1.00  0.00     0.013 A 
ATOM     17  C   UNL     1     119.543 -46.801  28.750  1.00  0.00     0.047 A 
BRANCH  15  18
ATOM     18  O   UNL     1     119.997 -48.407  27.017  1.00  0.00    -0.508 OA
ATOM     19  H   UNL     1     120.588 -47.746  26.525  1.00  0.00     0.293 HD
ENDBRANCH  15  18
ENDBRANCH   1  12
BRANCH  11  20
ATOM     20  C   UNL     1     115.042 -43.681  35.170  1.00  0.00     0.188 C 
ATOM     21  C   UNL     1     114.614 -42.370  34.467  1.00  0.00     0.179 C 
ATOM     22  O   UNL     1     114.625 -43.772  36.529  1.00  0.00    -0.362 OA
ATOM     23  C   UNL     1     115.189 -41.137  35.193  1.00  0.00     0.177 C 
ATOM     24  C   UNL     1     114.533 -42.527  37.235  1.00  0.00     0.176 C 
ATOM     25  C   UNL     1     115.450 -41.408  36.690  1.00  0.00     0.177 C 
BRANCH  21  26
ATOM     26  O   UNL     1     115.075 -42.358  33.137  1.00  0.00    -0.387 OA
ATOM     27  H   UNL     1     115.432 -41.453  32.952  1.00  0.00     0.211 HD
ENDBRANCH  21  26
BRANCH  23  28
ATOM     28  O   UNL     1     114.323 -40.040  35.060  1.00  0.00    -0.387 OA
ATOM     29  H   UNL     1     113.486 -40.268  35.543  1.00  0.00     0.211 HD
ENDBRANCH  23  28
BRANCH  24  30
ATOM     30  C   UNL     1     113.060 -42.102  37.372  1.00  0.00     0.191 C 
BRANCH  30  31
ATOM     31  O   UNL     1     112.364 -43.057  38.129  1.00  0.00    -0.394 OA
ATOM     32  H   UNL     1     111.948 -42.570  38.885  1.00  0.00     0.210 HD
ENDBRANCH  30  31
ENDBRANCH  24  30
BRANCH  25  33
ATOM     33  O   UNL     1     116.785 -41.798  36.898  1.00  0.00    -0.388 OA
ATOM     34  H   UNL     1     116.924 -41.848  37.886  1.00  0.00     0.211 HD
ENDBRANCH  25  33
ENDBRANCH  11  20
BRANCH  10  35
ATOM     35  O   UNL     1     112.285 -44.803  35.469  1.00  0.00    -0.507 OA
ATOM     36  H   UNL     1     111.597 -45.287  36.030  1.00  0.00     0.293 HD
ENDBRANCH  10  35
TORSDOF 9
ENDMDL
MODEL 3
REMARK VINA RESULT:    -7.821      3.588      8.546
REMARK INTER + INTRA:         -11.445
REMARK INTER:                 -10.216
REMARK INTRA:                  -1.229
REMARK UNBOUND:                -0.881
REMARK SMILES O=c1c(-c2ccc(O)cc2)coc2c([C@@H]3O[C@H](CO)[C@@H](O)[C@H](O)[C@H]3O)c(O)ccc12
REMARK SMILES IDX 3 1 11 2 12 3 13 4 30 5 2 6 1 7 29 8 28 9 26 10 14 11 4 12
REMARK SMILES IDX 5 13 6 14 7 15 10 16 9 17 8 18 15 20 24 21 16 22 22 23 17 24
REMARK SMILES IDX 20 25 25 26 23 28 18 30 19 31 21 33 27 35
REMARK H PARENT 8 19 25 27 23 29 19 32 21 34 27 36
REMARK Flexibility Score: inf
ROOT
ATOM      1  C   UNL     1     111.919 -43.327  32.526  1.00  0.00     0.065 A 
ATOM      2  C   UNL     1     113.154 -43.950  32.316  1.00  0.00     0.208 A 
ATOM      3  O   UNL     1     113.220 -45.144  31.743  1.00  0.00    -0.463 OA
ATOM      4  C   UNL     1     112.153 -45.838  31.363  1.00  0.00     0.147 A 
ATOM      5  C   UNL     1     110.862 -45.269  31.533  1.00  0.00     0.066 A 
ATOM      6  C   UNL     1     110.755 -43.990  32.106  1.00  0.00     0.200 A 
ATOM      7  O   UNL     1     109.627 -43.447  32.268  1.00  0.00    -0.288 OA
ATOM      8  C   UNL     1     109.727 -46.007  31.156  1.00  0.00     0.020 A 
ATOM      9  C   UNL     1     109.865 -47.284  30.627  1.00  0.00     0.047 A 
ATOM     10  C   UNL     1     111.122 -47.870  30.488  1.00  0.00     0.125 A 
ATOM     11  C   UNL     1     112.300 -47.147  30.823  1.00  0.00     0.069 A 
ENDROOT
BRANCH   1  12
ATOM     12  C   UNL     1     111.855 -42.057  33.276  1.00  0.00    -0.011 A 
ATOM     13  C   UNL     1     111.737 -42.051  34.675  1.00  0.00     0.013 A 
ATOM     14  C   UNL     1     111.755 -40.841  35.378  1.00  0.00     0.047 A 
ATOM     15  C   UNL     1     111.938 -39.629  34.680  1.00  0.00     0.115 A 
ATOM     16  C   UNL     1     111.985 -40.840  32.585  1.00  0.00     0.013 A 
ATOM     17  C   UNL     1     112.043 -39.635  33.289  1.00  0.00     0.047 A 
BRANCH  15  18
ATOM     18  O   UNL     1     112.041 -38.414  35.362  1.00  0.00    -0.508 OA
ATOM     19  H   UNL     1     111.392 -37.654  35.192  1.00  0.00     0.293 HD
ENDBRANCH  15  18
ENDBRANCH   1  12
BRANCH  11  20
ATOM     20  C   UNL     1     113.689 -47.669  30.444  1.00  0.00     0.188 C 
ATOM     21  C   UNL     1     114.014 -48.890  31.338  1.00  0.00     0.179 C 
ATOM     22  O   UNL     1     113.759 -47.940  29.047  1.00  0.00    -0.362 OA
ATOM     23  C   UNL     1     115.434 -49.422  31.058  1.00  0.00     0.177 C 
ATOM     24  C   UNL     1     114.713 -48.936  28.655  1.00  0.00     0.176 C 
ATOM     25  C   UNL     1     115.906 -49.103  29.624  1.00  0.00     0.177 C 
BRANCH  21  26
ATOM     26  O   UNL     1     113.933 -48.533  32.697  1.00  0.00    -0.387 OA
ATOM     27  H   UNL     1     113.304 -47.772  32.771  1.00  0.00     0.211 HD
ENDBRANCH  21  26
BRANCH  23  28
ATOM     28  O   UNL     1     115.490 -50.808  31.272  1.00  0.00    -0.387 OA
ATOM     29  H   UNL     1     115.499 -51.242  30.379  1.00  0.00     0.211 HD
ENDBRANCH  23  28
BRANCH  24  30
ATOM     30  C   UNL     1     113.996 -50.259  28.329  1.00  0.00     0.191 C 
BRANCH  30  31
ATOM     31  O   UNL     1     112.824 -49.992  27.605  1.00  0.00    -0.394 OA
ATOM     32  H   UNL     1     113.094 -49.895  26.657  1.00  0.00     0.210 HD
ENDBRANCH  30  31
ENDBRANCH  24  30
BRANCH  25  33
ATOM     33  O   UNL     1     116.655 -47.913  29.602  1.00  0.00    -0.388 OA
ATOM     34  H   UNL     1     117.593 -48.164  29.363  1.00  0.00     0.211 HD
ENDBRANCH  25  33
ENDBRANCH  11  20
BRANCH  10  35
ATOM     35  O   UNL     1     111.154 -49.210  30.063  1.00  0.00    -0.507 OA
ATOM     36  H   UNL     1     110.671 -49.565  29.248  1.00  0.00     0.293 HD
ENDBRANCH  10  35
TORSDOF 9
ENDMDL
MODEL 4
REMARK VINA RESULT:    -7.761      1.882      3.867
REMARK INTER + INTRA:         -11.364
REMARK INTER:                 -10.325
REMARK INTRA:                  -1.038
REMARK UNBOUND:                -0.881
REMARK SMILES O=c1c(-c2ccc(O)cc2)coc2c([C@@H]3O[C@H](CO)[C@@H](O)[C@H](O)[C@H]3O)c(O)ccc12
REMARK SMILES IDX 3 1 11 2 12 3 13 4 30 5 2 6 1 7 29 8 28 9 26 10 14 11 4 12
REMARK SMILES IDX 5 13 6 14 7 15 10 16 9 17 8 18 15 20 24 21 16 22 22 23 17 24
REMARK SMILES IDX 20 25 25 26 23 28 18 30 19 31 21 33 27 35
REMARK H PARENT 8 19 25 27 23 29 19 32 21 34 27 36
REMARK Flexibility Score: inf
ROOT
ATOM      1  C   UNL     1     117.279 -45.954  32.287  1.00  0.00     0.065 A 
ATOM      2  C   UNL     1     115.937 -45.613  32.493  1.00  0.00     0.208 A 
ATOM      3  O   UNL     1     115.581 -44.863  33.527  1.00  0.00    -0.463 OA
ATOM      4  C   UNL     1     116.436 -44.416  34.440  1.00  0.00     0.147 A 
ATOM      5  C   UNL     1     117.819 -44.710  34.296  1.00  0.00     0.066 A 
ATOM      6  C   UNL     1     118.238 -45.474  33.193  1.00  0.00     0.200 A 
ATOM      7  O   UNL     1     119.457 -45.752  33.026  1.00  0.00    -0.288 OA
ATOM      8  C   UNL     1     118.725 -44.262  35.271  1.00  0.00     0.020 A 
ATOM      9  C   UNL     1     118.275 -43.541  36.370  1.00  0.00     0.047 A 
ATOM     10  C   UNL     1     116.917 -43.275  36.543  1.00  0.00     0.125 A 
ATOM     11  C   UNL     1     115.968 -43.679  35.565  1.00  0.00     0.069 A 
ENDROOT
BRANCH   1  12
ATOM     12  C   UNL     1     117.641 -46.889  31.204  1.00  0.00    -0.011 A 
ATOM     13  C   UNL     1     118.284 -46.431  30.042  1.00  0.00     0.013 A 
ATOM     14  C   UNL     1     118.691 -47.340  29.058  1.00  0.00     0.047 A 
ATOM     15  C   UNL     1     118.494 -48.722  29.258  1.00  0.00     0.115 A 
ATOM     16  C   UNL     1     117.404 -48.264  31.370  1.00  0.00     0.013 A 
ATOM     17  C   UNL     1     117.844 -49.174  30.407  1.00  0.00     0.047 A 
BRANCH  15  18
ATOM     18  O   UNL     1     118.961 -49.657  28.331  1.00  0.00    -0.508 OA
ATOM     19  H   UNL     1     119.948 -49.738  28.111  1.00  0.00     0.293 HD
ENDBRANCH  15  18
ENDBRANCH   1  12
BRANCH  11  20
ATOM     20  C   UNL     1     114.520 -43.182  35.608  1.00  0.00     0.188 C 
ATOM     21  C   UNL     1     113.860 -43.709  36.905  1.00  0.00     0.179 C 
ATOM     22  O   UNL     1     114.472 -41.765  35.468  1.00  0.00    -0.362 OA
ATOM     23  C   UNL     1     112.374 -43.305  36.976  1.00  0.00     0.177 C 
ATOM     24  C   UNL     1     113.333 -41.121  36.056  1.00  0.00     0.176 C 
ATOM     25  C   UNL     1     112.079 -42.017  36.179  1.00  0.00     0.177 C 
BRANCH  21  26
ATOM     26  O   UNL     1     113.941 -45.113  36.958  1.00  0.00    -0.387 OA
ATOM     27  H   UNL     1     113.170 -45.477  36.454  1.00  0.00     0.211 HD
ENDBRANCH  21  26
BRANCH  23  28
ATOM     28  O   UNL     1     111.975 -43.130  38.311  1.00  0.00    -0.387 OA
ATOM     29  H   UNL     1     111.824 -42.157  38.446  1.00  0.00     0.211 HD
ENDBRANCH  23  28
BRANCH  24  30
ATOM     30  C   UNL     1     113.732 -40.440  37.378  1.00  0.00     0.191 C 
BRANCH  30  31
ATOM     31  O   UNL     1     115.104 -40.144  37.358  1.00  0.00    -0.394 OA
ATOM     32  H   UNL     1     115.469 -40.440  38.230  1.00  0.00     0.210 HD
ENDBRANCH  30  31
ENDBRANCH  24  30
BRANCH  25  33
ATOM     33  O   UNL     1     111.637 -42.328  34.880  1.00  0.00    -0.388 OA
ATOM     34  H   UNL     1     110.779 -41.837  34.738  1.00  0.00     0.211 HD
ENDBRANCH  25  33
ENDBRANCH  11  20
BRANCH  10  35
ATOM     35  O   UNL     1     116.542 -42.651  37.747  1.00  0.00    -0.507 OA
ATOM     36  H   UNL     1     115.711 -42.087  37.866  1.00  0.00     0.293 HD
ENDBRANCH  10  35
TORSDOF 9
ENDMDL
MODEL 5
REMARK VINA RESULT:    -7.644      3.349      4.306
REMARK INTER + INTRA:         -11.206
REMARK INTER:                 -10.003
REMARK INTRA:                  -1.203
REMARK UNBOUND:                -0.881
REMARK SMILES O=c1c(-c2ccc(O)cc2)coc2c([C@@H]3O[C@H](CO)[C@@H](O)[C@H](O)[C@H]3O)c(O)ccc12
REMARK SMILES IDX 3 1 11 2 12 3 13 4 30 5 2 6 1 7 29 8 28 9 26 10 14 11 4 12
REMARK SMILES IDX 5 13 6 14 7 15 10 16 9 17 8 18 15 20 24 21 16 22 22 23 17 24
REMARK SMILES IDX 20 25 25 26 23 28 18 30 19 31 21 33 27 35
REMARK H PARENT 8 19 25 27 23 29 19 32 21 34 27 36
REMARK Flexibility Score: inf
ROOT
ATOM      1  C   UNL     1     112.356 -46.183  31.846  1.00  0.00     0.065 A 
ATOM      2  C   UNL     1     113.421 -45.756  32.647  1.00  0.00     0.208 A 
ATOM      3  O   UNL     1     113.325 -44.647  33.366  1.00  0.00    -0.463 OA
ATOM      4  C   UNL     1     112.256 -43.858  33.361  1.00  0.00     0.147 A 
ATOM      5  C   UNL     1     111.127 -44.227  32.581  1.00  0.00     0.066 A 
ATOM      6  C   UNL     1     111.181 -45.415  31.831  1.00  0.00     0.200 A 
ATOM      7  O   UNL     1     110.198 -45.780  31.130  1.00  0.00    -0.288 OA
ATOM      8  C   UNL     1     110.004 -43.384  32.551  1.00  0.00     0.020 A 
ATOM      9  C   UNL     1     109.996 -42.198  33.273  1.00  0.00     0.047 A 
ATOM     10  C   UNL     1     111.110 -41.805  34.015  1.00  0.00     0.125 A 
ATOM     11  C   UNL     1     112.256 -42.642  34.102  1.00  0.00     0.069 A 
ENDROOT
BRANCH   1  12
ATOM     12  C   UNL     1     112.525 -47.350  30.958  1.00  0.00    -0.011 A 
ATOM     13  C   UNL     1     113.374 -47.289  29.841  1.00  0.00     0.013 A 
ATOM     14  C   UNL     1     113.584 -48.426  29.053  1.00  0.00     0.047 A 
ATOM     15  C   UNL     1     112.976 -49.647  29.411  1.00  0.00     0.115 A 
ATOM     16  C   UNL     1     111.883 -48.559  31.277  1.00  0.00     0.013 A 
ATOM     17  C   UNL     1     112.123 -49.704  30.514  1.00  0.00     0.047 A 
BRANCH  15  18
ATOM     18  O   UNL     1     113.231 -50.817  28.691  1.00  0.00    -0.508 OA
ATOM     19  H   UNL     1     112.645 -51.639  28.789  1.00  0.00     0.293 HD
ENDBRANCH  15  18
ENDBRANCH   1  12
BRANCH  11  20
ATOM     20  C   UNL     1     113.378 -42.354  35.104  1.00  0.00     0.188 C 
ATOM     21  C   UNL     1     114.356 -41.339  34.464  1.00  0.00     0.179 C 
ATOM     22  O   UNL     1     112.838 -41.930  36.352  1.00  0.00    -0.362 OA
ATOM     23  C   UNL     1     115.554 -41.059  35.394  1.00  0.00     0.177 C 
ATOM     24  C   UNL     1     113.693 -41.095  37.146  1.00  0.00     0.176 C 
ATOM     25  C   UNL     1     115.204 -41.282  36.881  1.00  0.00     0.177 C 
BRANCH  21  26
ATOM     26  O   UNL     1     114.849 -41.840  33.245  1.00  0.00    -0.387 OA
ATOM     27  H   UNL     1     115.193 -42.753  33.413  1.00  0.00     0.211 HD
ENDBRANCH  21  26
BRANCH  23  28
ATOM     28  O   UNL     1     116.020 -39.748  35.214  1.00  0.00    -0.387 OA
ATOM     29  H   UNL     1     116.015 -39.311  36.106  1.00  0.00     0.211 HD
ENDBRANCH  23  28
BRANCH  24  30
ATOM     30  C   UNL     1     113.231 -39.628  37.059  1.00  0.00     0.191 C 
BRANCH  30  31
ATOM     31  O   UNL     1     114.147 -38.807  37.733  1.00  0.00    -0.394 OA
ATOM     32  H   UNL     1     114.294 -39.217  38.622  1.00  0.00     0.210 HD
ENDBRANCH  30  31
ENDBRANCH  24  30
BRANCH  25  33
ATOM     33  O   UNL     1     115.559 -42.581  37.285  1.00  0.00    -0.388 OA
ATOM     34  H   UNL     1     116.557 -42.610  37.332  1.00  0.00     0.211 HD
ENDBRANCH  25  33
ENDBRANCH  11  20
BRANCH  10  35
ATOM     35  O   UNL     1     111.058 -40.531  34.609  1.00  0.00    -0.507 OA
ATOM     36  H   UNL     1     111.855 -40.051  35.007  1.00  0.00     0.293 HD
ENDBRANCH  10  35
TORSDOF 9
ENDMDL
MODEL 6
REMARK VINA RESULT:    -7.517      2.568      4.208
REMARK INTER + INTRA:         -11.034
REMARK INTER:                  -9.826
REMARK INTRA:                  -1.208
REMARK UNBOUND:                -0.881
REMARK SMILES O=c1c(-c2ccc(O)cc2)coc2c([C@@H]3O[C@H](CO)[C@@H](O)[C@H](O)[C@H]3O)c(O)ccc12
REMARK SMILES IDX 3 1 11 2 12 3 13 4 30 5 2 6 1 7 29 8 28 9 26 10 14 11 4 12
REMARK SMILES IDX 5 13 6 14 7 15 10 16 9 17 8 18 15 20 24 21 16 22 22 23 17 24
REMARK SMILES IDX 20 25 25 26 23 28 18 30 19 31 21 33 27 35
REMARK H PARENT 8 19 25 27 23 29 19 32 21 34 27 36
REMARK Flexibility Score: inf
ROOT
ATOM      1  C   UNL     1     114.530 -46.398  31.693  1.00  0.00     0.065 A 
ATOM      2  C   UNL     1     113.424 -45.790  32.297  1.00  0.00     0.208 A 
ATOM      3  O   UNL     1     113.586 -44.811  33.176  1.00  0.00    -0.463 OA
ATOM      4  C   UNL     1     114.774 -44.364  33.567  1.00  0.00     0.147 A 
ATOM      5  C   UNL     1     115.948 -44.923  32.993  1.00  0.00     0.066 A 
ATOM      6  C   UNL     1     115.813 -45.940  32.031  1.00  0.00     0.200 A 
ATOM      7  O   UNL     1     116.830 -46.458  31.493  1.00  0.00    -0.288 OA
ATOM      8  C   UNL     1     117.208 -44.473  33.420  1.00  0.00     0.020 A 
ATOM      9  C   UNL     1     117.308 -43.492  34.399  1.00  0.00     0.047 A 
ATOM     10  C   UNL     1     116.167 -42.960  34.998  1.00  0.00     0.125 A 
ATOM     11  C   UNL     1     114.871 -43.360  34.573  1.00  0.00     0.069 A 
ENDROOT
BRANCH   1  12
ATOM     12  C   UNL     1     114.336 -47.566  30.812  1.00  0.00    -0.011 A 
ATOM     13  C   UNL     1     114.866 -48.821  31.153  1.00  0.00     0.013 A 
ATOM     14  C   UNL     1     114.609 -49.937  30.347  1.00  0.00     0.047 A 
ATOM     15  C   UNL     1     113.778 -49.805  29.215  1.00  0.00     0.115 A 
ATOM     16  C   UNL     1     113.551 -47.435  29.653  1.00  0.00     0.013 A 
ATOM     17  C   UNL     1     113.262 -48.555  28.870  1.00  0.00     0.047 A 
BRANCH  15  18
ATOM     18  O   UNL     1     113.439 -50.916  28.438  1.00  0.00    -0.508 OA
ATOM     19  H   UNL     1     113.476 -51.857  28.814  1.00  0.00     0.293 HD
ENDBRANCH  15  18
ENDBRANCH   1  12
BRANCH  11  20
ATOM     20  C   UNL     1     113.616 -42.612  35.033  1.00  0.00     0.188 C 
ATOM     21  C   UNL     1     113.124 -43.248  36.355  1.00  0.00     0.179 C 
ATOM     22  O   UNL     1     113.871 -41.213  35.123  1.00  0.00    -0.362 OA
ATOM     23  C   UNL     1     111.816 -42.588  36.837  1.00  0.00     0.177 C 
ATOM     24  C   UNL     1     113.053 -40.492  36.054  1.00  0.00     0.176 C 
ATOM     25  C   UNL     1     111.676 -41.135  36.335  1.00  0.00     0.177 C 
BRANCH  21  26
ATOM     26  O   UNL     1     112.886 -44.624  36.174  1.00  0.00    -0.387 OA
ATOM     27  H   UNL     1     113.576 -44.968  35.553  1.00  0.00     0.211 HD
ENDBRANCH  21  26
BRANCH  23  28
ATOM     28  O   UNL     1     111.744 -42.607  38.238  1.00  0.00    -0.387 OA
ATOM     29  H   UNL     1     112.439 -41.984  38.576  1.00  0.00     0.211 HD
ENDBRANCH  23  28
BRANCH  24  30
ATOM     30  C   UNL     1     113.855 -40.176  37.330  1.00  0.00     0.191 C 
BRANCH  30  31
ATOM     31  O   UNL     1     115.091 -39.612  36.981  1.00  0.00    -0.394 OA
ATOM     32  H   UNL     1     114.932 -39.061  36.174  1.00  0.00     0.210 HD
ENDBRANCH  30  31
ENDBRANCH  24  30
BRANCH  25  33
ATOM     33  O   UNL     1     110.925 -41.092  35.146  1.00  0.00    -0.388 OA
ATOM     34  H   UNL     1     111.508 -40.678  34.448  1.00  0.00     0.211 HD
ENDBRANCH  25  33
ENDBRANCH  11  20
BRANCH  10  35
ATOM     35  O   UNL     1     116.370 -42.068  36.066  1.00  0.00    -0.507 OA
ATOM     36  H   UNL     1     115.996 -41.128  36.108  1.00  0.00     0.293 HD
ENDBRANCH  10  35
TORSDOF 9
ENDMDL
MODEL 7
REMARK VINA RESULT:    -7.424      4.214      8.242
REMARK INTER + INTRA:         -10.908
REMARK INTER:                  -9.558
REMARK INTRA:                  -1.350
REMARK UNBOUND:                -0.881
REMARK SMILES O=c1c(-c2ccc(O)cc2)coc2c([C@@H]3O[C@H](CO)[C@@H](O)[C@H](O)[C@H]3O)c(O)ccc12
REMARK SMILES IDX 3 1 11 2 12 3 13 4 30 5 2 6 1 7 29 8 28 9 26 10 14 11 4 12
REMARK SMILES IDX 5 13 6 14 7 15 10 16 9 17 8 18 15 20 24 21 16 22 22 23 17 24
REMARK SMILES IDX 20 25 25 26 23 28 18 30 19 31 21 33 27 35
REMARK H PARENT 8 19 25 27 23 29 19 32 21 34 27 36
REMARK Flexibility Score: inf
ROOT
ATOM      1  C   UNL     1     112.739 -40.689  33.505  1.00  0.00     0.065 A 
ATOM      2  C   UNL     1     111.945 -41.574  32.768  1.00  0.00     0.208 A 
ATOM      3  O   UNL     1     111.975 -42.876  33.016  1.00  0.00    -0.463 OA
ATOM      4  C   UNL     1     112.760 -43.433  33.931  1.00  0.00     0.147 A 
ATOM      5  C   UNL     1     113.590 -42.600  34.730  1.00  0.00     0.066 A 
ATOM      6  C   UNL     1     113.559 -41.210  34.519  1.00  0.00     0.200 A 
ATOM      7  O   UNL     1     114.276 -40.436  35.210  1.00  0.00    -0.288 OA
ATOM      8  C   UNL     1     114.441 -43.184  35.683  1.00  0.00     0.020 A 
ATOM      9  C   UNL     1     114.476 -44.563  35.842  1.00  0.00     0.047 A 
ATOM     10  C   UNL     1     113.694 -45.395  35.042  1.00  0.00     0.125 A 
ATOM     11  C   UNL     1     112.793 -44.848  34.088  1.00  0.00     0.069 A 
ENDROOT
BRANCH   1  12
ATOM     12  C   UNL     1     112.786 -39.260  33.135  1.00  0.00    -0.011 A 
ATOM     13  C   UNL     1     113.718 -38.790  32.195  1.00  0.00     0.013 A 
ATOM     14  C   UNL     1     113.700 -37.448  31.796  1.00  0.00     0.047 A 
ATOM     15  C   UNL     1     112.713 -36.580  32.308  1.00  0.00     0.115 A 
ATOM     16  C   UNL     1     111.839 -38.375  33.677  1.00  0.00     0.013 A 
ATOM     17  C   UNL     1     111.795 -37.046  33.250  1.00  0.00     0.047 A 
BRANCH  15  18
ATOM     18  O   UNL     1     112.620 -35.258  31.867  1.00  0.00    -0.508 OA
ATOM     19  H   UNL     1     111.741 -34.754  31.881  1.00  0.00     0.293 HD
ENDBRANCH  15  18
ENDBRANCH   1  12
BRANCH  11  20
ATOM     20  C   UNL     1     111.751 -45.722  33.384  1.00  0.00     0.188 C 
ATOM     21  C   UNL     1     112.358 -46.231  32.054  1.00  0.00     0.179 C 
ATOM     22  O   UNL     1     111.299 -46.759  34.250  1.00  0.00    -0.362 OA
ATOM     23  C   UNL     1     111.332 -47.061  31.257  1.00  0.00     0.177 C 
ATOM     24  C   UNL     1     110.818 -47.944  33.600  1.00  0.00     0.176 C 
ATOM     25  C   UNL     1     110.276 -47.720  32.170  1.00  0.00     0.177 C 
BRANCH  21  26
ATOM     26  O   UNL     1     112.766 -45.145  31.258  1.00  0.00    -0.387 OA
ATOM     27  H   UNL     1     111.972 -44.576  31.097  1.00  0.00     0.211 HD
ENDBRANCH  21  26
BRANCH  23  28
ATOM     28  O   UNL     1     111.981 -48.051  30.502  1.00  0.00    -0.387 OA
ATOM     29  H   UNL     1     112.885 -48.171  30.894  1.00  0.00     0.211 HD
ENDBRANCH  23  28
BRANCH  24  30
ATOM     30  C   UNL     1     111.872 -49.063  33.689  1.00  0.00     0.191 C 
BRANCH  30  31
ATOM     31  O   UNL     1     111.556 -50.079  32.775  1.00  0.00    -0.394 OA
ATOM     32  H   UNL     1     112.372 -50.631  32.672  1.00  0.00     0.210 HD
ENDBRANCH  30  31
ENDBRANCH  24  30
BRANCH  25  33
ATOM     33  O   UNL     1     109.127 -46.914  32.261  1.00  0.00    -0.388 OA
ATOM     34  H   UNL     1     109.141 -46.487  33.164  1.00  0.00     0.211 HD
ENDBRANCH  25  33
ENDBRANCH  11  20
BRANCH  10  35
ATOM     35  O   UNL     1     113.890 -46.780  35.187  1.00  0.00    -0.507 OA
ATOM     36  H   UNL     1     113.430 -47.355  35.881  1.00  0.00     0.293 HD
ENDBRANCH  10  35
TORSDOF 9
ENDMDL
MODEL 8
REMARK VINA RESULT:    -7.339      5.757      9.258
REMARK INTER + INTRA:         -10.794
REMARK INTER:                  -9.370
REMARK INTRA:                  -1.424
REMARK UNBOUND:                -0.881
REMARK SMILES O=c1c(-c2ccc(O)cc2)coc2c([C@@H]3O[C@H](CO)[C@@H](O)[C@H](O)[C@H]3O)c(O)ccc12
REMARK SMILES IDX 3 1 11 2 12 3 13 4 30 5 2 6 1 7 29 8 28 9 26 10 14 11 4 12
REMARK SMILES IDX 5 13 6 14 7 15 10 16 9 17 8 18 15 20 24 21 16 22 22 23 17 24
REMARK SMILES IDX 20 25 25 26 23 28 18 30 19 31 21 33 27 35
REMARK H PARENT 8 19 25 27 23 29 19 32 21 34 27 36
REMARK Flexibility Score: inf
ROOT
ATOM      1  C   UNL     1     110.437 -38.489  32.807  1.00  0.00     0.065 A 
ATOM      2  C   UNL     1     111.386 -39.424  32.381  1.00  0.00     0.208 A 
ATOM      3  O   UNL     1     112.190 -40.018  33.253  1.00  0.00    -0.463 OA
ATOM      4  C   UNL     1     112.181 -39.757  34.556  1.00  0.00     0.147 A 
ATOM      5  C   UNL     1     111.239 -38.825  35.069  1.00  0.00     0.066 A 
ATOM      6  C   UNL     1     110.348 -38.202  34.178  1.00  0.00     0.200 A 
ATOM      7  O   UNL     1     109.492 -37.374  34.594  1.00  0.00    -0.288 OA
ATOM      8  C   UNL     1     111.241 -38.526  36.442  1.00  0.00     0.020 A 
ATOM      9  C   UNL     1     112.159 -39.131  37.291  1.00  0.00     0.047 A 
ATOM     10  C   UNL     1     113.113 -40.019  36.796  1.00  0.00     0.125 A 
ATOM     11  C   UNL     1     113.126 -40.378  35.421  1.00  0.00     0.069 A 
ENDROOT
BRANCH   1  12
ATOM     12  C   UNL     1     109.637 -37.749  31.811  1.00  0.00    -0.011 A 
ATOM     13  C   UNL     1     110.115 -36.555  31.246  1.00  0.00     0.013 A 
ATOM     14  C   UNL     1     109.381 -35.905  30.247  1.00  0.00     0.047 A 
ATOM     15  C   UNL     1     108.181 -36.478  29.777  1.00  0.00     0.115 A 
ATOM     16  C   UNL     1     108.414 -38.284  31.371  1.00  0.00     0.013 A 
ATOM     17  C   UNL     1     107.701 -37.657  30.347  1.00  0.00     0.047 A 
BRANCH  15  18
ATOM     18  O   UNL     1     107.469 -35.895  28.725  1.00  0.00    -0.508 OA
ATOM     19  H   UNL     1     107.933 -35.583  27.879  1.00  0.00     0.293 HD
ENDBRANCH  15  18
ENDBRANCH   1  12
BRANCH  11  20
ATOM     20  C   UNL     1     113.992 -41.533  34.908  1.00  0.00     0.188 C 
ATOM     21  C   UNL     1     115.416 -40.991  34.631  1.00  0.00     0.179 C 
ATOM     22  O   UNL     1     113.956 -42.629  35.818  1.00  0.00    -0.362 OA
ATOM     23  C   UNL     1     116.323 -42.089  34.041  1.00  0.00     0.177 C 
ATOM     24  C   UNL     1     115.105 -43.487  35.801  1.00  0.00     0.176 C 
ATOM     25  C   UNL     1     115.876 -43.505  34.461  1.00  0.00     0.177 C 
BRANCH  21  26
ATOM     26  O   UNL     1     115.361 -39.922  33.718  1.00  0.00    -0.387 OA
ATOM     27  H   UNL     1     114.412 -39.654  33.626  1.00  0.00     0.211 HD
ENDBRANCH  21  26
BRANCH  23  28
ATOM     28  O   UNL     1     117.657 -41.885  34.428  1.00  0.00    -0.387 OA
ATOM     29  H   UNL     1     117.782 -40.906  34.539  1.00  0.00     0.211 HD
ENDBRANCH  23  28
BRANCH  24  30
ATOM     30  C   UNL     1     116.000 -43.200  37.020  1.00  0.00     0.191 C 
BRANCH  30  31
ATOM     31  O   UNL     1     115.203 -43.067  38.167  1.00  0.00    -0.394 OA
ATOM     32  H   UNL     1     115.038 -43.984  38.504  1.00  0.00     0.210 HD
ENDBRANCH  30  31
ENDBRANCH  24  30
BRANCH  25  33
ATOM     33  O   UNL     1     115.038 -44.071  33.484  1.00  0.00    -0.388 OA
ATOM     34  H   UNL     1     114.357 -43.379  33.247  1.00  0.00     0.211 HD
ENDBRANCH  25  33
ENDBRANCH  11  20
BRANCH  10  35
ATOM     35  O   UNL     1     114.079 -40.483  37.707  1.00  0.00    -0.507 OA
ATOM     36  H   UNL     1     114.984 -40.054  37.851  1.00  0.00     0.293 HD
ENDBRANCH  10  35
TORSDOF 9
ENDMDL
MODEL 9
REMARK VINA RESULT:    -7.309      4.072      5.668
REMARK INTER + INTRA:         -10.754
REMARK INTER:                  -9.347
REMARK INTRA:                  -1.407
REMARK UNBOUND:                -0.881
REMARK SMILES O=c1c(-c2ccc(O)cc2)coc2c([C@@H]3O[C@H](CO)[C@@H](O)[C@H](O)[C@H]3O)c(O)ccc12
REMARK SMILES IDX 3 1 11 2 12 3 13 4 30 5 2 6 1 7 29 8 28 9 26 10 14 11 4 12
REMARK SMILES IDX 5 13 6 14 7 15 10 16 9 17 8 18 15 20 24 21 16 22 22 23 17 24
REMARK SMILES IDX 20 25 25 26 23 28 18 30 19 31 21 33 27 35
REMARK H PARENT 8 19 25 27 23 29 19 32 21 34 27 36
REMARK Flexibility Score: inf
ROOT
ATOM      1  C   UNL     1     111.720 -47.649  33.485  1.00  0.00     0.065 A 
ATOM      2  C   UNL     1     112.740 -47.320  34.386  1.00  0.00     0.208 A 
ATOM      3  O   UNL     1     113.277 -46.108  34.387  1.00  0.00    -0.463 OA
ATOM      4  C   UNL     1     112.926 -45.148  33.539  1.00  0.00     0.147 A 
ATOM      5  C   UNL     1     111.891 -45.399  32.599  1.00  0.00     0.066 A 
ATOM      6  C   UNL     1     111.274 -46.663  32.592  1.00  0.00     0.200 A 
ATOM      7  O   UNL     1     110.347 -46.923  31.777  1.00  0.00    -0.288 OA
ATOM      8  C   UNL     1     111.532 -44.397  31.682  1.00  0.00     0.020 A 
ATOM      9  C   UNL     1     112.186 -43.171  31.691  1.00  0.00     0.047 A 
ATOM     10  C   UNL     1     113.228 -42.923  32.583  1.00  0.00     0.125 A 
ATOM     11  C   UNL     1     113.602 -43.895  33.550  1.00  0.00     0.069 A 
ENDROOT
BRANCH   1  12
ATOM     12  C   UNL     1     111.220 -49.036  33.415  1.00  0.00    -0.011 A 
ATOM     13  C   UNL     1     110.071 -49.424  34.122  1.00  0.00     0.013 A 
ATOM     14  C   UNL     1     109.564 -50.722  33.985  1.00  0.00     0.047 A 
ATOM     15  C   UNL     1     110.186 -51.625  33.099  1.00  0.00     0.115 A 
ATOM     16  C   UNL     1     111.863 -49.960  32.573  1.00  0.00     0.013 A 
ATOM     17  C   UNL     1     111.335 -51.243  32.406  1.00  0.00     0.047 A 
BRANCH  15  18
ATOM     18  O   UNL     1     109.656 -52.899  32.881  1.00  0.00    -0.508 OA
ATOM     19  H   UNL     1     110.114 -53.567  32.270  1.00  0.00     0.293 HD
ENDBRANCH  15  18
ENDBRANCH   1  12
BRANCH  11  20
ATOM     20  C   UNL     1     114.562 -43.551  34.694  1.00  0.00     0.188 C 
ATOM     21  C   UNL     1     116.010 -43.803  34.209  1.00  0.00     0.179 C 
ATOM     22  O   UNL     1     114.330 -42.226  35.162  1.00  0.00    -0.362 OA
ATOM     23  C   UNL     1     117.027 -43.546  35.339  1.00  0.00     0.177 C 
ATOM     24  C   UNL     1     115.456 -41.575  35.766  1.00  0.00     0.176 C 
ATOM     25  C   UNL     1     116.502 -42.534  36.379  1.00  0.00     0.177 C 
BRANCH  21  26
ATOM     26  O   UNL     1     116.155 -45.134  33.775  1.00  0.00    -0.387 OA
ATOM     27  H   UNL     1     116.297 -45.116  32.796  1.00  0.00     0.211 HD
ENDBRANCH  21  26
BRANCH  23  28
ATOM     28  O   UNL     1     118.243 -43.085  34.810  1.00  0.00    -0.387 OA
ATOM     29  H   UNL     1     118.198 -43.204  33.825  1.00  0.00     0.211 HD
ENDBRANCH  23  28
BRANCH  24  30
ATOM     30  C   UNL     1     116.061 -40.549  34.790  1.00  0.00     0.191 C 
BRANCH  30  31
ATOM     31  O   UNL     1     115.030 -39.877  34.117  1.00  0.00    -0.394 OA
ATOM     32  H   UNL     1     114.954 -38.983  34.537  1.00  0.00     0.210 HD
ENDBRANCH  30  31
ENDBRANCH  24  30
BRANCH  25  33
ATOM     33  O   UNL     1     115.900 -43.202  37.460  1.00  0.00    -0.388 OA
ATOM     34  H   UNL     1     116.496 -43.967  37.699  1.00  0.00     0.211 HD
ENDBRANCH  25  33
ENDBRANCH  11  20
BRANCH  10  35
ATOM     35  O   UNL     1     113.914 -41.704  32.432  1.00  0.00    -0.507 OA
ATOM     36  H   UNL     1     114.827 -41.507  32.822  1.00  0.00     0.293 HD
ENDBRANCH  10  35
TORSDOF 9
ENDMDL
