MODEL 1
REMARK VINA RESULT:    -6.312      0.000      0.000
REMARK INTER + INTRA:          -7.060
REMARK INTER:                  -6.865
REMARK INTRA:                  -0.195
REMARK UNBOUND:                -0.195
REMARK SMILES CC(=O)[C@@H]1CC[C@H]2[C@H]3CC=C4C[C@@H](O)CC[C@]4(C)[C@H]3CC[C@@]12C
REMARK SMILES IDX 4 1 5 2 6 3 7 4 22 5 21 6 20 7 19 8 8 9 9 10 10 11 11 12
REMARK SMILES IDX 17 13 16 14 15 15 13 16 12 17 18 18 23 19 2 20 1 21 3 22
REMARK SMILES IDX 14 23
REMARK H PARENT 14 24
REMARK Flexibility Score: inf
ROOT
ATOM      1  C   UNL     1     141.964 136.627 146.992  1.00  0.00     0.062 C 
ATOM      2  C   UNL     1     142.338 136.688 148.469  1.00  0.00     0.012 C 
ATOM      3  C   UNL     1     141.204 135.956 149.158  1.00  0.00     0.005 C 
ATOM      4  C   UNL     1     140.872 134.788 148.221  1.00  0.00    -0.001 C 
ATOM      5  C   UNL     1     141.303 135.224 146.782  1.00  0.00    -0.020 C 
ATOM      6  C   UNL     1     140.091 135.346 145.821  1.00  0.00     0.008 C 
ATOM      7  C   UNL     1     139.128 134.140 145.833  1.00  0.00     0.005 C 
ATOM      8  C   UNL     1     139.106 133.297 147.149  1.00  0.00     0.003 C 
ATOM      9  C   UNL     1     139.435 134.189 148.367  1.00  0.00     0.000 C 
ATOM     10  C   UNL     1     138.290 135.196 148.609  1.00  0.00     0.031 C 
ATOM     11  C   UNL     1     136.938 134.533 148.598  1.00  0.00    -0.027 C 
ATOM     12  C   UNL     1     136.677 133.344 148.008  1.00  0.00    -0.065 C 
ATOM     13  C   UNL     1     137.767 132.483 147.363  1.00  0.00    -0.008 C 
ATOM     14  C   UNL     1     138.022 131.274 148.324  1.00  0.00     0.014 C 
ATOM     15  C   UNL     1     136.735 130.534 148.757  1.00  0.00     0.033 C 
ATOM     16  C   UNL     1     135.661 131.498 149.308  1.00  0.00     0.118 C 
ATOM     17  C   UNL     1     135.372 132.653 148.333  1.00  0.00     0.063 C 
ATOM     18  C   UNL     1     137.271 131.918 145.999  1.00  0.00     0.016 C 
ATOM     19  C   UNL     1     142.311 134.196 146.193  1.00  0.00     0.012 C 
ENDROOT
BRANCH   1  20
ATOM     20  C   UNL     1     143.124 136.964 146.070  1.00  0.00     0.133 C 
ATOM     21  C   UNL     1     144.534 136.961 146.581  1.00  0.00     0.088 C 
ATOM     22  O   UNL     1     142.920 137.259 144.902  1.00  0.00    -0.300 OA
ENDBRANCH   1  20
BRANCH  16  23
ATOM     23  O   UNL     1     134.479 130.801 149.615  1.00  0.00    -0.393 OA
ATOM     24  H   UNL     1     133.777 131.109 148.985  1.00  0.00     0.210 HD
ENDBRANCH  16  23
TORSDOF 2
ENDMDL
MODEL 2
REMARK VINA RESULT:    -5.938      1.545      3.249
REMARK INTER + INTRA:          -6.653
REMARK INTER:                  -6.484
REMARK INTRA:                  -0.170
REMARK UNBOUND:                -0.195
REMARK SMILES CC(=O)[C@@H]1CC[C@H]2[C@H]3CC=C4C[C@@H](O)CC[C@]4(C)[C@H]3CC[C@@]12C
REMARK SMILES IDX 4 1 5 2 6 3 7 4 22 5 21 6 20 7 19 8 8 9 9 10 10 11 11 12
REMARK SMILES IDX 17 13 16 14 15 15 13 16 12 17 18 18 23 19 2 20 1 21 3 22
REMARK SMILES IDX 14 23
REMARK H PARENT 14 24
REMARK Flexibility Score: inf
ROOT
ATOM      1  C   UNL     1     144.101 135.668 145.950  1.00  0.00     0.062 C 
ATOM      2  C   UNL     1     143.620 135.542 144.508  1.00  0.00     0.012 C 
ATOM      3  C   UNL     1     142.276 134.854 144.634  1.00  0.00     0.005 C 
ATOM      4  C   UNL     1     141.642 135.470 145.887  1.00  0.00    -0.001 C 
ATOM      5  C   UNL     1     142.817 135.958 146.798  1.00  0.00    -0.020 C 
ATOM      6  C   UNL     1     142.879 135.179 148.139  1.00  0.00     0.008 C 
ATOM      7  C   UNL     1     141.533 135.063 148.886  1.00  0.00     0.005 C 
ATOM      8  C   UNL     1     140.250 135.155 147.998  1.00  0.00     0.003 C 
ATOM      9  C   UNL     1     140.534 134.611 146.580  1.00  0.00     0.000 C 
ATOM     10  C   UNL     1     140.779 133.088 146.637  1.00  0.00     0.031 C 
ATOM     11  C   UNL     1     139.725 132.374 147.441  1.00  0.00    -0.027 C 
ATOM     12  C   UNL     1     138.942 132.967 148.372  1.00  0.00    -0.065 C 
ATOM     13  C   UNL     1     138.977 134.474 148.643  1.00  0.00    -0.008 C 
ATOM     14  C   UNL     1     137.673 135.079 148.026  1.00  0.00     0.014 C 
ATOM     15  C   UNL     1     136.379 134.340 148.442  1.00  0.00     0.033 C 
ATOM     16  C   UNL     1     136.476 132.815 148.216  1.00  0.00     0.118 C 
ATOM     17  C   UNL     1     137.731 132.215 148.876  1.00  0.00     0.063 C 
ATOM     18  C   UNL     1     138.956 134.746 150.177  1.00  0.00     0.016 C 
ATOM     19  C   UNL     1     142.661 137.475 147.103  1.00  0.00     0.012 C 
ENDROOT
BRANCH   1  20
ATOM     20  C   UNL     1     145.245 136.653 146.112  1.00  0.00     0.133 C 
ATOM     21  C   UNL     1     145.469 137.740 145.103  1.00  0.00     0.088 C 
ATOM     22  O   UNL     1     146.011 136.562 147.060  1.00  0.00    -0.300 OA
ENDBRANCH   1  20
BRANCH  16  23
ATOM     23  O   UNL     1     135.317 132.170 148.680  1.00  0.00    -0.393 OA
ATOM     24  H   UNL     1     134.556 132.486 148.126  1.00  0.00     0.210 HD
ENDBRANCH  16  23
TORSDOF 2
ENDMDL
MODEL 3
REMARK VINA RESULT:    -5.884      1.372      7.021
REMARK INTER + INTRA:          -6.594
REMARK INTER:                  -6.441
REMARK INTRA:                  -0.153
REMARK UNBOUND:                -0.195
REMARK SMILES CC(=O)[C@@H]1CC[C@H]2[C@H]3CC=C4C[C@@H](O)CC[C@]4(C)[C@H]3CC[C@@]12C
REMARK SMILES IDX 4 1 5 2 6 3 7 4 22 5 21 6 20 7 19 8 8 9 9 10 10 11 11 12
REMARK SMILES IDX 17 13 16 14 15 15 13 16 12 17 18 18 23 19 2 20 1 21 3 22
REMARK SMILES IDX 14 23
REMARK H PARENT 14 24
REMARK Flexibility Score: inf
ROOT
ATOM      1  C   UNL     1     137.593 132.679 148.881  1.00  0.00     0.062 C 
ATOM      2  C   UNL     1     137.165 133.844 149.768  1.00  0.00     0.012 C 
ATOM      3  C   UNL     1     138.330 134.809 149.682  1.00  0.00     0.005 C 
ATOM      4  C   UNL     1     138.787 134.734 148.220  1.00  0.00    -0.001 C 
ATOM      5  C   UNL     1     138.372 133.324 147.685  1.00  0.00    -0.020 C 
ATOM      6  C   UNL     1     139.603 132.451 147.322  1.00  0.00     0.008 C 
ATOM      7  C   UNL     1     140.659 133.153 146.442  1.00  0.00     0.005 C 
ATOM      8  C   UNL     1     140.704 134.712 146.542  1.00  0.00     0.003 C 
ATOM      9  C   UNL     1     140.262 135.176 147.947  1.00  0.00     0.000 C 
ATOM     10  C   UNL     1     141.312 134.755 148.997  1.00  0.00     0.031 C 
ATOM     11  C   UNL     1     142.713 135.110 148.573  1.00  0.00    -0.027 C 
ATOM     12  C   UNL     1     143.091 135.329 147.292  1.00  0.00    -0.065 C 
ATOM     13  C   UNL     1     142.096 135.338 146.127  1.00  0.00    -0.008 C 
ATOM     14  C   UNL     1     141.907 136.831 145.700  1.00  0.00     0.014 C 
ATOM     15  C   UNL     1     143.234 137.592 145.470  1.00  0.00     0.033 C 
ATOM     16  C   UNL     1     144.207 137.447 146.661  1.00  0.00     0.118 C 
ATOM     17  C   UNL     1     144.435 135.972 147.040  1.00  0.00     0.063 C 
ATOM     18  C   UNL     1     142.682 134.559 144.913  1.00  0.00     0.016 C 
ATOM     19  C   UNL     1     137.471 133.475 146.427  1.00  0.00     0.012 C 
ENDROOT
BRANCH   1  20
ATOM     20  C   UNL     1     136.441 131.760 148.509  1.00  0.00     0.133 C 
ATOM     21  C   UNL     1     136.694 130.336 148.113  1.00  0.00     0.088 C 
ATOM     22  O   UNL     1     135.292 132.177 148.511  1.00  0.00    -0.300 OA
ENDBRANCH   1  20
BRANCH  16  23
ATOM     23  O   UNL     1     145.430 138.081 146.383  1.00  0.00    -0.393 OA
ATOM     24  H   UNL     1     145.596 137.999 145.408  1.00  0.00     0.210 HD
ENDBRANCH  16  23
TORSDOF 2
ENDMDL
MODEL 4
REMARK VINA RESULT:    -5.740      2.914      8.731
REMARK INTER + INTRA:          -6.438
REMARK INTER:                  -6.243
REMARK INTRA:                  -0.194
REMARK UNBOUND:                -0.195
REMARK SMILES CC(=O)[C@@H]1CC[C@H]2[C@H]3CC=C4C[C@@H](O)CC[C@]4(C)[C@H]3CC[C@@]12C
REMARK SMILES IDX 4 1 5 2 6 3 7 4 22 5 21 6 20 7 19 8 8 9 9 10 10 11 11 12
REMARK SMILES IDX 17 13 16 14 15 15 13 16 12 17 18 18 23 19 2 20 1 21 3 22
REMARK SMILES IDX 14 23
REMARK H PARENT 14 24
REMARK Flexibility Score: inf
ROOT
ATOM      1  C   UNL     1     141.396 134.837 147.646  1.00  0.00     0.062 C 
ATOM      2  C   UNL     1     141.302 135.888 148.748  1.00  0.00     0.012 C 
ATOM      3  C   UNL     1     142.358 136.905 148.367  1.00  0.00     0.005 C 
ATOM      4  C   UNL     1     142.274 136.997 146.838  1.00  0.00    -0.001 C 
ATOM      5  C   UNL     1     141.704 135.631 146.332  1.00  0.00    -0.020 C 
ATOM      6  C   UNL     1     142.732 134.852 145.470  1.00  0.00     0.008 C 
ATOM      7  C   UNL     1     143.409 135.683 144.359  1.00  0.00     0.005 C 
ATOM      8  C   UNL     1     143.479 137.224 144.606  1.00  0.00     0.003 C 
ATOM      9  C   UNL     1     143.558 137.526 146.119  1.00  0.00     0.000 C 
ATOM     10  C   UNL     1     144.911 137.046 146.685  1.00  0.00     0.031 C 
ATOM     11  C   UNL     1     146.073 137.500 145.840  1.00  0.00    -0.027 C 
ATOM     12  C   UNL     1     145.975 137.863 144.540  1.00  0.00    -0.065 C 
ATOM     13  C   UNL     1     144.635 137.947 143.804  1.00  0.00    -0.008 C 
ATOM     14  C   UNL     1     144.302 139.467 143.634  1.00  0.00     0.014 C 
ATOM     15  C   UNL     1     145.461 140.302 143.041  1.00  0.00     0.033 C 
ATOM     16  C   UNL     1     146.790 140.079 143.795  1.00  0.00     0.118 C 
ATOM     17  C   UNL     1     147.143 138.585 143.907  1.00  0.00     0.063 C 
ATOM     18  C   UNL     1     144.761 137.320 142.383  1.00  0.00     0.016 C 
ATOM     19  C   UNL     1     140.417 135.869 145.491  1.00  0.00     0.012 C 
ENDROOT
BRANCH   1  20
ATOM     20  C   UNL     1     140.192 133.912 147.601  1.00  0.00     0.133 C 
ATOM     21  C   UNL     1     138.922 134.272 148.313  1.00  0.00     0.088 C 
ATOM     22  O   UNL     1     140.248 132.851 146.997  1.00  0.00    -0.300 OA
ENDBRANCH   1  20
BRANCH  16  23
ATOM     23  O   UNL     1     147.835 140.789 143.179  1.00  0.00    -0.393 OA
ATOM     24  H   UNL     1     147.442 141.316 142.434  1.00  0.00     0.210 HD
ENDBRANCH  16  23
TORSDOF 2
ENDMDL
MODEL 5
REMARK VINA RESULT:    -5.484      9.298     12.220
REMARK INTER + INTRA:          -6.159
REMARK INTER:                  -5.998
REMARK INTRA:                  -0.161
REMARK UNBOUND:                -0.195
REMARK SMILES CC(=O)[C@@H]1CC[C@H]2[C@H]3CC=C4C[C@@H](O)CC[C@]4(C)[C@H]3CC[C@@]12C
REMARK SMILES IDX 4 1 5 2 6 3 7 4 22 5 21 6 20 7 19 8 8 9 9 10 10 11 11 12
REMARK SMILES IDX 17 13 16 14 15 15 13 16 12 17 18 18 23 19 2 20 1 21 3 22
REMARK SMILES IDX 14 23
REMARK H PARENT 14 24
REMARK Flexibility Score: inf
ROOT
ATOM      1  C   UNL     1     136.402 140.532 139.847  1.00  0.00     0.062 C 
ATOM      2  C   UNL     1     135.600 140.648 141.138  1.00  0.00     0.012 C 
ATOM      3  C   UNL     1     136.620 141.118 142.156  1.00  0.00     0.005 C 
ATOM      4  C   UNL     1     137.499 142.115 141.389  1.00  0.00    -0.001 C 
ATOM      5  C   UNL     1     137.425 141.717 139.878  1.00  0.00    -0.020 C 
ATOM      6  C   UNL     1     138.799 141.247 139.330  1.00  0.00     0.008 C 
ATOM      7  C   UNL     1     139.983 142.180 139.660  1.00  0.00     0.005 C 
ATOM      8  C   UNL     1     139.819 143.064 140.938  1.00  0.00     0.003 C 
ATOM      9  C   UNL     1     138.928 142.351 141.979  1.00  0.00     0.000 C 
ATOM     10  C   UNL     1     139.657 141.109 142.536  1.00  0.00     0.031 C 
ATOM     11  C   UNL     1     141.071 141.420 142.952  1.00  0.00    -0.027 C 
ATOM     12  C   UNL     1     141.786 142.474 142.494  1.00  0.00    -0.065 C 
ATOM     13  C   UNL     1     141.191 143.538 141.567  1.00  0.00    -0.008 C 
ATOM     14  C   UNL     1     140.971 144.824 142.430  1.00  0.00     0.014 C 
ATOM     15  C   UNL     1     142.211 145.250 143.250  1.00  0.00     0.033 C 
ATOM     16  C   UNL     1     142.793 144.085 144.081  1.00  0.00     0.118 C 
ATOM     17  C   UNL     1     143.063 142.841 143.216  1.00  0.00     0.063 C 
ATOM     18  C   UNL     1     142.199 143.885 140.430  1.00  0.00     0.016 C 
ATOM     19  C   UNL     1     136.931 142.925 139.032  1.00  0.00     0.012 C 
ENDROOT
BRANCH   1  20
ATOM     20  C   UNL     1     135.527 140.438 138.609  1.00  0.00     0.133 C 
ATOM     21  C   UNL     1     134.043 140.634 138.703  1.00  0.00     0.088 C 
ATOM     22  O   UNL     1     136.020 140.183 137.520  1.00  0.00    -0.300 OA
ENDBRANCH   1  20
BRANCH  16  23
ATOM     23  O   UNL     1     143.963 144.488 144.748  1.00  0.00    -0.393 OA
ATOM     24  H   UNL     1     143.984 145.481 144.746  1.00  0.00     0.210 HD
ENDBRANCH  16  23
TORSDOF 2
ENDMDL
MODEL 6
REMARK VINA RESULT:    -5.429      6.540     10.580
REMARK INTER + INTRA:          -6.099
REMARK INTER:                  -5.931
REMARK INTRA:                  -0.168
REMARK UNBOUND:                -0.195
REMARK SMILES CC(=O)[C@@H]1CC[C@H]2[C@H]3CC=C4C[C@@H](O)CC[C@]4(C)[C@H]3CC[C@@]12C
REMARK SMILES IDX 4 1 5 2 6 3 7 4 22 5 21 6 20 7 19 8 8 9 9 10 10 11 11 12
REMARK SMILES IDX 17 13 16 14 15 15 13 16 12 17 18 18 23 19 2 20 1 21 3 22
REMARK SMILES IDX 14 23
REMARK H PARENT 14 24
REMARK Flexibility Score: inf
ROOT
ATOM      1  C   UNL     1     143.135 137.294 142.311  1.00  0.00     0.062 C 
ATOM      2  C   UNL     1     144.608 137.601 142.564  1.00  0.00     0.012 C 
ATOM      3  C   UNL     1     144.688 139.109 142.443  1.00  0.00     0.005 C 
ATOM      4  C   UNL     1     143.397 139.619 143.096  1.00  0.00    -0.001 C 
ATOM      5  C   UNL     1     142.340 138.472 142.969  1.00  0.00    -0.020 C 
ATOM      6  C   UNL     1     141.145 138.876 142.067  1.00  0.00     0.008 C 
ATOM      7  C   UNL     1     140.521 140.251 142.391  1.00  0.00     0.005 C 
ATOM      8  C   UNL     1     141.468 141.282 143.086  1.00  0.00     0.003 C 
ATOM      9  C   UNL     1     142.933 141.046 142.656  1.00  0.00     0.000 C 
ATOM     10  C   UNL     1     143.110 141.398 141.164  1.00  0.00     0.031 C 
ATOM     11  C   UNL     1     142.509 142.736 140.821  1.00  0.00    -0.027 C 
ATOM     12  C   UNL     1     141.548 143.350 141.550  1.00  0.00    -0.065 C 
ATOM     13  C   UNL     1     141.032 142.788 142.878  1.00  0.00    -0.008 C 
ATOM     14  C   UNL     1     141.629 143.682 144.015  1.00  0.00     0.014 C 
ATOM     15  C   UNL     1     141.430 145.200 143.792  1.00  0.00     0.033 C 
ATOM     16  C   UNL     1     141.896 145.653 142.391  1.00  0.00     0.118 C 
ATOM     17  C   UNL     1     141.259 144.808 141.273  1.00  0.00     0.063 C 
ATOM     18  C   UNL     1     139.479 142.900 142.942  1.00  0.00     0.016 C 
ATOM     19  C   UNL     1     141.802 138.086 144.377  1.00  0.00     0.012 C 
ENDROOT
BRANCH   1  20
ATOM     20  C   UNL     1     142.735 135.895 142.745  1.00  0.00     0.133 C 
ATOM     21  C   UNL     1     143.531 135.156 143.780  1.00  0.00     0.088 C 
ATOM     22  O   UNL     1     141.767 135.343 142.242  1.00  0.00    -0.300 OA
ENDBRANCH   1  20
BRANCH  16  23
ATOM     23  O   UNL     1     141.625 147.018 142.195  1.00  0.00    -0.393 OA
ATOM     24  H   UNL     1     141.013 147.095 141.417  1.00  0.00     0.210 HD
ENDBRANCH  16  23
TORSDOF 2
ENDMDL
MODEL 7
REMARK VINA RESULT:    -5.424      5.507      8.371
REMARK INTER + INTRA:          -6.094
REMARK INTER:                  -6.184
REMARK INTRA:                   0.089
REMARK UNBOUND:                -0.195
REMARK SMILES CC(=O)[C@@H]1CC[C@H]2[C@H]3CC=C4C[C@@H](O)CC[C@]4(C)[C@H]3CC[C@@]12C
REMARK SMILES IDX 4 1 5 2 6 3 7 4 22 5 21 6 20 7 19 8 8 9 9 10 10 11 11 12
REMARK SMILES IDX 17 13 16 14 15 15 13 16 12 17 18 18 23 19 2 20 1 21 3 22
REMARK SMILES IDX 14 23
REMARK H PARENT 14 24
REMARK Flexibility Score: inf
ROOT
ATOM      1  C   UNL     1     146.474 140.766 141.563  1.00  0.00     0.062 C 
ATOM      2  C   UNL     1     147.866 140.162 141.719  1.00  0.00     0.012 C 
ATOM      3  C   UNL     1     147.712 139.194 142.874  1.00  0.00     0.005 C 
ATOM      4  C   UNL     1     146.328 138.566 142.669  1.00  0.00    -0.001 C 
ATOM      5  C   UNL     1     145.473 139.601 141.865  1.00  0.00    -0.020 C 
ATOM      6  C   UNL     1     144.272 140.133 142.690  1.00  0.00     0.008 C 
ATOM      7  C   UNL     1     143.424 139.043 143.379  1.00  0.00     0.005 C 
ATOM      8  C   UNL     1     144.161 137.702 143.693  1.00  0.00     0.003 C 
ATOM      9  C   UNL     1     145.663 137.957 143.947  1.00  0.00     0.000 C 
ATOM     10  C   UNL     1     145.851 138.745 145.262  1.00  0.00     0.031 C 
ATOM     11  C   UNL     1     145.061 138.149 146.398  1.00  0.00    -0.027 C 
ATOM     12  C   UNL     1     143.982 137.347 146.240  1.00  0.00    -0.065 C 
ATOM     13  C   UNL     1     143.501 136.870 144.866  1.00  0.00    -0.008 C 
ATOM     14  C   UNL     1     143.896 135.361 144.742  1.00  0.00     0.014 C 
ATOM     15  C   UNL     1     143.468 134.499 145.953  1.00  0.00     0.033 C 
ATOM     16  C   UNL     1     143.920 135.110 147.298  1.00  0.00     0.118 C 
ATOM     17  C   UNL     1     143.479 136.577 147.439  1.00  0.00     0.063 C 
ATOM     18  C   UNL     1     141.949 136.972 144.774  1.00  0.00     0.016 C 
ATOM     19  C   UNL     1     144.939 138.949 140.557  1.00  0.00     0.012 C 
ENDROOT
BRANCH   1  20
ATOM     20  C   UNL     1     146.283 141.484 140.238  1.00  0.00     0.133 C 
ATOM     21  C   UNL     1     147.452 141.763 139.341  1.00  0.00     0.088 C 
ATOM     22  O   UNL     1     145.172 141.862 139.894  1.00  0.00    -0.300 OA
ENDBRANCH   1  20
BRANCH  16  23
ATOM     23  O   UNL     1     143.445 134.343 148.376  1.00  0.00    -0.393 OA
ATOM     24  H   UNL     1     144.031 133.546 148.459  1.00  0.00     0.210 HD
ENDBRANCH  16  23
TORSDOF 2
ENDMDL
MODEL 8
REMARK VINA RESULT:    -5.366      8.699     11.905
REMARK INTER + INTRA:          -6.031
REMARK INTER:                  -5.877
REMARK INTRA:                  -0.154
REMARK UNBOUND:                -0.195
REMARK SMILES CC(=O)[C@@H]1CC[C@H]2[C@H]3CC=C4C[C@@H](O)CC[C@]4(C)[C@H]3CC[C@@]12C
REMARK SMILES IDX 4 1 5 2 6 3 7 4 22 5 21 6 20 7 19 8 8 9 9 10 10 11 11 12
REMARK SMILES IDX 17 13 16 14 15 15 13 16 12 17 18 18 23 19 2 20 1 21 3 22
REMARK SMILES IDX 14 23
REMARK H PARENT 14 24
REMARK Flexibility Score: inf
ROOT
ATOM      1  C   UNL     1     138.968 141.898 142.635  1.00  0.00     0.062 C 
ATOM      2  C   UNL     1     139.169 143.391 142.870  1.00  0.00     0.012 C 
ATOM      3  C   UNL     1     140.667 143.578 142.748  1.00  0.00     0.005 C 
ATOM      4  C   UNL     1     141.081 142.645 141.602  1.00  0.00    -0.001 C 
ATOM      5  C   UNL     1     140.019 141.498 141.544  1.00  0.00    -0.020 C 
ATOM      6  C   UNL     1     140.634 140.114 141.881  1.00  0.00     0.008 C 
ATOM      7  C   UNL     1     141.937 139.781 141.123  1.00  0.00     0.005 C 
ATOM      8  C   UNL     1     142.778 141.007 140.640  1.00  0.00     0.003 C 
ATOM      9  C   UNL     1     142.582 142.206 141.594  1.00  0.00     0.000 C 
ATOM     10  C   UNL     1     143.217 141.898 142.967  1.00  0.00     0.031 C 
ATOM     11  C   UNL     1     144.616 141.355 142.837  1.00  0.00    -0.027 C 
ATOM     12  C   UNL     1     145.105 140.768 141.720  1.00  0.00    -0.065 C 
ATOM     13  C   UNL     1     144.309 140.681 140.415  1.00  0.00    -0.008 C 
ATOM     14  C   UNL     1     144.938 141.717 139.426  1.00  0.00     0.014 C 
ATOM     15  C   UNL     1     146.476 141.608 139.296  1.00  0.00     0.033 C 
ATOM     16  C   UNL     1     147.182 141.612 140.670  1.00  0.00     0.118 C 
ATOM     17  C   UNL     1     146.598 140.551 141.619  1.00  0.00     0.063 C 
ATOM     18  C   UNL     1     144.458 139.262 139.787  1.00  0.00     0.016 C 
ATOM     19  C   UNL     1     139.379 141.436 140.127  1.00  0.00     0.012 C 
ENDROOT
BRANCH   1  20
ATOM     20  C   UNL     1     137.525 141.530 142.338  1.00  0.00     0.133 C 
ATOM     21  C   UNL     1     137.043 140.119 142.502  1.00  0.00     0.088 C 
ATOM     22  O   UNL     1     136.739 142.380 141.943  1.00  0.00    -0.300 OA
ENDBRANCH   1  20
BRANCH  16  23
ATOM     23  O   UNL     1     148.568 141.430 140.516  1.00  0.00    -0.393 OA
ATOM     24  H   UNL     1     148.840 140.684 141.112  1.00  0.00     0.210 HD
ENDBRANCH  16  23
TORSDOF 2
ENDMDL
MODEL 9
REMARK VINA RESULT:    -5.301     10.474     11.875
REMARK INTER + INTRA:          -5.960
REMARK INTER:                  -5.768
REMARK INTRA:                  -0.193
REMARK UNBOUND:                -0.195
REMARK SMILES CC(=O)[C@@H]1CC[C@H]2[C@H]3CC=C4C[C@@H](O)CC[C@]4(C)[C@H]3CC[C@@]12C
REMARK SMILES IDX 4 1 5 2 6 3 7 4 22 5 21 6 20 7 19 8 8 9 9 10 10 11 11 12
REMARK SMILES IDX 17 13 16 14 15 15 13 16 12 17 18 18 23 19 2 20 1 21 3 22
REMARK SMILES IDX 14 23
REMARK H PARENT 14 24
REMARK Flexibility Score: inf
ROOT
ATOM      1  C   UNL     1     137.465 142.634 141.111  1.00  0.00     0.062 C 
ATOM      2  C   UNL     1     137.088 141.750 142.295  1.00  0.00     0.012 C 
ATOM      3  C   UNL     1     136.002 140.850 141.741  1.00  0.00     0.005 C 
ATOM      4  C   UNL     1     136.457 140.529 140.312  1.00  0.00    -0.001 C 
ATOM      5  C   UNL     1     137.369 141.713 139.849  1.00  0.00    -0.020 C 
ATOM      6  C   UNL     1     136.749 142.499 138.664  1.00  0.00     0.008 C 
ATOM      7  C   UNL     1     136.243 141.623 137.497  1.00  0.00     0.005 C 
ATOM      8  C   UNL     1     135.841 140.159 137.868  1.00  0.00     0.003 C 
ATOM      9  C   UNL     1     135.327 140.091 139.323  1.00  0.00     0.000 C 
ATOM     10  C   UNL     1     133.981 140.836 139.443  1.00  0.00     0.031 C 
ATOM     11  C   UNL     1     133.012 140.436 138.361  1.00  0.00    -0.027 C 
ATOM     12  C   UNL     1     133.373 139.881 137.181  1.00  0.00    -0.065 C 
ATOM     13  C   UNL     1     134.821 139.501 136.854  1.00  0.00    -0.008 C 
ATOM     14  C   UNL     1     134.913 137.941 136.936  1.00  0.00     0.014 C 
ATOM     15  C   UNL     1     133.816 137.204 136.132  1.00  0.00     0.033 C 
ATOM     16  C   UNL     1     132.399 137.720 136.464  1.00  0.00     0.118 C 
ATOM     17  C   UNL     1     132.298 139.250 136.326  1.00  0.00     0.063 C 
ATOM     18  C   UNL     1     135.175 139.930 135.399  1.00  0.00     0.016 C 
ATOM     19  C   UNL     1     138.765 141.175 139.423  1.00  0.00     0.012 C 
ENDROOT
BRANCH   1  20
ATOM     20  C   UNL     1     138.784 143.361 141.308  1.00  0.00     0.133 C 
ATOM     21  C   UNL     1     139.732 142.949 142.395  1.00  0.00     0.088 C 
ATOM     22  O   UNL     1     139.083 144.306 140.591  1.00  0.00    -0.300 OA
ENDBRANCH   1  20
BRANCH  16  23
ATOM     23  O   UNL     1     131.438 137.086 135.658  1.00  0.00    -0.393 OA
ATOM     24  H   UNL     1     131.660 137.286 134.711  1.00  0.00     0.210 HD
ENDBRANCH  16  23
TORSDOF 2
ENDMDL
